# generated using pymatgen
data_Zn12H72C130S8O39
_symmetry_space_group_name_H-M   'P 1'
_cell_length_a   42.15890000
_cell_length_b   42.15890000
_cell_length_c   52.56820000
_cell_angle_alpha   90.00000000
_cell_angle_beta   90.00000000
_cell_angle_gamma   120.00000000
_symmetry_Int_Tables_number   1
_chemical_formula_structural   Zn12H72C130S8O39
_chemical_formula_sum   'Zn72 H432 C780 S48 O234'
_cell_volume   80915.60392185
_cell_formula_units_Z   6
loop_
 _symmetry_equiv_pos_site_id
 _symmetry_equiv_pos_as_xyz
  1  'x, y, z'
loop_
 _atom_site_type_symbol
 _atom_site_label
 _atom_site_symmetry_multiplicity
 _atom_site_fract_x
 _atom_site_fract_y
 _atom_site_fract_z
 _atom_site_occupancy
 _atom_site_charge
  Zn  Zn1  1  0.623130  0.538080  0.583140  1.0  1.083
  Zn  Zn2  1  0.655570  0.610690  0.549620  1.0  1.1134
  Zn  Zn3  1  0.707740  0.581820  0.571300  1.0  1.0634
  Zn  Zn4  1  0.672940  0.615430  0.608230  1.0  1.0907
  Zn  Zn5  1  0.710730  0.736190  0.219730  1.0  1.082
  Zn  Zn6  1  0.461920  0.085050  0.583140  1.0  1.0823
  Zn  Zn7  1  0.389310  0.044880  0.549620  1.0  1.1145
  Zn  Zn8  1  0.418180  0.125920  0.571300  1.0  1.0628
  Zn  Zn9  1  0.384570  0.057510  0.608230  1.0  1.0909
  Zn  Zn10  1  0.263810  0.974540  0.219730  1.0  1.0814
  Zn  Zn11  1  0.914950  0.376870  0.583140  1.0  1.0829
  Zn  Zn12  1  0.955120  0.344430  0.549620  1.0  1.1132
  Zn  Zn13  1  0.874080  0.292260  0.571300  1.0  1.0627
  Zn  Zn14  1  0.942490  0.327060  0.608230  1.0  1.0902
  Zn  Zn15  1  0.025460  0.289270  0.219730  1.0  1.0819
  Zn  Zn16  1  0.376870  0.461920  0.083140  1.0  1.0829
  Zn  Zn17  1  0.344430  0.389310  0.049620  1.0  1.1133
  Zn  Zn18  1  0.292260  0.418180  0.071300  1.0  1.0636
  Zn  Zn19  1  0.327060  0.384570  0.108230  1.0  1.091
  Zn  Zn20  1  0.289270  0.263810  0.719730  1.0  1.0816
  Zn  Zn21  1  0.538080  0.914950  0.083140  1.0  1.0828
  Zn  Zn22  1  0.610690  0.955120  0.049620  1.0  1.1144
  Zn  Zn23  1  0.581820  0.874080  0.071300  1.0  1.0631
  Zn  Zn24  1  0.615430  0.942490  0.108230  1.0  1.0899
  Zn  Zn25  1  0.736190  0.025460  0.719730  1.0  1.0816
  Zn  Zn26  1  0.085050  0.623130  0.083140  1.0  1.0824
  Zn  Zn27  1  0.044880  0.655570  0.049620  1.0  1.1137
  Zn  Zn28  1  0.125920  0.707740  0.071300  1.0  1.0635
  Zn  Zn29  1  0.057510  0.672940  0.108230  1.0  1.0904
  Zn  Zn30  1  0.974540  0.710730  0.719730  1.0  1.0825
  Zn  Zn31  1  0.376870  0.461920  0.416860  1.0  1.0827
  Zn  Zn32  1  0.344430  0.389310  0.450380  1.0  1.1142
  Zn  Zn33  1  0.292260  0.418180  0.428700  1.0  1.0639
  Zn  Zn34  1  0.327060  0.384570  0.391770  1.0  1.0897
  Zn  Zn35  1  0.289270  0.263810  0.780270  1.0  1.0812
  Zn  Zn36  1  0.538080  0.914950  0.416860  1.0  1.0826
  Zn  Zn37  1  0.610690  0.955120  0.450380  1.0  1.1156
  Zn  Zn38  1  0.581820  0.874080  0.428700  1.0  1.0634
  Zn  Zn39  1  0.615430  0.942490  0.391770  1.0  1.0886
  Zn  Zn40  1  0.736190  0.025460  0.780270  1.0  1.0813
  Zn  Zn41  1  0.085050  0.623130  0.416860  1.0  1.0823
  Zn  Zn42  1  0.044880  0.655570  0.450380  1.0  1.1146
  Zn  Zn43  1  0.125920  0.707740  0.428700  1.0  1.0637
  Zn  Zn44  1  0.057510  0.672940  0.391770  1.0  1.0891
  Zn  Zn45  1  0.974540  0.710730  0.780270  1.0  1.0817
  Zn  Zn46  1  0.623130  0.538080  0.916860  1.0  1.0829
  Zn  Zn47  1  0.655570  0.610690  0.950380  1.0  1.1142
  Zn  Zn48  1  0.707740  0.581820  0.928700  1.0  1.0636
  Zn  Zn49  1  0.672940  0.615430  0.891770  1.0  1.0895
  Zn  Zn50  1  0.710730  0.736190  0.280270  1.0  1.082
  Zn  Zn51  1  0.461920  0.085050  0.916860  1.0  1.0821
  Zn  Zn52  1  0.389310  0.044880  0.950380  1.0  1.115
  Zn  Zn53  1  0.418180  0.125920  0.928700  1.0  1.063
  Zn  Zn54  1  0.384570  0.057510  0.891770  1.0  1.0892
  Zn  Zn55  1  0.263810  0.974540  0.280270  1.0  1.0811
  Zn  Zn56  1  0.914950  0.376870  0.916860  1.0  1.083
  Zn  Zn57  1  0.955120  0.344430  0.950380  1.0  1.1145
  Zn  Zn58  1  0.874080  0.292260  0.928700  1.0  1.063
  Zn  Zn59  1  0.942490  0.327060  0.891770  1.0  1.0887
  Zn  Zn60  1  0.025460  0.289270  0.280270  1.0  1.0817
  Zn  Zn61  1  0.746310  0.810500  0.250000  1.0  1.055
  Zn  Zn62  1  0.783960  0.760520  0.250000  1.0  1.0438
  Zn  Zn63  1  0.189500  0.935810  0.250000  1.0  1.0567
  Zn  Zn64  1  0.239480  0.023440  0.250000  1.0  1.0418
  Zn  Zn65  1  0.064190  0.253690  0.250000  1.0  1.0568
  Zn  Zn66  1  0.976560  0.216040  0.250000  1.0  1.0421
  Zn  Zn67  1  0.253690  0.189500  0.750000  1.0  1.0558
  Zn  Zn68  1  0.216040  0.239480  0.750000  1.0  1.0428
  Zn  Zn69  1  0.810500  0.064190  0.750000  1.0  1.0559
  Zn  Zn70  1  0.760520  0.976560  0.750000  1.0  1.043
  Zn  Zn71  1  0.935810  0.746310  0.750000  1.0  1.0577
  Zn  Zn72  1  0.023440  0.783960  0.750000  1.0  1.0437
  H  H73  1  0.515100  0.467600  0.542800  1.0  0.2516
  H  H74  1  0.562600  0.581500  0.492100  1.0  0.0419
  H  H75  1  0.657300  0.765500  0.154700  1.0  0.2566
  H  H76  1  0.708800  0.873600  0.203200  1.0  0.2552
  H  H77  1  0.674100  0.909900  0.163500  1.0  0.2638
  H  H78  1  0.621300  0.803200  0.113900  1.0  0.2682
  H  H79  1  0.619200  0.438300  0.591600  1.0  0.0929
  H  H80  1  0.616100  0.382300  0.584400  1.0  0.091
  H  H81  1  0.715900  0.431800  0.558200  1.0  0.0999
  H  H82  1  0.715800  0.487900  0.560900  1.0  0.0969
  H  H83  1  0.721200  0.387800  0.570700  1.0  0.0845
  H  H84  1  0.611200  0.595100  0.673200  1.0  0.0934
  H  H85  1  0.579900  0.576100  0.713300  1.0  0.1066
  H  H86  1  0.526400  0.469200  0.686000  1.0  0.11
  H  H87  1  0.561200  0.490800  0.647300  1.0  0.0988
  H  H88  1  0.720700  0.658800  0.482100  1.0  0.0974
  H  H89  1  0.754300  0.672500  0.445300  1.0  0.0707
  H  H90  1  0.794300  0.611100  0.466200  1.0  0.0883
  H  H91  1  0.763400  0.597600  0.505500  1.0  0.106
  H  H92  1  0.771500  0.670800  0.407600  1.0  0.1022
  H  H93  1  0.865400  0.687800  0.374000  1.0  0.081
  H  H94  1  0.846800  0.655000  0.448000  1.0  0.1035
  H  H95  1  0.900200  0.673600  0.450700  1.0  0.1372
  H  H96  1  0.950200  0.661700  0.452500  1.0  0.0978
  H  H97  1  0.957500  0.669200  0.377800  1.0  0.0932
  H  H98  1  0.902400  0.669500  0.376600  1.0  0.0749
  H  H99  1  0.849400  0.710500  0.345000  1.0  0.0716
  H  H100  1  0.830100  0.726600  0.308600  1.0  0.0839
  H  H101  1  0.735600  0.685400  0.338200  1.0  0.0816
  H  H102  1  0.758100  0.678500  0.376800  1.0  0.126
  H  H103  1  0.620300  0.634600  0.214800  1.0  0.0692
  H  H104  1  0.562700  0.580300  0.213400  1.0  0.1397
  H  H105  1  0.481800  0.467500  0.711400  1.0  0.0883
  H  H106  1  0.532400  0.047500  0.542800  1.0  0.2491
  H  H107  1  0.418500  0.981100  0.492100  1.0  0.0427
  H  H108  1  0.234500  0.891800  0.154700  1.0  0.2542
  H  H109  1  0.126400  0.835200  0.203200  1.0  0.254
  H  H110  1  0.090100  0.764200  0.163500  1.0  0.2633
  H  H111  1  0.196800  0.818100  0.113900  1.0  0.2656
  H  H112  1  0.561700  0.180900  0.591600  1.0  0.0909
  H  H113  1  0.617700  0.233800  0.584400  1.0  0.0897
  H  H114  1  0.568200  0.284100  0.558200  1.0  0.0987
  H  H115  1  0.512100  0.227900  0.560900  1.0  0.0953
  H  H116  1  0.612200  0.333400  0.570700  1.0  0.0865
  H  H117  1  0.404900  0.016100  0.673200  1.0  0.093
  H  H118  1  0.423900  0.003800  0.713300  1.0  0.1057
  H  H119  1  0.530800  0.057200  0.686000  1.0  0.1089
  H  H120  1  0.509200  0.070400  0.647300  1.0  0.0982
  H  H121  1  0.341200  0.061900  0.482100  1.0  0.0976
  H  H122  1  0.327500  0.081800  0.445300  1.0  0.0706
  H  H123  1  0.388900  0.183200  0.466200  1.0  0.0886
  H  H124  1  0.402400  0.165800  0.505500  1.0  0.1079
  H  H125  1  0.329200  0.100700  0.407600  1.0  0.0984
  H  H126  1  0.312200  0.177600  0.374000  1.0  0.082
  H  H127  1  0.345000  0.191800  0.448000  1.0  0.1041
  H  H128  1  0.326400  0.226600  0.450700  1.0  0.1373
  H  H129  1  0.338300  0.288500  0.452500  1.0  0.0971
  H  H130  1  0.330800  0.288300  0.377800  1.0  0.0926
  H  H131  1  0.330500  0.232900  0.376600  1.0  0.0749
  H  H132  1  0.289500  0.138900  0.345000  1.0  0.0721
  H  H133  1  0.273400  0.103500  0.308600  1.0  0.0832
  H  H134  1  0.314600  0.050200  0.338200  1.0  0.082
  H  H135  1  0.321500  0.079600  0.376800  1.0  0.126
  H  H136  1  0.365400  0.985700  0.214800  1.0  0.0696
  H  H137  1  0.419700  0.982400  0.213400  1.0  0.1406
  H  H138  1  0.532500  0.014300  0.711400  1.0  0.0893
  H  H139  1  0.952500  0.484900  0.542800  1.0  0.2509
  H  H140  1  0.018900  0.437400  0.492100  1.0  0.0425
  H  H141  1  0.108200  0.342700  0.154700  1.0  0.2552
  H  H142  1  0.164800  0.291200  0.203200  1.0  0.2526
  H  H143  1  0.235800  0.325900  0.163500  1.0  0.2618
  H  H144  1  0.181900  0.378700  0.113900  1.0  0.2673
  H  H145  1  0.819100  0.380800  0.591600  1.0  0.0916
  H  H146  1  0.766200  0.383900  0.584400  1.0  0.0922
  H  H147  1  0.715900  0.284100  0.558200  1.0  0.0998
  H  H148  1  0.772100  0.284200  0.560900  1.0  0.096
  H  H149  1  0.666667  0.278800  0.570700  1.0  0.085
  H  H150  1  0.983900  0.388800  0.673200  1.0  0.0934
  H  H151  1  0.996200  0.420100  0.713300  1.0  0.1055
  H  H152  1  0.942800  0.473600  0.686000  1.0  0.1084
  H  H153  1  0.929600  0.438800  0.647300  1.0  0.0991
  H  H154  1  0.938100  0.279300  0.482100  1.0  0.0983
  H  H155  1  0.918200  0.245700  0.445300  1.0  0.0705
  H  H156  1  0.816800  0.205700  0.466200  1.0  0.0881
  H  H157  1  0.834200  0.236600  0.505500  1.0  0.1061
  H  H158  1  0.899300  0.228500  0.407600  1.0  0.0994
  H  H159  1  0.822400  0.134600  0.374000  1.0  0.0806
  H  H160  1  0.808200  0.153200  0.448000  1.0  0.1033
  H  H161  1  0.773400  0.099800  0.450700  1.0  0.1386
  H  H162  1  0.711500  0.049800  0.452500  1.0  0.0973
  H  H163  1  0.711700  0.042500  0.377800  1.0  0.093
  H  H164  1  0.767100  0.097600  0.376600  1.0  0.0744
  H  H165  1  0.861100  0.150600  0.345000  1.0  0.0718
  H  H166  1  0.896500  0.169900  0.308600  1.0  0.0825
  H  H167  1  0.949800  0.264400  0.338200  1.0  0.0814
  H  H168  1  0.920400  0.241900  0.376800  1.0  0.1263
  H  H169  1  0.014300  0.379700  0.214800  1.0  0.069
  H  H170  1  0.017600  0.437300  0.213400  1.0  0.1422
  H  H171  1  0.985700  0.518200  0.711400  1.0  0.0884
  H  H172  1  0.484900  0.532400  0.042800  1.0  0.2519
  H  H173  1  0.437400  0.418500  0.992100  1.0  0.0421
  H  H174  1  0.342700  0.234500  0.654700  1.0  0.2564
  H  H175  1  0.291200  0.126400  0.703200  1.0  0.2555
  H  H176  1  0.325900  0.090100  0.663500  1.0  0.2641
  H  H177  1  0.378700  0.196800  0.613900  1.0  0.2673
  H  H178  1  0.380800  0.561700  0.091600  1.0  0.0923
  H  H179  1  0.383900  0.617700  0.084400  1.0  0.091
  H  H180  1  0.284100  0.568200  0.058200  1.0  0.0997
  H  H181  1  0.284200  0.512100  0.060900  1.0  0.0951
  H  H182  1  0.278800  0.612200  0.070700  1.0  0.0851
  H  H183  1  0.388800  0.404900  0.173200  1.0  0.0941
  H  H184  1  0.420100  0.423900  0.213300  1.0  0.1068
  H  H185  1  0.473600  0.530800  0.186000  1.0  0.1091
  H  H186  1  0.438800  0.509200  0.147300  1.0  0.0978
  H  H187  1  0.279300  0.341200  0.982100  1.0  0.0969
  H  H188  1  0.245700  0.327500  0.945300  1.0  0.07
  H  H189  1  0.205700  0.388900  0.966200  1.0  0.0888
  H  H190  1  0.236600  0.402400  0.005500  1.0  0.1063
  H  H191  1  0.228500  0.329200  0.907600  1.0  0.1011
  H  H192  1  0.134600  0.312200  0.874000  1.0  0.0815
  H  H193  1  0.153200  0.345000  0.948000  1.0  0.1033
  H  H194  1  0.099800  0.326400  0.950700  1.0  0.1373
  H  H195  1  0.049800  0.338300  0.952500  1.0  0.0971
  H  H196  1  0.042500  0.330800  0.877800  1.0  0.0931
  H  H197  1  0.097600  0.330500  0.876600  1.0  0.0751
  H  H198  1  0.150600  0.289500  0.845000  1.0  0.0711
  H  H199  1  0.169900  0.273400  0.808600  1.0  0.084
  H  H200  1  0.264400  0.314600  0.838200  1.0  0.0819
  H  H201  1  0.241900  0.321500  0.876800  1.0  0.1264
  H  H202  1  0.379700  0.365400  0.714800  1.0  0.0691
  H  H203  1  0.437300  0.419700  0.713400  1.0  0.1403
  H  H204  1  0.518200  0.532500  0.211400  1.0  0.0891
  H  H205  1  0.467600  0.952500  0.042800  1.0  0.2515
  H  H206  1  0.581500  0.018900  0.992100  1.0  0.044
  H  H207  1  0.765500  0.108200  0.654700  1.0  0.2551
  H  H208  1  0.873600  0.164800  0.703200  1.0  0.2518
  H  H209  1  0.909900  0.235800  0.663500  1.0  0.262
  H  H210  1  0.803200  0.181900  0.613900  1.0  0.2667
  H  H211  1  0.438300  0.819100  0.091600  1.0  0.0918
  H  H212  1  0.382300  0.766200  0.084400  1.0  0.0902
  H  H213  1  0.431800  0.715900  0.058200  1.0  0.0987
  H  H214  1  0.487900  0.772100  0.060900  1.0  0.0964
  H  H215  1  0.387800  0.666667  0.070700  1.0  0.0829
  H  H216  1  0.595100  0.983900  0.173200  1.0  0.0933
  H  H217  1  0.576100  0.996200  0.213300  1.0  0.1056
  H  H218  1  0.469200  0.942800  0.186000  1.0  0.1086
  H  H219  1  0.490800  0.929600  0.147300  1.0  0.0989
  H  H220  1  0.658800  0.938100  0.982100  1.0  0.0971
  H  H221  1  0.672500  0.918200  0.945300  1.0  0.0714
  H  H222  1  0.611100  0.816800  0.966200  1.0  0.088
  H  H223  1  0.597600  0.834200  0.005500  1.0  0.1074
  H  H224  1  0.670800  0.899300  0.907600  1.0  0.1002
  H  H225  1  0.687800  0.822400  0.874000  1.0  0.0812
  H  H226  1  0.655000  0.808200  0.948000  1.0  0.103
  H  H227  1  0.673600  0.773400  0.950700  1.0  0.138
  H  H228  1  0.661700  0.711500  0.952500  1.0  0.0974
  H  H229  1  0.669200  0.711700  0.877800  1.0  0.0928
  H  H230  1  0.669500  0.767100  0.876600  1.0  0.0753
  H  H231  1  0.710500  0.861100  0.845000  1.0  0.0722
  H  H232  1  0.726600  0.896500  0.808600  1.0  0.083
  H  H233  1  0.685400  0.949800  0.838200  1.0  0.0817
  H  H234  1  0.678500  0.920400  0.876800  1.0  0.1256
  H  H235  1  0.634600  0.014300  0.714800  1.0  0.0691
  H  H236  1  0.580300  0.017600  0.713400  1.0  0.1405
  H  H237  1  0.467500  0.985700  0.211400  1.0  0.0891
  H  H238  1  0.047500  0.515100  0.042800  1.0  0.2501
  H  H239  1  0.981100  0.562600  0.992100  1.0  0.0432
  H  H240  1  0.891800  0.657300  0.654700  1.0  0.2535
  H  H241  1  0.835200  0.708800  0.703200  1.0  0.2534
  H  H242  1  0.764200  0.674100  0.663500  1.0  0.2629
  H  H243  1  0.818100  0.621300  0.613900  1.0  0.2668
  H  H244  1  0.180900  0.619200  0.091600  1.0  0.0912
  H  H245  1  0.233800  0.616100  0.084400  1.0  0.0928
  H  H246  1  0.284100  0.715900  0.058200  1.0  0.0999
  H  H247  1  0.227900  0.715800  0.060900  1.0  0.0972
  H  H248  1  0.333400  0.721200  0.070700  1.0  0.0853
  H  H249  1  0.016100  0.611200  0.173200  1.0  0.0932
  H  H250  1  0.003800  0.579900  0.213300  1.0  0.1054
  H  H251  1  0.057200  0.526400  0.186000  1.0  0.1083
  H  H252  1  0.070400  0.561200  0.147300  1.0  0.0995
  H  H253  1  0.061900  0.720700  0.982100  1.0  0.0971
  H  H254  1  0.081800  0.754300  0.945300  1.0  0.0701
  H  H255  1  0.183200  0.794300  0.966200  1.0  0.0874
  H  H256  1  0.165800  0.763400  0.005500  1.0  0.1066
  H  H257  1  0.100700  0.771500  0.907600  1.0  0.0985
  H  H258  1  0.177600  0.865400  0.874000  1.0  0.0804
  H  H259  1  0.191800  0.846800  0.948000  1.0  0.1037
  H  H260  1  0.226600  0.900200  0.950700  1.0  0.1371
  H  H261  1  0.288500  0.950200  0.952500  1.0  0.0977
  H  H262  1  0.288300  0.957500  0.877800  1.0  0.0925
  H  H263  1  0.232900  0.902400  0.876600  1.0  0.0747
  H  H264  1  0.138900  0.849400  0.845000  1.0  0.0727
  H  H265  1  0.103500  0.830100  0.808600  1.0  0.0828
  H  H266  1  0.050200  0.735600  0.838200  1.0  0.0811
  H  H267  1  0.079600  0.758100  0.876800  1.0  0.1248
  H  H268  1  0.985700  0.620300  0.714800  1.0  0.0689
  H  H269  1  0.982400  0.562700  0.713400  1.0  0.141
  H  H270  1  0.014300  0.481800  0.211400  1.0  0.0891
  H  H271  1  0.484900  0.532400  0.457200  1.0  0.2506
  H  H272  1  0.437400  0.418500  0.507900  1.0  0.0422
  H  H273  1  0.342700  0.234500  0.845300  1.0  0.2557
  H  H274  1  0.291200  0.126400  0.796800  1.0  0.2538
  H  H275  1  0.325900  0.090100  0.836500  1.0  0.2645
  H  H276  1  0.378700  0.196800  0.886100  1.0  0.2685
  H  H277  1  0.380800  0.561700  0.408400  1.0  0.0925
  H  H278  1  0.383900  0.617700  0.415600  1.0  0.0916
  H  H279  1  0.284100  0.568200  0.441800  1.0  0.1001
  H  H280  1  0.284200  0.512100  0.439100  1.0  0.0951
  H  H281  1  0.278800  0.612200  0.429300  1.0  0.0855
  H  H282  1  0.388800  0.404900  0.326800  1.0  0.0937
  H  H283  1  0.420100  0.423900  0.286700  1.0  0.1072
  H  H284  1  0.473600  0.530800  0.314000  1.0  0.1084
  H  H285  1  0.438800  0.509200  0.352700  1.0  0.0972
  H  H286  1  0.279300  0.341200  0.517900  1.0  0.097
  H  H287  1  0.245700  0.327500  0.554700  1.0  0.0698
  H  H288  1  0.205700  0.388900  0.533800  1.0  0.0887
  H  H289  1  0.236600  0.402400  0.494500  1.0  0.1068
  H  H290  1  0.228500  0.329200  0.592400  1.0  0.1009
  H  H291  1  0.134600  0.312200  0.626000  1.0  0.0821
  H  H292  1  0.153200  0.345000  0.552000  1.0  0.1029
  H  H293  1  0.099800  0.326400  0.549300  1.0  0.1376
  H  H294  1  0.049800  0.338300  0.547500  1.0  0.098
  H  H295  1  0.042500  0.330800  0.622200  1.0  0.0927
  H  H296  1  0.097600  0.330500  0.623400  1.0  0.074
  H  H297  1  0.150600  0.289500  0.655000  1.0  0.0707
  H  H298  1  0.169900  0.273400  0.691400  1.0  0.0845
  H  H299  1  0.264400  0.314600  0.661800  1.0  0.0818
  H  H300  1  0.241900  0.321500  0.623200  1.0  0.1268
  H  H301  1  0.379700  0.365400  0.785200  1.0  0.0681
  H  H302  1  0.437300  0.419700  0.786600  1.0  0.1406
  H  H303  1  0.518200  0.532500  0.288600  1.0  0.0889
  H  H304  1  0.467600  0.952500  0.457200  1.0  0.2496
  H  H305  1  0.581500  0.018900  0.507900  1.0  0.0433
  H  H306  1  0.765500  0.108200  0.845300  1.0  0.255
  H  H307  1  0.873600  0.164800  0.796800  1.0  0.2509
  H  H308  1  0.909900  0.235800  0.836500  1.0  0.2631
  H  H309  1  0.803200  0.181900  0.886100  1.0  0.268
  H  H310  1  0.438300  0.819100  0.408400  1.0  0.0917
  H  H311  1  0.382300  0.766200  0.415600  1.0  0.0906
  H  H312  1  0.431800  0.715900  0.441800  1.0  0.0992
  H  H313  1  0.487900  0.772100  0.439100  1.0  0.096
  H  H314  1  0.387800  0.666667  0.429300  1.0  0.0831
  H  H315  1  0.595100  0.983900  0.326800  1.0  0.0934
  H  H316  1  0.576100  0.996200  0.286700  1.0  0.1069
  H  H317  1  0.469200  0.942800  0.314000  1.0  0.1082
  H  H318  1  0.490800  0.929600  0.352700  1.0  0.0993
  H  H319  1  0.658800  0.938100  0.517900  1.0  0.0972
  H  H320  1  0.672500  0.918200  0.554700  1.0  0.0708
  H  H321  1  0.611100  0.816800  0.533800  1.0  0.0879
  H  H322  1  0.597600  0.834200  0.494500  1.0  0.1073
  H  H323  1  0.670800  0.899300  0.592400  1.0  0.1003
  H  H324  1  0.687800  0.822400  0.626000  1.0  0.0809
  H  H325  1  0.655000  0.808200  0.552000  1.0  0.1028
  H  H326  1  0.673600  0.773400  0.549300  1.0  0.1385
  H  H327  1  0.661700  0.711500  0.547500  1.0  0.098
  H  H328  1  0.669200  0.711700  0.622200  1.0  0.0921
  H  H329  1  0.669500  0.767100  0.623400  1.0  0.0738
  H  H330  1  0.710500  0.861100  0.655000  1.0  0.0718
  H  H331  1  0.726600  0.896500  0.691400  1.0  0.0831
  H  H332  1  0.685400  0.949800  0.661800  1.0  0.0818
  H  H333  1  0.678500  0.920400  0.623200  1.0  0.1255
  H  H334  1  0.634600  0.014300  0.785200  1.0  0.0687
  H  H335  1  0.580300  0.017600  0.786600  1.0  0.1411
  H  H336  1  0.467500  0.985700  0.288600  1.0  0.089
  H  H337  1  0.047500  0.515100  0.457200  1.0  0.2488
  H  H338  1  0.981100  0.562600  0.507900  1.0  0.0435
  H  H339  1  0.891800  0.657300  0.845300  1.0  0.253
  H  H340  1  0.835200  0.708800  0.796800  1.0  0.2521
  H  H341  1  0.764200  0.674100  0.836500  1.0  0.2637
  H  H342  1  0.818100  0.621300  0.886100  1.0  0.267
  H  H343  1  0.180900  0.619200  0.408400  1.0  0.0911
  H  H344  1  0.233800  0.616100  0.415600  1.0  0.093
  H  H345  1  0.284100  0.715900  0.441800  1.0  0.1006
  H  H346  1  0.227900  0.715800  0.439100  1.0  0.0969
  H  H347  1  0.333400  0.721200  0.429300  1.0  0.0854
  H  H348  1  0.016100  0.611200  0.326800  1.0  0.0933
  H  H349  1  0.003800  0.579900  0.286700  1.0  0.1063
  H  H350  1  0.057200  0.526400  0.314000  1.0  0.1081
  H  H351  1  0.070400  0.561200  0.352700  1.0  0.0993
  H  H352  1  0.061900  0.720700  0.517900  1.0  0.0971
  H  H353  1  0.081800  0.754300  0.554700  1.0  0.0703
  H  H354  1  0.183200  0.794300  0.533800  1.0  0.0874
  H  H355  1  0.165800  0.763400  0.494500  1.0  0.1071
  H  H356  1  0.100700  0.771500  0.592400  1.0  0.0985
  H  H357  1  0.177600  0.865400  0.626000  1.0  0.0804
  H  H358  1  0.191800  0.846800  0.552000  1.0  0.103
  H  H359  1  0.226600  0.900200  0.549300  1.0  0.1384
  H  H360  1  0.288500  0.950200  0.547500  1.0  0.0983
  H  H361  1  0.288300  0.957500  0.622200  1.0  0.0923
  H  H362  1  0.232900  0.902400  0.623400  1.0  0.0734
  H  H363  1  0.138900  0.849400  0.655000  1.0  0.0722
  H  H364  1  0.103500  0.830100  0.691400  1.0  0.0825
  H  H365  1  0.050200  0.735600  0.661800  1.0  0.081
  H  H366  1  0.079600  0.758100  0.623200  1.0  0.1252
  H  H367  1  0.985700  0.620300  0.785200  1.0  0.0678
  H  H368  1  0.982400  0.562700  0.786600  1.0  0.1417
  H  H369  1  0.014300  0.481800  0.288600  1.0  0.0892
  H  H370  1  0.515100  0.467600  0.957200  1.0  0.2498
  H  H371  1  0.562600  0.581500  0.007900  1.0  0.0415
  H  H372  1  0.657300  0.765500  0.345300  1.0  0.2567
  H  H373  1  0.708800  0.873600  0.296800  1.0  0.2533
  H  H374  1  0.674100  0.909900  0.336500  1.0  0.2647
  H  H375  1  0.621300  0.803200  0.386100  1.0  0.2696
  H  H376  1  0.619200  0.438300  0.908400  1.0  0.0929
  H  H377  1  0.616100  0.382300  0.915600  1.0  0.0908
  H  H378  1  0.715900  0.431800  0.941800  1.0  0.1
  H  H379  1  0.715800  0.487900  0.939100  1.0  0.0964
  H  H380  1  0.721200  0.387800  0.929300  1.0  0.0846
  H  H381  1  0.611200  0.595100  0.826800  1.0  0.0934
  H  H382  1  0.579900  0.576100  0.786700  1.0  0.1077
  H  H383  1  0.526400  0.469200  0.814000  1.0  0.1091
  H  H384  1  0.561200  0.490800  0.852700  1.0  0.099
  H  H385  1  0.720700  0.658800  0.017900  1.0  0.0973
  H  H386  1  0.754300  0.672500  0.054700  1.0  0.0702
  H  H387  1  0.794300  0.611100  0.033800  1.0  0.088
  H  H388  1  0.763400  0.597600  0.994500  1.0  0.1062
  H  H389  1  0.771500  0.670800  0.092400  1.0  0.1022
  H  H390  1  0.865400  0.687800  0.126000  1.0  0.0805
  H  H391  1  0.846800  0.655000  0.052000  1.0  0.1033
  H  H392  1  0.900200  0.673600  0.049300  1.0  0.1376
  H  H393  1  0.950200  0.661700  0.047500  1.0  0.0983
  H  H394  1  0.957500  0.669200  0.122200  1.0  0.0928
  H  H395  1  0.902400  0.669500  0.123400  1.0  0.0735
  H  H396  1  0.849400  0.710500  0.155000  1.0  0.0712
  H  H397  1  0.830100  0.726600  0.191400  1.0  0.0834
  H  H398  1  0.735600  0.685400  0.161800  1.0  0.0816
  H  H399  1  0.758100  0.678500  0.123200  1.0  0.1254
  H  H400  1  0.620300  0.634600  0.285200  1.0  0.0684
  H  H401  1  0.562700  0.580300  0.286600  1.0  0.14
  H  H402  1  0.481800  0.467500  0.788600  1.0  0.0888
  H  H403  1  0.532400  0.047500  0.957200  1.0  0.2482
  H  H404  1  0.418500  0.981100  0.007900  1.0  0.043
  H  H405  1  0.234500  0.891800  0.345300  1.0  0.2532
  H  H406  1  0.126400  0.835200  0.296800  1.0  0.2525
  H  H407  1  0.090100  0.764200  0.336500  1.0  0.2639
  H  H408  1  0.196800  0.818100  0.386100  1.0  0.2663
  H  H409  1  0.561700  0.180900  0.908400  1.0  0.0912
  H  H410  1  0.617700  0.233800  0.915600  1.0  0.0897
  H  H411  1  0.568200  0.284100  0.941800  1.0  0.0992
  H  H412  1  0.512100  0.227900  0.939100  1.0  0.0949
  H  H413  1  0.612200  0.333400  0.929300  1.0  0.0866
  H  H414  1  0.404900  0.016100  0.826800  1.0  0.0929
  H  H415  1  0.423900  0.003800  0.786700  1.0  0.1059
  H  H416  1  0.530800  0.057200  0.814000  1.0  0.1082
  H  H417  1  0.509200  0.070400  0.852700  1.0  0.0976
  H  H418  1  0.341200  0.061900  0.017900  1.0  0.0977
  H  H419  1  0.327500  0.081800  0.054700  1.0  0.0705
  H  H420  1  0.388900  0.183200  0.033800  1.0  0.0884
  H  H421  1  0.402400  0.165800  0.994500  1.0  0.1082
  H  H422  1  0.329200  0.100700  0.092400  1.0  0.0984
  H  H423  1  0.312200  0.177600  0.126000  1.0  0.0818
  H  H424  1  0.345000  0.191800  0.052000  1.0  0.1032
  H  H425  1  0.326400  0.226600  0.049300  1.0  0.1375
  H  H426  1  0.338300  0.288500  0.047500  1.0  0.0981
  H  H427  1  0.330800  0.288300  0.122200  1.0  0.0921
  H  H428  1  0.330500  0.232900  0.123400  1.0  0.0739
  H  H429  1  0.289500  0.138900  0.155000  1.0  0.0711
  H  H430  1  0.273400  0.103500  0.191400  1.0  0.0832
  H  H431  1  0.314600  0.050200  0.161800  1.0  0.0819
  H  H432  1  0.321500  0.079600  0.123200  1.0  0.1256
  H  H433  1  0.365400  0.985700  0.285200  1.0  0.0682
  H  H434  1  0.419700  0.982400  0.286600  1.0  0.1408
  H  H435  1  0.532500  0.014300  0.788600  1.0  0.0897
  H  H436  1  0.952500  0.484900  0.957200  1.0  0.2497
  H  H437  1  0.018900  0.437400  0.007900  1.0  0.0422
  H  H438  1  0.108200  0.342700  0.345300  1.0  0.2543
  H  H439  1  0.164800  0.291200  0.296800  1.0  0.2525
  H  H440  1  0.235800  0.325900  0.336500  1.0  0.2624
  H  H441  1  0.181900  0.378700  0.386100  1.0  0.2682
  H  H442  1  0.819100  0.380800  0.908400  1.0  0.0918
  H  H443  1  0.766200  0.383900  0.915600  1.0  0.0926
  H  H444  1  0.715900  0.284100  0.941800  1.0  0.1002
  H  H445  1  0.772100  0.284200  0.939100  1.0  0.096
  H  H446  1  0.666667  0.278800  0.929300  1.0  0.0852
  H  H447  1  0.983900  0.388800  0.826800  1.0  0.0932
  H  H448  1  0.996200  0.420100  0.786700  1.0  0.1061
  H  H449  1  0.942800  0.473600  0.814000  1.0  0.1078
  H  H450  1  0.929600  0.438800  0.852700  1.0  0.099
  H  H451  1  0.938100  0.279300  0.017900  1.0  0.0983
  H  H452  1  0.918200  0.245700  0.054700  1.0  0.0697
  H  H453  1  0.816800  0.205700  0.033800  1.0  0.088
  H  H454  1  0.834200  0.236600  0.994500  1.0  0.1062
  H  H455  1  0.899300  0.228500  0.092400  1.0  0.0994
  H  H456  1  0.822400  0.134600  0.126000  1.0  0.0808
  H  H457  1  0.808200  0.153200  0.052000  1.0  0.1027
  H  H458  1  0.773400  0.099800  0.049300  1.0  0.1388
  H  H459  1  0.711500  0.049800  0.047500  1.0  0.0979
  H  H460  1  0.711700  0.042500  0.122200  1.0  0.0924
  H  H461  1  0.767100  0.097600  0.123400  1.0  0.0735
  H  H462  1  0.861100  0.150600  0.155000  1.0  0.0713
  H  H463  1  0.896500  0.169900  0.191400  1.0  0.0831
  H  H464  1  0.949800  0.264400  0.161800  1.0  0.0814
  H  H465  1  0.920400  0.241900  0.123200  1.0  0.1254
  H  H466  1  0.014300  0.379700  0.285200  1.0  0.0684
  H  H467  1  0.017600  0.437300  0.286600  1.0  0.1421
  H  H468  1  0.985700  0.518200  0.788600  1.0  0.0888
  H  H469  1  0.841200  0.903900  0.250000  1.0  0.0871
  H  H470  1  0.900200  0.959300  0.250000  1.0  0.1086
  H  H471  1  0.947000  0.901400  0.250000  1.0  0.1297
  H  H472  1  0.889000  0.848500  0.250000  1.0  0.09
  H  H473  1  0.995800  0.942100  0.250000  1.0  0.0912
  H  H474  1  0.096100  0.937300  0.250000  1.0  0.0871
  H  H475  1  0.040700  0.940900  0.250000  1.0  0.108
  H  H476  1  0.098600  0.045600  0.250000  1.0  0.1337
  H  H477  1  0.151500  0.040500  0.250000  1.0  0.0893
  H  H478  1  0.057900  0.053700  0.250000  1.0  0.0904
  H  H479  1  0.062700  0.158800  0.250000  1.0  0.0872
  H  H480  1  0.059100  0.099800  0.250000  1.0  0.1069
  H  H481  1  0.954400  0.053000  0.250000  1.0  0.1317
  H  H482  1  0.959500  0.111000  0.250000  1.0  0.0888
  H  H483  1  0.946300  0.004200  0.250000  1.0  0.092
  H  H484  1  0.158800  0.096100  0.750000  1.0  0.0859
  H  H485  1  0.099800  0.040700  0.750000  1.0  0.107
  H  H486  1  0.053000  0.098600  0.750000  1.0  0.1326
  H  H487  1  0.111000  0.151500  0.750000  1.0  0.0905
  H  H488  1  0.004200  0.057900  0.750000  1.0  0.0912
  H  H489  1  0.903900  0.062700  0.750000  1.0  0.0857
  H  H490  1  0.959300  0.059100  0.750000  1.0  0.1093
  H  H491  1  0.901400  0.954400  0.750000  1.0  0.1317
  H  H492  1  0.848500  0.959500  0.750000  1.0  0.089
  H  H493  1  0.942100  0.946300  0.750000  1.0  0.0913
  H  H494  1  0.937300  0.841200  0.750000  1.0  0.0877
  H  H495  1  0.940900  0.900200  0.750000  1.0  0.1065
  H  H496  1  0.045600  0.947000  0.750000  1.0  0.1334
  H  H497  1  0.040500  0.889000  0.750000  1.0  0.0885
  H  H498  1  0.053700  0.995800  0.750000  1.0  0.0935
  H  H499  1  0.569600  0.544800  0.750000  1.0  0.0984
  H  H500  1  0.455200  0.024800  0.750000  1.0  0.099
  H  H501  1  0.975200  0.430400  0.750000  1.0  0.0996
  H  H502  1  0.430400  0.455200  0.250000  1.0  0.0988
  H  H503  1  0.544800  0.975200  0.250000  1.0  0.099
  H  H504  1  0.024800  0.569600  0.250000  1.0  0.099
  C  C505  1  0.695930  0.855630  0.190520  1.0  0.0288
  C  C506  1  0.634050  0.820820  0.126750  1.0  0.047
  C  C507  1  0.584300  0.547000  0.539970  1.0  0.6694
  C  C508  1  0.551600  0.527900  0.525790  1.0  -0.0908
  C  C509  1  0.505790  0.514760  0.491820  1.0  -0.1451
  C  C510  1  0.665900  0.501300  0.575980  1.0  0.7008
  C  C511  1  0.666667  0.466400  0.574960  1.0  -0.0366
  C  C512  1  0.638900  0.437300  0.583600  1.0  -0.1537
  C  C513  1  0.638200  0.404500  0.581100  1.0  -0.1889
  C  C514  1  0.667500  0.402800  0.574160  1.0  0.0182
  C  C515  1  0.695500  0.432500  0.565300  1.0  -0.1462
  C  C516  1  0.695100  0.465800  0.566500  1.0  -0.1001
  C  C517  1  0.666900  0.366000  0.573100  1.0  0.05
  C  C518  1  0.698700  0.365400  0.572100  1.0  -0.1838
  C  C519  1  0.611900  0.558800  0.634590  1.0  0.6966
  C  C520  1  0.588600  0.545200  0.657990  1.0  -0.1337
  C  C521  1  0.594400  0.570000  0.676300  1.0  -0.0828
  C  C522  1  0.575900  0.559100  0.700040  1.0  -0.1289
  C  C523  1  0.551200  0.521300  0.702500  1.0  0.0004
  C  C524  1  0.543800  0.494300  0.683500  1.0  -0.1477
  C  C525  1  0.564100  0.507300  0.660560  1.0  -0.0633
  C  C526  1  0.718100  0.615900  0.520300  1.0  0.7417
  C  C527  1  0.739300  0.627900  0.497810  1.0  -0.0078
  C  C528  1  0.736900  0.649500  0.479700  1.0  -0.157
  C  C529  1  0.757900  0.658200  0.457690  1.0  -0.0885
  C  C530  1  0.782200  0.648500  0.452470  1.0  0.1061
  C  C531  1  0.780800  0.623100  0.470200  1.0  -0.0796
  C  C532  1  0.761200  0.613400  0.493510  1.0  -0.166
  C  C533  1  0.804000  0.659700  0.430470  1.0  0.0114
  C  C534  1  0.793600  0.670100  0.408460  1.0  -0.2402
  C  C535  1  0.816200  0.679200  0.388240  1.0  -0.0146
  C  C536  1  0.849900  0.680200  0.388500  1.0  -0.2063
  C  C537  1  0.860100  0.669400  0.411150  1.0  0.0056
  C  C538  1  0.839100  0.660500  0.432480  1.0  -0.211
  C  C539  1  0.894600  0.668900  0.412760  1.0  0.0677
  C  C540  1  0.910200  0.670000  0.435500  1.0  -0.1415
  C  C541  1  0.942000  0.665600  0.436600  1.0  -0.112
  C  C542  1  0.959800  0.667100  0.415510  1.0  -0.1153
  C  C543  1  0.945400  0.668500  0.393270  1.0  -0.1172
  C  C544  1  0.912300  0.669000  0.392700  1.0  -0.1268
  C  C545  1  0.665280  0.671700  0.581480  1.0  0.7255
  C  C546  1  0.805900  0.692000  0.365000  1.0  0.0647
  C  C547  1  0.825100  0.706400  0.344900  1.0  -0.1396
  C  C548  1  0.813700  0.716600  0.322590  1.0  -0.1095
  C  C549  1  0.782800  0.712800  0.321060  1.0  -0.0092
  C  C550  1  0.761200  0.694400  0.339900  1.0  -0.0537
  C  C551  1  0.774200  0.687300  0.362500  1.0  -0.0871
  C  C552  1  0.770900  0.727200  0.299140  1.0  0.7064
  C  C553  1  0.703900  0.796700  0.202590  1.0  0.6007
  C  C554  1  0.688300  0.814300  0.184240  1.0  -0.1725
  C  C555  1  0.671500  0.852400  0.165250  1.0  -0.1083
  C  C556  1  0.657100  0.821700  0.151270  1.0  -0.0191
  C  C557  1  0.641000  0.862000  0.132430  1.0  -0.0776
  C  C558  1  0.746500  0.625600  0.617100  1.0  0.6747
  C  C559  1  0.607300  0.625200  0.230220  1.0  -0.0917
  C  C560  1  0.573300  0.591200  0.229280  1.0  -0.1623
  C  C561  1  0.529600  0.506200  0.726890  1.0  0.0341
  C  C562  1  0.494000  0.477600  0.727060  1.0  -0.1371
  C  C563  1  0.144370  0.840300  0.190520  1.0  0.0294
  C  C564  1  0.179180  0.813230  0.126750  1.0  0.0478
  C  C565  1  0.453000  0.037300  0.539970  1.0  0.6696
  C  C566  1  0.472100  0.023700  0.525790  1.0  -0.0906
  C  C567  1  0.485240  0.991030  0.491820  1.0  -0.1442
  C  C568  1  0.498700  0.164600  0.575980  1.0  0.7015
  C  C569  1  0.533600  0.200200  0.574960  1.0  -0.0382
  C  C570  1  0.562700  0.201600  0.583600  1.0  -0.1554
  C  C571  1  0.595500  0.233700  0.581100  1.0  -0.1868
  C  C572  1  0.597200  0.264700  0.574160  1.0  0.0161
  C  C573  1  0.567500  0.263000  0.565300  1.0  -0.1467
  C  C574  1  0.534200  0.229300  0.566500  1.0  -0.0967
  C  C575  1  0.634000  0.300900  0.573100  1.0  0.0341
  C  C576  1  0.634600  0.333333  0.572100  1.0  -0.1859
  C  C577  1  0.441200  0.053100  0.634590  1.0  0.6969
  C  C578  1  0.454800  0.043400  0.657990  1.0  -0.1336
  C  C579  1  0.430000  0.024400  0.676300  1.0  -0.0824
  C  C580  1  0.440900  0.016800  0.700040  1.0  -0.1266
  C  C581  1  0.478700  0.029900  0.702500  1.0  0.0004
  C  C582  1  0.505700  0.049500  0.683500  1.0  -0.1462
  C  C583  1  0.492700  0.056800  0.660560  1.0  -0.0613
  C  C584  1  0.384100  0.102200  0.520300  1.0  0.7425
  C  C585  1  0.372100  0.111400  0.497810  1.0  -0.0064
  C  C586  1  0.350500  0.087400  0.479700  1.0  -0.1545
  C  C587  1  0.341800  0.099700  0.457690  1.0  -0.0896
  C  C588  1  0.351500  0.133700  0.452470  1.0  0.1056
  C  C589  1  0.376900  0.157700  0.470200  1.0  -0.0794
  C  C590  1  0.386600  0.147800  0.493510  1.0  -0.1681
  C  C591  1  0.340300  0.144300  0.430470  1.0  0.012
  C  C592  1  0.329900  0.123500  0.408460  1.0  -0.2391
  C  C593  1  0.320800  0.137000  0.388240  1.0  -0.0144
  C  C594  1  0.319800  0.169700  0.388500  1.0  -0.2052
  C  C595  1  0.330600  0.190700  0.411150  1.0  0.0052
  C  C596  1  0.339500  0.178600  0.432480  1.0  -0.2101
  C  C597  1  0.331100  0.225700  0.412760  1.0  0.073
  C  C598  1  0.330000  0.240200  0.435500  1.0  -0.1416
  C  C599  1  0.334400  0.276400  0.436600  1.0  -0.1129
  C  C600  1  0.332900  0.292700  0.415510  1.0  -0.1159
  C  C601  1  0.331500  0.276900  0.393270  1.0  -0.1157
  C  C602  1  0.331000  0.243300  0.392700  1.0  -0.1243
  C  C603  1  0.328300  0.993580  0.581480  1.0  0.7242
  C  C604  1  0.308000  0.113900  0.365000  1.0  0.0682
  C  C605  1  0.293600  0.118700  0.344900  1.0  -0.1422
  C  C606  1  0.283400  0.097100  0.322590  1.0  -0.1092
  C  C607  1  0.287200  0.070000  0.321060  1.0  -0.0038
  C  C608  1  0.305600  0.066800  0.339900  1.0  -0.0577
  C  C609  1  0.312700  0.086900  0.362500  1.0  -0.0889
  C  C610  1  0.272800  0.043700  0.299140  1.0  0.7067
  C  C611  1  0.203300  0.907200  0.202590  1.0  0.6018
  C  C612  1  0.185700  0.874000  0.184240  1.0  -0.1725
  C  C613  1  0.147600  0.819100  0.165250  1.0  -0.1086
  C  C614  1  0.178300  0.835400  0.151270  1.0  -0.0169
  C  C615  1  0.138000  0.779000  0.132430  1.0  -0.0773
  C  C616  1  0.374400  0.120900  0.617100  1.0  0.6741
  C  C617  1  0.374800  0.982100  0.230220  1.0  -0.0934
  C  C618  1  0.408800  0.982100  0.229280  1.0  -0.1697
  C  C619  1  0.493800  0.023400  0.726890  1.0  0.033
  C  C620  1  0.522400  0.016400  0.727060  1.0  -0.1353
  C  C621  1  0.159700  0.304070  0.190520  1.0  0.0305
  C  C622  1  0.186770  0.365950  0.126750  1.0  0.0452
  C  C623  1  0.962700  0.415700  0.539970  1.0  0.6696
  C  C624  1  0.976300  0.448400  0.525790  1.0  -0.0906
  C  C625  1  0.008970  0.494210  0.491820  1.0  -0.1452
  C  C626  1  0.835400  0.334100  0.575980  1.0  0.7028
  C  C627  1  0.799800  0.333400  0.574960  1.0  -0.0422
  C  C628  1  0.798400  0.361100  0.583600  1.0  -0.158
  C  C629  1  0.766300  0.361800  0.581100  1.0  -0.1922
  C  C630  1  0.735300  0.332500  0.574160  1.0  0.0094
  C  C631  1  0.737000  0.304500  0.565300  1.0  -0.1495
  C  C632  1  0.770700  0.304900  0.566500  1.0  -0.1037
  C  C633  1  0.699100  0.333100  0.573100  1.0  0.0453
  C  C634  1  0.666667  0.301300  0.572100  1.0  -0.1831
  C  C635  1  0.946900  0.388100  0.634590  1.0  0.697
  C  C636  1  0.956600  0.411400  0.657990  1.0  -0.134
  C  C637  1  0.975600  0.405600  0.676300  1.0  -0.0815
  C  C638  1  0.983200  0.424100  0.700040  1.0  -0.1259
  C  C639  1  0.970100  0.448800  0.702500  1.0  0.0005
  C  C640  1  0.950500  0.456200  0.683500  1.0  -0.147
  C  C641  1  0.943200  0.435900  0.660560  1.0  -0.0605
  C  C642  1  0.897800  0.281900  0.520300  1.0  0.7424
  C  C643  1  0.888600  0.260700  0.497810  1.0  -0.0073
  C  C644  1  0.912600  0.263100  0.479700  1.0  -0.1583
  C  C645  1  0.900300  0.242100  0.457690  1.0  -0.0863
  C  C646  1  0.866300  0.217800  0.452470  1.0  0.1059
  C  C647  1  0.842300  0.219200  0.470200  1.0  -0.0797
  C  C648  1  0.852200  0.238800  0.493510  1.0  -0.1666
  C  C649  1  0.855700  0.196000  0.430470  1.0  0.0111
  C  C650  1  0.876500  0.206400  0.408460  1.0  -0.239
  C  C651  1  0.863000  0.183800  0.388240  1.0  -0.0144
  C  C652  1  0.830300  0.150100  0.388500  1.0  -0.2033
  C  C653  1  0.809300  0.139900  0.411150  1.0  0.0055
  C  C654  1  0.821400  0.160900  0.432480  1.0  -0.2118
  C  C655  1  0.774300  0.105400  0.412760  1.0  0.0739
  C  C656  1  0.759800  0.089800  0.435500  1.0  -0.1402
  C  C657  1  0.723600  0.058000  0.436600  1.0  -0.1136
  C  C658  1  0.707300  0.040200  0.415510  1.0  -0.1159
  C  C659  1  0.723100  0.054600  0.393270  1.0  -0.1158
  C  C660  1  0.756700  0.087700  0.392700  1.0  -0.1248
  C  C661  1  0.006420  0.334720  0.581480  1.0  0.7272
  C  C662  1  0.886100  0.194100  0.365000  1.0  0.0665
  C  C663  1  0.881300  0.174900  0.344900  1.0  -0.1441
  C  C664  1  0.902900  0.186300  0.322590  1.0  -0.1131
  C  C665  1  0.930000  0.217200  0.321060  1.0  -0.0062
  C  C666  1  0.933200  0.238800  0.339900  1.0  -0.058
  C  C667  1  0.913100  0.225800  0.362500  1.0  -0.0914
  C  C668  1  0.956300  0.229100  0.299140  1.0  0.7068
  C  C669  1  0.092800  0.296100  0.202590  1.0  0.5994
  C  C670  1  0.126000  0.311700  0.184240  1.0  -0.1725
  C  C671  1  0.180900  0.328500  0.165250  1.0  -0.107
  C  C672  1  0.164600  0.342900  0.151270  1.0  -0.0194
  C  C673  1  0.221000  0.359000  0.132430  1.0  -0.0774
  C  C674  1  0.879100  0.253500  0.617100  1.0  0.6756
  C  C675  1  0.017900  0.392700  0.230220  1.0  -0.0927
  C  C676  1  0.017900  0.426700  0.229280  1.0  -0.1695
  C  C677  1  0.976600  0.470400  0.726890  1.0  0.0334
  C  C678  1  0.983600  0.506000  0.727060  1.0  -0.1346
  C  C679  1  0.304070  0.144370  0.690520  1.0  0.0297
  C  C680  1  0.365950  0.179180  0.626750  1.0  0.0446
  C  C681  1  0.415700  0.453000  0.039970  1.0  0.6686
  C  C682  1  0.448400  0.472100  0.025790  1.0  -0.0905
  C  C683  1  0.494210  0.485240  0.991820  1.0  -0.1454
  C  C684  1  0.334100  0.498700  0.075980  1.0  0.7014
  C  C685  1  0.333400  0.533600  0.074960  1.0  -0.0361
  C  C686  1  0.361100  0.562700  0.083600  1.0  -0.1539
  C  C687  1  0.361800  0.595500  0.081100  1.0  -0.1864
  C  C688  1  0.332500  0.597200  0.074160  1.0  0.0157
  C  C689  1  0.304500  0.567500  0.065300  1.0  -0.1482
  C  C690  1  0.304900  0.534200  0.066500  1.0  -0.1036
  C  C691  1  0.333100  0.634000  0.073100  1.0  0.0503
  C  C692  1  0.301300  0.634600  0.072100  1.0  -0.1849
  C  C693  1  0.388100  0.441200  0.134590  1.0  0.6963
  C  C694  1  0.411400  0.454800  0.157990  1.0  -0.1339
  C  C695  1  0.405600  0.430000  0.176300  1.0  -0.0847
  C  C696  1  0.424100  0.440900  0.200040  1.0  -0.1284
  C  C697  1  0.448800  0.478700  0.202500  1.0  0.0006
  C  C698  1  0.456200  0.505700  0.183500  1.0  -0.1477
  C  C699  1  0.435900  0.492700  0.160560  1.0  -0.0647
  C  C700  1  0.281900  0.384100  0.020300  1.0  0.7428
  C  C701  1  0.260700  0.372100  0.997810  1.0  -0.0086
  C  C702  1  0.263100  0.350500  0.979700  1.0  -0.1574
  C  C703  1  0.242100  0.341800  0.957690  1.0  -0.0869
  C  C704  1  0.217800  0.351500  0.952470  1.0  0.1046
  C  C705  1  0.219200  0.376900  0.970200  1.0  -0.0822
  C  C706  1  0.238800  0.386600  0.993510  1.0  -0.1686
  C  C707  1  0.196000  0.340300  0.930470  1.0  0.0117
  C  C708  1  0.206400  0.329900  0.908460  1.0  -0.24
  C  C709  1  0.183800  0.320800  0.888240  1.0  -0.0146
  C  C710  1  0.150100  0.319800  0.888500  1.0  -0.2048
  C  C711  1  0.139900  0.330600  0.911150  1.0  0.0053
  C  C712  1  0.160900  0.339500  0.932480  1.0  -0.2125
  C  C713  1  0.105400  0.331100  0.912760  1.0  0.0713
  C  C714  1  0.089800  0.330000  0.935500  1.0  -0.1415
  C  C715  1  0.058000  0.334400  0.936600  1.0  -0.1132
  C  C716  1  0.040200  0.332900  0.915510  1.0  -0.1179
  C  C717  1  0.054600  0.331500  0.893270  1.0  -0.1167
  C  C718  1  0.087700  0.331000  0.892700  1.0  -0.1257
  C  C719  1  0.334720  0.328300  0.081480  1.0  0.7248
  C  C720  1  0.194100  0.308000  0.865000  1.0  0.0636
  C  C721  1  0.174900  0.293600  0.844900  1.0  -0.1408
  C  C722  1  0.186300  0.283400  0.822590  1.0  -0.11
  C  C723  1  0.217200  0.287200  0.821060  1.0  -0.0064
  C  C724  1  0.238800  0.305600  0.839900  1.0  -0.0558
  C  C725  1  0.225800  0.312700  0.862500  1.0  -0.0872
  C  C726  1  0.229100  0.272800  0.799140  1.0  0.706
  C  C727  1  0.296100  0.203300  0.702590  1.0  0.6004
  C  C728  1  0.311700  0.185700  0.684240  1.0  -0.1723
  C  C729  1  0.328500  0.147600  0.665250  1.0  -0.1082
  C  C730  1  0.342900  0.178300  0.651270  1.0  -0.0184
  C  C731  1  0.359000  0.138000  0.632430  1.0  -0.0772
  C  C732  1  0.253500  0.374400  0.117100  1.0  0.6744
  C  C733  1  0.392700  0.374800  0.730220  1.0  -0.0932
  C  C734  1  0.426700  0.408800  0.729280  1.0  -0.1613
  C  C735  1  0.470400  0.493800  0.226890  1.0  0.0342
  C  C736  1  0.506000  0.522400  0.227060  1.0  -0.1379
  C  C737  1  0.855630  0.159700  0.690520  1.0  0.0304
  C  C738  1  0.820820  0.186770  0.626750  1.0  0.0462
  C  C739  1  0.547000  0.962700  0.039970  1.0  0.6695
  C  C740  1  0.527900  0.976300  0.025790  1.0  -0.0908
  C  C741  1  0.514760  0.008970  0.991820  1.0  -0.1435
  C  C742  1  0.501300  0.835400  0.075980  1.0  0.7011
  C  C743  1  0.466400  0.799800  0.074960  1.0  -0.0393
  C  C744  1  0.437300  0.798400  0.083600  1.0  -0.1585
  C  C745  1  0.404500  0.766300  0.081100  1.0  -0.1877
  C  C746  1  0.402800  0.735300  0.074160  1.0  0.0171
  C  C747  1  0.432500  0.737000  0.065300  1.0  -0.1433
  C  C748  1  0.465800  0.770700  0.066500  1.0  -0.0969
  C  C749  1  0.366000  0.699100  0.073100  1.0  0.0348
  C  C750  1  0.365400  0.666667  0.072100  1.0  -0.1826
  C  C751  1  0.558800  0.946900  0.134590  1.0  0.6953
  C  C752  1  0.545200  0.956600  0.157990  1.0  -0.1339
  C  C753  1  0.570000  0.975600  0.176300  1.0  -0.0809
  C  C754  1  0.559100  0.983200  0.200040  1.0  -0.127
  C  C755  1  0.521300  0.970100  0.202500  1.0  -0.0005
  C  C756  1  0.494300  0.950500  0.183500  1.0  -0.1482
  C  C757  1  0.507300  0.943200  0.160560  1.0  -0.0606
  C  C758  1  0.615900  0.897800  0.020300  1.0  0.7413
  C  C759  1  0.627900  0.888600  0.997810  1.0  -0.0067
  C  C760  1  0.649500  0.912600  0.979700  1.0  -0.1582
  C  C761  1  0.658200  0.900300  0.957690  1.0  -0.0872
  C  C762  1  0.648500  0.866300  0.952470  1.0  0.106
  C  C763  1  0.623100  0.842300  0.970200  1.0  -0.0795
  C  C764  1  0.613400  0.852200  0.993510  1.0  -0.1666
  C  C765  1  0.659700  0.855700  0.930470  1.0  0.0112
  C  C766  1  0.670100  0.876500  0.908460  1.0  -0.2397
  C  C767  1  0.679200  0.863000  0.888240  1.0  -0.0146
  C  C768  1  0.680200  0.830300  0.888500  1.0  -0.2054
  C  C769  1  0.669400  0.809300  0.911150  1.0  0.006
  C  C770  1  0.660500  0.821400  0.932480  1.0  -0.2094
  C  C771  1  0.668900  0.774300  0.912760  1.0  0.0742
  C  C772  1  0.670000  0.759800  0.935500  1.0  -0.14
  C  C773  1  0.665600  0.723600  0.936600  1.0  -0.1134
  C  C774  1  0.667100  0.707300  0.915510  1.0  -0.1158
  C  C775  1  0.668500  0.723100  0.893270  1.0  -0.1166
  C  C776  1  0.669000  0.756700  0.892700  1.0  -0.1255
  C  C777  1  0.671700  0.006420  0.081480  1.0  0.7259
  C  C778  1  0.692000  0.886100  0.865000  1.0  0.0676
  C  C779  1  0.706400  0.881300  0.844900  1.0  -0.1431
  C  C780  1  0.716600  0.902900  0.822590  1.0  -0.109
  C  C781  1  0.712800  0.930000  0.821060  1.0  -0.0042
  C  C782  1  0.694400  0.933200  0.839900  1.0  -0.0561
  C  C783  1  0.687300  0.913100  0.862500  1.0  -0.0906
  C  C784  1  0.727200  0.956300  0.799140  1.0  0.7071
  C  C785  1  0.796700  0.092800  0.702590  1.0  0.6011
  C  C786  1  0.814300  0.126000  0.684240  1.0  -0.1728
  C  C787  1  0.852400  0.180900  0.665250  1.0  -0.107
  C  C788  1  0.821700  0.164600  0.651270  1.0  -0.0182
  C  C789  1  0.862000  0.221000  0.632430  1.0  -0.0776
  C  C790  1  0.625600  0.879100  0.117100  1.0  0.6752
  C  C791  1  0.625200  0.017900  0.730220  1.0  -0.0923
  C  C792  1  0.591200  0.017900  0.729280  1.0  -0.1703
  C  C793  1  0.506200  0.976600  0.226890  1.0  0.0335
  C  C794  1  0.477600  0.983600  0.227060  1.0  -0.1343
  C  C795  1  0.840300  0.695930  0.690520  1.0  0.0283
  C  C796  1  0.813230  0.634050  0.626750  1.0  0.0483
  C  C797  1  0.037300  0.584300  0.039970  1.0  0.6703
  C  C798  1  0.023700  0.551600  0.025790  1.0  -0.0907
  C  C799  1  0.991030  0.505790  0.991820  1.0  -0.146
  C  C800  1  0.164600  0.665900  0.075980  1.0  0.7071
  C  C801  1  0.200200  0.666667  0.074960  1.0  -0.05
  C  C802  1  0.201600  0.638900  0.083600  1.0  -0.1566
  C  C803  1  0.233700  0.638200  0.081100  1.0  -0.1902
  C  C804  1  0.264700  0.667500  0.074160  1.0  0.0093
  C  C805  1  0.263000  0.695500  0.065300  1.0  -0.1514
  C  C806  1  0.229300  0.695100  0.066500  1.0  -0.1043
  C  C807  1  0.300900  0.666900  0.073100  1.0  0.0431
  C  C808  1  0.333333  0.698700  0.072100  1.0  -0.1808
  C  C809  1  0.053100  0.611900  0.134590  1.0  0.6974
  C  C810  1  0.043400  0.588600  0.157990  1.0  -0.1335
  C  C811  1  0.024400  0.594400  0.176300  1.0  -0.0826
  C  C812  1  0.016800  0.575900  0.200040  1.0  -0.1261
  C  C813  1  0.029900  0.551200  0.202500  1.0  0.0005
  C  C814  1  0.049500  0.543800  0.183500  1.0  -0.1451
  C  C815  1  0.056800  0.564100  0.160560  1.0  -0.0614
  C  C816  1  0.102200  0.718100  0.020300  1.0  0.7425
  C  C817  1  0.111400  0.739300  0.997810  1.0  -0.0066
  C  C818  1  0.087400  0.736900  0.979700  1.0  -0.1578
  C  C819  1  0.099700  0.757900  0.957690  1.0  -0.0866
  C  C820  1  0.133700  0.782200  0.952470  1.0  0.1062
  C  C821  1  0.157700  0.780800  0.970200  1.0  -0.0785
  C  C822  1  0.147800  0.761200  0.993510  1.0  -0.1666
  C  C823  1  0.144300  0.804000  0.930470  1.0  0.0117
  C  C824  1  0.123500  0.793600  0.908460  1.0  -0.239
  C  C825  1  0.137000  0.816200  0.888240  1.0  -0.0149
  C  C826  1  0.169700  0.849900  0.888500  1.0  -0.2029
  C  C827  1  0.190700  0.860100  0.911150  1.0  0.0057
  C  C828  1  0.178600  0.839100  0.932480  1.0  -0.2114
  C  C829  1  0.225700  0.894600  0.912760  1.0  0.0736
  C  C830  1  0.240200  0.910200  0.935500  1.0  -0.1409
  C  C831  1  0.276400  0.942000  0.936600  1.0  -0.1126
  C  C832  1  0.292700  0.959800  0.915510  1.0  -0.1167
  C  C833  1  0.276900  0.945400  0.893270  1.0  -0.1173
  C  C834  1  0.243300  0.912300  0.892700  1.0  -0.127
  C  C835  1  0.993580  0.665280  0.081480  1.0  0.7266
  C  C836  1  0.113900  0.805900  0.865000  1.0  0.0677
  C  C837  1  0.118700  0.825100  0.844900  1.0  -0.1435
  C  C838  1  0.097100  0.813700  0.822590  1.0  -0.1118
  C  C839  1  0.070000  0.782800  0.821060  1.0  -0.0092
  C  C840  1  0.066800  0.761200  0.839900  1.0  -0.0615
  C  C841  1  0.086900  0.774200  0.862500  1.0  -0.0913
  C  C842  1  0.043700  0.770900  0.799140  1.0  0.7065
  C  C843  1  0.907200  0.703900  0.702590  1.0  0.6004
  C  C844  1  0.874000  0.688300  0.684240  1.0  -0.1727
  C  C845  1  0.819100  0.671500  0.665250  1.0  -0.1082
  C  C846  1  0.835400  0.657100  0.651270  1.0  -0.0178
  C  C847  1  0.779000  0.641000  0.632430  1.0  -0.0775
  C  C848  1  0.120900  0.746500  0.117100  1.0  0.675
  C  C849  1  0.982100  0.607300  0.730220  1.0  -0.0927
  C  C850  1  0.982100  0.573300  0.729280  1.0  -0.1687
  C  C851  1  0.023400  0.529600  0.226890  1.0  0.0337
  C  C852  1  0.016400  0.494000  0.227060  1.0  -0.1353
  C  C853  1  0.304070  0.144370  0.809480  1.0  0.0292
  C  C854  1  0.365950  0.179180  0.873250  1.0  0.0436
  C  C855  1  0.415700  0.453000  0.460030  1.0  0.6688
  C  C856  1  0.448400  0.472100  0.474210  1.0  -0.0914
  C  C857  1  0.494210  0.485240  0.508180  1.0  -0.1452
  C  C858  1  0.334100  0.498700  0.424020  1.0  0.7013
  C  C859  1  0.333400  0.533600  0.425040  1.0  -0.036
  C  C860  1  0.361100  0.562700  0.416400  1.0  -0.1543
  C  C861  1  0.361800  0.595500  0.418900  1.0  -0.186
  C  C862  1  0.332500  0.597200  0.425840  1.0  0.0165
  C  C863  1  0.304500  0.567500  0.434700  1.0  -0.1483
  C  C864  1  0.304900  0.534200  0.433500  1.0  -0.1025
  C  C865  1  0.333100  0.634000  0.426900  1.0  0.0504
  C  C866  1  0.301300  0.634600  0.427900  1.0  -0.1853
  C  C867  1  0.388100  0.441200  0.365410  1.0  0.6976
  C  C868  1  0.411400  0.454800  0.342010  1.0  -0.1345
  C  C869  1  0.405600  0.430000  0.323700  1.0  -0.0849
  C  C870  1  0.424100  0.440900  0.299960  1.0  -0.1287
  C  C871  1  0.448800  0.478700  0.297500  1.0  0.0006
  C  C872  1  0.456200  0.505700  0.316500  1.0  -0.1478
  C  C873  1  0.435900  0.492700  0.339440  1.0  -0.0619
  C  C874  1  0.281900  0.384100  0.479700  1.0  0.7407
  C  C875  1  0.260700  0.372100  0.502190  1.0  -0.0081
  C  C876  1  0.263100  0.350500  0.520300  1.0  -0.1573
  C  C877  1  0.242100  0.341800  0.542310  1.0  -0.0862
  C  C878  1  0.217800  0.351500  0.547530  1.0  0.1045
  C  C879  1  0.219200  0.376900  0.529800  1.0  -0.0827
  C  C880  1  0.238800  0.386600  0.506490  1.0  -0.1697
  C  C881  1  0.196000  0.340300  0.569530  1.0  0.012
  C  C882  1  0.206400  0.329900  0.591540  1.0  -0.2402
  C  C883  1  0.183800  0.320800  0.611760  1.0  -0.0144
  C  C884  1  0.150100  0.319800  0.611500  1.0  -0.2057
  C  C885  1  0.139900  0.330600  0.588850  1.0  0.0053
  C  C886  1  0.160900  0.339500  0.567520  1.0  -0.2136
  C  C887  1  0.105400  0.331100  0.587240  1.0  0.0714
  C  C888  1  0.089800  0.330000  0.564500  1.0  -0.1424
  C  C889  1  0.058000  0.334400  0.563400  1.0  -0.1113
  C  C890  1  0.040200  0.332900  0.584490  1.0  -0.118
  C  C891  1  0.054600  0.331500  0.606730  1.0  -0.1181
  C  C892  1  0.087700  0.331000  0.607300  1.0  -0.1243
  C  C893  1  0.334720  0.328300  0.418520  1.0  0.7248
  C  C894  1  0.194100  0.308000  0.635000  1.0  0.0623
  C  C895  1  0.174900  0.293600  0.655100  1.0  -0.1414
  C  C896  1  0.186300  0.283400  0.677410  1.0  -0.1112
  C  C897  1  0.217200  0.287200  0.678940  1.0  -0.0056
  C  C898  1  0.238800  0.305600  0.660100  1.0  -0.0559
  C  C899  1  0.225800  0.312700  0.637500  1.0  -0.087
  C  C900  1  0.229100  0.272800  0.700860  1.0  0.7067
  C  C901  1  0.296100  0.203300  0.797410  1.0  0.6005
  C  C902  1  0.311700  0.185700  0.815760  1.0  -0.1723
  C  C903  1  0.328500  0.147600  0.834750  1.0  -0.1102
  C  C904  1  0.342900  0.178300  0.848730  1.0  -0.0188
  C  C905  1  0.359000  0.138000  0.867570  1.0  -0.077
  C  C906  1  0.253500  0.374400  0.382900  1.0  0.6744
  C  C907  1  0.392700  0.374800  0.769780  1.0  -0.0939
  C  C908  1  0.426700  0.408800  0.770720  1.0  -0.1631
  C  C909  1  0.470400  0.493800  0.273110  1.0  0.034
  C  C910  1  0.506000  0.522400  0.272940  1.0  -0.1376
  C  C911  1  0.855630  0.159700  0.809480  1.0  0.0301
  C  C912  1  0.820820  0.186770  0.873250  1.0  0.0452
  C  C913  1  0.547000  0.962700  0.460030  1.0  0.6696
  C  C914  1  0.527900  0.976300  0.474210  1.0  -0.0916
  C  C915  1  0.514760  0.008970  0.508180  1.0  -0.1434
  C  C916  1  0.501300  0.835400  0.424020  1.0  0.7011
  C  C917  1  0.466400  0.799800  0.425040  1.0  -0.0393
  C  C918  1  0.437300  0.798400  0.416400  1.0  -0.1582
  C  C919  1  0.404500  0.766300  0.418900  1.0  -0.1873
  C  C920  1  0.402800  0.735300  0.425840  1.0  0.0178
  C  C921  1  0.432500  0.737000  0.434700  1.0  -0.1431
  C  C922  1  0.465800  0.770700  0.433500  1.0  -0.0969
  C  C923  1  0.366000  0.699100  0.426900  1.0  0.035
  C  C924  1  0.365400  0.666667  0.427900  1.0  -0.1829
  C  C925  1  0.558800  0.946900  0.365410  1.0  0.6967
  C  C926  1  0.545200  0.956600  0.342010  1.0  -0.1345
  C  C927  1  0.570000  0.975600  0.323700  1.0  -0.0805
  C  C928  1  0.559100  0.983200  0.299960  1.0  -0.1273
  C  C929  1  0.521300  0.970100  0.297500  1.0  -0.0005
  C  C930  1  0.494300  0.950500  0.316500  1.0  -0.149
  C  C931  1  0.507300  0.943200  0.339440  1.0  -0.0594
  C  C932  1  0.615900  0.897800  0.479700  1.0  0.7401
  C  C933  1  0.627900  0.888600  0.502190  1.0  -0.0063
  C  C934  1  0.649500  0.912600  0.520300  1.0  -0.1578
  C  C935  1  0.658200  0.900300  0.542310  1.0  -0.0867
  C  C936  1  0.648500  0.866300  0.547530  1.0  0.1057
  C  C937  1  0.623100  0.842300  0.529800  1.0  -0.08
  C  C938  1  0.613400  0.852200  0.506490  1.0  -0.1674
  C  C939  1  0.659700  0.855700  0.569530  1.0  0.0115
  C  C940  1  0.670100  0.876500  0.591540  1.0  -0.2397
  C  C941  1  0.679200  0.863000  0.611760  1.0  -0.0144
  C  C942  1  0.680200  0.830300  0.611500  1.0  -0.2055
  C  C943  1  0.669400  0.809300  0.588850  1.0  0.006
  C  C944  1  0.660500  0.821400  0.567520  1.0  -0.2109
  C  C945  1  0.668900  0.774300  0.587240  1.0  0.0743
  C  C946  1  0.670000  0.759800  0.564500  1.0  -0.1413
  C  C947  1  0.665600  0.723600  0.563400  1.0  -0.1119
  C  C948  1  0.667100  0.707300  0.584490  1.0  -0.116
  C  C949  1  0.668500  0.723100  0.606730  1.0  -0.117
  C  C950  1  0.669000  0.756700  0.607300  1.0  -0.1233
  C  C951  1  0.671700  0.006420  0.418520  1.0  0.7257
  C  C952  1  0.692000  0.886100  0.635000  1.0  0.0662
  C  C953  1  0.706400  0.881300  0.655100  1.0  -0.1439
  C  C954  1  0.716600  0.902900  0.677410  1.0  -0.1096
  C  C955  1  0.712800  0.930000  0.678940  1.0  -0.0036
  C  C956  1  0.694400  0.933200  0.660100  1.0  -0.0565
  C  C957  1  0.687300  0.913100  0.637500  1.0  -0.0901
  C  C958  1  0.727200  0.956300  0.700860  1.0  0.7072
  C  C959  1  0.796700  0.092800  0.797410  1.0  0.6011
  C  C960  1  0.814300  0.126000  0.815760  1.0  -0.1729
  C  C961  1  0.852400  0.180900  0.834750  1.0  -0.108
  C  C962  1  0.821700  0.164600  0.848730  1.0  -0.0178
  C  C963  1  0.862000  0.221000  0.867570  1.0  -0.0773
  C  C964  1  0.625600  0.879100  0.382900  1.0  0.6754
  C  C965  1  0.625200  0.017900  0.769780  1.0  -0.0915
  C  C966  1  0.591200  0.017900  0.770720  1.0  -0.172
  C  C967  1  0.506200  0.976600  0.273110  1.0  0.0332
  C  C968  1  0.477600  0.983600  0.272940  1.0  -0.1345
  C  C969  1  0.840300  0.695930  0.809480  1.0  0.0282
  C  C970  1  0.813230  0.634050  0.873250  1.0  0.0473
  C  C971  1  0.037300  0.584300  0.460030  1.0  0.6705
  C  C972  1  0.023700  0.551600  0.474210  1.0  -0.0913
  C  C973  1  0.991030  0.505790  0.508180  1.0  -0.1458
  C  C974  1  0.164600  0.665900  0.424020  1.0  0.707
  C  C975  1  0.200200  0.666667  0.425040  1.0  -0.0498
  C  C976  1  0.201600  0.638900  0.416400  1.0  -0.1574
  C  C977  1  0.233700  0.638200  0.418900  1.0  -0.1903
  C  C978  1  0.264700  0.667500  0.425840  1.0  0.0102
  C  C979  1  0.263000  0.695500  0.434700  1.0  -0.1511
  C  C980  1  0.229300  0.695100  0.433500  1.0  -0.1051
  C  C981  1  0.300900  0.666900  0.426900  1.0  0.0433
  C  C982  1  0.333333  0.698700  0.427900  1.0  -0.1811
  C  C983  1  0.053100  0.611900  0.365410  1.0  0.698
  C  C984  1  0.043400  0.588600  0.342010  1.0  -0.1341
  C  C985  1  0.024400  0.594400  0.323700  1.0  -0.0824
  C  C986  1  0.016800  0.575900  0.299960  1.0  -0.1264
  C  C987  1  0.029900  0.551200  0.297500  1.0  0.0005
  C  C988  1  0.049500  0.543800  0.316500  1.0  -0.1461
  C  C989  1  0.056800  0.564100  0.339440  1.0  -0.0588
  C  C990  1  0.102200  0.718100  0.479700  1.0  0.7408
  C  C991  1  0.111400  0.739300  0.502190  1.0  -0.0065
  C  C992  1  0.087400  0.736900  0.520300  1.0  -0.1576
  C  C993  1  0.099700  0.757900  0.542310  1.0  -0.0858
  C  C994  1  0.133700  0.782200  0.547530  1.0  0.106
  C  C995  1  0.157700  0.780800  0.529800  1.0  -0.0787
  C  C996  1  0.147800  0.761200  0.506490  1.0  -0.1677
  C  C997  1  0.144300  0.804000  0.569530  1.0  0.0119
  C  C998  1  0.123500  0.793600  0.591540  1.0  -0.239
  C  C999  1  0.137000  0.816200  0.611760  1.0  -0.0148
  C  C1000  1  0.169700  0.849900  0.611500  1.0  -0.2036
  C  C1001  1  0.190700  0.860100  0.588850  1.0  0.0057
  C  C1002  1  0.178600  0.839100  0.567520  1.0  -0.2133
  C  C1003  1  0.225700  0.894600  0.587240  1.0  0.0735
  C  C1004  1  0.240200  0.910200  0.564500  1.0  -0.1417
  C  C1005  1  0.276400  0.942000  0.563400  1.0  -0.112
  C  C1006  1  0.292700  0.959800  0.584490  1.0  -0.1168
  C  C1007  1  0.276900  0.945400  0.606730  1.0  -0.118
  C  C1008  1  0.243300  0.912300  0.607300  1.0  -0.1247
  C  C1009  1  0.993580  0.665280  0.418520  1.0  0.7266
  C  C1010  1  0.113900  0.805900  0.635000  1.0  0.0658
  C  C1011  1  0.118700  0.825100  0.655100  1.0  -0.1437
  C  C1012  1  0.097100  0.813700  0.677410  1.0  -0.1124
  C  C1013  1  0.070000  0.782800  0.678940  1.0  -0.0081
  C  C1014  1  0.066800  0.761200  0.660100  1.0  -0.0616
  C  C1015  1  0.086900  0.774200  0.637500  1.0  -0.091
  C  C1016  1  0.043700  0.770900  0.700860  1.0  0.7064
  C  C1017  1  0.907200  0.703900  0.797410  1.0  0.6004
  C  C1018  1  0.874000  0.688300  0.815760  1.0  -0.1727
  C  C1019  1  0.819100  0.671500  0.834750  1.0  -0.1094
  C  C1020  1  0.835400  0.657100  0.848730  1.0  -0.0174
  C  C1021  1  0.779000  0.641000  0.867570  1.0  -0.0773
  C  C1022  1  0.120900  0.746500  0.382900  1.0  0.6751
  C  C1023  1  0.982100  0.607300  0.769780  1.0  -0.0929
  C  C1024  1  0.982100  0.573300  0.770720  1.0  -0.1702
  C  C1025  1  0.023400  0.529600  0.273110  1.0  0.0336
  C  C1026  1  0.016400  0.494000  0.272940  1.0  -0.135
  C  C1027  1  0.695930  0.855630  0.309480  1.0  0.0283
  C  C1028  1  0.634050  0.820820  0.373250  1.0  0.047
  C  C1029  1  0.584300  0.547000  0.960030  1.0  0.6695
  C  C1030  1  0.551600  0.527900  0.974210  1.0  -0.0917
  C  C1031  1  0.505790  0.514760  0.008180  1.0  -0.1453
  C  C1032  1  0.665900  0.501300  0.924020  1.0  0.7008
  C  C1033  1  0.666667  0.466400  0.925040  1.0  -0.0365
  C  C1034  1  0.638900  0.437300  0.916400  1.0  -0.1537
  C  C1035  1  0.638200  0.404500  0.918900  1.0  -0.1887
  C  C1036  1  0.667500  0.402800  0.925840  1.0  0.0192
  C  C1037  1  0.695500  0.432500  0.934700  1.0  -0.1466
  C  C1038  1  0.695100  0.465800  0.933500  1.0  -0.1012
  C  C1039  1  0.666900  0.366000  0.926900  1.0  0.0502
  C  C1040  1  0.698700  0.365400  0.927900  1.0  -0.1841
  C  C1041  1  0.611900  0.558800  0.865410  1.0  0.6974
  C  C1042  1  0.588600  0.545200  0.842010  1.0  -0.1343
  C  C1043  1  0.594400  0.570000  0.823700  1.0  -0.0825
  C  C1044  1  0.575900  0.559100  0.799960  1.0  -0.1295
  C  C1045  1  0.551200  0.521300  0.797500  1.0  0.0004
  C  C1046  1  0.543800  0.494300  0.816500  1.0  -0.1486
  C  C1047  1  0.564100  0.507300  0.839440  1.0  -0.0613
  C  C1048  1  0.718100  0.615900  0.979700  1.0  0.7404
  C  C1049  1  0.739300  0.627900  0.002190  1.0  -0.007
  C  C1050  1  0.736900  0.649500  0.020300  1.0  -0.1564
  C  C1051  1  0.757900  0.658200  0.042310  1.0  -0.0884
  C  C1052  1  0.782200  0.648500  0.047530  1.0  0.1061
  C  C1053  1  0.780800  0.623100  0.029800  1.0  -0.0801
  C  C1054  1  0.761200  0.613400  0.006490  1.0  -0.1669
  C  C1055  1  0.804000  0.659700  0.069530  1.0  0.0116
  C  C1056  1  0.793600  0.670100  0.091540  1.0  -0.2403
  C  C1057  1  0.816200  0.679200  0.111760  1.0  -0.0144
  C  C1058  1  0.849900  0.680200  0.111500  1.0  -0.207
  C  C1059  1  0.860100  0.669400  0.088850  1.0  0.0056
  C  C1060  1  0.839100  0.660500  0.067520  1.0  -0.2133
  C  C1061  1  0.894600  0.668900  0.087240  1.0  0.0675
  C  C1062  1  0.910200  0.670000  0.064500  1.0  -0.1428
  C  C1063  1  0.942000  0.665600  0.063400  1.0  -0.1117
  C  C1064  1  0.959800  0.667100  0.084490  1.0  -0.1154
  C  C1065  1  0.945400  0.668500  0.106730  1.0  -0.1178
  C  C1066  1  0.912300  0.669000  0.107300  1.0  -0.1253
  C  C1067  1  0.665280  0.671700  0.918520  1.0  0.7253
  C  C1068  1  0.805900  0.692000  0.135000  1.0  0.0626
  C  C1069  1  0.825100  0.706400  0.155100  1.0  -0.1404
  C  C1070  1  0.813700  0.716600  0.177410  1.0  -0.1102
  C  C1071  1  0.782800  0.712800  0.178940  1.0  -0.0086
  C  C1072  1  0.761200  0.694400  0.160100  1.0  -0.0539
  C  C1073  1  0.774200  0.687300  0.137500  1.0  -0.087
  C  C1074  1  0.770900  0.727200  0.200860  1.0  0.7063
  C  C1075  1  0.703900  0.796700  0.297410  1.0  0.6006
  C  C1076  1  0.688300  0.814300  0.315760  1.0  -0.1726
  C  C1077  1  0.671500  0.852400  0.334750  1.0  -0.1095
  C  C1078  1  0.657100  0.821700  0.348730  1.0  -0.0186
  C  C1079  1  0.641000  0.862000  0.367570  1.0  -0.0775
  C  C1080  1  0.746500  0.625600  0.882900  1.0  0.6748
  C  C1081  1  0.607300  0.625200  0.269780  1.0  -0.0916
  C  C1082  1  0.573300  0.591200  0.270720  1.0  -0.1644
  C  C1083  1  0.529600  0.506200  0.773110  1.0  0.0339
  C  C1084  1  0.494000  0.477600  0.772940  1.0  -0.1373
  C  C1085  1  0.144370  0.840300  0.309480  1.0  0.0292
  C  C1086  1  0.179180  0.813230  0.373250  1.0  0.0478
  C  C1087  1  0.453000  0.037300  0.960030  1.0  0.6698
  C  C1088  1  0.472100  0.023700  0.974210  1.0  -0.0912
  C  C1089  1  0.485240  0.991030  0.008180  1.0  -0.1439
  C  C1090  1  0.498700  0.164600  0.924020  1.0  0.7013
  C  C1091  1  0.533600  0.200200  0.925040  1.0  -0.0381
  C  C1092  1  0.562700  0.201600  0.916400  1.0  -0.1559
  C  C1093  1  0.595500  0.233700  0.918900  1.0  -0.1868
  C  C1094  1  0.597200  0.264700  0.925840  1.0  0.0169
  C  C1095  1  0.567500  0.263000  0.934700  1.0  -0.1468
  C  C1096  1  0.534200  0.229300  0.933500  1.0  -0.0971
  C  C1097  1  0.634000  0.300900  0.926900  1.0  0.0342
  C  C1098  1  0.634600  0.333333  0.927900  1.0  -0.1862
  C  C1099  1  0.441200  0.053100  0.865410  1.0  0.6978
  C  C1100  1  0.454800  0.043400  0.842010  1.0  -0.1344
  C  C1101  1  0.430000  0.024400  0.823700  1.0  -0.0823
  C  C1102  1  0.440900  0.016800  0.799960  1.0  -0.1269
  C  C1103  1  0.478700  0.029900  0.797500  1.0  0.0003
  C  C1104  1  0.505700  0.049500  0.816500  1.0  -0.1463
  C  C1105  1  0.492700  0.056800  0.839440  1.0  -0.0588
  C  C1106  1  0.384100  0.102200  0.979700  1.0  0.7405
  C  C1107  1  0.372100  0.111400  0.002190  1.0  -0.0062
  C  C1108  1  0.350500  0.087400  0.020300  1.0  -0.154
  C  C1109  1  0.341800  0.099700  0.042310  1.0  -0.0895
  C  C1110  1  0.351500  0.133700  0.047530  1.0  0.1055
  C  C1111  1  0.376900  0.157700  0.029800  1.0  -0.08
  C  C1112  1  0.386600  0.147800  0.006490  1.0  -0.1697
  C  C1113  1  0.340300  0.144300  0.069530  1.0  0.0123
  C  C1114  1  0.329900  0.123500  0.091540  1.0  -0.2391
  C  C1115  1  0.320800  0.137000  0.111760  1.0  -0.0144
  C  C1116  1  0.319800  0.169700  0.111500  1.0  -0.2066
  C  C1117  1  0.330600  0.190700  0.088850  1.0  0.0053
  C  C1118  1  0.339500  0.178600  0.067520  1.0  -0.2117
  C  C1119  1  0.331100  0.225700  0.087240  1.0  0.0729
  C  C1120  1  0.330000  0.240200  0.064500  1.0  -0.1423
  C  C1121  1  0.334400  0.276400  0.063400  1.0  -0.1113
  C  C1122  1  0.332900  0.292700  0.084490  1.0  -0.116
  C  C1123  1  0.331500  0.276900  0.106730  1.0  -0.1177
  C  C1124  1  0.331000  0.243300  0.107300  1.0  -0.1226
  C  C1125  1  0.328300  0.993580  0.918520  1.0  0.7243
  C  C1126  1  0.308000  0.113900  0.135000  1.0  0.0664
  C  C1127  1  0.293600  0.118700  0.155100  1.0  -0.1431
  C  C1128  1  0.283400  0.097100  0.177410  1.0  -0.1112
  C  C1129  1  0.287200  0.070000  0.178940  1.0  -0.0025
  C  C1130  1  0.305600  0.066800  0.160100  1.0  -0.0578
  C  C1131  1  0.312700  0.086900  0.137500  1.0  -0.0887
  C  C1132  1  0.272800  0.043700  0.200860  1.0  0.7074
  C  C1133  1  0.203300  0.907200  0.297410  1.0  0.602
  C  C1134  1  0.185700  0.874000  0.315760  1.0  -0.1725
  C  C1135  1  0.147600  0.819100  0.334750  1.0  -0.1106
  C  C1136  1  0.178300  0.835400  0.348730  1.0  -0.0174
  C  C1137  1  0.138000  0.779000  0.367570  1.0  -0.0771
  C  C1138  1  0.374400  0.120900  0.882900  1.0  0.674
  C  C1139  1  0.374800  0.982100  0.269780  1.0  -0.094
  C  C1140  1  0.408800  0.982100  0.270720  1.0  -0.1715
  C  C1141  1  0.493800  0.023400  0.773110  1.0  0.0327
  C  C1142  1  0.522400  0.016400  0.772940  1.0  -0.1345
  C  C1143  1  0.159700  0.304070  0.309480  1.0  0.0299
  C  C1144  1  0.186770  0.365950  0.373250  1.0  0.0448
  C  C1145  1  0.962700  0.415700  0.960030  1.0  0.6698
  C  C1146  1  0.976300  0.448400  0.974210  1.0  -0.0916
  C  C1147  1  0.008970  0.494210  0.008180  1.0  -0.1449
  C  C1148  1  0.835400  0.334100  0.924020  1.0  0.7027
  C  C1149  1  0.799800  0.333400  0.925040  1.0  -0.0423
  C  C1150  1  0.798400  0.361100  0.916400  1.0  -0.1583
  C  C1151  1  0.766300  0.361800  0.918900  1.0  -0.1921
  C  C1152  1  0.735300  0.332500  0.925840  1.0  0.0102
  C  C1153  1  0.737000  0.304500  0.934700  1.0  -0.1492
  C  C1154  1  0.770700  0.304900  0.933500  1.0  -0.1026
  C  C1155  1  0.699100  0.333100  0.926900  1.0  0.0455
  C  C1156  1  0.666667  0.301300  0.927900  1.0  -0.1835
  C  C1157  1  0.946900  0.388100  0.865410  1.0  0.6988
  C  C1158  1  0.956600  0.411400  0.842010  1.0  -0.1345
  C  C1159  1  0.975600  0.405600  0.823700  1.0  -0.0811
  C  C1160  1  0.983200  0.424100  0.799960  1.0  -0.1265
  C  C1161  1  0.970100  0.448800  0.797500  1.0  0.0005
  C  C1162  1  0.950500  0.456200  0.816500  1.0  -0.1476
  C  C1163  1  0.943200  0.435900  0.839440  1.0  -0.0592
  C  C1164  1  0.897800  0.281900  0.979700  1.0  0.7411
  C  C1165  1  0.888600  0.260700  0.002190  1.0  -0.0065
  C  C1166  1  0.912600  0.263100  0.020300  1.0  -0.1581
  C  C1167  1  0.900300  0.242100  0.042310  1.0  -0.0857
  C  C1168  1  0.866300  0.217800  0.047530  1.0  0.1056
  C  C1169  1  0.842300  0.219200  0.029800  1.0  -0.0803
  C  C1170  1  0.852200  0.238800  0.006490  1.0  -0.1677
  C  C1171  1  0.855700  0.196000  0.069530  1.0  0.0114
  C  C1172  1  0.876500  0.206400  0.091540  1.0  -0.239
  C  C1173  1  0.863000  0.183800  0.111760  1.0  -0.0142
  C  C1174  1  0.830300  0.150100  0.111500  1.0  -0.2033
  C  C1175  1  0.809300  0.139900  0.088850  1.0  0.0056
  C  C1176  1  0.821400  0.160900  0.067520  1.0  -0.2129
  C  C1177  1  0.774300  0.105400  0.087240  1.0  0.074
  C  C1178  1  0.759800  0.089800  0.064500  1.0  -0.1416
  C  C1179  1  0.723600  0.058000  0.063400  1.0  -0.1122
  C  C1180  1  0.707300  0.040200  0.084490  1.0  -0.116
  C  C1181  1  0.723100  0.054600  0.106730  1.0  -0.1167
  C  C1182  1  0.756700  0.087700  0.107300  1.0  -0.1235
  C  C1183  1  0.006420  0.334720  0.918520  1.0  0.7271
  C  C1184  1  0.886100  0.194100  0.135000  1.0  0.0648
  C  C1185  1  0.881300  0.174900  0.155100  1.0  -0.1444
  C  C1186  1  0.902900  0.186300  0.177410  1.0  -0.1139
  C  C1187  1  0.930000  0.217200  0.178940  1.0  -0.0061
  C  C1188  1  0.933200  0.238800  0.160100  1.0  -0.0583
  C  C1189  1  0.913100  0.225800  0.137500  1.0  -0.0908
  C  C1190  1  0.956300  0.229100  0.200860  1.0  0.7072
  C  C1191  1  0.092800  0.296100  0.297410  1.0  0.5994
  C  C1192  1  0.126000  0.311700  0.315760  1.0  -0.1725
  C  C1193  1  0.180900  0.328500  0.334750  1.0  -0.1088
  C  C1194  1  0.164600  0.342900  0.348730  1.0  -0.0196
  C  C1195  1  0.221000  0.359000  0.367570  1.0  -0.0772
  C  C1196  1  0.879100  0.253500  0.882900  1.0  0.6756
  C  C1197  1  0.017900  0.392700  0.269780  1.0  -0.0926
  C  C1198  1  0.017900  0.426700  0.270720  1.0  -0.1706
  C  C1199  1  0.976600  0.470400  0.773110  1.0  0.0331
  C  C1200  1  0.983600  0.506000  0.772940  1.0  -0.1351
  C  C1201  1  0.654200  0.677300  0.250000  1.0  0.7363
  C  C1202  1  0.620700  0.643100  0.250000  1.0  0.0551
  C  C1203  1  0.557700  0.575900  0.250000  1.0  0.1012
  C  C1204  1  0.524100  0.536600  0.250000  1.0  0.025
  C  C1205  1  0.862900  0.874700  0.250000  1.0  0.1348
  C  C1206  1  0.863300  0.903000  0.250000  1.0  -0.1465
  C  C1207  1  0.898900  0.936100  0.250000  1.0  -0.1537
  C  C1208  1  0.929100  0.934700  0.250000  1.0  0.0172
  C  C1209  1  0.925700  0.903700  0.250000  1.0  -0.1386
  C  C1210  1  0.891100  0.872000  0.250000  1.0  -0.1353
  C  C1211  1  0.965800  0.968800  0.250000  1.0  -0.052
  C  C1212  1  0.997700  0.965500  0.250000  1.0  -0.2497
  C  C1213  1  0.825000  0.842300  0.250000  1.0  0.6988
  C  C1214  1  0.322700  0.976900  0.250000  1.0  0.7403
  C  C1215  1  0.356900  0.977600  0.250000  1.0  0.0445
  C  C1216  1  0.424100  0.981800  0.250000  1.0  0.1063
  C  C1217  1  0.463400  0.987500  0.250000  1.0  0.0215
  C  C1218  1  0.125300  0.988200  0.250000  1.0  0.1271
  C  C1219  1  0.097000  0.960300  0.250000  1.0  -0.1511
  C  C1220  1  0.063900  0.962800  0.250000  1.0  -0.1595
  C  C1221  1  0.065300  0.994400  0.250000  1.0  0.0057
  C  C1222  1  0.096300  0.022000  0.250000  1.0  -0.1416
  C  C1223  1  0.128000  0.019100  0.250000  1.0  -0.1341
  C  C1224  1  0.031200  0.997000  0.250000  1.0  -0.0579
  C  C1225  1  0.034500  0.032200  0.250000  1.0  -0.2495
  C  C1226  1  0.157700  0.982700  0.250000  1.0  0.7028
  C  C1227  1  0.023100  0.345800  0.250000  1.0  0.7376
  C  C1228  1  0.022400  0.379300  0.250000  1.0  0.0504
  C  C1229  1  0.018200  0.442300  0.250000  1.0  0.1089
  C  C1230  1  0.012500  0.475900  0.250000  1.0  0.0192
  C  C1231  1  0.011800  0.137100  0.250000  1.0  0.1253
  C  C1232  1  0.039700  0.136700  0.250000  1.0  -0.1482
  C  C1233  1  0.037200  0.101100  0.250000  1.0  -0.1541
  C  C1234  1  0.005600  0.070900  0.250000  1.0  0.0122
  C  C1235  1  0.978000  0.074300  0.250000  1.0  -0.1361
  C  C1236  1  0.980900  0.108900  0.250000  1.0  -0.1296
  C  C1237  1  0.003000  0.034200  0.250000  1.0  -0.0583
  C  C1238  1  0.967800  0.002300  0.250000  1.0  -0.2484
  C  C1239  1  0.017300  0.175000  0.250000  1.0  0.6991
  C  C1240  1  0.345800  0.322700  0.750000  1.0  0.7371
  C  C1241  1  0.379300  0.356900  0.750000  1.0  0.0557
  C  C1242  1  0.442300  0.424100  0.750000  1.0  0.1043
  C  C1243  1  0.475900  0.463400  0.750000  1.0  0.0246
  C  C1244  1  0.137100  0.125300  0.750000  1.0  0.1341
  C  C1245  1  0.136700  0.097000  0.750000  1.0  -0.1478
  C  C1246  1  0.101100  0.063900  0.750000  1.0  -0.1542
  C  C1247  1  0.070900  0.065300  0.750000  1.0  0.0161
  C  C1248  1  0.074300  0.096300  0.750000  1.0  -0.1395
  C  C1249  1  0.108900  0.128000  0.750000  1.0  -0.1348
  C  C1250  1  0.034200  0.031200  0.750000  1.0  -0.0523
  C  C1251  1  0.002300  0.034500  0.750000  1.0  -0.2487
  C  C1252  1  0.175000  0.157700  0.750000  1.0  0.6988
  C  C1253  1  0.677300  0.023100  0.750000  1.0  0.7394
  C  C1254  1  0.643100  0.022400  0.750000  1.0  0.0515
  C  C1255  1  0.575900  0.018200  0.750000  1.0  0.1033
  C  C1256  1  0.536600  0.012500  0.750000  1.0  0.0196
  C  C1257  1  0.874700  0.011800  0.750000  1.0  0.1235
  C  C1258  1  0.903000  0.039700  0.750000  1.0  -0.1501
  C  C1259  1  0.936100  0.037200  0.750000  1.0  -0.1585
  C  C1260  1  0.934700  0.005600  0.750000  1.0  0.0144
  C  C1261  1  0.903700  0.978000  0.750000  1.0  -0.1422
  C  C1262  1  0.872000  0.980900  0.750000  1.0  -0.1352
  C  C1263  1  0.968800  0.003000  0.750000  1.0  -0.0579
  C  C1264  1  0.965500  0.967800  0.750000  1.0  -0.249
  C  C1265  1  0.842300  0.017300  0.750000  1.0  0.7017
  C  C1266  1  0.976900  0.654200  0.750000  1.0  0.7384
  C  C1267  1  0.977600  0.620700  0.750000  1.0  0.0467
  C  C1268  1  0.981800  0.557700  0.750000  1.0  0.1083
  C  C1269  1  0.987500  0.524100  0.750000  1.0  0.0191
  C  C1270  1  0.988200  0.862900  0.750000  1.0  0.1323
  C  C1271  1  0.960300  0.863300  0.750000  1.0  -0.1485
  C  C1272  1  0.962800  0.898900  0.750000  1.0  -0.1542
  C  C1273  1  0.994400  0.929100  0.750000  1.0  0.0067
  C  C1274  1  0.022000  0.925700  0.750000  1.0  -0.1319
  C  C1275  1  0.019100  0.891100  0.750000  1.0  -0.1308
  C  C1276  1  0.997000  0.965800  0.750000  1.0  -0.0577
  C  C1277  1  0.032200  0.997700  0.750000  1.0  -0.2489
  C  C1278  1  0.982700  0.825000  0.750000  1.0  0.7001
  C  C1279  1  0.546700  0.522700  0.750000  1.0  -0.0928
  C  C1280  1  0.477300  0.024000  0.750000  1.0  -0.0949
  C  C1281  1  0.976000  0.453300  0.750000  1.0  -0.0918
  C  C1282  1  0.453300  0.477300  0.250000  1.0  -0.0941
  C  C1283  1  0.522700  0.976000  0.250000  1.0  -0.0917
  C  C1284  1  0.024000  0.546700  0.250000  1.0  -0.0921
  S  S1285  1  0.545090  0.550910  0.500300  1.0  0.1376
  S  S1286  1  0.518390  0.485560  0.530580  1.0  0.1383
  S  S1287  1  0.664300  0.789410  0.160680  1.0  0.1628
  S  S1288  1  0.666170  0.886090  0.156970  1.0  0.16
  S  S1289  1  0.449090  0.994180  0.500300  1.0  0.1388
  S  S1290  1  0.514440  0.032830  0.530580  1.0  0.1362
  S  S1291  1  0.210590  0.874890  0.160680  1.0  0.1591
  S  S1292  1  0.113910  0.780080  0.156970  1.0  0.1588
  S  S1293  1  0.005820  0.454910  0.500300  1.0  0.1401
  S  S1294  1  0.967170  0.481610  0.530580  1.0  0.135
  S  S1295  1  0.125110  0.335700  0.160680  1.0  0.1589
  S  S1296  1  0.219920  0.333830  0.156970  1.0  0.1589
  S  S1297  1  0.454910  0.449090  0.000300  1.0  0.1403
  S  S1298  1  0.481610  0.514440  0.030580  1.0  0.1337
  S  S1299  1  0.335700  0.210590  0.660680  1.0  0.1585
  S  S1300  1  0.333830  0.113910  0.656970  1.0  0.1586
  S  S1301  1  0.550910  0.005820  0.000300  1.0  0.1384
  S  S1302  1  0.485560  0.967170  0.030580  1.0  0.1355
  S  S1303  1  0.789410  0.125110  0.660680  1.0  0.1609
  S  S1304  1  0.886090  0.219920  0.656970  1.0  0.1612
  S  S1305  1  0.994180  0.545090  0.000300  1.0  0.1373
  S  S1306  1  0.032830  0.518390  0.030580  1.0  0.1377
  S  S1307  1  0.874890  0.664300  0.660680  1.0  0.1614
  S  S1308  1  0.780080  0.666170  0.656970  1.0  0.1594
  S  S1309  1  0.454910  0.449090  0.499700  1.0  0.1393
  S  S1310  1  0.481610  0.514440  0.469420  1.0  0.1353
  S  S1311  1  0.335700  0.210590  0.839320  1.0  0.1594
  S  S1312  1  0.333830  0.113910  0.843030  1.0  0.1588
  S  S1313  1  0.550910  0.005820  0.499700  1.0  0.1377
  S  S1314  1  0.485560  0.967170  0.469420  1.0  0.137
  S  S1315  1  0.789410  0.125110  0.839320  1.0  0.1621
  S  S1316  1  0.886090  0.219920  0.843030  1.0  0.1617
  S  S1317  1  0.994180  0.545090  0.499700  1.0  0.1368
  S  S1318  1  0.032830  0.518390  0.469420  1.0  0.1393
  S  S1319  1  0.874890  0.664300  0.839320  1.0  0.1627
  S  S1320  1  0.780080  0.666170  0.843030  1.0  0.1606
  S  S1321  1  0.545090  0.550910  0.999700  1.0  0.1366
  S  S1322  1  0.518390  0.485560  0.969420  1.0  0.1402
  S  S1323  1  0.664300  0.789410  0.339320  1.0  0.1633
  S  S1324  1  0.666170  0.886090  0.343030  1.0  0.1598
  S  S1325  1  0.449090  0.994180  0.999700  1.0  0.1382
  S  S1326  1  0.514440  0.032830  0.969420  1.0  0.1374
  S  S1327  1  0.210590  0.874890  0.339320  1.0  0.1607
  S  S1328  1  0.113910  0.780080  0.343030  1.0  0.1579
  S  S1329  1  0.005820  0.454910  0.999700  1.0  0.1392
  S  S1330  1  0.967170  0.481610  0.969420  1.0  0.1368
  S  S1331  1  0.125110  0.335700  0.339320  1.0  0.1595
  S  S1332  1  0.219920  0.333830  0.343030  1.0  0.1583
  O  O1333  1  0.664870  0.586470  0.577940  1.0  -1.2727
  O  O1334  1  0.607290  0.579800  0.534750  1.0  -0.5788
  O  O1335  1  0.585050  0.527420  0.557870  1.0  -0.6044
  O  O1336  1  0.602050  0.535110  0.616720  1.0  -0.6384
  O  O1337  1  0.636840  0.589840  0.633760  1.0  -0.6111
  O  O1338  1  0.670690  0.659730  0.601160  1.0  -0.6205
  O  O1339  1  0.658750  0.656400  0.560250  1.0  -0.6328
  O  O1340  1  0.692130  0.622150  0.522830  1.0  -0.6495
  O  O1341  1  0.726300  0.600870  0.537560  1.0  -0.6423
  O  O1342  1  0.694910  0.530470  0.571540  1.0  -0.6412
  O  O1343  1  0.636400  0.500490  0.581850  1.0  -0.6484
  O  O1344  1  0.746200  0.608180  0.597530  1.0  -0.6069
  O  O1345  1  0.720050  0.630280  0.622650  1.0  -0.632
  O  O1346  1  0.723100  0.818620  0.220560  1.0  -0.6111
  O  O1347  1  0.696340  0.765230  0.198750  1.0  -0.5452
  O  O1348  1  0.789950  0.737740  0.280150  1.0  -0.5987
  O  O1349  1  0.740150  0.723460  0.301230  1.0  -0.6337
  O  O1350  1  0.667860  0.691460  0.228810  1.0  -0.6352
  O  O1351  1  0.413530  0.078400  0.577940  1.0  -1.2728
  O  O1352  1  0.420200  0.027490  0.534750  1.0  -0.5773
  O  O1353  1  0.472580  0.057630  0.557870  1.0  -0.6041
  O  O1354  1  0.464890  0.066940  0.616720  1.0  -0.6378
  O  O1355  1  0.410160  0.047000  0.633760  1.0  -0.6102
  O  O1356  1  0.340270  0.010960  0.601160  1.0  -0.6228
  O  O1357  1  0.343600  0.002350  0.560250  1.0  -0.6302
  O  O1358  1  0.377850  0.069980  0.522830  1.0  -0.6495
  O  O1359  1  0.399130  0.125430  0.537560  1.0  -0.6429
  O  O1360  1  0.469530  0.164440  0.571540  1.0  -0.6387
  O  O1361  1  0.499510  0.135910  0.581850  1.0  -0.6488
  O  O1362  1  0.391820  0.138020  0.597530  1.0  -0.6086
  O  O1363  1  0.369720  0.089770  0.622650  1.0  -0.6343
  O  O1364  1  0.181380  0.904480  0.220560  1.0  -0.6086
  O  O1365  1  0.234770  0.931110  0.198750  1.0  -0.545
  O  O1366  1  0.262260  0.052210  0.280150  1.0  -0.5968
  O  O1367  1  0.276540  0.016690  0.301230  1.0  -0.6326
  O  O1368  1  0.308540  0.976400  0.228810  1.0  -0.6357
  O  O1369  1  0.921600  0.335130  0.577940  1.0  -1.2728
  O  O1370  1  0.972510  0.392710  0.534750  1.0  -0.5791
  O  O1371  1  0.942370  0.414950  0.557870  1.0  -0.6045
  O  O1372  1  0.933060  0.397950  0.616720  1.0  -0.6378
  O  O1373  1  0.953000  0.363160  0.633760  1.0  -0.6116
  O  O1374  1  0.989040  0.329310  0.601160  1.0  -0.6218
  O  O1375  1  0.997650  0.341250  0.560250  1.0  -0.6328
  O  O1376  1  0.930020  0.307870  0.522830  1.0  -0.6515
  O  O1377  1  0.874570  0.273700  0.537560  1.0  -0.6417
  O  O1378  1  0.835560  0.305090  0.571540  1.0  -0.6409
  O  O1379  1  0.864090  0.363600  0.581850  1.0  -0.6502
  O  O1380  1  0.861980  0.253800  0.597530  1.0  -0.6061
  O  O1381  1  0.910230  0.279950  0.622650  1.0  -0.6335
  O  O1382  1  0.095520  0.276900  0.220560  1.0  -0.6111
  O  O1383  1  0.068890  0.303660  0.198750  1.0  -0.5437
  O  O1384  1  0.947790  0.210050  0.280150  1.0  -0.5975
  O  O1385  1  0.983310  0.259850  0.301230  1.0  -0.6331
  O  O1386  1  0.023600  0.332140  0.228810  1.0  -0.6332
  O  O1387  1  0.335130  0.413530  0.077940  1.0  -1.2729
  O  O1388  1  0.392710  0.420200  0.034750  1.0  -0.5784
  O  O1389  1  0.414950  0.472580  0.057870  1.0  -0.6052
  O  O1390  1  0.397950  0.464890  0.116720  1.0  -0.6374
  O  O1391  1  0.363160  0.410160  0.133760  1.0  -0.6097
  O  O1392  1  0.329310  0.340270  0.101160  1.0  -0.6203
  O  O1393  1  0.341250  0.343600  0.060250  1.0  -0.6322
  O  O1394  1  0.307870  0.377850  0.022830  1.0  -0.6495
  O  O1395  1  0.273700  0.399130  0.037560  1.0  -0.6423
  O  O1396  1  0.305090  0.469530  0.071540  1.0  -0.6398
  O  O1397  1  0.363600  0.499510  0.081850  1.0  -0.6471
  O  O1398  1  0.253800  0.391820  0.097530  1.0  -0.6068
  O  O1399  1  0.279950  0.369720  0.122650  1.0  -0.6318
  O  O1400  1  0.276900  0.181380  0.720560  1.0  -0.6115
  O  O1401  1  0.303660  0.234770  0.698750  1.0  -0.5435
  O  O1402  1  0.210050  0.262260  0.780150  1.0  -0.5967
  O  O1403  1  0.259850  0.276540  0.801230  1.0  -0.6343
  O  O1404  1  0.332140  0.308540  0.728810  1.0  -0.6358
  O  O1405  1  0.586470  0.921600  0.077940  1.0  -1.2727
  O  O1406  1  0.579800  0.972510  0.034750  1.0  -0.5786
  O  O1407  1  0.527420  0.942370  0.057870  1.0  -0.6043
  O  O1408  1  0.535110  0.933060  0.116720  1.0  -0.6376
  O  O1409  1  0.589840  0.953000  0.133760  1.0  -0.6109
  O  O1410  1  0.659730  0.989040  0.101160  1.0  -0.6215
  O  O1411  1  0.656400  0.997650  0.060250  1.0  -0.6303
  O  O1412  1  0.622150  0.930020  0.022830  1.0  -0.6497
  O  O1413  1  0.600870  0.874570  0.037560  1.0  -0.6416
  O  O1414  1  0.530470  0.835560  0.071540  1.0  -0.6392
  O  O1415  1  0.500490  0.864090  0.081850  1.0  -0.6491
  O  O1416  1  0.608180  0.861980  0.097530  1.0  -0.6073
  O  O1417  1  0.630280  0.910230  0.122650  1.0  -0.6339
  O  O1418  1  0.818620  0.095520  0.720560  1.0  -0.6103
  O  O1419  1  0.765230  0.068890  0.698750  1.0  -0.5444
  O  O1420  1  0.737740  0.947790  0.780150  1.0  -0.5969
  O  O1421  1  0.723460  0.983310  0.801230  1.0  -0.6341
  O  O1422  1  0.691460  0.023600  0.728810  1.0  -0.6363
  O  O1423  1  0.078400  0.664870  0.077940  1.0  -1.2727
  O  O1424  1  0.027490  0.607290  0.034750  1.0  -0.5784
  O  O1425  1  0.057630  0.585050  0.057870  1.0  -0.604
  O  O1426  1  0.066940  0.602050  0.116720  1.0  -0.6379
  O  O1427  1  0.047000  0.636840  0.133760  1.0  -0.6122
  O  O1428  1  0.010960  0.670690  0.101160  1.0  -0.6236
  O  O1429  1  0.002350  0.658750  0.060250  1.0  -0.6332
  O  O1430  1  0.069980  0.692130  0.022830  1.0  -0.6499
  O  O1431  1  0.125430  0.726300  0.037560  1.0  -0.6415
  O  O1432  1  0.164440  0.694910  0.071540  1.0  -0.6411
  O  O1433  1  0.135910  0.636400  0.081850  1.0  -0.6504
  O  O1434  1  0.138020  0.746200  0.097530  1.0  -0.6067
  O  O1435  1  0.089770  0.720050  0.122650  1.0  -0.6329
  O  O1436  1  0.904480  0.723100  0.720560  1.0  -0.61
  O  O1437  1  0.931110  0.696340  0.698750  1.0  -0.5442
  O  O1438  1  0.052210  0.789950  0.780150  1.0  -0.597
  O  O1439  1  0.016690  0.740150  0.801230  1.0  -0.6318
  O  O1440  1  0.976400  0.667860  0.728810  1.0  -0.6335
  O  O1441  1  0.335130  0.413530  0.422060  1.0  -1.2729
  O  O1442  1  0.392710  0.420200  0.465250  1.0  -0.5788
  O  O1443  1  0.414950  0.472580  0.442130  1.0  -0.6058
  O  O1444  1  0.397950  0.464890  0.383280  1.0  -0.6375
  O  O1445  1  0.363160  0.410160  0.366240  1.0  -0.6105
  O  O1446  1  0.329310  0.340270  0.398840  1.0  -0.6188
  O  O1447  1  0.341250  0.343600  0.439750  1.0  -0.6326
  O  O1448  1  0.307870  0.377850  0.477170  1.0  -0.6496
  O  O1449  1  0.273700  0.399130  0.462440  1.0  -0.6423
  O  O1450  1  0.305090  0.469530  0.428460  1.0  -0.6401
  O  O1451  1  0.363600  0.499510  0.418150  1.0  -0.6464
  O  O1452  1  0.253800  0.391820  0.402470  1.0  -0.6056
  O  O1453  1  0.279950  0.369720  0.377350  1.0  -0.6307
  O  O1454  1  0.276900  0.181380  0.779440  1.0  -0.6116
  O  O1455  1  0.303660  0.234770  0.801250  1.0  -0.5436
  O  O1456  1  0.210050  0.262260  0.719850  1.0  -0.5957
  O  O1457  1  0.259850  0.276540  0.698770  1.0  -0.6341
  O  O1458  1  0.332140  0.308540  0.771190  1.0  -0.6339
  O  O1459  1  0.586470  0.921600  0.422060  1.0  -1.2727
  O  O1460  1  0.579800  0.972510  0.465250  1.0  -0.579
  O  O1461  1  0.527420  0.942370  0.442130  1.0  -0.6053
  O  O1462  1  0.535110  0.933060  0.383280  1.0  -0.6374
  O  O1463  1  0.589840  0.953000  0.366240  1.0  -0.6113
  O  O1464  1  0.659730  0.989040  0.398840  1.0  -0.6194
  O  O1465  1  0.656400  0.997650  0.439750  1.0  -0.6308
  O  O1466  1  0.622150  0.930020  0.477170  1.0  -0.6494
  O  O1467  1  0.600870  0.874570  0.462440  1.0  -0.6414
  O  O1468  1  0.530470  0.835560  0.428460  1.0  -0.6395
  O  O1469  1  0.500490  0.864090  0.418150  1.0  -0.6488
  O  O1470  1  0.608180  0.861980  0.402470  1.0  -0.6068
  O  O1471  1  0.630280  0.910230  0.377350  1.0  -0.6332
  O  O1472  1  0.818620  0.095520  0.779440  1.0  -0.6104
  O  O1473  1  0.765230  0.068890  0.801250  1.0  -0.545
  O  O1474  1  0.737740  0.947790  0.719850  1.0  -0.5954
  O  O1475  1  0.723460  0.983310  0.698770  1.0  -0.6337
  O  O1476  1  0.691460  0.023600  0.771190  1.0  -0.6344
  O  O1477  1  0.078400  0.664870  0.422060  1.0  -1.2726
  O  O1478  1  0.027490  0.607290  0.465250  1.0  -0.5783
  O  O1479  1  0.057630  0.585050  0.442130  1.0  -0.6046
  O  O1480  1  0.066940  0.602050  0.383280  1.0  -0.6376
  O  O1481  1  0.047000  0.636840  0.366240  1.0  -0.613
  O  O1482  1  0.010960  0.670690  0.398840  1.0  -0.6218
  O  O1483  1  0.002350  0.658750  0.439750  1.0  -0.6337
  O  O1484  1  0.069980  0.692130  0.477170  1.0  -0.65
  O  O1485  1  0.125430  0.726300  0.462440  1.0  -0.6415
  O  O1486  1  0.164440  0.694910  0.428460  1.0  -0.6413
  O  O1487  1  0.135910  0.636400  0.418150  1.0  -0.6496
  O  O1488  1  0.138020  0.746200  0.402470  1.0  -0.6056
  O  O1489  1  0.089770  0.720050  0.377350  1.0  -0.6317
  O  O1490  1  0.904480  0.723100  0.779440  1.0  -0.6103
  O  O1491  1  0.931110  0.696340  0.801250  1.0  -0.5441
  O  O1492  1  0.052210  0.789950  0.719850  1.0  -0.5959
  O  O1493  1  0.016690  0.740150  0.698770  1.0  -0.6317
  O  O1494  1  0.976400  0.667860  0.771190  1.0  -0.6319
  O  O1495  1  0.664870  0.586470  0.922060  1.0  -1.2726
  O  O1496  1  0.607290  0.579800  0.965250  1.0  -0.5788
  O  O1497  1  0.585050  0.527420  0.942130  1.0  -0.6053
  O  O1498  1  0.602050  0.535110  0.883280  1.0  -0.6382
  O  O1499  1  0.636840  0.589840  0.866240  1.0  -0.6117
  O  O1500  1  0.670690  0.659730  0.898840  1.0  -0.6189
  O  O1501  1  0.658750  0.656400  0.939750  1.0  -0.6336
  O  O1502  1  0.692130  0.622150  0.977170  1.0  -0.6496
  O  O1503  1  0.726300  0.600870  0.962440  1.0  -0.6424
  O  O1504  1  0.694910  0.530470  0.928460  1.0  -0.6415
  O  O1505  1  0.636400  0.500490  0.918150  1.0  -0.6476
  O  O1506  1  0.746200  0.608180  0.902470  1.0  -0.6065
  O  O1507  1  0.720050  0.630280  0.877350  1.0  -0.6306
  O  O1508  1  0.723100  0.818620  0.279440  1.0  -0.612
  O  O1509  1  0.696340  0.765230  0.301250  1.0  -0.5454
  O  O1510  1  0.789950  0.737740  0.219850  1.0  -0.5974
  O  O1511  1  0.740150  0.723460  0.198770  1.0  -0.6327
  O  O1512  1  0.667860  0.691460  0.271190  1.0  -0.6346
  O  O1513  1  0.413530  0.078400  0.922060  1.0  -1.2727
  O  O1514  1  0.420200  0.027490  0.965250  1.0  -0.5775
  O  O1515  1  0.472580  0.057630  0.942130  1.0  -0.6047
  O  O1516  1  0.464890  0.066940  0.883280  1.0  -0.6377
  O  O1517  1  0.410160  0.047000  0.866240  1.0  -0.6104
  O  O1518  1  0.340270  0.010960  0.898840  1.0  -0.6207
  O  O1519  1  0.343600  0.002350  0.939750  1.0  -0.6301
  O  O1520  1  0.377850  0.069980  0.977170  1.0  -0.6499
  O  O1521  1  0.399130  0.125430  0.962440  1.0  -0.6425
  O  O1522  1  0.469530  0.164440  0.928460  1.0  -0.6391
  O  O1523  1  0.499510  0.135910  0.918150  1.0  -0.6479
  O  O1524  1  0.391820  0.138020  0.902470  1.0  -0.6064
  O  O1525  1  0.369720  0.089770  0.877350  1.0  -0.6332
  O  O1526  1  0.181380  0.904480  0.279440  1.0  -0.6091
  O  O1527  1  0.234770  0.931110  0.301250  1.0  -0.5451
  O  O1528  1  0.262260  0.052210  0.219850  1.0  -0.5956
  O  O1529  1  0.276540  0.016690  0.198770  1.0  -0.6328
  O  O1530  1  0.308540  0.976400  0.271190  1.0  -0.6339
  O  O1531  1  0.921600  0.335130  0.922060  1.0  -1.2728
  O  O1532  1  0.972510  0.392710  0.965250  1.0  -0.5796
  O  O1533  1  0.942370  0.414950  0.942130  1.0  -0.6049
  O  O1534  1  0.933060  0.397950  0.883280  1.0  -0.6378
  O  O1535  1  0.953000  0.363160  0.866240  1.0  -0.612
  O  O1536  1  0.989040  0.329310  0.898840  1.0  -0.6194
  O  O1537  1  0.997650  0.341250  0.939750  1.0  -0.6332
  O  O1538  1  0.930020  0.307870  0.977170  1.0  -0.6514
  O  O1539  1  0.874570  0.273700  0.962440  1.0  -0.642
  O  O1540  1  0.835560  0.305090  0.928460  1.0  -0.6414
  O  O1541  1  0.864090  0.363600  0.918150  1.0  -0.6497
  O  O1542  1  0.861980  0.253800  0.902470  1.0  -0.6051
  O  O1543  1  0.910230  0.279950  0.877350  1.0  -0.6324
  O  O1544  1  0.095520  0.276900  0.279440  1.0  -0.6111
  O  O1545  1  0.068890  0.303660  0.301250  1.0  -0.5437
  O  O1546  1  0.947790  0.210050  0.219850  1.0  -0.5965
  O  O1547  1  0.983310  0.259850  0.198770  1.0  -0.6333
  O  O1548  1  0.023600  0.332140  0.271190  1.0  -0.6323
  O  O1549  1  0.738280  0.761080  0.250000  1.0  -1.2938
  O  O1550  1  0.823530  0.811000  0.250000  1.0  -0.6529
  O  O1551  1  0.798390  0.845760  0.250000  1.0  -0.5873
  O  O1552  1  0.238920  0.977200  0.250000  1.0  -1.2942
  O  O1553  1  0.189000  0.012530  0.250000  1.0  -0.6532
  O  O1554  1  0.154240  0.952630  0.250000  1.0  -0.589
  O  O1555  1  0.022800  0.261720  0.250000  1.0  -1.2939
  O  O1556  1  0.987470  0.176470  0.250000  1.0  -0.6528
  O  O1557  1  0.047370  0.201610  0.250000  1.0  -0.5901
  O  O1558  1  0.261720  0.238920  0.750000  1.0  -1.2938
  O  O1559  1  0.176470  0.189000  0.750000  1.0  -0.6534
  O  O1560  1  0.201610  0.154240  0.750000  1.0  -0.587
  O  O1561  1  0.761080  0.022800  0.750000  1.0  -1.2937
  O  O1562  1  0.811000  0.987470  0.750000  1.0  -0.6539
  O  O1563  1  0.845760  0.047370  0.750000  1.0  -0.5894
  O  O1564  1  0.977200  0.738280  0.750000  1.0  -1.2942
  O  O1565  1  0.012530  0.823530  0.750000  1.0  -0.6518
  O  O1566  1  0.952630  0.798390  0.750000  1.0  -0.5888
