# generated using pymatgen
data_Hf13(C53O11)6
_symmetry_space_group_name_H-M   'P 1'
_cell_length_a   41.51600000
_cell_length_b   41.51600000
_cell_length_c   41.51600000
_cell_angle_alpha   90.00000000
_cell_angle_beta   90.00000000
_cell_angle_gamma   90.00000000
_symmetry_Int_Tables_number   1
_chemical_formula_structural   Hf13(C53O11)6
_chemical_formula_sum   'Hf52 C1272 O264'
_cell_volume   71556.07487610
_cell_formula_units_Z   4
loop_
 _symmetry_equiv_pos_site_id
 _symmetry_equiv_pos_as_xyz
  1  'x, y, z'
loop_
 _atom_site_type_symbol
 _atom_site_label
 _atom_site_symmetry_multiplicity
 _atom_site_fract_x
 _atom_site_fract_y
 _atom_site_fract_z
 _atom_site_occupancy
 _atom_site_charge
  Hf  Hf1  1  0.958050  0.541950  0.750000  1.0  2.402
  Hf  Hf2  1  0.041950  0.458050  0.750000  1.0  2.4037
  Hf  Hf3  1  0.041950  0.541950  0.250000  1.0  2.4003
  Hf  Hf4  1  0.958050  0.458050  0.250000  1.0  2.4058
  Hf  Hf5  1  0.750000  0.958050  0.541950  1.0  2.4069
  Hf  Hf6  1  0.750000  0.041950  0.458050  1.0  2.4039
  Hf  Hf7  1  0.250000  0.041950  0.541950  1.0  2.403
  Hf  Hf8  1  0.250000  0.958050  0.458050  1.0  2.4071
  Hf  Hf9  1  0.541950  0.750000  0.958050  1.0  2.4008
  Hf  Hf10  1  0.458050  0.750000  0.041950  1.0  2.4032
  Hf  Hf11  1  0.541950  0.250000  0.041950  1.0  2.4015
  Hf  Hf12  1  0.458050  0.250000  0.958050  1.0  2.4034
  Hf  Hf13  1  0.041950  0.458050  0.250000  1.0  2.4037
  Hf  Hf14  1  0.958050  0.541950  0.250000  1.0  2.402
  Hf  Hf15  1  0.958050  0.458050  0.750000  1.0  2.4058
  Hf  Hf16  1  0.041950  0.541950  0.750000  1.0  2.4003
  Hf  Hf17  1  0.250000  0.041950  0.458050  1.0  2.4039
  Hf  Hf18  1  0.250000  0.958050  0.541950  1.0  2.4069
  Hf  Hf19  1  0.750000  0.958050  0.458050  1.0  2.4071
  Hf  Hf20  1  0.750000  0.041950  0.541950  1.0  2.403
  Hf  Hf21  1  0.458050  0.250000  0.041950  1.0  2.4032
  Hf  Hf22  1  0.541950  0.250000  0.958050  1.0  2.4008
  Hf  Hf23  1  0.458050  0.750000  0.958050  1.0  2.4034
  Hf  Hf24  1  0.541950  0.750000  0.041950  1.0  2.4015
  Hf  Hf25  1  0.000000  0.500000  0.690420  1.0  2.4038
  Hf  Hf26  1  0.000000  0.500000  0.309580  1.0  2.4042
  Hf  Hf27  1  0.690420  0.000000  0.500000  1.0  2.4044
  Hf  Hf28  1  0.309580  0.000000  0.500000  1.0  2.4026
  Hf  Hf29  1  0.500000  0.690420  0.000000  1.0  2.4094
  Hf  Hf30  1  0.500000  0.309580  0.000000  1.0  2.4074
  Hf  Hf31  1  0.000000  0.500000  0.809580  1.0  2.4042
  Hf  Hf32  1  0.000000  0.500000  0.190420  1.0  2.4038
  Hf  Hf33  1  0.500000  0.190420  0.000000  1.0  2.4094
  Hf  Hf34  1  0.500000  0.809580  0.000000  1.0  2.4074
  Hf  Hf35  1  0.190420  0.000000  0.500000  1.0  2.4044
  Hf  Hf36  1  0.809580  0.000000  0.500000  1.0  2.4026
  Hf  Hf37  1  0.967080  0.967080  0.967080  1.0  2.1122
  Hf  Hf38  1  0.032920  0.032920  0.967080  1.0  2.1101
  Hf  Hf39  1  0.032920  0.967080  0.032920  1.0  2.1105
  Hf  Hf40  1  0.967080  0.032920  0.032920  1.0  2.111
  Hf  Hf41  1  0.467080  0.467080  0.532920  1.0  2.1112
  Hf  Hf42  1  0.532920  0.532920  0.532920  1.0  2.1102
  Hf  Hf43  1  0.467080  0.532920  0.467080  1.0  2.1129
  Hf  Hf44  1  0.532920  0.467080  0.467080  1.0  2.1095
  Hf  Hf45  1  0.032920  0.032920  0.032920  1.0  2.1102
  Hf  Hf46  1  0.967080  0.967080  0.032920  1.0  2.1112
  Hf  Hf47  1  0.967080  0.032920  0.967080  1.0  2.1129
  Hf  Hf48  1  0.032920  0.967080  0.967080  1.0  2.1095
  Hf  Hf49  1  0.532920  0.532920  0.467080  1.0  2.1101
  Hf  Hf50  1  0.467080  0.467080  0.467080  1.0  2.1122
  Hf  Hf51  1  0.532920  0.467080  0.532920  1.0  2.1105
  Hf  Hf52  1  0.467080  0.532920  0.532920  1.0  2.111
  C  C53  1  0.930900  0.573900  0.650200  1.0  -0.0735
  C  C54  1  0.919000  0.584500  0.594800  1.0  0.0185
  C  C55  1  0.938600  0.569300  0.617500  1.0  -0.12
  C  C56  1  0.906000  0.597000  0.660300  1.0  -0.0842
  C  C57  1  0.885900  0.610000  0.635900  1.0  -0.0529
  C  C58  1  0.893400  0.605700  0.603000  1.0  0.0012
  C  C59  1  0.949000  0.554100  0.675100  1.0  0.6793
  C  C60  1  0.029600  0.657200  0.729800  1.0  -0.0612
  C  C61  1  0.871900  0.619700  0.580600  1.0  0.1196
  C  C62  1  0.840300  0.609000  0.577200  1.0  -0.0772
  C  C63  1  0.820500  0.622900  0.554000  1.0  -0.0226
  C  C64  1  0.832200  0.647300  0.534300  1.0  -0.0858
  C  C65  1  0.863800  0.657900  0.537800  1.0  -0.0372
  C  C66  1  0.883600  0.644100  0.560900  1.0  -0.0488
  C  C67  1  0.028700  0.689800  0.721200  1.0  0.0036
  C  C68  1  0.977200  0.869900  0.771800  1.0  0.0329
  C  C69  1  0.975000  0.851800  0.739700  1.0  -0.0459
  C  C70  1  0.973700  0.903600  0.829900  1.0  0.0431
  C  C71  1  0.975200  0.756700  0.705200  1.0  0.135
  C  C72  1  0.974700  0.790200  0.696600  1.0  0.0812
  C  C73  1  0.973000  0.913500  0.862200  1.0  -0.0029
  C  C74  1  0.069100  0.426100  0.650200  1.0  -0.0733
  C  C75  1  0.081000  0.415500  0.594800  1.0  0.0182
  C  C76  1  0.061400  0.430700  0.617500  1.0  -0.1207
  C  C77  1  0.094000  0.403000  0.660300  1.0  -0.082
  C  C78  1  0.114100  0.390000  0.635900  1.0  -0.0517
  C  C79  1  0.106600  0.394300  0.603000  1.0  0.0021
  C  C80  1  0.051000  0.445900  0.675100  1.0  0.6789
  C  C81  1  0.970400  0.342800  0.729800  1.0  -0.0621
  C  C82  1  0.128100  0.380300  0.580600  1.0  0.1197
  C  C83  1  0.159700  0.391000  0.577200  1.0  -0.0757
  C  C84  1  0.179500  0.377100  0.554000  1.0  -0.0244
  C  C85  1  0.167800  0.352700  0.534300  1.0  -0.0863
  C  C86  1  0.136200  0.342100  0.537800  1.0  -0.0348
  C  C87  1  0.116400  0.355900  0.560900  1.0  -0.048
  C  C88  1  0.971300  0.310200  0.721200  1.0  0.005
  C  C89  1  0.022800  0.130100  0.771800  1.0  0.0321
  C  C90  1  0.025000  0.148200  0.739700  1.0  -0.0451
  C  C91  1  0.026300  0.096400  0.829900  1.0  0.0436
  C  C92  1  0.024800  0.243300  0.705200  1.0  0.1364
  C  C93  1  0.025300  0.209800  0.696600  1.0  0.0816
  C  C94  1  0.027000  0.086500  0.862200  1.0  -0.0028
  C  C95  1  0.069100  0.573900  0.349800  1.0  -0.0735
  C  C96  1  0.081000  0.584500  0.405200  1.0  0.0152
  C  C97  1  0.061400  0.569300  0.382500  1.0  -0.1189
  C  C98  1  0.094000  0.597000  0.339700  1.0  -0.0867
  C  C99  1  0.114100  0.610000  0.364100  1.0  -0.0527
  C  C100  1  0.106600  0.605700  0.397000  1.0  0.0016
  C  C101  1  0.051000  0.554100  0.324900  1.0  0.6791
  C  C102  1  0.970400  0.657200  0.270200  1.0  -0.0624
  C  C103  1  0.128100  0.619700  0.419400  1.0  0.1193
  C  C104  1  0.159700  0.609000  0.422800  1.0  -0.0768
  C  C105  1  0.179500  0.622900  0.446000  1.0  -0.0237
  C  C106  1  0.167800  0.647300  0.465700  1.0  -0.0843
  C  C107  1  0.136200  0.657900  0.462200  1.0  -0.0332
  C  C108  1  0.116400  0.644100  0.439100  1.0  -0.0471
  C  C109  1  0.971300  0.689800  0.278800  1.0  0.0058
  C  C110  1  0.022800  0.869900  0.228200  1.0  0.0314
  C  C111  1  0.025000  0.851800  0.260300  1.0  -0.0471
  C  C112  1  0.026300  0.903600  0.170100  1.0  0.0429
  C  C113  1  0.024800  0.756700  0.294800  1.0  0.1363
  C  C114  1  0.025300  0.790200  0.303400  1.0  0.081
  C  C115  1  0.027000  0.913500  0.137800  1.0  -0.0025
  C  C116  1  0.930900  0.426100  0.349800  1.0  -0.0732
  C  C117  1  0.919000  0.415500  0.405200  1.0  0.0163
  C  C118  1  0.938600  0.430700  0.382500  1.0  -0.1186
  C  C119  1  0.906000  0.403000  0.339700  1.0  -0.0865
  C  C120  1  0.885900  0.390000  0.364100  1.0  -0.0544
  C  C121  1  0.893400  0.394300  0.397000  1.0  0.0011
  C  C122  1  0.949000  0.445900  0.324900  1.0  0.6783
  C  C123  1  0.029600  0.342800  0.270200  1.0  -0.0618
  C  C124  1  0.871900  0.380300  0.419400  1.0  0.1189
  C  C125  1  0.840300  0.391000  0.422800  1.0  -0.0777
  C  C126  1  0.820500  0.377100  0.446000  1.0  -0.0217
  C  C127  1  0.832200  0.352700  0.465700  1.0  -0.0846
  C  C128  1  0.863800  0.342100  0.462200  1.0  -0.0356
  C  C129  1  0.883600  0.355900  0.439100  1.0  -0.0481
  C  C130  1  0.028700  0.310200  0.278800  1.0  0.0032
  C  C131  1  0.977200  0.130100  0.228200  1.0  0.0335
  C  C132  1  0.975000  0.148200  0.260300  1.0  -0.0455
  C  C133  1  0.973700  0.096400  0.170100  1.0  0.0444
  C  C134  1  0.975200  0.243300  0.294800  1.0  0.1364
  C  C135  1  0.974700  0.209800  0.303400  1.0  0.0809
  C  C136  1  0.973000  0.086500  0.137800  1.0  -0.0033
  C  C137  1  0.650200  0.930900  0.573900  1.0  -0.0726
  C  C138  1  0.594800  0.919000  0.584500  1.0  0.0175
  C  C139  1  0.617500  0.938600  0.569300  1.0  -0.1212
  C  C140  1  0.660300  0.906000  0.597000  1.0  -0.0752
  C  C141  1  0.635900  0.885900  0.610000  1.0  -0.0521
  C  C142  1  0.603000  0.893400  0.605700  1.0  0.0019
  C  C143  1  0.675100  0.949000  0.554100  1.0  0.6788
  C  C144  1  0.729800  0.029600  0.657200  1.0  -0.0613
  C  C145  1  0.580600  0.871900  0.619700  1.0  0.1198
  C  C146  1  0.577200  0.840300  0.609000  1.0  -0.0759
  C  C147  1  0.554000  0.820500  0.622900  1.0  -0.0235
  C  C148  1  0.534300  0.832200  0.647300  1.0  -0.085
  C  C149  1  0.537800  0.863800  0.657900  1.0  -0.0361
  C  C150  1  0.560900  0.883600  0.644100  1.0  -0.0484
  C  C151  1  0.721200  0.028700  0.689800  1.0  0.0031
  C  C152  1  0.771800  0.977200  0.869900  1.0  0.033
  C  C153  1  0.739700  0.975000  0.851800  1.0  -0.0495
  C  C154  1  0.829900  0.973700  0.903600  1.0  0.0387
  C  C155  1  0.705200  0.975200  0.756700  1.0  0.1335
  C  C156  1  0.696600  0.974700  0.790200  1.0  0.0815
  C  C157  1  0.862200  0.973000  0.913500  1.0  -0.0046
  C  C158  1  0.650200  0.069100  0.426100  1.0  -0.0735
  C  C159  1  0.594800  0.081000  0.415500  1.0  0.0148
  C  C160  1  0.617500  0.061400  0.430700  1.0  -0.1215
  C  C161  1  0.660300  0.094000  0.403000  1.0  -0.0772
  C  C162  1  0.635900  0.114100  0.390000  1.0  -0.0535
  C  C163  1  0.603000  0.106600  0.394300  1.0  0.0022
  C  C164  1  0.675100  0.051000  0.445900  1.0  0.6799
  C  C165  1  0.729800  0.970400  0.342800  1.0  -0.0652
  C  C166  1  0.580600  0.128100  0.380300  1.0  0.1205
  C  C167  1  0.577200  0.159700  0.391000  1.0  -0.0768
  C  C168  1  0.554000  0.179500  0.377100  1.0  -0.0239
  C  C169  1  0.534300  0.167800  0.352700  1.0  -0.0859
  C  C170  1  0.537800  0.136200  0.342100  1.0  -0.0362
  C  C171  1  0.560900  0.116400  0.355900  1.0  -0.0489
  C  C172  1  0.721200  0.971300  0.310200  1.0  0.0012
  C  C173  1  0.771800  0.022800  0.130100  1.0  0.0335
  C  C174  1  0.739700  0.025000  0.148200  1.0  -0.0496
  C  C175  1  0.829900  0.026300  0.096400  1.0  0.039
  C  C176  1  0.705200  0.024800  0.243300  1.0  0.1325
  C  C177  1  0.696600  0.025300  0.209800  1.0  0.0816
  C  C178  1  0.862200  0.027000  0.086500  1.0  -0.0052
  C  C179  1  0.349800  0.069100  0.573900  1.0  -0.072
  C  C180  1  0.405200  0.081000  0.584500  1.0  0.0167
  C  C181  1  0.382500  0.061400  0.569300  1.0  -0.1194
  C  C182  1  0.339700  0.094000  0.597000  1.0  -0.0787
  C  C183  1  0.364100  0.114100  0.610000  1.0  -0.0509
  C  C184  1  0.397000  0.106600  0.605700  1.0  0.0012
  C  C185  1  0.324900  0.051000  0.554100  1.0  0.6801
  C  C186  1  0.270200  0.970400  0.657200  1.0  -0.0643
  C  C187  1  0.419400  0.128100  0.619700  1.0  0.1201
  C  C188  1  0.422800  0.159700  0.609000  1.0  -0.0792
  C  C189  1  0.446000  0.179500  0.622900  1.0  -0.0239
  C  C190  1  0.465700  0.167800  0.647300  1.0  -0.0838
  C  C191  1  0.462200  0.136200  0.657900  1.0  -0.0375
  C  C192  1  0.439100  0.116400  0.644100  1.0  -0.0496
  C  C193  1  0.278800  0.971300  0.689800  1.0  0.0022
  C  C194  1  0.228200  0.022800  0.869900  1.0  0.0301
  C  C195  1  0.260300  0.025000  0.851800  1.0  -0.0505
  C  C196  1  0.170100  0.026300  0.903600  1.0  0.0393
  C  C197  1  0.294800  0.024800  0.756700  1.0  0.1319
  C  C198  1  0.303400  0.025300  0.790200  1.0  0.0803
  C  C199  1  0.137800  0.027000  0.913500  1.0  -0.0064
  C  C200  1  0.349800  0.930900  0.426100  1.0  -0.0725
  C  C201  1  0.405200  0.919000  0.415500  1.0  0.0141
  C  C202  1  0.382500  0.938600  0.430700  1.0  -0.1205
  C  C203  1  0.339700  0.906000  0.403000  1.0  -0.0792
  C  C204  1  0.364100  0.885900  0.390000  1.0  -0.0523
  C  C205  1  0.397000  0.893400  0.394300  1.0  0.0014
  C  C206  1  0.324900  0.949000  0.445900  1.0  0.6804
  C  C207  1  0.270200  0.029600  0.342800  1.0  -0.0622
  C  C208  1  0.419400  0.871900  0.380300  1.0  0.1201
  C  C209  1  0.422800  0.840300  0.391000  1.0  -0.0783
  C  C210  1  0.446000  0.820500  0.377100  1.0  -0.0219
  C  C211  1  0.465700  0.832200  0.352700  1.0  -0.0852
  C  C212  1  0.462200  0.863800  0.342100  1.0  -0.0376
  C  C213  1  0.439100  0.883600  0.355900  1.0  -0.0494
  C  C214  1  0.278800  0.028700  0.310200  1.0  0.0032
  C  C215  1  0.228200  0.977200  0.130100  1.0  0.0328
  C  C216  1  0.260300  0.975000  0.148200  1.0  -0.0507
  C  C217  1  0.170100  0.973700  0.096400  1.0  0.0386
  C  C218  1  0.294800  0.975200  0.243300  1.0  0.1324
  C  C219  1  0.303400  0.974700  0.209800  1.0  0.0821
  C  C220  1  0.137800  0.973000  0.086500  1.0  -0.0067
  C  C221  1  0.573900  0.650200  0.930900  1.0  -0.0731
  C  C222  1  0.584500  0.594800  0.919000  1.0  0.0174
  C  C223  1  0.569300  0.617500  0.938600  1.0  -0.1236
  C  C224  1  0.597000  0.660300  0.906000  1.0  -0.0784
  C  C225  1  0.610000  0.635900  0.885900  1.0  -0.0574
  C  C226  1  0.605700  0.603000  0.893400  1.0  0.0009
  C  C227  1  0.554100  0.675100  0.949000  1.0  0.6775
  C  C228  1  0.657200  0.729800  0.029600  1.0  -0.0639
  C  C229  1  0.619700  0.580600  0.871900  1.0  0.1196
  C  C230  1  0.609000  0.577200  0.840300  1.0  -0.0765
  C  C231  1  0.622900  0.554000  0.820500  1.0  -0.0272
  C  C232  1  0.647300  0.534300  0.832200  1.0  -0.0857
  C  C233  1  0.657900  0.537800  0.863800  1.0  -0.0324
  C  C234  1  0.644100  0.560900  0.883600  1.0  -0.053
  C  C235  1  0.689800  0.721200  0.028700  1.0  0.0031
  C  C236  1  0.869900  0.771800  0.977200  1.0  0.0266
  C  C237  1  0.851800  0.739700  0.975000  1.0  -0.0559
  C  C238  1  0.903600  0.829900  0.973700  1.0  0.0423
  C  C239  1  0.756700  0.705200  0.975200  1.0  0.1327
  C  C240  1  0.790200  0.696600  0.974700  1.0  0.0819
  C  C241  1  0.913500  0.862200  0.973000  1.0  -0.0046
  C  C242  1  0.426100  0.650200  0.069100  1.0  -0.0721
  C  C243  1  0.415500  0.594800  0.081000  1.0  0.0182
  C  C244  1  0.430700  0.617500  0.061400  1.0  -0.1224
  C  C245  1  0.403000  0.660300  0.094000  1.0  -0.0783
  C  C246  1  0.390000  0.635900  0.114100  1.0  -0.0552
  C  C247  1  0.394300  0.603000  0.106600  1.0  0.0021
  C  C248  1  0.445900  0.675100  0.051000  1.0  0.6777
  C  C249  1  0.342800  0.729800  0.970400  1.0  -0.0652
  C  C250  1  0.380300  0.580600  0.128100  1.0  0.1188
  C  C251  1  0.391000  0.577200  0.159700  1.0  -0.0761
  C  C252  1  0.377100  0.554000  0.179500  1.0  -0.0285
  C  C253  1  0.352700  0.534300  0.167800  1.0  -0.0849
  C  C254  1  0.342100  0.537800  0.136200  1.0  -0.0335
  C  C255  1  0.355900  0.560900  0.116400  1.0  -0.0494
  C  C256  1  0.310200  0.721200  0.971300  1.0  0.0014
  C  C257  1  0.130100  0.771800  0.022800  1.0  0.0283
  C  C258  1  0.148200  0.739700  0.025000  1.0  -0.0557
  C  C259  1  0.096400  0.829900  0.026300  1.0  0.0402
  C  C260  1  0.243300  0.705200  0.024800  1.0  0.1316
  C  C261  1  0.209800  0.696600  0.025300  1.0  0.0808
  C  C262  1  0.086500  0.862200  0.027000  1.0  -0.0043
  C  C263  1  0.573900  0.349800  0.069100  1.0  -0.0729
  C  C264  1  0.584500  0.405200  0.081000  1.0  0.0169
  C  C265  1  0.569300  0.382500  0.061400  1.0  -0.1231
  C  C266  1  0.597000  0.339700  0.094000  1.0  -0.0774
  C  C267  1  0.610000  0.364100  0.114100  1.0  -0.0545
  C  C268  1  0.605700  0.397000  0.106600  1.0  0.0012
  C  C269  1  0.554100  0.324900  0.051000  1.0  0.6768
  C  C270  1  0.657200  0.270200  0.970400  1.0  -0.0648
  C  C271  1  0.619700  0.419400  0.128100  1.0  0.1195
  C  C272  1  0.609000  0.422800  0.159700  1.0  -0.0752
  C  C273  1  0.622900  0.446000  0.179500  1.0  -0.0296
  C  C274  1  0.647300  0.465700  0.167800  1.0  -0.0866
  C  C275  1  0.657900  0.462200  0.136200  1.0  -0.0343
  C  C276  1  0.644100  0.439100  0.116400  1.0  -0.0498
  C  C277  1  0.689800  0.278800  0.971300  1.0  0.0017
  C  C278  1  0.869900  0.228200  0.022800  1.0  0.0272
  C  C279  1  0.851800  0.260300  0.025000  1.0  -0.0585
  C  C280  1  0.903600  0.170100  0.026300  1.0  0.0404
  C  C281  1  0.756700  0.294800  0.024800  1.0  0.1306
  C  C282  1  0.790200  0.303400  0.025300  1.0  0.0803
  C  C283  1  0.913500  0.137800  0.027000  1.0  -0.0046
  C  C284  1  0.426100  0.349800  0.930900  1.0  -0.073
  C  C285  1  0.415500  0.405200  0.919000  1.0  0.0169
  C  C286  1  0.430700  0.382500  0.938600  1.0  -0.1212
  C  C287  1  0.403000  0.339700  0.906000  1.0  -0.0789
  C  C288  1  0.390000  0.364100  0.885900  1.0  -0.058
  C  C289  1  0.394300  0.397000  0.893400  1.0  0.0016
  C  C290  1  0.445900  0.324900  0.949000  1.0  0.6791
  C  C291  1  0.342800  0.270200  0.029600  1.0  -0.0654
  C  C292  1  0.380300  0.419400  0.871900  1.0  0.1195
  C  C293  1  0.391000  0.422800  0.840300  1.0  -0.0763
  C  C294  1  0.377100  0.446000  0.820500  1.0  -0.029
  C  C295  1  0.352700  0.465700  0.832200  1.0  -0.0859
  C  C296  1  0.342100  0.462200  0.863800  1.0  -0.0331
  C  C297  1  0.355900  0.439100  0.883600  1.0  -0.0536
  C  C298  1  0.310200  0.278800  0.028700  1.0  0.0024
  C  C299  1  0.130100  0.228200  0.977200  1.0  0.0282
  C  C300  1  0.148200  0.260300  0.975000  1.0  -0.0564
  C  C301  1  0.096400  0.170100  0.973700  1.0  0.0428
  C  C302  1  0.243300  0.294800  0.975200  1.0  0.1316
  C  C303  1  0.209800  0.303400  0.974700  1.0  0.0817
  C  C304  1  0.086500  0.137800  0.973000  1.0  -0.0033
  C  C305  1  0.073900  0.430900  0.849800  1.0  -0.0734
  C  C306  1  0.084500  0.419000  0.905200  1.0  0.014
  C  C307  1  0.069300  0.438600  0.882500  1.0  -0.1177
  C  C308  1  0.097000  0.406000  0.839700  1.0  -0.0846
  C  C309  1  0.110000  0.385900  0.864100  1.0  -0.0534
  C  C310  1  0.105700  0.393400  0.897000  1.0  0.0014
  C  C311  1  0.054100  0.449000  0.824900  1.0  0.6775
  C  C312  1  0.157200  0.529600  0.770200  1.0  -0.0615
  C  C313  1  0.119700  0.371900  0.919400  1.0  0.1191
  C  C314  1  0.109000  0.340300  0.922800  1.0  -0.0773
  C  C315  1  0.122900  0.320500  0.946000  1.0  -0.023
  C  C316  1  0.147300  0.332200  0.965700  1.0  -0.0845
  C  C317  1  0.157900  0.363800  0.962200  1.0  -0.0357
  C  C318  1  0.144100  0.383600  0.939100  1.0  -0.0476
  C  C319  1  0.189800  0.528700  0.778800  1.0  0.0042
  C  C320  1  0.369900  0.477200  0.728200  1.0  0.0326
  C  C321  1  0.351800  0.475000  0.760300  1.0  -0.0497
  C  C322  1  0.403600  0.473700  0.670100  1.0  0.038
  C  C323  1  0.256700  0.475200  0.794800  1.0  0.1335
  C  C324  1  0.290200  0.474700  0.803400  1.0  0.0805
  C  C325  1  0.413500  0.473000  0.637800  1.0  -0.0058
  C  C326  1  0.926100  0.569100  0.849800  1.0  -0.0737
  C  C327  1  0.915500  0.581000  0.905200  1.0  0.0148
  C  C328  1  0.930700  0.561400  0.882500  1.0  -0.1171
  C  C329  1  0.903000  0.594000  0.839700  1.0  -0.0863
  C  C330  1  0.890000  0.614100  0.864100  1.0  -0.0537
  C  C331  1  0.894300  0.606600  0.897000  1.0  0.0021
  C  C332  1  0.945900  0.551000  0.824900  1.0  0.6784
  C  C333  1  0.842800  0.470400  0.770200  1.0  -0.0641
  C  C334  1  0.880300  0.628100  0.919400  1.0  0.1191
  C  C335  1  0.891000  0.659700  0.922800  1.0  -0.0785
  C  C336  1  0.877100  0.679500  0.946000  1.0  -0.0253
  C  C337  1  0.852700  0.667800  0.965700  1.0  -0.0841
  C  C338  1  0.842100  0.636200  0.962200  1.0  -0.0367
  C  C339  1  0.855900  0.616400  0.939100  1.0  -0.0475
  C  C340  1  0.810200  0.471300  0.778800  1.0  0.0025
  C  C341  1  0.630100  0.522800  0.728200  1.0  0.0326
  C  C342  1  0.648200  0.525000  0.760300  1.0  -0.0488
  C  C343  1  0.596400  0.526300  0.670100  1.0  0.0389
  C  C344  1  0.743300  0.524800  0.794800  1.0  0.1319
  C  C345  1  0.709800  0.525300  0.803400  1.0  0.0797
  C  C346  1  0.586500  0.527000  0.637800  1.0  -0.0055
  C  C347  1  0.073900  0.569100  0.150200  1.0  -0.0739
  C  C348  1  0.084500  0.581000  0.094800  1.0  0.0178
  C  C349  1  0.069300  0.561400  0.117500  1.0  -0.1193
  C  C350  1  0.097000  0.594000  0.160300  1.0  -0.0826
  C  C351  1  0.110000  0.614100  0.135900  1.0  -0.0515
  C  C352  1  0.105700  0.606600  0.103000  1.0  0.0017
  C  C353  1  0.054100  0.551000  0.175100  1.0  0.6777
  C  C354  1  0.157200  0.470400  0.229800  1.0  -0.064
  C  C355  1  0.119700  0.628100  0.080600  1.0  0.12
  C  C356  1  0.109000  0.659700  0.077200  1.0  -0.0779
  C  C357  1  0.122900  0.679500  0.054000  1.0  -0.0238
  C  C358  1  0.147300  0.667800  0.034300  1.0  -0.0861
  C  C359  1  0.157900  0.636200  0.037800  1.0  -0.0368
  C  C360  1  0.144100  0.616400  0.060900  1.0  -0.0481
  C  C361  1  0.189800  0.471300  0.221200  1.0  0.0033
  C  C362  1  0.369900  0.522800  0.271800  1.0  0.0323
  C  C363  1  0.351800  0.525000  0.239700  1.0  -0.048
  C  C364  1  0.403600  0.526300  0.329900  1.0  0.0392
  C  C365  1  0.256700  0.524800  0.205200  1.0  0.1314
  C  C366  1  0.290200  0.525300  0.196600  1.0  0.0783
  C  C367  1  0.413500  0.527000  0.362200  1.0  -0.0057
  C  C368  1  0.926100  0.430900  0.150200  1.0  -0.0732
  C  C369  1  0.915500  0.419000  0.094800  1.0  0.016
  C  C370  1  0.930700  0.438600  0.117500  1.0  -0.1197
  C  C371  1  0.903000  0.406000  0.160300  1.0  -0.0828
  C  C372  1  0.890000  0.385900  0.135900  1.0  -0.0539
  C  C373  1  0.894300  0.393400  0.103000  1.0  0.0023
  C  C374  1  0.945900  0.449000  0.175100  1.0  0.6785
  C  C375  1  0.842800  0.529600  0.229800  1.0  -0.0622
  C  C376  1  0.880300  0.371900  0.080600  1.0  0.1194
  C  C377  1  0.891000  0.340300  0.077200  1.0  -0.0762
  C  C378  1  0.877100  0.320500  0.054000  1.0  -0.0244
  C  C379  1  0.852700  0.332200  0.034300  1.0  -0.0853
  C  C380  1  0.842100  0.363800  0.037800  1.0  -0.0379
  C  C381  1  0.855900  0.383600  0.060900  1.0  -0.047
  C  C382  1  0.810200  0.528700  0.221200  1.0  0.0036
  C  C383  1  0.630100  0.477200  0.271800  1.0  0.0339
  C  C384  1  0.648200  0.475000  0.239700  1.0  -0.0477
  C  C385  1  0.596400  0.473700  0.329900  1.0  0.0394
  C  C386  1  0.743300  0.475200  0.205200  1.0  0.1326
  C  C387  1  0.709800  0.474700  0.196600  1.0  0.0803
  C  C388  1  0.586500  0.473000  0.362200  1.0  -0.0055
  C  C389  1  0.430900  0.150200  0.926100  1.0  -0.0723
  C  C390  1  0.419000  0.094800  0.915500  1.0  0.0158
  C  C391  1  0.438600  0.117500  0.930700  1.0  -0.1207
  C  C392  1  0.406000  0.160300  0.903000  1.0  -0.0795
  C  C393  1  0.385900  0.135900  0.890000  1.0  -0.0542
  C  C394  1  0.393400  0.103000  0.894300  1.0  0.0014
  C  C395  1  0.449000  0.175100  0.945900  1.0  0.6786
  C  C396  1  0.529600  0.229800  0.842800  1.0  -0.062
  C  C397  1  0.371900  0.080600  0.880300  1.0  0.1192
  C  C398  1  0.340300  0.077200  0.891000  1.0  -0.0785
  C  C399  1  0.320500  0.054000  0.877100  1.0  -0.0212
  C  C400  1  0.332200  0.034300  0.852700  1.0  -0.0851
  C  C401  1  0.363800  0.037800  0.842100  1.0  -0.0352
  C  C402  1  0.383600  0.060900  0.855900  1.0  -0.0487
  C  C403  1  0.528700  0.221200  0.810200  1.0  0.0027
  C  C404  1  0.477200  0.271800  0.630100  1.0  0.0331
  C  C405  1  0.475000  0.239700  0.648200  1.0  -0.046
  C  C406  1  0.473700  0.329900  0.596400  1.0  0.0438
  C  C407  1  0.475200  0.205200  0.743300  1.0  0.1358
  C  C408  1  0.474700  0.196600  0.709800  1.0  0.0817
  C  C409  1  0.473000  0.362200  0.586500  1.0  -0.0048
  C  C410  1  0.569100  0.150200  0.073900  1.0  -0.072
  C  C411  1  0.581000  0.094800  0.084500  1.0  0.0186
  C  C412  1  0.561400  0.117500  0.069300  1.0  -0.122
  C  C413  1  0.594000  0.160300  0.097000  1.0  -0.0779
  C  C414  1  0.614100  0.135900  0.110000  1.0  -0.0505
  C  C415  1  0.606600  0.103000  0.105700  1.0  0.0018
  C  C416  1  0.551000  0.175100  0.054100  1.0  0.6782
  C  C417  1  0.470400  0.229800  0.157200  1.0  -0.0629
  C  C418  1  0.628100  0.080600  0.119700  1.0  0.1188
  C  C419  1  0.659700  0.077200  0.109000  1.0  -0.0771
  C  C420  1  0.679500  0.054000  0.122900  1.0  -0.0256
  C  C421  1  0.667800  0.034300  0.147300  1.0  -0.0845
  C  C422  1  0.636200  0.037800  0.157900  1.0  -0.0341
  C  C423  1  0.616400  0.060900  0.144100  1.0  -0.0469
  C  C424  1  0.471300  0.221200  0.189800  1.0  0.0049
  C  C425  1  0.522800  0.271800  0.369900  1.0  0.0313
  C  C426  1  0.525000  0.239700  0.351800  1.0  -0.0465
  C  C427  1  0.526300  0.329900  0.403600  1.0  0.0434
  C  C428  1  0.524800  0.205200  0.256700  1.0  0.1364
  C  C429  1  0.525300  0.196600  0.290200  1.0  0.0813
  C  C430  1  0.527000  0.362200  0.413500  1.0  -0.0037
  C  C431  1  0.569100  0.849800  0.926100  1.0  -0.0728
  C  C432  1  0.581000  0.905200  0.915500  1.0  0.0159
  C  C433  1  0.561400  0.882500  0.930700  1.0  -0.1212
  C  C434  1  0.594000  0.839700  0.903000  1.0  -0.0785
  C  C435  1  0.614100  0.864100  0.890000  1.0  -0.054
  C  C436  1  0.606600  0.897000  0.894300  1.0  0.002
  C  C437  1  0.551000  0.824900  0.945900  1.0  0.6789
  C  C438  1  0.470400  0.770200  0.842800  1.0  -0.0622
  C  C439  1  0.628100  0.919400  0.880300  1.0  0.1199
  C  C440  1  0.659700  0.922800  0.891000  1.0  -0.075
  C  C441  1  0.679500  0.946000  0.877100  1.0  -0.0243
  C  C442  1  0.667800  0.965700  0.852700  1.0  -0.0866
  C  C443  1  0.636200  0.962200  0.842100  1.0  -0.0325
  C  C444  1  0.616400  0.939100  0.855900  1.0  -0.0462
  C  C445  1  0.471300  0.778800  0.810200  1.0  0.0042
  C  C446  1  0.522800  0.728200  0.630100  1.0  0.032
  C  C447  1  0.525000  0.760300  0.648200  1.0  -0.0473
  C  C448  1  0.526300  0.670100  0.596400  1.0  0.0434
  C  C449  1  0.524800  0.794800  0.743300  1.0  0.136
  C  C450  1  0.525300  0.803400  0.709800  1.0  0.0815
  C  C451  1  0.527000  0.637800  0.586500  1.0  -0.0038
  C  C452  1  0.430900  0.849800  0.073900  1.0  -0.0721
  C  C453  1  0.419000  0.905200  0.084500  1.0  0.0171
  C  C454  1  0.438600  0.882500  0.069300  1.0  -0.1212
  C  C455  1  0.406000  0.839700  0.097000  1.0  -0.0797
  C  C456  1  0.385900  0.864100  0.110000  1.0  -0.055
  C  C457  1  0.393400  0.897000  0.105700  1.0  0.001
  C  C458  1  0.449000  0.824900  0.054100  1.0  0.678
  C  C459  1  0.529600  0.770200  0.157200  1.0  -0.0616
  C  C460  1  0.371900  0.919400  0.119700  1.0  0.1192
  C  C461  1  0.340300  0.922800  0.109000  1.0  -0.0766
  C  C462  1  0.320500  0.946000  0.122900  1.0  -0.0224
  C  C463  1  0.332200  0.965700  0.147300  1.0  -0.0856
  C  C464  1  0.363800  0.962200  0.157900  1.0  -0.0363
  C  C465  1  0.383600  0.939100  0.144100  1.0  -0.0476
  C  C466  1  0.528700  0.778800  0.189800  1.0  0.0028
  C  C467  1  0.477200  0.728200  0.369900  1.0  0.0321
  C  C468  1  0.475000  0.760300  0.351800  1.0  -0.0476
  C  C469  1  0.473700  0.670100  0.403600  1.0  0.0449
  C  C470  1  0.475200  0.794800  0.256700  1.0  0.1359
  C  C471  1  0.474700  0.803400  0.290200  1.0  0.081
  C  C472  1  0.473000  0.637800  0.413500  1.0  -0.0044
  C  C473  1  0.150200  0.073900  0.569100  1.0  -0.0736
  C  C474  1  0.094800  0.084500  0.581000  1.0  0.0177
  C  C475  1  0.117500  0.069300  0.561400  1.0  -0.1239
  C  C476  1  0.160300  0.097000  0.594000  1.0  -0.0762
  C  C477  1  0.135900  0.110000  0.614100  1.0  -0.0534
  C  C478  1  0.103000  0.105700  0.606600  1.0  0.0017
  C  C479  1  0.175100  0.054100  0.551000  1.0  0.679
  C  C480  1  0.229800  0.157200  0.470400  1.0  -0.0649
  C  C481  1  0.080600  0.119700  0.628100  1.0  0.1202
  C  C482  1  0.077200  0.109000  0.659700  1.0  -0.0741
  C  C483  1  0.054000  0.122900  0.679500  1.0  -0.0303
  C  C484  1  0.034300  0.147300  0.667800  1.0  -0.0864
  C  C485  1  0.037800  0.157900  0.636200  1.0  -0.0337
  C  C486  1  0.060900  0.144100  0.616400  1.0  -0.0516
  C  C487  1  0.221200  0.189800  0.471300  1.0  0.0014
  C  C488  1  0.271800  0.369900  0.522800  1.0  0.0287
  C  C489  1  0.239700  0.351800  0.525000  1.0  -0.0577
  C  C490  1  0.329900  0.403600  0.526300  1.0  0.0401
  C  C491  1  0.205200  0.256700  0.524800  1.0  0.1317
  C  C492  1  0.196600  0.290200  0.525300  1.0  0.0818
  C  C493  1  0.362200  0.413500  0.527000  1.0  -0.0033
  C  C494  1  0.150200  0.926100  0.430900  1.0  -0.0732
  C  C495  1  0.094800  0.915500  0.419000  1.0  0.0185
  C  C496  1  0.117500  0.930700  0.438600  1.0  -0.1238
  C  C497  1  0.160300  0.903000  0.406000  1.0  -0.0763
  C  C498  1  0.135900  0.890000  0.385900  1.0  -0.0572
  C  C499  1  0.103000  0.894300  0.393400  1.0  0.0015
  C  C500  1  0.175100  0.945900  0.449000  1.0  0.6795
  C  C501  1  0.229800  0.842800  0.529600  1.0  -0.0646
  C  C502  1  0.080600  0.880300  0.371900  1.0  0.1202
  C  C503  1  0.077200  0.891000  0.340300  1.0  -0.0757
  C  C504  1  0.054000  0.877100  0.320500  1.0  -0.0305
  C  C505  1  0.034300  0.852700  0.332200  1.0  -0.086
  C  C506  1  0.037800  0.842100  0.363800  1.0  -0.0341
  C  C507  1  0.060900  0.855900  0.383600  1.0  -0.0547
  C  C508  1  0.221200  0.810200  0.528700  1.0  0.0019
  C  C509  1  0.271800  0.630100  0.477200  1.0  0.0293
  C  C510  1  0.239700  0.648200  0.475000  1.0  -0.0553
  C  C511  1  0.329900  0.596400  0.473700  1.0  0.0428
  C  C512  1  0.205200  0.743300  0.475200  1.0  0.1341
  C  C513  1  0.196600  0.709800  0.474700  1.0  0.0815
  C  C514  1  0.362200  0.586500  0.473000  1.0  -0.0017
  C  C515  1  0.849800  0.073900  0.430900  1.0  -0.0728
  C  C516  1  0.905200  0.084500  0.419000  1.0  0.0175
  C  C517  1  0.882500  0.069300  0.438600  1.0  -0.1205
  C  C518  1  0.839700  0.097000  0.406000  1.0  -0.0796
  C  C519  1  0.864100  0.110000  0.385900  1.0  -0.055
  C  C520  1  0.897000  0.105700  0.393400  1.0  0.0006
  C  C521  1  0.824900  0.054100  0.449000  1.0  0.6816
  C  C522  1  0.770200  0.157200  0.529600  1.0  -0.0639
  C  C523  1  0.919400  0.119700  0.371900  1.0  0.1205
  C  C524  1  0.922800  0.109000  0.340300  1.0  -0.0768
  C  C525  1  0.946000  0.122900  0.320500  1.0  -0.0289
  C  C526  1  0.965700  0.147300  0.332200  1.0  -0.0851
  C  C527  1  0.962200  0.157900  0.363800  1.0  -0.0336
  C  C528  1  0.939100  0.144100  0.383600  1.0  -0.0551
  C  C529  1  0.778800  0.189800  0.528700  1.0  0.0027
  C  C530  1  0.728200  0.369900  0.477200  1.0  0.0271
  C  C531  1  0.760300  0.351800  0.475000  1.0  -0.0572
  C  C532  1  0.670100  0.403600  0.473700  1.0  0.0422
  C  C533  1  0.794800  0.256700  0.475200  1.0  0.1316
  C  C534  1  0.803400  0.290200  0.474700  1.0  0.082
  C  C535  1  0.637800  0.413500  0.473000  1.0  -0.0037
  C  C536  1  0.849800  0.926100  0.569100  1.0  -0.072
  C  C537  1  0.905200  0.915500  0.581000  1.0  0.0171
  C  C538  1  0.882500  0.930700  0.561400  1.0  -0.1224
  C  C539  1  0.839700  0.903000  0.594000  1.0  -0.0788
  C  C540  1  0.864100  0.890000  0.614100  1.0  -0.0538
  C  C541  1  0.897000  0.894300  0.606600  1.0  0.0013
  C  C542  1  0.824900  0.945900  0.551000  1.0  0.6798
  C  C543  1  0.770200  0.842800  0.470400  1.0  -0.0643
  C  C544  1  0.919400  0.880300  0.628100  1.0  0.12
  C  C545  1  0.922800  0.891000  0.659700  1.0  -0.0773
  C  C546  1  0.946000  0.877100  0.679500  1.0  -0.0292
  C  C547  1  0.965700  0.852700  0.667800  1.0  -0.085
  C  C548  1  0.962200  0.842100  0.636200  1.0  -0.0339
  C  C549  1  0.939100  0.855900  0.616400  1.0  -0.0511
  C  C550  1  0.778800  0.810200  0.471300  1.0  0.0016
  C  C551  1  0.728200  0.630100  0.522800  1.0  0.026
  C  C552  1  0.760300  0.648200  0.525000  1.0  -0.0575
  C  C553  1  0.670100  0.596400  0.526300  1.0  0.0404
  C  C554  1  0.794800  0.743300  0.524800  1.0  0.132
  C  C555  1  0.803400  0.709800  0.525300  1.0  0.0818
  C  C556  1  0.637800  0.586500  0.527000  1.0  -0.0039
  C  C557  1  0.069100  0.426100  0.349800  1.0  -0.0731
  C  C558  1  0.081000  0.415500  0.405200  1.0  0.0153
  C  C559  1  0.061400  0.430700  0.382500  1.0  -0.1192
  C  C560  1  0.094000  0.403000  0.339700  1.0  -0.0851
  C  C561  1  0.114100  0.390000  0.364100  1.0  -0.0534
  C  C562  1  0.106600  0.394300  0.397000  1.0  0.0018
  C  C563  1  0.051000  0.445900  0.324900  1.0  0.6789
  C  C564  1  0.970400  0.342800  0.270200  1.0  -0.0623
  C  C565  1  0.128100  0.380300  0.419400  1.0  0.1191
  C  C566  1  0.159700  0.391000  0.422800  1.0  -0.0763
  C  C567  1  0.179500  0.377100  0.446000  1.0  -0.0246
  C  C568  1  0.167800  0.352700  0.465700  1.0  -0.0846
  C  C569  1  0.136200  0.342100  0.462200  1.0  -0.033
  C  C570  1  0.116400  0.355900  0.439100  1.0  -0.0484
  C  C571  1  0.971300  0.310200  0.278800  1.0  0.0045
  C  C572  1  0.022800  0.130100  0.228200  1.0  0.0307
  C  C573  1  0.025000  0.148200  0.260300  1.0  -0.0469
  C  C574  1  0.026300  0.096400  0.170100  1.0  0.0427
  C  C575  1  0.024800  0.243300  0.294800  1.0  0.1374
  C  C576  1  0.025300  0.209800  0.303400  1.0  0.0814
  C  C577  1  0.027000  0.086500  0.137800  1.0  -0.0029
  C  C578  1  0.930900  0.573900  0.349800  1.0  -0.0737
  C  C579  1  0.919000  0.584500  0.405200  1.0  0.0164
  C  C580  1  0.938600  0.569300  0.382500  1.0  -0.1179
  C  C581  1  0.906000  0.597000  0.339700  1.0  -0.087
  C  C582  1  0.885900  0.610000  0.364100  1.0  -0.0534
  C  C583  1  0.893400  0.605700  0.397000  1.0  0.0009
  C  C584  1  0.949000  0.554100  0.324900  1.0  0.6787
  C  C585  1  0.029600  0.657200  0.270200  1.0  -0.0616
  C  C586  1  0.871900  0.619700  0.419400  1.0  0.1191
  C  C587  1  0.840300  0.609000  0.422800  1.0  -0.0769
  C  C588  1  0.820500  0.622900  0.446000  1.0  -0.0223
  C  C589  1  0.832200  0.647300  0.465700  1.0  -0.0841
  C  C590  1  0.863800  0.657900  0.462200  1.0  -0.0343
  C  C591  1  0.883600  0.644100  0.439100  1.0  -0.0484
  C  C592  1  0.028700  0.689800  0.278800  1.0  0.0033
  C  C593  1  0.977200  0.869900  0.228200  1.0  0.0313
  C  C594  1  0.975000  0.851800  0.260300  1.0  -0.0472
  C  C595  1  0.973700  0.903600  0.170100  1.0  0.0424
  C  C596  1  0.975200  0.756700  0.294800  1.0  0.1364
  C  C597  1  0.974700  0.790200  0.303400  1.0  0.0811
  C  C598  1  0.973000  0.913500  0.137800  1.0  -0.0035
  C  C599  1  0.930900  0.426100  0.650200  1.0  -0.0731
  C  C600  1  0.919000  0.415500  0.594800  1.0  0.0175
  C  C601  1  0.938600  0.430700  0.617500  1.0  -0.1215
  C  C602  1  0.906000  0.403000  0.660300  1.0  -0.0835
  C  C603  1  0.885900  0.390000  0.635900  1.0  -0.0547
  C  C604  1  0.893400  0.394300  0.603000  1.0  0.0014
  C  C605  1  0.949000  0.445900  0.675100  1.0  0.6786
  C  C606  1  0.029600  0.342800  0.729800  1.0  -0.0616
  C  C607  1  0.871900  0.380300  0.580600  1.0  0.1193
  C  C608  1  0.840300  0.391000  0.577200  1.0  -0.0781
  C  C609  1  0.820500  0.377100  0.554000  1.0  -0.0213
  C  C610  1  0.832200  0.352700  0.534300  1.0  -0.0857
  C  C611  1  0.863800  0.342100  0.537800  1.0  -0.0348
  C  C612  1  0.883600  0.355900  0.560900  1.0  -0.0481
  C  C613  1  0.028700  0.310200  0.721200  1.0  0.0027
  C  C614  1  0.977200  0.130100  0.771800  1.0  0.0325
  C  C615  1  0.975000  0.148200  0.739700  1.0  -0.0444
  C  C616  1  0.973700  0.096400  0.829900  1.0  0.0444
  C  C617  1  0.975200  0.243300  0.705200  1.0  0.1369
  C  C618  1  0.974700  0.209800  0.696600  1.0  0.081
  C  C619  1  0.973000  0.086500  0.862200  1.0  -0.0032
  C  C620  1  0.069100  0.573900  0.650200  1.0  -0.0735
  C  C621  1  0.081000  0.584500  0.594800  1.0  0.0187
  C  C622  1  0.061400  0.569300  0.617500  1.0  -0.12
  C  C623  1  0.094000  0.597000  0.660300  1.0  -0.0835
  C  C624  1  0.114100  0.610000  0.635900  1.0  -0.0506
  C  C625  1  0.106600  0.605700  0.603000  1.0  0.0018
  C  C626  1  0.051000  0.554100  0.675100  1.0  0.6793
  C  C627  1  0.970400  0.657200  0.729800  1.0  -0.0619
  C  C628  1  0.128100  0.619700  0.580600  1.0  0.1199
  C  C629  1  0.159700  0.609000  0.577200  1.0  -0.0756
  C  C630  1  0.179500  0.622900  0.554000  1.0  -0.024
  C  C631  1  0.167800  0.647300  0.534300  1.0  -0.0864
  C  C632  1  0.136200  0.657900  0.537800  1.0  -0.0341
  C  C633  1  0.116400  0.644100  0.560900  1.0  -0.0472
  C  C634  1  0.971300  0.689800  0.721200  1.0  0.0056
  C  C635  1  0.022800  0.869900  0.771800  1.0  0.0306
  C  C636  1  0.025000  0.851800  0.739700  1.0  -0.0454
  C  C637  1  0.026300  0.903600  0.829900  1.0  0.0425
  C  C638  1  0.024800  0.756700  0.705200  1.0  0.1366
  C  C639  1  0.025300  0.790200  0.696600  1.0  0.0812
  C  C640  1  0.027000  0.913500  0.862200  1.0  -0.0022
  C  C641  1  0.349800  0.069100  0.426100  1.0  -0.0726
  C  C642  1  0.405200  0.081000  0.415500  1.0  0.0152
  C  C643  1  0.382500  0.061400  0.430700  1.0  -0.119
  C  C644  1  0.339700  0.094000  0.403000  1.0  -0.079
  C  C645  1  0.364100  0.114100  0.390000  1.0  -0.052
  C  C646  1  0.397000  0.106600  0.394300  1.0  0.0015
  C  C647  1  0.324900  0.051000  0.445900  1.0  0.681
  C  C648  1  0.270200  0.970400  0.342800  1.0  -0.0651
  C  C649  1  0.419400  0.128100  0.380300  1.0  0.1206
  C  C650  1  0.422800  0.159700  0.391000  1.0  -0.0796
  C  C651  1  0.446000  0.179500  0.377100  1.0  -0.0226
  C  C652  1  0.465700  0.167800  0.352700  1.0  -0.085
  C  C653  1  0.462200  0.136200  0.342100  1.0  -0.035
  C  C654  1  0.439100  0.116400  0.355900  1.0  -0.049
  C  C655  1  0.278800  0.971300  0.310200  1.0  0.002
  C  C656  1  0.228200  0.022800  0.130100  1.0  0.0313
  C  C657  1  0.260300  0.025000  0.148200  1.0  -0.0503
  C  C658  1  0.170100  0.026300  0.096400  1.0  0.0391
  C  C659  1  0.294800  0.024800  0.243300  1.0  0.1328
  C  C660  1  0.303400  0.025300  0.209800  1.0  0.0813
  C  C661  1  0.137800  0.027000  0.086500  1.0  -0.0063
  C  C662  1  0.349800  0.930900  0.573900  1.0  -0.0719
  C  C663  1  0.405200  0.919000  0.584500  1.0  0.016
  C  C664  1  0.382500  0.938600  0.569300  1.0  -0.1199
  C  C665  1  0.339700  0.906000  0.597000  1.0  -0.079
  C  C666  1  0.364100  0.885900  0.610000  1.0  -0.0517
  C  C667  1  0.397000  0.893400  0.605700  1.0  0.0012
  C  C668  1  0.324900  0.949000  0.554100  1.0  0.6799
  C  C669  1  0.270200  0.029600  0.657200  1.0  -0.0614
  C  C670  1  0.419400  0.871900  0.619700  1.0  0.1196
  C  C671  1  0.422800  0.840300  0.609000  1.0  -0.0777
  C  C672  1  0.446000  0.820500  0.622900  1.0  -0.0218
  C  C673  1  0.465700  0.832200  0.647300  1.0  -0.0842
  C  C674  1  0.462200  0.863800  0.657900  1.0  -0.0359
  C  C675  1  0.439100  0.883600  0.644100  1.0  -0.0495
  C  C676  1  0.278800  0.028700  0.689800  1.0  0.0034
  C  C677  1  0.228200  0.977200  0.869900  1.0  0.0307
  C  C678  1  0.260300  0.975000  0.851800  1.0  -0.0503
  C  C679  1  0.170100  0.973700  0.903600  1.0  0.0393
  C  C680  1  0.294800  0.975200  0.756700  1.0  0.1333
  C  C681  1  0.303400  0.974700  0.790200  1.0  0.0816
  C  C682  1  0.137800  0.973000  0.913500  1.0  -0.0066
  C  C683  1  0.650200  0.930900  0.426100  1.0  -0.0733
  C  C684  1  0.594800  0.919000  0.415500  1.0  0.0153
  C  C685  1  0.617500  0.938600  0.430700  1.0  -0.1221
  C  C686  1  0.660300  0.906000  0.403000  1.0  -0.0762
  C  C687  1  0.635900  0.885900  0.390000  1.0  -0.054
  C  C688  1  0.603000  0.893400  0.394300  1.0  0.0021
  C  C689  1  0.675100  0.949000  0.445900  1.0  0.6794
  C  C690  1  0.729800  0.029600  0.342800  1.0  -0.062
  C  C691  1  0.580600  0.871900  0.380300  1.0  0.1202
  C  C692  1  0.577200  0.840300  0.391000  1.0  -0.0751
  C  C693  1  0.554000  0.820500  0.377100  1.0  -0.0229
  C  C694  1  0.534300  0.832200  0.352700  1.0  -0.086
  C  C695  1  0.537800  0.863800  0.342100  1.0  -0.0354
  C  C696  1  0.560900  0.883600  0.355900  1.0  -0.0484
  C  C697  1  0.721200  0.028700  0.310200  1.0  0.0026
  C  C698  1  0.771800  0.977200  0.130100  1.0  0.0329
  C  C699  1  0.739700  0.975000  0.148200  1.0  -0.0501
  C  C700  1  0.829900  0.973700  0.096400  1.0  0.0379
  C  C701  1  0.705200  0.975200  0.243300  1.0  0.1339
  C  C702  1  0.696600  0.974700  0.209800  1.0  0.0821
  C  C703  1  0.862200  0.973000  0.086500  1.0  -0.0049
  C  C704  1  0.650200  0.069100  0.573900  1.0  -0.0729
  C  C705  1  0.594800  0.081000  0.584500  1.0  0.0165
  C  C706  1  0.617500  0.061400  0.569300  1.0  -0.1215
  C  C707  1  0.660300  0.094000  0.597000  1.0  -0.0759
  C  C708  1  0.635900  0.114100  0.610000  1.0  -0.0513
  C  C709  1  0.603000  0.106600  0.605700  1.0  0.0019
  C  C710  1  0.675100  0.051000  0.554100  1.0  0.6789
  C  C711  1  0.729800  0.970400  0.657200  1.0  -0.0645
  C  C712  1  0.580600  0.128100  0.619700  1.0  0.1201
  C  C713  1  0.577200  0.159700  0.609000  1.0  -0.0775
  C  C714  1  0.554000  0.179500  0.622900  1.0  -0.0258
  C  C715  1  0.534300  0.167800  0.647300  1.0  -0.085
  C  C716  1  0.537800  0.136200  0.657900  1.0  -0.0366
  C  C717  1  0.560900  0.116400  0.644100  1.0  -0.0493
  C  C718  1  0.721200  0.971300  0.689800  1.0  0.0016
  C  C719  1  0.771800  0.022800  0.869900  1.0  0.031
  C  C720  1  0.739700  0.025000  0.851800  1.0  -0.05
  C  C721  1  0.829900  0.026300  0.903600  1.0  0.0387
  C  C722  1  0.705200  0.024800  0.756700  1.0  0.1334
  C  C723  1  0.696600  0.025300  0.790200  1.0  0.0804
  C  C724  1  0.862200  0.027000  0.913500  1.0  -0.0051
  C  C725  1  0.426100  0.349800  0.069100  1.0  -0.0726
  C  C726  1  0.415500  0.405200  0.081000  1.0  0.0163
  C  C727  1  0.430700  0.382500  0.061400  1.0  -0.1222
  C  C728  1  0.403000  0.339700  0.094000  1.0  -0.0785
  C  C729  1  0.390000  0.364100  0.114100  1.0  -0.0563
  C  C730  1  0.394300  0.397000  0.106600  1.0  0.0019
  C  C731  1  0.445900  0.324900  0.051000  1.0  0.6779
  C  C732  1  0.342800  0.270200  0.970400  1.0  -0.0652
  C  C733  1  0.380300  0.419400  0.128100  1.0  0.1193
  C  C734  1  0.391000  0.422800  0.159700  1.0  -0.0748
  C  C735  1  0.377100  0.446000  0.179500  1.0  -0.0294
  C  C736  1  0.352700  0.465700  0.167800  1.0  -0.0862
  C  C737  1  0.342100  0.462200  0.136200  1.0  -0.0316
  C  C738  1  0.355900  0.439100  0.116400  1.0  -0.0485
  C  C739  1  0.310200  0.278800  0.971300  1.0  0.0016
  C  C740  1  0.130100  0.228200  0.022800  1.0  0.0274
  C  C741  1  0.148200  0.260300  0.025000  1.0  -0.0573
  C  C742  1  0.096400  0.170100  0.026300  1.0  0.0406
  C  C743  1  0.243300  0.294800  0.024800  1.0  0.1319
  C  C744  1  0.209800  0.303400  0.025300  1.0  0.0805
  C  C745  1  0.086500  0.137800  0.027000  1.0  -0.0033
  C  C746  1  0.573900  0.349800  0.930900  1.0  -0.0733
  C  C747  1  0.584500  0.405200  0.919000  1.0  0.0169
  C  C748  1  0.569300  0.382500  0.938600  1.0  -0.1226
  C  C749  1  0.597000  0.339700  0.906000  1.0  -0.0778
  C  C750  1  0.610000  0.364100  0.885900  1.0  -0.0575
  C  C751  1  0.605700  0.397000  0.893400  1.0  0.0009
  C  C752  1  0.554100  0.324900  0.949000  1.0  0.678
  C  C753  1  0.657200  0.270200  0.029600  1.0  -0.0638
  C  C754  1  0.619700  0.419400  0.871900  1.0  0.1198
  C  C755  1  0.609000  0.422800  0.840300  1.0  -0.0761
  C  C756  1  0.622900  0.446000  0.820500  1.0  -0.0275
  C  C757  1  0.647300  0.465700  0.832200  1.0  -0.0867
  C  C758  1  0.657900  0.462200  0.863800  1.0  -0.0315
  C  C759  1  0.644100  0.439100  0.883600  1.0  -0.0524
  C  C760  1  0.689800  0.278800  0.028700  1.0  0.0028
  C  C761  1  0.869900  0.228200  0.977200  1.0  0.0259
  C  C762  1  0.851800  0.260300  0.975000  1.0  -0.0564
  C  C763  1  0.903600  0.170100  0.973700  1.0  0.0426
  C  C764  1  0.756700  0.294800  0.975200  1.0  0.1331
  C  C765  1  0.790200  0.303400  0.974700  1.0  0.0818
  C  C766  1  0.913500  0.137800  0.973000  1.0  -0.0042
  C  C767  1  0.426100  0.650200  0.930900  1.0  -0.0728
  C  C768  1  0.415500  0.594800  0.919000  1.0  0.0178
  C  C769  1  0.430700  0.617500  0.938600  1.0  -0.122
  C  C770  1  0.403000  0.660300  0.906000  1.0  -0.0794
  C  C771  1  0.390000  0.635900  0.885900  1.0  -0.0578
  C  C772  1  0.394300  0.603000  0.893400  1.0  0.0017
  C  C773  1  0.445900  0.675100  0.949000  1.0  0.6788
  C  C774  1  0.342800  0.729800  0.029600  1.0  -0.0655
  C  C775  1  0.380300  0.580600  0.871900  1.0  0.1192
  C  C776  1  0.391000  0.577200  0.840300  1.0  -0.0773
  C  C777  1  0.377100  0.554000  0.820500  1.0  -0.0286
  C  C778  1  0.352700  0.534300  0.832200  1.0  -0.0849
  C  C779  1  0.342100  0.537800  0.863800  1.0  -0.0321
  C  C780  1  0.355900  0.560900  0.883600  1.0  -0.0543
  C  C781  1  0.310200  0.721200  0.028700  1.0  0.0022
  C  C782  1  0.130100  0.771800  0.977200  1.0  0.0272
  C  C783  1  0.148200  0.739700  0.975000  1.0  -0.0564
  C  C784  1  0.096400  0.829900  0.973700  1.0  0.0425
  C  C785  1  0.243300  0.705200  0.975200  1.0  0.1324
  C  C786  1  0.209800  0.696600  0.974700  1.0  0.0818
  C  C787  1  0.086500  0.862200  0.973000  1.0  -0.0038
  C  C788  1  0.573900  0.650200  0.069100  1.0  -0.0725
  C  C789  1  0.584500  0.594800  0.081000  1.0  0.0183
  C  C790  1  0.569300  0.617500  0.061400  1.0  -0.123
  C  C791  1  0.597000  0.660300  0.094000  1.0  -0.0775
  C  C792  1  0.610000  0.635900  0.114100  1.0  -0.0536
  C  C793  1  0.605700  0.603000  0.106600  1.0  0.0014
  C  C794  1  0.554100  0.675100  0.051000  1.0  0.6766
  C  C795  1  0.657200  0.729800  0.970400  1.0  -0.0649
  C  C796  1  0.619700  0.580600  0.128100  1.0  0.1191
  C  C797  1  0.609000  0.577200  0.159700  1.0  -0.076
  C  C798  1  0.622900  0.554000  0.179500  1.0  -0.0281
  C  C799  1  0.647300  0.534300  0.167800  1.0  -0.0852
  C  C800  1  0.657900  0.537800  0.136200  1.0  -0.0333
  C  C801  1  0.644100  0.560900  0.116400  1.0  -0.0507
  C  C802  1  0.689800  0.721200  0.971300  1.0  0.0015
  C  C803  1  0.869900  0.771800  0.022800  1.0  0.0262
  C  C804  1  0.851800  0.739700  0.025000  1.0  -0.057
  C  C805  1  0.903600  0.829900  0.026300  1.0  0.0403
  C  C806  1  0.756700  0.705200  0.024800  1.0  0.1312
  C  C807  1  0.790200  0.696600  0.025300  1.0  0.0805
  C  C808  1  0.913500  0.862200  0.027000  1.0  -0.0056
  C  C809  1  0.926100  0.569100  0.150200  1.0  -0.0735
  C  C810  1  0.915500  0.581000  0.094800  1.0  0.0177
  C  C811  1  0.930700  0.561400  0.117500  1.0  -0.1185
  C  C812  1  0.903000  0.594000  0.160300  1.0  -0.0833
  C  C813  1  0.890000  0.614100  0.135900  1.0  -0.0529
  C  C814  1  0.894300  0.606600  0.103000  1.0  0.0024
  C  C815  1  0.945900  0.551000  0.175100  1.0  0.6785
  C  C816  1  0.842800  0.470400  0.229800  1.0  -0.0641
  C  C817  1  0.880300  0.628100  0.080600  1.0  0.1196
  C  C818  1  0.891000  0.659700  0.077200  1.0  -0.078
  C  C819  1  0.877100  0.679500  0.054000  1.0  -0.0251
  C  C820  1  0.852700  0.667800  0.034300  1.0  -0.0853
  C  C821  1  0.842100  0.636200  0.037800  1.0  -0.0359
  C  C822  1  0.855900  0.616400  0.060900  1.0  -0.0476
  C  C823  1  0.810200  0.471300  0.221200  1.0  0.0028
  C  C824  1  0.630100  0.522800  0.271800  1.0  0.0328
  C  C825  1  0.648200  0.525000  0.239700  1.0  -0.0469
  C  C826  1  0.596400  0.526300  0.329900  1.0  0.0392
  C  C827  1  0.743300  0.524800  0.205200  1.0  0.1325
  C  C828  1  0.709800  0.525300  0.196600  1.0  0.0797
  C  C829  1  0.586500  0.527000  0.362200  1.0  -0.0055
  C  C830  1  0.073900  0.430900  0.150200  1.0  -0.0737
  C  C831  1  0.084500  0.419000  0.094800  1.0  0.0163
  C  C832  1  0.069300  0.438600  0.117500  1.0  -0.1202
  C  C833  1  0.097000  0.406000  0.160300  1.0  -0.0814
  C  C834  1  0.110000  0.385900  0.135900  1.0  -0.0522
  C  C835  1  0.105700  0.393400  0.103000  1.0  0.0016
  C  C836  1  0.054100  0.449000  0.175100  1.0  0.6778
  C  C837  1  0.157200  0.529600  0.229800  1.0  -0.0614
  C  C838  1  0.119700  0.371900  0.080600  1.0  0.1197
  C  C839  1  0.109000  0.340300  0.077200  1.0  -0.0766
  C  C840  1  0.122900  0.320500  0.054000  1.0  -0.0232
  C  C841  1  0.147300  0.332200  0.034300  1.0  -0.0862
  C  C842  1  0.157900  0.363800  0.037800  1.0  -0.0364
  C  C843  1  0.144100  0.383600  0.060900  1.0  -0.0479
  C  C844  1  0.189800  0.528700  0.221200  1.0  0.0037
  C  C845  1  0.369900  0.477200  0.271800  1.0  0.0318
  C  C846  1  0.351800  0.475000  0.239700  1.0  -0.0487
  C  C847  1  0.403600  0.473700  0.329900  1.0  0.0383
  C  C848  1  0.256700  0.475200  0.205200  1.0  0.1339
  C  C849  1  0.290200  0.474700  0.196600  1.0  0.0808
  C  C850  1  0.413500  0.473000  0.362200  1.0  -0.0062
  C  C851  1  0.926100  0.430900  0.849800  1.0  -0.0733
  C  C852  1  0.915500  0.419000  0.905200  1.0  0.0146
  C  C853  1  0.930700  0.438600  0.882500  1.0  -0.1172
  C  C854  1  0.903000  0.406000  0.839700  1.0  -0.0858
  C  C855  1  0.890000  0.385900  0.864100  1.0  -0.0537
  C  C856  1  0.894300  0.393400  0.897000  1.0  0.0021
  C  C857  1  0.945900  0.449000  0.824900  1.0  0.6785
  C  C858  1  0.842800  0.529600  0.770200  1.0  -0.0624
  C  C859  1  0.880300  0.371900  0.919400  1.0  0.1189
  C  C860  1  0.891000  0.340300  0.922800  1.0  -0.0775
  C  C861  1  0.877100  0.320500  0.946000  1.0  -0.024
  C  C862  1  0.852700  0.332200  0.965700  1.0  -0.0844
  C  C863  1  0.842100  0.363800  0.962200  1.0  -0.0346
  C  C864  1  0.855900  0.383600  0.939100  1.0  -0.0469
  C  C865  1  0.810200  0.528700  0.778800  1.0  0.0034
  C  C866  1  0.630100  0.477200  0.728200  1.0  0.033
  C  C867  1  0.648200  0.475000  0.760300  1.0  -0.0486
  C  C868  1  0.596400  0.473700  0.670100  1.0  0.039
  C  C869  1  0.743300  0.475200  0.794800  1.0  0.1338
  C  C870  1  0.709800  0.474700  0.803400  1.0  0.08
  C  C871  1  0.586500  0.473000  0.637800  1.0  -0.0048
  C  C872  1  0.073900  0.569100  0.849800  1.0  -0.0738
  C  C873  1  0.084500  0.581000  0.905200  1.0  0.0143
  C  C874  1  0.069300  0.561400  0.882500  1.0  -0.1178
  C  C875  1  0.097000  0.594000  0.839700  1.0  -0.086
  C  C876  1  0.110000  0.614100  0.864100  1.0  -0.0536
  C  C877  1  0.105700  0.606600  0.897000  1.0  0.0014
  C  C878  1  0.054100  0.551000  0.824900  1.0  0.6774
  C  C879  1  0.157200  0.470400  0.770200  1.0  -0.0639
  C  C880  1  0.119700  0.628100  0.919400  1.0  0.1193
  C  C881  1  0.109000  0.659700  0.922800  1.0  -0.0779
  C  C882  1  0.122900  0.679500  0.946000  1.0  -0.0242
  C  C883  1  0.147300  0.667800  0.965700  1.0  -0.0844
  C  C884  1  0.157900  0.636200  0.962200  1.0  -0.0346
  C  C885  1  0.144100  0.616400  0.939100  1.0  -0.0481
  C  C886  1  0.189800  0.471300  0.778800  1.0  0.0026
  C  C887  1  0.369900  0.522800  0.728200  1.0  0.0308
  C  C888  1  0.351800  0.525000  0.760300  1.0  -0.0496
  C  C889  1  0.403600  0.526300  0.670100  1.0  0.0387
  C  C890  1  0.256700  0.524800  0.794800  1.0  0.1326
  C  C891  1  0.290200  0.525300  0.803400  1.0  0.0783
  C  C892  1  0.413500  0.527000  0.637800  1.0  -0.0061
  C  C893  1  0.569100  0.849800  0.073900  1.0  -0.0722
  C  C894  1  0.581000  0.905200  0.084500  1.0  0.0176
  C  C895  1  0.561400  0.882500  0.069300  1.0  -0.1213
  C  C896  1  0.594000  0.839700  0.097000  1.0  -0.0788
  C  C897  1  0.614100  0.864100  0.110000  1.0  -0.0521
  C  C898  1  0.606600  0.897000  0.105700  1.0  0.0017
  C  C899  1  0.551000  0.824900  0.054100  1.0  0.6783
  C  C900  1  0.470400  0.770200  0.157200  1.0  -0.0629
  C  C901  1  0.628100  0.919400  0.119700  1.0  0.1194
  C  C902  1  0.659700  0.922800  0.109000  1.0  -0.0762
  C  C903  1  0.679500  0.946000  0.122900  1.0  -0.025
  C  C904  1  0.667800  0.965700  0.147300  1.0  -0.0856
  C  C905  1  0.636200  0.962200  0.157900  1.0  -0.033
  C  C906  1  0.616400  0.939100  0.144100  1.0  -0.0464
  C  C907  1  0.471300  0.778800  0.189800  1.0  0.0046
  C  C908  1  0.522800  0.728200  0.369900  1.0  0.0296
  C  C909  1  0.525000  0.760300  0.351800  1.0  -0.048
  C  C910  1  0.526300  0.670100  0.403600  1.0  0.0431
  C  C911  1  0.524800  0.794800  0.256700  1.0  0.1368
  C  C912  1  0.525300  0.803400  0.290200  1.0  0.081
  C  C913  1  0.527000  0.637800  0.413500  1.0  -0.0035
  C  C914  1  0.430900  0.849800  0.926100  1.0  -0.0727
  C  C915  1  0.419000  0.905200  0.915500  1.0  0.0157
  C  C916  1  0.438600  0.882500  0.930700  1.0  -0.1207
  C  C917  1  0.406000  0.839700  0.903000  1.0  -0.0794
  C  C918  1  0.385900  0.864100  0.890000  1.0  -0.0556
  C  C919  1  0.393400  0.897000  0.894300  1.0  0.0013
  C  C920  1  0.449000  0.824900  0.945900  1.0  0.679
  C  C921  1  0.529600  0.770200  0.842800  1.0  -0.0619
  C  C922  1  0.371900  0.919400  0.880300  1.0  0.1196
  C  C923  1  0.340300  0.922800  0.891000  1.0  -0.0777
  C  C924  1  0.320500  0.946000  0.877100  1.0  -0.0231
  C  C925  1  0.332200  0.965700  0.852700  1.0  -0.0863
  C  C926  1  0.363800  0.962200  0.842100  1.0  -0.0334
  C  C927  1  0.383600  0.939100  0.855900  1.0  -0.0477
  C  C928  1  0.528700  0.778800  0.810200  1.0  0.0023
  C  C929  1  0.477200  0.728200  0.630100  1.0  0.0323
  C  C930  1  0.475000  0.760300  0.648200  1.0  -0.0469
  C  C931  1  0.473700  0.670100  0.596400  1.0  0.044
  C  C932  1  0.475200  0.794800  0.743300  1.0  0.1363
  C  C933  1  0.474700  0.803400  0.709800  1.0  0.0815
  C  C934  1  0.473000  0.637800  0.586500  1.0  -0.0046
  C  C935  1  0.430900  0.150200  0.073900  1.0  -0.0717
  C  C936  1  0.419000  0.094800  0.084500  1.0  0.018
  C  C937  1  0.438600  0.117500  0.069300  1.0  -0.1216
  C  C938  1  0.406000  0.160300  0.097000  1.0  -0.0789
  C  C939  1  0.385900  0.135900  0.110000  1.0  -0.0532
  C  C940  1  0.393400  0.103000  0.105700  1.0  0.0011
  C  C941  1  0.449000  0.175100  0.054100  1.0  0.6778
  C  C942  1  0.529600  0.229800  0.157200  1.0  -0.0615
  C  C943  1  0.371900  0.080600  0.119700  1.0  0.1187
  C  C944  1  0.340300  0.077200  0.109000  1.0  -0.078
  C  C945  1  0.320500  0.054000  0.122900  1.0  -0.0222
  C  C946  1  0.332200  0.034300  0.147300  1.0  -0.0842
  C  C947  1  0.363800  0.037800  0.157900  1.0  -0.034
  C  C948  1  0.383600  0.060900  0.144100  1.0  -0.0483
  C  C949  1  0.528700  0.221200  0.189800  1.0  0.0024
  C  C950  1  0.477200  0.271800  0.369900  1.0  0.0308
  C  C951  1  0.475000  0.239700  0.351800  1.0  -0.0459
  C  C952  1  0.473700  0.329900  0.403600  1.0  0.0435
  C  C953  1  0.475200  0.205200  0.256700  1.0  0.1372
  C  C954  1  0.474700  0.196600  0.290200  1.0  0.0812
  C  C955  1  0.473000  0.362200  0.413500  1.0  -0.0044
  C  C956  1  0.569100  0.150200  0.926100  1.0  -0.0725
  C  C957  1  0.581000  0.094800  0.915500  1.0  0.0164
  C  C958  1  0.561400  0.117500  0.930700  1.0  -0.1221
  C  C959  1  0.594000  0.160300  0.903000  1.0  -0.0789
  C  C960  1  0.614100  0.135900  0.890000  1.0  -0.0527
  C  C961  1  0.606600  0.103000  0.894300  1.0  0.0021
  C  C962  1  0.551000  0.175100  0.945900  1.0  0.6787
  C  C963  1  0.470400  0.229800  0.842800  1.0  -0.0624
  C  C964  1  0.628100  0.080600  0.880300  1.0  0.1193
  C  C965  1  0.659700  0.077200  0.891000  1.0  -0.0762
  C  C966  1  0.679500  0.054000  0.877100  1.0  -0.0238
  C  C967  1  0.667800  0.034300  0.852700  1.0  -0.0856
  C  C968  1  0.636200  0.037800  0.842100  1.0  -0.0322
  C  C969  1  0.616400  0.060900  0.855900  1.0  -0.0472
  C  C970  1  0.471300  0.221200  0.810200  1.0  0.0039
  C  C971  1  0.522800  0.271800  0.630100  1.0  0.0309
  C  C972  1  0.525000  0.239700  0.648200  1.0  -0.0462
  C  C973  1  0.526300  0.329900  0.596400  1.0  0.0426
  C  C974  1  0.524800  0.205200  0.743300  1.0  0.1372
  C  C975  1  0.525300  0.196600  0.709800  1.0  0.0819
  C  C976  1  0.527000  0.362200  0.586500  1.0  -0.004
  C  C977  1  0.849800  0.926100  0.430900  1.0  -0.0726
  C  C978  1  0.905200  0.915500  0.419000  1.0  0.0175
  C  C979  1  0.882500  0.930700  0.438600  1.0  -0.1224
  C  C980  1  0.839700  0.903000  0.406000  1.0  -0.0794
  C  C981  1  0.864100  0.890000  0.385900  1.0  -0.0554
  C  C982  1  0.897000  0.894300  0.393400  1.0  0.0008
  C  C983  1  0.824900  0.945900  0.449000  1.0  0.6806
  C  C984  1  0.770200  0.842800  0.529600  1.0  -0.0644
  C  C985  1  0.919400  0.880300  0.371900  1.0  0.1203
  C  C986  1  0.922800  0.891000  0.340300  1.0  -0.0775
  C  C987  1  0.946000  0.877100  0.320500  1.0  -0.029
  C  C988  1  0.965700  0.852700  0.332200  1.0  -0.085
  C  C989  1  0.962200  0.842100  0.363800  1.0  -0.033
  C  C990  1  0.939100  0.855900  0.383600  1.0  -0.0551
  C  C991  1  0.778800  0.810200  0.528700  1.0  0.0019
  C  C992  1  0.728200  0.630100  0.477200  1.0  0.0276
  C  C993  1  0.760300  0.648200  0.475000  1.0  -0.0558
  C  C994  1  0.670100  0.596400  0.473700  1.0  0.0431
  C  C995  1  0.794800  0.743300  0.475200  1.0  0.1341
  C  C996  1  0.803400  0.709800  0.474700  1.0  0.0815
  C  C997  1  0.637800  0.586500  0.473000  1.0  -0.0035
  C  C998  1  0.849800  0.073900  0.569100  1.0  -0.0724
  C  C999  1  0.905200  0.084500  0.581000  1.0  0.0175
  C  C1000  1  0.882500  0.069300  0.561400  1.0  -0.1217
  C  C1001  1  0.839700  0.097000  0.594000  1.0  -0.0786
  C  C1002  1  0.864100  0.110000  0.614100  1.0  -0.0528
  C  C1003  1  0.897000  0.105700  0.606600  1.0  0.001
  C  C1004  1  0.824900  0.054100  0.551000  1.0  0.6804
  C  C1005  1  0.770200  0.157200  0.470400  1.0  -0.0648
  C  C1006  1  0.919400  0.119700  0.628100  1.0  0.1202
  C  C1007  1  0.922800  0.109000  0.659700  1.0  -0.0765
  C  C1008  1  0.946000  0.122900  0.679500  1.0  -0.0302
  C  C1009  1  0.965700  0.147300  0.667800  1.0  -0.0852
  C  C1010  1  0.962200  0.157900  0.636200  1.0  -0.0333
  C  C1011  1  0.939100  0.144100  0.616400  1.0  -0.0523
  C  C1012  1  0.778800  0.189800  0.471300  1.0  0.0019
  C  C1013  1  0.728200  0.369900  0.522800  1.0  0.0248
  C  C1014  1  0.760300  0.351800  0.525000  1.0  -0.0586
  C  C1015  1  0.670100  0.403600  0.526300  1.0  0.0403
  C  C1016  1  0.794800  0.256700  0.524800  1.0  0.1318
  C  C1017  1  0.803400  0.290200  0.525300  1.0  0.0815
  C  C1018  1  0.637800  0.413500  0.527000  1.0  -0.0039
  C  C1019  1  0.150200  0.926100  0.569100  1.0  -0.0729
  C  C1020  1  0.094800  0.915500  0.581000  1.0  0.0188
  C  C1021  1  0.117500  0.930700  0.561400  1.0  -0.1236
  C  C1022  1  0.160300  0.903000  0.594000  1.0  -0.0754
  C  C1023  1  0.135900  0.890000  0.614100  1.0  -0.0539
  C  C1024  1  0.103000  0.894300  0.606600  1.0  0.0019
  C  C1025  1  0.175100  0.945900  0.551000  1.0  0.6785
  C  C1026  1  0.229800  0.842800  0.470400  1.0  -0.0643
  C  C1027  1  0.080600  0.880300  0.628100  1.0  0.1199
  C  C1028  1  0.077200  0.891000  0.659700  1.0  -0.0748
  C  C1029  1  0.054000  0.877100  0.679500  1.0  -0.03
  C  C1030  1  0.034300  0.852700  0.667800  1.0  -0.0859
  C  C1031  1  0.037800  0.842100  0.636200  1.0  -0.033
  C  C1032  1  0.060900  0.855900  0.616400  1.0  -0.051
  C  C1033  1  0.221200  0.810200  0.471300  1.0  0.0013
  C  C1034  1  0.271800  0.630100  0.522800  1.0  0.0279
  C  C1035  1  0.239700  0.648200  0.525000  1.0  -0.0566
  C  C1036  1  0.329900  0.596400  0.526300  1.0  0.0404
  C  C1037  1  0.205200  0.743300  0.524800  1.0  0.1333
  C  C1038  1  0.196600  0.709800  0.525300  1.0  0.0819
  C  C1039  1  0.362200  0.586500  0.527000  1.0  -0.0029
  C  C1040  1  0.150200  0.073900  0.430900  1.0  -0.0737
  C  C1041  1  0.094800  0.084500  0.419000  1.0  0.0176
  C  C1042  1  0.117500  0.069300  0.438600  1.0  -0.1231
  C  C1043  1  0.160300  0.097000  0.406000  1.0  -0.0775
  C  C1044  1  0.135900  0.110000  0.385900  1.0  -0.0569
  C  C1045  1  0.103000  0.105700  0.393400  1.0  0.0013
  C  C1046  1  0.175100  0.054100  0.449000  1.0  0.6804
  C  C1047  1  0.229800  0.157200  0.529600  1.0  -0.0641
  C  C1048  1  0.080600  0.119700  0.371900  1.0  0.1204
  C  C1049  1  0.077200  0.109000  0.340300  1.0  -0.0753
  C  C1050  1  0.054000  0.122900  0.320500  1.0  -0.0296
  C  C1051  1  0.034300  0.147300  0.332200  1.0  -0.0863
  C  C1052  1  0.037800  0.157900  0.363800  1.0  -0.0317
  C  C1053  1  0.060900  0.144100  0.383600  1.0  -0.0542
  C  C1054  1  0.221200  0.189800  0.528700  1.0  0.0028
  C  C1055  1  0.271800  0.369900  0.477200  1.0  0.0273
  C  C1056  1  0.239700  0.351800  0.475000  1.0  -0.0562
  C  C1057  1  0.329900  0.403600  0.473700  1.0  0.042
  C  C1058  1  0.205200  0.256700  0.475200  1.0  0.1329
  C  C1059  1  0.196600  0.290200  0.474700  1.0  0.082
  C  C1060  1  0.362200  0.413500  0.473000  1.0  -0.0018
  C  C1061  1  0.000000  0.607300  0.744100  1.0  0.6618
  C  C1062  1  0.000000  0.706200  0.716600  1.0  0.0394
  C  C1063  1  0.000000  0.640600  0.734900  1.0  -0.0565
  C  C1064  1  0.000000  0.739300  0.707400  1.0  0.4045
  C  C1065  1  0.000000  0.806500  0.690800  1.0  0.4185
  C  C1066  1  0.000000  0.859100  0.718000  1.0  -0.0881
  C  C1067  1  0.000000  0.843000  0.686500  1.0  -0.1199
  C  C1068  1  0.000000  0.906400  0.811000  1.0  0.1719
  C  C1069  1  0.000000  0.890500  0.780200  1.0  0.3378
  C  C1070  1  0.000000  0.927400  0.876400  1.0  -0.049
  C  C1071  1  0.000000  0.952000  0.902000  1.0  0.2061
  C  C1072  1  0.000000  0.392700  0.744100  1.0  0.6628
  C  C1073  1  0.000000  0.293800  0.716600  1.0  0.0396
  C  C1074  1  0.000000  0.359400  0.734900  1.0  -0.0572
  C  C1075  1  0.000000  0.260700  0.707400  1.0  0.4041
  C  C1076  1  0.000000  0.193500  0.690800  1.0  0.4185
  C  C1077  1  0.000000  0.140900  0.718000  1.0  -0.089
  C  C1078  1  0.000000  0.157000  0.686500  1.0  -0.1196
  C  C1079  1  0.000000  0.093600  0.811000  1.0  0.1706
  C  C1080  1  0.000000  0.109500  0.780200  1.0  0.3366
  C  C1081  1  0.000000  0.072600  0.876400  1.0  -0.0496
  C  C1082  1  0.000000  0.048000  0.902000  1.0  0.2041
  C  C1083  1  0.000000  0.607300  0.255900  1.0  0.6618
  C  C1084  1  0.000000  0.706200  0.283400  1.0  0.0394
  C  C1085  1  0.000000  0.640600  0.265100  1.0  -0.0563
  C  C1086  1  0.000000  0.739300  0.292600  1.0  0.4043
  C  C1087  1  0.000000  0.806500  0.309200  1.0  0.4177
  C  C1088  1  0.000000  0.859100  0.282000  1.0  -0.0882
  C  C1089  1  0.000000  0.843000  0.313500  1.0  -0.1197
  C  C1090  1  0.000000  0.906400  0.189000  1.0  0.1712
  C  C1091  1  0.000000  0.890500  0.219800  1.0  0.3387
  C  C1092  1  0.000000  0.927400  0.123600  1.0  -0.049
  C  C1093  1  0.000000  0.952000  0.098000  1.0  0.2025
  C  C1094  1  0.000000  0.392700  0.255900  1.0  0.6625
  C  C1095  1  0.000000  0.293800  0.283400  1.0  0.0396
  C  C1096  1  0.000000  0.359400  0.265100  1.0  -0.0569
  C  C1097  1  0.000000  0.260700  0.292600  1.0  0.4039
  C  C1098  1  0.000000  0.193500  0.309200  1.0  0.4175
  C  C1099  1  0.000000  0.140900  0.282000  1.0  -0.0891
  C  C1100  1  0.000000  0.157000  0.313500  1.0  -0.1193
  C  C1101  1  0.000000  0.093600  0.189000  1.0  0.171
  C  C1102  1  0.000000  0.109500  0.219800  1.0  0.3371
  C  C1103  1  0.000000  0.072600  0.123600  1.0  -0.0495
  C  C1104  1  0.000000  0.048000  0.098000  1.0  0.2024
  C  C1105  1  0.744100  0.000000  0.607300  1.0  0.663
  C  C1106  1  0.716600  0.000000  0.706200  1.0  0.0395
  C  C1107  1  0.734900  0.000000  0.640600  1.0  -0.0576
  C  C1108  1  0.707400  0.000000  0.739300  1.0  0.4008
  C  C1109  1  0.690800  0.000000  0.806500  1.0  0.4184
  C  C1110  1  0.718000  0.000000  0.859100  1.0  -0.0909
  C  C1111  1  0.686500  0.000000  0.843000  1.0  -0.119
  C  C1112  1  0.811000  0.000000  0.906400  1.0  0.1695
  C  C1113  1  0.780200  0.000000  0.890500  1.0  0.3341
  C  C1114  1  0.876400  0.000000  0.927400  1.0  -0.0482
  C  C1115  1  0.902000  0.000000  0.952000  1.0  0.2001
  C  C1116  1  0.744100  0.000000  0.392700  1.0  0.6623
  C  C1117  1  0.716600  0.000000  0.293800  1.0  0.0393
  C  C1118  1  0.734900  0.000000  0.359400  1.0  -0.057
  C  C1119  1  0.707400  0.000000  0.260700  1.0  0.4021
  C  C1120  1  0.690800  0.000000  0.193500  1.0  0.418
  C  C1121  1  0.718000  0.000000  0.140900  1.0  -0.0892
  C  C1122  1  0.686500  0.000000  0.157000  1.0  -0.1199
  C  C1123  1  0.811000  0.000000  0.093600  1.0  0.1708
  C  C1124  1  0.780200  0.000000  0.109500  1.0  0.3356
  C  C1125  1  0.876400  0.000000  0.072600  1.0  -0.0489
  C  C1126  1  0.902000  0.000000  0.048000  1.0  0.2029
  C  C1127  1  0.255900  0.000000  0.607300  1.0  0.6617
  C  C1128  1  0.283400  0.000000  0.706200  1.0  0.0396
  C  C1129  1  0.265100  0.000000  0.640600  1.0  -0.059
  C  C1130  1  0.292600  0.000000  0.739300  1.0  0.4012
  C  C1131  1  0.309200  0.000000  0.806500  1.0  0.4195
  C  C1132  1  0.282000  0.000000  0.859100  1.0  -0.0923
  C  C1133  1  0.313500  0.000000  0.843000  1.0  -0.1192
  C  C1134  1  0.189000  0.000000  0.906400  1.0  0.1718
  C  C1135  1  0.219800  0.000000  0.890500  1.0  0.3366
  C  C1136  1  0.123600  0.000000  0.927400  1.0  -0.0488
  C  C1137  1  0.098000  0.000000  0.952000  1.0  0.2006
  C  C1138  1  0.255900  0.000000  0.392700  1.0  0.6616
  C  C1139  1  0.283400  0.000000  0.293800  1.0  0.0394
  C  C1140  1  0.265100  0.000000  0.359400  1.0  -0.0584
  C  C1141  1  0.292600  0.000000  0.260700  1.0  0.4022
  C  C1142  1  0.309200  0.000000  0.193500  1.0  0.4187
  C  C1143  1  0.282000  0.000000  0.140900  1.0  -0.0909
  C  C1144  1  0.313500  0.000000  0.157000  1.0  -0.1199
  C  C1145  1  0.189000  0.000000  0.093600  1.0  0.1724
  C  C1146  1  0.219800  0.000000  0.109500  1.0  0.3372
  C  C1147  1  0.123600  0.000000  0.072600  1.0  -0.0497
  C  C1148  1  0.098000  0.000000  0.048000  1.0  0.2029
  C  C1149  1  0.607300  0.744100  0.000000  1.0  0.6665
  C  C1150  1  0.706200  0.716600  0.000000  1.0  0.0394
  C  C1151  1  0.640600  0.734900  0.000000  1.0  -0.0565
  C  C1152  1  0.739300  0.707400  0.000000  1.0  0.4006
  C  C1153  1  0.806500  0.690800  0.000000  1.0  0.4179
  C  C1154  1  0.859100  0.718000  0.000000  1.0  -0.0908
  C  C1155  1  0.843000  0.686500  0.000000  1.0  -0.1193
  C  C1156  1  0.906400  0.811000  0.000000  1.0  0.173
  C  C1157  1  0.890500  0.780200  0.000000  1.0  0.3343
  C  C1158  1  0.927400  0.876400  0.000000  1.0  -0.0487
  C  C1159  1  0.952000  0.902000  0.000000  1.0  0.2067
  C  C1160  1  0.392700  0.744100  0.000000  1.0  0.6654
  C  C1161  1  0.293800  0.716600  0.000000  1.0  0.0394
  C  C1162  1  0.359400  0.734900  0.000000  1.0  -0.0582
  C  C1163  1  0.260700  0.707400  0.000000  1.0  0.4037
  C  C1164  1  0.193500  0.690800  0.000000  1.0  0.419
  C  C1165  1  0.140900  0.718000  0.000000  1.0  -0.0916
  C  C1166  1  0.157000  0.686500  0.000000  1.0  -0.1194
  C  C1167  1  0.093600  0.811000  0.000000  1.0  0.172
  C  C1168  1  0.109500  0.780200  0.000000  1.0  0.332
  C  C1169  1  0.072600  0.876400  0.000000  1.0  -0.049
  C  C1170  1  0.048000  0.902000  0.000000  1.0  0.2033
  C  C1171  1  0.607300  0.255900  0.000000  1.0  0.6661
  C  C1172  1  0.706200  0.283400  0.000000  1.0  0.0393
  C  C1173  1  0.640600  0.265100  0.000000  1.0  -0.057
  C  C1174  1  0.739300  0.292600  0.000000  1.0  0.4006
  C  C1175  1  0.806500  0.309200  0.000000  1.0  0.4188
  C  C1176  1  0.859100  0.282000  0.000000  1.0  -0.0911
  C  C1177  1  0.843000  0.313500  0.000000  1.0  -0.1198
  C  C1178  1  0.906400  0.189000  0.000000  1.0  0.173
  C  C1179  1  0.890500  0.219800  0.000000  1.0  0.3341
  C  C1180  1  0.927400  0.123600  0.000000  1.0  -0.0497
  C  C1181  1  0.952000  0.098000  0.000000  1.0  0.2069
  C  C1182  1  0.392700  0.255900  0.000000  1.0  0.6652
  C  C1183  1  0.293800  0.283400  0.000000  1.0  0.0393
  C  C1184  1  0.359400  0.265100  0.000000  1.0  -0.0586
  C  C1185  1  0.260700  0.292600  0.000000  1.0  0.4038
  C  C1186  1  0.193500  0.309200  0.000000  1.0  0.4189
  C  C1187  1  0.140900  0.282000  0.000000  1.0  -0.0922
  C  C1188  1  0.157000  0.313500  0.000000  1.0  -0.1201
  C  C1189  1  0.093600  0.189000  0.000000  1.0  0.1724
  C  C1190  1  0.109500  0.219800  0.000000  1.0  0.3325
  C  C1191  1  0.072600  0.123600  0.000000  1.0  -0.0502
  C  C1192  1  0.048000  0.098000  0.000000  1.0  0.2036
  C  C1193  1  0.107300  0.500000  0.755900  1.0  0.6662
  C  C1194  1  0.206200  0.500000  0.783400  1.0  0.0394
  C  C1195  1  0.140600  0.500000  0.765100  1.0  -0.0567
  C  C1196  1  0.239300  0.500000  0.792600  1.0  0.4004
  C  C1197  1  0.306500  0.500000  0.809200  1.0  0.4183
  C  C1198  1  0.359100  0.500000  0.782000  1.0  -0.0904
  C  C1199  1  0.343000  0.500000  0.813500  1.0  -0.1191
  C  C1200  1  0.406400  0.500000  0.689000  1.0  0.172
  C  C1201  1  0.390500  0.500000  0.719800  1.0  0.3352
  C  C1202  1  0.427400  0.500000  0.623600  1.0  -0.0502
  C  C1203  1  0.452000  0.500000  0.598000  1.0  0.2066
  C  C1204  1  0.892700  0.500000  0.755900  1.0  0.6653
  C  C1205  1  0.793800  0.500000  0.783400  1.0  0.0393
  C  C1206  1  0.859400  0.500000  0.765100  1.0  -0.0583
  C  C1207  1  0.760700  0.500000  0.792600  1.0  0.4039
  C  C1208  1  0.693500  0.500000  0.809200  1.0  0.4182
  C  C1209  1  0.640900  0.500000  0.782000  1.0  -0.0914
  C  C1210  1  0.657000  0.500000  0.813500  1.0  -0.1191
  C  C1211  1  0.593600  0.500000  0.689000  1.0  0.1712
  C  C1212  1  0.609500  0.500000  0.719800  1.0  0.3327
  C  C1213  1  0.572600  0.500000  0.623600  1.0  -0.0502
  C  C1214  1  0.548000  0.500000  0.598000  1.0  0.2034
  C  C1215  1  0.107300  0.500000  0.244100  1.0  0.6668
  C  C1216  1  0.206200  0.500000  0.216600  1.0  0.0394
  C  C1217  1  0.140600  0.500000  0.234900  1.0  -0.0566
  C  C1218  1  0.239300  0.500000  0.207400  1.0  0.4008
  C  C1219  1  0.306500  0.500000  0.190800  1.0  0.4189
  C  C1220  1  0.359100  0.500000  0.218000  1.0  -0.0904
  C  C1221  1  0.343000  0.500000  0.186500  1.0  -0.1192
  C  C1222  1  0.406400  0.500000  0.311000  1.0  0.1722
  C  C1223  1  0.390500  0.500000  0.280200  1.0  0.3345
  C  C1224  1  0.427400  0.500000  0.376400  1.0  -0.0495
  C  C1225  1  0.452000  0.500000  0.402000  1.0  0.2084
  C  C1226  1  0.892700  0.500000  0.244100  1.0  0.6655
  C  C1227  1  0.793800  0.500000  0.216600  1.0  0.0394
  C  C1228  1  0.859400  0.500000  0.234900  1.0  -0.0581
  C  C1229  1  0.760700  0.500000  0.207400  1.0  0.4045
  C  C1230  1  0.693500  0.500000  0.190800  1.0  0.4192
  C  C1231  1  0.640900  0.500000  0.218000  1.0  -0.0917
  C  C1232  1  0.657000  0.500000  0.186500  1.0  -0.1194
  C  C1233  1  0.593600  0.500000  0.311000  1.0  0.1713
  C  C1234  1  0.609500  0.500000  0.280200  1.0  0.3323
  C  C1235  1  0.572600  0.500000  0.376400  1.0  -0.0499
  C  C1236  1  0.548000  0.500000  0.402000  1.0  0.2064
  C  C1237  1  0.500000  0.244100  0.892700  1.0  0.6618
  C  C1238  1  0.500000  0.216600  0.793800  1.0  0.0394
  C  C1239  1  0.500000  0.234900  0.859400  1.0  -0.0569
  C  C1240  1  0.500000  0.207400  0.760700  1.0  0.402
  C  C1241  1  0.500000  0.190800  0.693500  1.0  0.4182
  C  C1242  1  0.500000  0.218000  0.640900  1.0  -0.0874
  C  C1243  1  0.500000  0.186500  0.657000  1.0  -0.1185
  C  C1244  1  0.500000  0.311000  0.593600  1.0  0.171
  C  C1245  1  0.500000  0.280200  0.609500  1.0  0.3364
  C  C1246  1  0.500000  0.376400  0.572600  1.0  -0.0488
  C  C1247  1  0.500000  0.402000  0.548000  1.0  0.2051
  C  C1248  1  0.500000  0.244100  0.107300  1.0  0.6622
  C  C1249  1  0.500000  0.216600  0.206200  1.0  0.0396
  C  C1250  1  0.500000  0.234900  0.140600  1.0  -0.0574
  C  C1251  1  0.500000  0.207400  0.239300  1.0  0.4008
  C  C1252  1  0.500000  0.190800  0.306500  1.0  0.4183
  C  C1253  1  0.500000  0.218000  0.359100  1.0  -0.0892
  C  C1254  1  0.500000  0.186500  0.343000  1.0  -0.1175
  C  C1255  1  0.500000  0.311000  0.406400  1.0  0.1699
  C  C1256  1  0.500000  0.280200  0.390500  1.0  0.3357
  C  C1257  1  0.500000  0.376400  0.427400  1.0  -0.0483
  C  C1258  1  0.500000  0.402000  0.452000  1.0  0.2023
  C  C1259  1  0.500000  0.755900  0.892700  1.0  0.6619
  C  C1260  1  0.500000  0.783400  0.793800  1.0  0.0393
  C  C1261  1  0.500000  0.765100  0.859400  1.0  -0.0573
  C  C1262  1  0.500000  0.792600  0.760700  1.0  0.4019
  C  C1263  1  0.500000  0.809200  0.693500  1.0  0.4182
  C  C1264  1  0.500000  0.782000  0.640900  1.0  -0.0875
  C  C1265  1  0.500000  0.813500  0.657000  1.0  -0.1186
  C  C1266  1  0.500000  0.689000  0.593600  1.0  0.1717
  C  C1267  1  0.500000  0.719800  0.609500  1.0  0.3366
  C  C1268  1  0.500000  0.623600  0.572600  1.0  -0.0502
  C  C1269  1  0.500000  0.598000  0.548000  1.0  0.2041
  C  C1270  1  0.500000  0.755900  0.107300  1.0  0.6619
  C  C1271  1  0.500000  0.783400  0.206200  1.0  0.0394
  C  C1272  1  0.500000  0.765100  0.140600  1.0  -0.0577
  C  C1273  1  0.500000  0.792600  0.239300  1.0  0.4007
  C  C1274  1  0.500000  0.809200  0.306500  1.0  0.4196
  C  C1275  1  0.500000  0.782000  0.359100  1.0  -0.0897
  C  C1276  1  0.500000  0.813500  0.343000  1.0  -0.118
  C  C1277  1  0.500000  0.689000  0.406400  1.0  0.1704
  C  C1278  1  0.500000  0.719800  0.390500  1.0  0.3353
  C  C1279  1  0.500000  0.623600  0.427400  1.0  -0.0494
  C  C1280  1  0.500000  0.598000  0.452000  1.0  0.2028
  C  C1281  1  0.244100  0.107300  0.500000  1.0  0.6623
  C  C1282  1  0.216600  0.206200  0.500000  1.0  0.0394
  C  C1283  1  0.234900  0.140600  0.500000  1.0  -0.0566
  C  C1284  1  0.207400  0.239300  0.500000  1.0  0.4044
  C  C1285  1  0.190800  0.306500  0.500000  1.0  0.4178
  C  C1286  1  0.218000  0.359100  0.500000  1.0  -0.088
  C  C1287  1  0.186500  0.343000  0.500000  1.0  -0.1183
  C  C1288  1  0.311000  0.406400  0.500000  1.0  0.1722
  C  C1289  1  0.280200  0.390500  0.500000  1.0  0.3364
  C  C1290  1  0.376400  0.427400  0.500000  1.0  -0.0479
  C  C1291  1  0.402000  0.452000  0.500000  1.0  0.2007
  C  C1292  1  0.244100  0.892700  0.500000  1.0  0.6631
  C  C1293  1  0.216600  0.793800  0.500000  1.0  0.0396
  C  C1294  1  0.234900  0.859400  0.500000  1.0  -0.0572
  C  C1295  1  0.207400  0.760700  0.500000  1.0  0.4037
  C  C1296  1  0.190800  0.693500  0.500000  1.0  0.4179
  C  C1297  1  0.218000  0.640900  0.500000  1.0  -0.0892
  C  C1298  1  0.186500  0.657000  0.500000  1.0  -0.1177
  C  C1299  1  0.311000  0.593600  0.500000  1.0  0.1713
  C  C1300  1  0.280200  0.609500  0.500000  1.0  0.3355
  C  C1301  1  0.376400  0.572600  0.500000  1.0  -0.0482
  C  C1302  1  0.402000  0.548000  0.500000  1.0  0.2002
  C  C1303  1  0.755900  0.107300  0.500000  1.0  0.6617
  C  C1304  1  0.783400  0.206200  0.500000  1.0  0.0395
  C  C1305  1  0.765100  0.140600  0.500000  1.0  -0.058
  C  C1306  1  0.792600  0.239300  0.500000  1.0  0.4044
  C  C1307  1  0.809200  0.306500  0.500000  1.0  0.4188
  C  C1308  1  0.782000  0.359100  0.500000  1.0  -0.09
  C  C1309  1  0.813500  0.343000  0.500000  1.0  -0.1184
  C  C1310  1  0.689000  0.406400  0.500000  1.0  0.174
  C  C1311  1  0.719800  0.390500  0.500000  1.0  0.3381
  C  C1312  1  0.623600  0.427400  0.500000  1.0  -0.0485
  C  C1313  1  0.598000  0.452000  0.500000  1.0  0.2028
  C  C1314  1  0.755900  0.892700  0.500000  1.0  0.6629
  C  C1315  1  0.783400  0.793800  0.500000  1.0  0.0396
  C  C1316  1  0.765100  0.859400  0.500000  1.0  -0.0586
  C  C1317  1  0.792600  0.760700  0.500000  1.0  0.404
  C  C1318  1  0.809200  0.693500  0.500000  1.0  0.4187
  C  C1319  1  0.782000  0.640900  0.500000  1.0  -0.0907
  C  C1320  1  0.813500  0.657000  0.500000  1.0  -0.1179
  C  C1321  1  0.689000  0.593600  0.500000  1.0  0.1735
  C  C1322  1  0.719800  0.609500  0.500000  1.0  0.3365
  C  C1323  1  0.623600  0.572600  0.500000  1.0  -0.0488
  C  C1324  1  0.598000  0.548000  0.500000  1.0  0.201
  O  O1325  1  0.940100  0.561190  0.704200  1.0  -0.6466
  O  O1326  1  0.972600  0.593180  0.747800  1.0  -0.686
  O  O1327  1  0.031700  0.465700  0.664800  1.0  -0.6421
  O  O1328  1  0.975700  0.940800  0.922000  1.0  -0.7161
  O  O1329  1  0.059900  0.438810  0.704200  1.0  -0.6468
  O  O1330  1  0.027400  0.406820  0.747800  1.0  -0.6875
  O  O1331  1  0.968300  0.534300  0.664800  1.0  -0.6436
  O  O1332  1  0.024300  0.059200  0.922000  1.0  -0.7155
  O  O1333  1  0.059900  0.561190  0.295800  1.0  -0.6453
  O  O1334  1  0.027400  0.593180  0.252200  1.0  -0.6862
  O  O1335  1  0.968300  0.465700  0.335200  1.0  -0.6414
  O  O1336  1  0.024300  0.940800  0.078000  1.0  -0.7158
  O  O1337  1  0.940100  0.438810  0.295800  1.0  -0.6455
  O  O1338  1  0.972600  0.406820  0.252200  1.0  -0.6869
  O  O1339  1  0.031700  0.534300  0.335200  1.0  -0.6395
  O  O1340  1  0.975700  0.059200  0.078000  1.0  -0.7147
  O  O1341  1  0.704200  0.940100  0.561190  1.0  -0.6431
  O  O1342  1  0.747800  0.972600  0.593180  1.0  -0.6866
  O  O1343  1  0.664800  0.031700  0.465700  1.0  -0.6394
  O  O1344  1  0.922000  0.975700  0.940800  1.0  -0.7182
  O  O1345  1  0.704200  0.059900  0.438810  1.0  -0.6437
  O  O1346  1  0.747800  0.027400  0.406820  1.0  -0.6867
  O  O1347  1  0.664800  0.968300  0.534300  1.0  -0.6397
  O  O1348  1  0.922000  0.024300  0.059200  1.0  -0.7179
  O  O1349  1  0.295800  0.059900  0.561190  1.0  -0.6429
  O  O1350  1  0.252200  0.027400  0.593180  1.0  -0.6864
  O  O1351  1  0.335200  0.968300  0.465700  1.0  -0.6389
  O  O1352  1  0.078000  0.024300  0.940800  1.0  -0.7181
  O  O1353  1  0.295800  0.940100  0.438810  1.0  -0.6448
  O  O1354  1  0.252200  0.972600  0.406820  1.0  -0.6875
  O  O1355  1  0.335200  0.031700  0.534300  1.0  -0.6374
  O  O1356  1  0.078000  0.975700  0.059200  1.0  -0.7183
  O  O1357  1  0.561190  0.704200  0.940100  1.0  -0.6452
  O  O1358  1  0.593180  0.747800  0.972600  1.0  -0.6866
  O  O1359  1  0.465700  0.664800  0.031700  1.0  -0.6382
  O  O1360  1  0.940800  0.922000  0.975700  1.0  -0.7165
  O  O1361  1  0.438810  0.704200  0.059900  1.0  -0.6451
  O  O1362  1  0.406820  0.747800  0.027400  1.0  -0.6863
  O  O1363  1  0.534300  0.664800  0.968300  1.0  -0.6396
  O  O1364  1  0.059200  0.922000  0.024300  1.0  -0.7164
  O  O1365  1  0.561190  0.295800  0.059900  1.0  -0.6448
  O  O1366  1  0.593180  0.252200  0.027400  1.0  -0.687
  O  O1367  1  0.465700  0.335200  0.968300  1.0  -0.6396
  O  O1368  1  0.940800  0.078000  0.024300  1.0  -0.7148
  O  O1369  1  0.438810  0.295800  0.940100  1.0  -0.6466
  O  O1370  1  0.406820  0.252200  0.972600  1.0  -0.6878
  O  O1371  1  0.534300  0.335200  0.031700  1.0  -0.6375
  O  O1372  1  0.059200  0.078000  0.975700  1.0  -0.7166
  O  O1373  1  0.061190  0.440100  0.795800  1.0  -0.6454
  O  O1374  1  0.093180  0.472600  0.752200  1.0  -0.6871
  O  O1375  1  0.965700  0.531700  0.835200  1.0  -0.639
  O  O1376  1  0.440800  0.475700  0.578000  1.0  -0.715
  O  O1377  1  0.938810  0.559900  0.795800  1.0  -0.6468
  O  O1378  1  0.906820  0.527400  0.752200  1.0  -0.6857
  O  O1379  1  0.034300  0.468300  0.835200  1.0  -0.6379
  O  O1380  1  0.559200  0.524300  0.578000  1.0  -0.7148
  O  O1381  1  0.061190  0.559900  0.204200  1.0  -0.6466
  O  O1382  1  0.093180  0.527400  0.247800  1.0  -0.6862
  O  O1383  1  0.965700  0.468300  0.164800  1.0  -0.642
  O  O1384  1  0.440800  0.524300  0.422000  1.0  -0.7157
  O  O1385  1  0.938810  0.440100  0.204200  1.0  -0.6466
  O  O1386  1  0.906820  0.472600  0.247800  1.0  -0.6856
  O  O1387  1  0.034300  0.531700  0.164800  1.0  -0.6407
  O  O1388  1  0.559200  0.475700  0.422000  1.0  -0.7161
  O  O1389  1  0.440100  0.204200  0.938810  1.0  -0.6451
  O  O1390  1  0.472600  0.247800  0.906820  1.0  -0.6865
  O  O1391  1  0.531700  0.164800  0.034300  1.0  -0.6391
  O  O1392  1  0.475700  0.422000  0.559200  1.0  -0.7167
  O  O1393  1  0.559900  0.204200  0.061190  1.0  -0.6443
  O  O1394  1  0.527400  0.247800  0.093180  1.0  -0.6862
  O  O1395  1  0.468300  0.164800  0.965700  1.0  -0.6408
  O  O1396  1  0.524300  0.422000  0.440800  1.0  -0.7167
  O  O1397  1  0.559900  0.795800  0.938810  1.0  -0.646
  O  O1398  1  0.527400  0.752200  0.906820  1.0  -0.6877
  O  O1399  1  0.468300  0.835200  0.034300  1.0  -0.6398
  O  O1400  1  0.524300  0.578000  0.559200  1.0  -0.7157
  O  O1401  1  0.440100  0.795800  0.061190  1.0  -0.6451
  O  O1402  1  0.472600  0.752200  0.093180  1.0  -0.6854
  O  O1403  1  0.531700  0.835200  0.965700  1.0  -0.6393
  O  O1404  1  0.475700  0.578000  0.440800  1.0  -0.7168
  O  O1405  1  0.204200  0.061190  0.559900  1.0  -0.6424
  O  O1406  1  0.247800  0.093180  0.527400  1.0  -0.6866
  O  O1407  1  0.164800  0.965700  0.468300  1.0  -0.6408
  O  O1408  1  0.422000  0.440800  0.524300  1.0  -0.7165
  O  O1409  1  0.204200  0.938810  0.440100  1.0  -0.6437
  O  O1410  1  0.247800  0.906820  0.472600  1.0  -0.6871
  O  O1411  1  0.164800  0.034300  0.531700  1.0  -0.6399
  O  O1412  1  0.422000  0.559200  0.475700  1.0  -0.7185
  O  O1413  1  0.795800  0.061190  0.440100  1.0  -0.6437
  O  O1414  1  0.752200  0.093180  0.472600  1.0  -0.6867
  O  O1415  1  0.835200  0.965700  0.531700  1.0  -0.6381
  O  O1416  1  0.578000  0.440800  0.475700  1.0  -0.7179
  O  O1417  1  0.795800  0.938810  0.559900  1.0  -0.6438
  O  O1418  1  0.752200  0.906820  0.527400  1.0  -0.6887
  O  O1419  1  0.835200  0.034300  0.468300  1.0  -0.6398
  O  O1420  1  0.578000  0.559200  0.524300  1.0  -0.7165
  O  O1421  1  0.059900  0.438810  0.295800  1.0  -0.6459
  O  O1422  1  0.027400  0.406820  0.252200  1.0  -0.6869
  O  O1423  1  0.968300  0.534300  0.335200  1.0  -0.6413
  O  O1424  1  0.024300  0.059200  0.078000  1.0  -0.7148
  O  O1425  1  0.940100  0.561190  0.295800  1.0  -0.646
  O  O1426  1  0.972600  0.593180  0.252200  1.0  -0.6858
  O  O1427  1  0.031700  0.465700  0.335200  1.0  -0.6395
  O  O1428  1  0.975700  0.940800  0.078000  1.0  -0.7158
  O  O1429  1  0.940100  0.438810  0.704200  1.0  -0.6458
  O  O1430  1  0.972600  0.406820  0.747800  1.0  -0.687
  O  O1431  1  0.031700  0.534300  0.664800  1.0  -0.6422
  O  O1432  1  0.975700  0.059200  0.922000  1.0  -0.7149
  O  O1433  1  0.059900  0.561190  0.704200  1.0  -0.6459
  O  O1434  1  0.027400  0.593180  0.747800  1.0  -0.6867
  O  O1435  1  0.968300  0.465700  0.664800  1.0  -0.6437
  O  O1436  1  0.024300  0.940800  0.922000  1.0  -0.7154
  O  O1437  1  0.295800  0.059900  0.438810  1.0  -0.6439
  O  O1438  1  0.252200  0.027400  0.406820  1.0  -0.6867
  O  O1439  1  0.335200  0.968300  0.534300  1.0  -0.6379
  O  O1440  1  0.078000  0.024300  0.059200  1.0  -0.7166
  O  O1441  1  0.295800  0.940100  0.561190  1.0  -0.644
  O  O1442  1  0.252200  0.972600  0.593180  1.0  -0.6869
  O  O1443  1  0.335200  0.031700  0.465700  1.0  -0.6388
  O  O1444  1  0.078000  0.975700  0.940800  1.0  -0.719
  O  O1445  1  0.704200  0.940100  0.438810  1.0  -0.6435
  O  O1446  1  0.747800  0.972600  0.406820  1.0  -0.6876
  O  O1447  1  0.664800  0.031700  0.534300  1.0  -0.6389
  O  O1448  1  0.922000  0.975700  0.059200  1.0  -0.7173
  O  O1449  1  0.704200  0.059900  0.561190  1.0  -0.6433
  O  O1450  1  0.747800  0.027400  0.593180  1.0  -0.6855
  O  O1451  1  0.664800  0.968300  0.465700  1.0  -0.6395
  O  O1452  1  0.922000  0.024300  0.940800  1.0  -0.7188
  O  O1453  1  0.438810  0.295800  0.059900  1.0  -0.6458
  O  O1454  1  0.406820  0.252200  0.027400  1.0  -0.6861
  O  O1455  1  0.534300  0.335200  0.968300  1.0  -0.6388
  O  O1456  1  0.059200  0.078000  0.024300  1.0  -0.7155
  O  O1457  1  0.561190  0.295800  0.940100  1.0  -0.6465
  O  O1458  1  0.593180  0.252200  0.972600  1.0  -0.6874
  O  O1459  1  0.465700  0.335200  0.031700  1.0  -0.6382
  O  O1460  1  0.940800  0.078000  0.975700  1.0  -0.7169
  O  O1461  1  0.438810  0.704200  0.940100  1.0  -0.6457
  O  O1462  1  0.406820  0.747800  0.972600  1.0  -0.687
  O  O1463  1  0.534300  0.664800  0.031700  1.0  -0.6384
  O  O1464  1  0.059200  0.922000  0.975700  1.0  -0.7162
  O  O1465  1  0.561190  0.704200  0.059900  1.0  -0.6434
  O  O1466  1  0.593180  0.747800  0.027400  1.0  -0.6866
  O  O1467  1  0.465700  0.664800  0.968300  1.0  -0.6396
  O  O1468  1  0.940800  0.922000  0.024300  1.0  -0.7152
  O  O1469  1  0.938810  0.559900  0.204200  1.0  -0.6475
  O  O1470  1  0.906820  0.527400  0.247800  1.0  -0.6855
  O  O1471  1  0.034300  0.468300  0.164800  1.0  -0.6409
  O  O1472  1  0.559200  0.524300  0.422000  1.0  -0.7151
  O  O1473  1  0.061190  0.440100  0.204200  1.0  -0.6462
  O  O1474  1  0.093180  0.472600  0.247800  1.0  -0.6872
  O  O1475  1  0.965700  0.531700  0.164800  1.0  -0.6417
  O  O1476  1  0.440800  0.475700  0.422000  1.0  -0.7156
  O  O1477  1  0.938810  0.440100  0.795800  1.0  -0.6464
  O  O1478  1  0.906820  0.472600  0.752200  1.0  -0.686
  O  O1479  1  0.034300  0.531700  0.835200  1.0  -0.6382
  O  O1480  1  0.559200  0.475700  0.578000  1.0  -0.7158
  O  O1481  1  0.061190  0.559900  0.795800  1.0  -0.6453
  O  O1482  1  0.093180  0.527400  0.752200  1.0  -0.6858
  O  O1483  1  0.965700  0.468300  0.835200  1.0  -0.6386
  O  O1484  1  0.440800  0.524300  0.578000  1.0  -0.7159
  O  O1485  1  0.559900  0.795800  0.061190  1.0  -0.6456
  O  O1486  1  0.527400  0.752200  0.093180  1.0  -0.6864
  O  O1487  1  0.468300  0.835200  0.965700  1.0  -0.6405
  O  O1488  1  0.524300  0.578000  0.440800  1.0  -0.717
  O  O1489  1  0.440100  0.795800  0.938810  1.0  -0.646
  O  O1490  1  0.472600  0.752200  0.906820  1.0  -0.6871
  O  O1491  1  0.531700  0.835200  0.034300  1.0  -0.6385
  O  O1492  1  0.475700  0.578000  0.559200  1.0  -0.716
  O  O1493  1  0.440100  0.204200  0.061190  1.0  -0.6443
  O  O1494  1  0.472600  0.247800  0.093180  1.0  -0.6855
  O  O1495  1  0.531700  0.164800  0.965700  1.0  -0.6401
  O  O1496  1  0.475700  0.422000  0.440800  1.0  -0.7164
  O  O1497  1  0.559900  0.204200  0.938810  1.0  -0.6447
  O  O1498  1  0.527400  0.247800  0.906820  1.0  -0.687
  O  O1499  1  0.468300  0.164800  0.034300  1.0  -0.6401
  O  O1500  1  0.524300  0.422000  0.559200  1.0  -0.7169
  O  O1501  1  0.795800  0.938810  0.440100  1.0  -0.6446
  O  O1502  1  0.752200  0.906820  0.472600  1.0  -0.6872
  O  O1503  1  0.835200  0.034300  0.531700  1.0  -0.6381
  O  O1504  1  0.578000  0.559200  0.475700  1.0  -0.7175
  O  O1505  1  0.795800  0.061190  0.559900  1.0  -0.6421
  O  O1506  1  0.752200  0.093180  0.527400  1.0  -0.687
  O  O1507  1  0.835200  0.965700  0.468300  1.0  -0.6401
  O  O1508  1  0.578000  0.440800  0.524300  1.0  -0.7174
  O  O1509  1  0.204200  0.938810  0.559900  1.0  -0.6431
  O  O1510  1  0.247800  0.906820  0.527400  1.0  -0.6879
  O  O1511  1  0.164800  0.034300  0.468300  1.0  -0.6405
  O  O1512  1  0.422000  0.559200  0.524300  1.0  -0.7162
  O  O1513  1  0.204200  0.061190  0.440100  1.0  -0.644
  O  O1514  1  0.247800  0.093180  0.472600  1.0  -0.6868
  O  O1515  1  0.164800  0.965700  0.531700  1.0  -0.6402
  O  O1516  1  0.422000  0.440800  0.475700  1.0  -0.7182
  O  O1517  1  0.953200  0.500000  0.717200  1.0  -0.9363
  O  O1518  1  0.046800  0.500000  0.717200  1.0  -0.9383
  O  O1519  1  0.046800  0.500000  0.282800  1.0  -0.9361
  O  O1520  1  0.953200  0.500000  0.282800  1.0  -0.9351
  O  O1521  1  0.717200  0.953200  0.500000  1.0  -0.9409
  O  O1522  1  0.717200  0.046800  0.500000  1.0  -0.9412
  O  O1523  1  0.282800  0.046800  0.500000  1.0  -0.9412
  O  O1524  1  0.282800  0.953200  0.500000  1.0  -0.9416
  O  O1525  1  0.500000  0.717200  0.953200  1.0  -0.9397
  O  O1526  1  0.500000  0.717200  0.046800  1.0  -0.9392
  O  O1527  1  0.500000  0.282800  0.046800  1.0  -0.9379
  O  O1528  1  0.500000  0.282800  0.953200  1.0  -0.9389
  O  O1529  1  0.000000  0.453200  0.782800  1.0  -0.9392
  O  O1530  1  0.000000  0.546800  0.782800  1.0  -0.938
  O  O1531  1  0.000000  0.546800  0.217200  1.0  -0.9397
  O  O1532  1  0.000000  0.453200  0.217200  1.0  -0.94
  O  O1533  1  0.453200  0.217200  0.000000  1.0  -0.9393
  O  O1534  1  0.546800  0.217200  0.000000  1.0  -0.9422
  O  O1535  1  0.546800  0.782800  0.000000  1.0  -0.9403
  O  O1536  1  0.453200  0.782800  0.000000  1.0  -0.9392
  O  O1537  1  0.217200  0.000000  0.546800  1.0  -0.9372
  O  O1538  1  0.217200  0.000000  0.453200  1.0  -0.9372
  O  O1539  1  0.782800  0.000000  0.453200  1.0  -0.9379
  O  O1540  1  0.782800  0.000000  0.546800  1.0  -0.9364
  O  O1541  1  0.000000  0.535400  0.723800  1.0  -0.8657
  O  O1542  1  0.000000  0.950300  0.968200  1.0  -0.5298
  O  O1543  1  0.000000  0.464600  0.723800  1.0  -0.8666
  O  O1544  1  0.000000  0.049700  0.968200  1.0  -0.53
  O  O1545  1  0.000000  0.535400  0.276200  1.0  -0.8659
  O  O1546  1  0.000000  0.950300  0.031800  1.0  -0.5291
  O  O1547  1  0.000000  0.464600  0.276200  1.0  -0.8673
  O  O1548  1  0.000000  0.049700  0.031800  1.0  -0.531
  O  O1549  1  0.723800  0.000000  0.535400  1.0  -0.8666
  O  O1550  1  0.968200  0.000000  0.950300  1.0  -0.5288
  O  O1551  1  0.723800  0.000000  0.464600  1.0  -0.8657
  O  O1552  1  0.968200  0.000000  0.049700  1.0  -0.5291
  O  O1553  1  0.276200  0.000000  0.535400  1.0  -0.8652
  O  O1554  1  0.031800  0.000000  0.950300  1.0  -0.5287
  O  O1555  1  0.276200  0.000000  0.464600  1.0  -0.8645
  O  O1556  1  0.031800  0.000000  0.049700  1.0  -0.5286
  O  O1557  1  0.535400  0.723800  0.000000  1.0  -0.8666
  O  O1558  1  0.950300  0.968200  0.000000  1.0  -0.5282
  O  O1559  1  0.464600  0.723800  0.000000  1.0  -0.8667
  O  O1560  1  0.049700  0.968200  0.000000  1.0  -0.5275
  O  O1561  1  0.535400  0.276200  0.000000  1.0  -0.8666
  O  O1562  1  0.950300  0.031800  0.000000  1.0  -0.5276
  O  O1563  1  0.464600  0.276200  0.000000  1.0  -0.8664
  O  O1564  1  0.049700  0.031800  0.000000  1.0  -0.528
  O  O1565  1  0.035400  0.500000  0.776200  1.0  -0.8653
  O  O1566  1  0.450300  0.500000  0.531800  1.0  -0.5259
  O  O1567  1  0.964600  0.500000  0.776200  1.0  -0.8652
  O  O1568  1  0.549700  0.500000  0.531800  1.0  -0.5262
  O  O1569  1  0.035400  0.500000  0.223800  1.0  -0.8651
  O  O1570  1  0.450300  0.500000  0.468200  1.0  -0.5255
  O  O1571  1  0.964600  0.500000  0.223800  1.0  -0.8647
  O  O1572  1  0.549700  0.500000  0.468200  1.0  -0.5258
  O  O1573  1  0.500000  0.223800  0.964600  1.0  -0.8653
  O  O1574  1  0.500000  0.468200  0.549700  1.0  -0.5298
  O  O1575  1  0.500000  0.223800  0.035400  1.0  -0.866
  O  O1576  1  0.500000  0.468200  0.450300  1.0  -0.5299
  O  O1577  1  0.500000  0.776200  0.964600  1.0  -0.865
  O  O1578  1  0.500000  0.531800  0.549700  1.0  -0.5308
  O  O1579  1  0.500000  0.776200  0.035400  1.0  -0.8661
  O  O1580  1  0.500000  0.531800  0.450300  1.0  -0.5305
  O  O1581  1  0.223800  0.035400  0.500000  1.0  -0.868
  O  O1582  1  0.468200  0.450300  0.500000  1.0  -0.531
  O  O1583  1  0.223800  0.964600  0.500000  1.0  -0.8688
  O  O1584  1  0.468200  0.549700  0.500000  1.0  -0.5315
  O  O1585  1  0.776200  0.035400  0.500000  1.0  -0.8667
  O  O1586  1  0.531800  0.450300  0.500000  1.0  -0.5298
  O  O1587  1  0.776200  0.964600  0.500000  1.0  -0.8677
  O  O1588  1  0.531800  0.549700  0.500000  1.0  -0.5306
