# generated using pymatgen
data_Zr13(C53O11)6
_symmetry_space_group_name_H-M   'P 1'
_cell_length_a   41.61600000
_cell_length_b   41.61600000
_cell_length_c   41.61600000
_cell_angle_alpha   90.00000000
_cell_angle_beta   90.00000000
_cell_angle_gamma   90.00000000
_symmetry_Int_Tables_number   1
_chemical_formula_structural   Zr13(C53O11)6
_chemical_formula_sum   'Zr52 C1272 O264'
_cell_volume   72074.39483290
_cell_formula_units_Z   4
loop_
 _symmetry_equiv_pos_site_id
 _symmetry_equiv_pos_as_xyz
  1  'x, y, z'
loop_
 _atom_site_type_symbol
 _atom_site_label
 _atom_site_symmetry_multiplicity
 _atom_site_fract_x
 _atom_site_fract_y
 _atom_site_fract_z
 _atom_site_occupancy
 _atom_site_charge
  Zr  Zr1  1  0.457970  0.250000  0.042030  1.0  2.0783
  Zr  Zr2  1  0.542030  0.750000  0.042030  1.0  2.0785
  Zr  Zr3  1  0.542030  0.250000  0.957970  1.0  2.0791
  Zr  Zr4  1  0.457970  0.750000  0.957970  1.0  2.0794
  Zr  Zr5  1  0.042030  0.457970  0.250000  1.0  2.0821
  Zr  Zr6  1  0.042030  0.542030  0.750000  1.0  2.0776
  Zr  Zr7  1  0.957970  0.542030  0.250000  1.0  2.0771
  Zr  Zr8  1  0.957970  0.457970  0.750000  1.0  2.0821
  Zr  Zr9  1  0.250000  0.042030  0.457970  1.0  2.0797
  Zr  Zr10  1  0.750000  0.042030  0.542030  1.0  2.0781
  Zr  Zr11  1  0.250000  0.957970  0.542030  1.0  2.0831
  Zr  Zr12  1  0.750000  0.957970  0.457970  1.0  2.0838
  Zr  Zr13  1  0.542030  0.750000  0.957970  1.0  2.0791
  Zr  Zr14  1  0.457970  0.250000  0.957970  1.0  2.0794
  Zr  Zr15  1  0.457970  0.750000  0.042030  1.0  2.0783
  Zr  Zr16  1  0.542030  0.250000  0.042030  1.0  2.0785
  Zr  Zr17  1  0.957970  0.542030  0.750000  1.0  2.0771
  Zr  Zr18  1  0.957970  0.457970  0.250000  1.0  2.0821
  Zr  Zr19  1  0.042030  0.457970  0.750000  1.0  2.0821
  Zr  Zr20  1  0.042030  0.542030  0.250000  1.0  2.0776
  Zr  Zr21  1  0.750000  0.957970  0.542030  1.0  2.0831
  Zr  Zr22  1  0.250000  0.957970  0.457970  1.0  2.0838
  Zr  Zr23  1  0.750000  0.042030  0.457970  1.0  2.0797
  Zr  Zr24  1  0.250000  0.042030  0.542030  1.0  2.0781
  Zr  Zr25  1  0.500000  0.309680  0.000000  1.0  2.0658
  Zr  Zr26  1  0.500000  0.690320  0.000000  1.0  2.0695
  Zr  Zr27  1  0.000000  0.500000  0.309680  1.0  2.0639
  Zr  Zr28  1  0.000000  0.500000  0.690320  1.0  2.0642
  Zr  Zr29  1  0.309680  0.000000  0.500000  1.0  2.0639
  Zr  Zr30  1  0.690320  0.000000  0.500000  1.0  2.0645
  Zr  Zr31  1  0.809680  0.000000  0.500000  1.0  2.0639
  Zr  Zr32  1  0.190320  0.000000  0.500000  1.0  2.0645
  Zr  Zr33  1  0.000000  0.500000  0.190320  1.0  2.0642
  Zr  Zr34  1  0.000000  0.500000  0.809680  1.0  2.0639
  Zr  Zr35  1  0.500000  0.809680  0.000000  1.0  2.0658
  Zr  Zr36  1  0.500000  0.190320  0.000000  1.0  2.0695
  Zr  Zr37  1  0.466340  0.533660  0.466340  1.0  1.8891
  Zr  Zr38  1  0.533660  0.466340  0.466340  1.0  1.8903
  Zr  Zr39  1  0.533660  0.533660  0.533660  1.0  1.8879
  Zr  Zr40  1  0.466340  0.466340  0.533660  1.0  1.8865
  Zr  Zr41  1  0.033660  0.966340  0.033660  1.0  1.8882
  Zr  Zr42  1  0.966340  0.033660  0.033660  1.0  1.886
  Zr  Zr43  1  0.033660  0.033660  0.966340  1.0  1.8901
  Zr  Zr44  1  0.966340  0.966340  0.966340  1.0  1.8888
  Zr  Zr45  1  0.533660  0.466340  0.533660  1.0  1.8882
  Zr  Zr46  1  0.466340  0.533660  0.533660  1.0  1.886
  Zr  Zr47  1  0.466340  0.466340  0.466340  1.0  1.8888
  Zr  Zr48  1  0.533660  0.533660  0.466340  1.0  1.8901
  Zr  Zr49  1  0.966340  0.033660  0.966340  1.0  1.8891
  Zr  Zr50  1  0.033660  0.966340  0.966340  1.0  1.8903
  Zr  Zr51  1  0.966340  0.966340  0.033660  1.0  1.8865
  Zr  Zr52  1  0.033660  0.033660  0.033660  1.0  1.8879
  C  C53  1  0.470500  0.218200  0.188100  1.0  -0.1057
  C  C54  1  0.471300  0.227500  0.156830  1.0  0.014
  C  C55  1  0.424670  0.349650  0.068410  1.0  -0.0834
  C  C56  1  0.404580  0.340590  0.093510  1.0  -0.0976
  C  C57  1  0.388790  0.363890  0.111500  1.0  -0.0577
  C  C58  1  0.393100  0.396240  0.104390  1.0  0.0495
  C  C59  1  0.413200  0.405290  0.079300  1.0  -0.0781
  C  C60  1  0.428990  0.382000  0.061310  1.0  -0.107
  C  C61  1  0.444400  0.324900  0.052980  1.0  0.6931
  C  C62  1  0.475000  0.200200  0.256600  1.0  0.118
  C  C63  1  0.415800  0.526900  0.363000  1.0  0.1242
  C  C64  1  0.348100  0.477100  0.241400  1.0  0.0141
  C  C65  1  0.401900  0.529900  0.330600  1.0  -0.1021
  C  C66  1  0.476100  0.195900  0.289700  1.0  0.1834
  C  C67  1  0.361900  0.477200  0.272900  1.0  -0.0016
  C  C68  1  0.375170  0.418750  0.126020  1.0  0.0125
  C  C69  1  0.356960  0.443260  0.112470  1.0  -0.075
  C  C70  1  0.345340  0.468000  0.131670  1.0  0.0289
  C  C71  1  0.351930  0.468230  0.164420  1.0  -0.0696
  C  C72  1  0.370130  0.443720  0.177960  1.0  -0.015
  C  C73  1  0.381750  0.418980  0.158760  1.0  -0.0619
  C  C74  1  0.529500  0.781800  0.188100  1.0  -0.1085
  C  C75  1  0.528700  0.772500  0.156830  1.0  0.0141
  C  C76  1  0.575330  0.650350  0.068410  1.0  -0.0839
  C  C77  1  0.595420  0.659410  0.093510  1.0  -0.0983
  C  C78  1  0.611210  0.636110  0.111500  1.0  -0.056
  C  C79  1  0.606900  0.603760  0.104390  1.0  0.0494
  C  C80  1  0.586800  0.594710  0.079300  1.0  -0.0765
  C  C81  1  0.571010  0.618000  0.061310  1.0  -0.1063
  C  C82  1  0.555600  0.675100  0.052980  1.0  0.6933
  C  C83  1  0.525000  0.799800  0.256600  1.0  0.118
  C  C84  1  0.584200  0.473100  0.363000  1.0  0.1252
  C  C85  1  0.651900  0.522900  0.241400  1.0  0.0172
  C  C86  1  0.598100  0.470100  0.330600  1.0  -0.0983
  C  C87  1  0.523900  0.804100  0.289700  1.0  0.1822
  C  C88  1  0.638100  0.522800  0.272900  1.0  0.0016
  C  C89  1  0.624830  0.581250  0.126020  1.0  0.012
  C  C90  1  0.643040  0.556740  0.112470  1.0  -0.0762
  C  C91  1  0.654660  0.532000  0.131670  1.0  0.0265
  C  C92  1  0.648070  0.531770  0.164420  1.0  -0.069
  C  C93  1  0.629870  0.556280  0.177960  1.0  -0.0133
  C  C94  1  0.618250  0.581020  0.158760  1.0  -0.0634
  C  C95  1  0.529500  0.218200  0.811900  1.0  -0.1089
  C  C96  1  0.528700  0.227500  0.843170  1.0  0.0152
  C  C97  1  0.575330  0.349650  0.931590  1.0  -0.0837
  C  C98  1  0.595420  0.340590  0.906490  1.0  -0.0985
  C  C99  1  0.611210  0.363890  0.888500  1.0  -0.0586
  C  C100  1  0.606900  0.396240  0.895610  1.0  0.0492
  C  C101  1  0.586800  0.405290  0.920700  1.0  -0.0773
  C  C102  1  0.571010  0.382000  0.938690  1.0  -0.105
  C  C103  1  0.555600  0.324900  0.947020  1.0  0.6939
  C  C104  1  0.525000  0.200200  0.743400  1.0  0.1178
  C  C105  1  0.584200  0.526900  0.637000  1.0  0.1252
  C  C106  1  0.651900  0.477100  0.758600  1.0  0.0161
  C  C107  1  0.598100  0.529900  0.669400  1.0  -0.1015
  C  C108  1  0.523900  0.195900  0.710300  1.0  0.1837
  C  C109  1  0.638100  0.477200  0.727100  1.0  -0.0007
  C  C110  1  0.624830  0.418750  0.873980  1.0  0.0116
  C  C111  1  0.643040  0.443260  0.887530  1.0  -0.0753
  C  C112  1  0.654660  0.468000  0.868330  1.0  0.0261
  C  C113  1  0.648070  0.468230  0.835580  1.0  -0.0698
  C  C114  1  0.629870  0.443720  0.822040  1.0  -0.0139
  C  C115  1  0.618250  0.418980  0.841240  1.0  -0.0655
  C  C116  1  0.470500  0.781800  0.811900  1.0  -0.1057
  C  C117  1  0.471300  0.772500  0.843170  1.0  0.0141
  C  C118  1  0.424670  0.650350  0.931590  1.0  -0.0838
  C  C119  1  0.404580  0.659410  0.906490  1.0  -0.1007
  C  C120  1  0.388790  0.636110  0.888500  1.0  -0.0593
  C  C121  1  0.393100  0.603760  0.895610  1.0  0.0496
  C  C122  1  0.413200  0.594710  0.920700  1.0  -0.0766
  C  C123  1  0.428990  0.618000  0.938690  1.0  -0.1038
  C  C124  1  0.444400  0.675100  0.947020  1.0  0.6928
  C  C125  1  0.475000  0.799800  0.743400  1.0  0.1186
  C  C126  1  0.415800  0.473100  0.637000  1.0  0.1263
  C  C127  1  0.348100  0.522900  0.758600  1.0  0.0171
  C  C128  1  0.401900  0.470100  0.669400  1.0  -0.0985
  C  C129  1  0.476100  0.804100  0.710300  1.0  0.185
  C  C130  1  0.361900  0.522800  0.727100  1.0  0.0
  C  C131  1  0.375170  0.581250  0.873980  1.0  0.0118
  C  C132  1  0.356960  0.556740  0.887530  1.0  -0.0768
  C  C133  1  0.345340  0.532000  0.868330  1.0  0.029
  C  C134  1  0.351930  0.531770  0.835580  1.0  -0.069
  C  C135  1  0.370130  0.556280  0.822040  1.0  -0.0156
  C  C136  1  0.381750  0.581020  0.841240  1.0  -0.0657
  C  C137  1  0.188100  0.470500  0.218200  1.0  -0.1062
  C  C138  1  0.156830  0.471300  0.227500  1.0  0.0134
  C  C139  1  0.068410  0.424670  0.349650  1.0  -0.084
  C  C140  1  0.093510  0.404580  0.340590  1.0  -0.1026
  C  C141  1  0.111500  0.388790  0.363890  1.0  -0.0576
  C  C142  1  0.104390  0.393100  0.396240  1.0  0.049
  C  C143  1  0.079300  0.413200  0.405290  1.0  -0.0784
  C  C144  1  0.061310  0.428990  0.382000  1.0  -0.1054
  C  C145  1  0.052980  0.444400  0.324900  1.0  0.6957
  C  C146  1  0.256600  0.475000  0.200200  1.0  0.1135
  C  C147  1  0.363000  0.415800  0.526900  1.0  0.126
  C  C148  1  0.241400  0.348100  0.477100  1.0  0.0071
  C  C149  1  0.330600  0.401900  0.529900  1.0  -0.0958
  C  C150  1  0.289700  0.476100  0.195900  1.0  0.1816
  C  C151  1  0.272900  0.361900  0.477200  1.0  -0.0027
  C  C152  1  0.126020  0.375170  0.418750  1.0  0.0114
  C  C153  1  0.112470  0.356960  0.443260  1.0  -0.0739
  C  C154  1  0.131670  0.345340  0.468000  1.0  0.0245
  C  C155  1  0.164420  0.351930  0.468230  1.0  -0.0693
  C  C156  1  0.177960  0.370130  0.443720  1.0  -0.0083
  C  C157  1  0.158760  0.381750  0.418980  1.0  -0.0673
  C  C158  1  0.188100  0.529500  0.781800  1.0  -0.105
  C  C159  1  0.156830  0.528700  0.772500  1.0  0.0163
  C  C160  1  0.068410  0.575330  0.650350  1.0  -0.0833
  C  C161  1  0.093510  0.595420  0.659410  1.0  -0.0991
  C  C162  1  0.111500  0.611210  0.636110  1.0  -0.0558
  C  C163  1  0.104390  0.606900  0.603760  1.0  0.049
  C  C164  1  0.079300  0.586800  0.594710  1.0  -0.0771
  C  C165  1  0.061310  0.571010  0.618000  1.0  -0.1061
  C  C166  1  0.052980  0.555600  0.675100  1.0  0.696
  C  C167  1  0.256600  0.525000  0.799800  1.0  0.1131
  C  C168  1  0.363000  0.584200  0.473100  1.0  0.1302
  C  C169  1  0.241400  0.651900  0.522900  1.0  0.0089
  C  C170  1  0.330600  0.598100  0.470100  1.0  -0.0982
  C  C171  1  0.289700  0.523900  0.804100  1.0  0.1807
  C  C172  1  0.272900  0.638100  0.522800  1.0  -0.0023
  C  C173  1  0.126020  0.624830  0.581250  1.0  0.0118
  C  C174  1  0.112470  0.643040  0.556740  1.0  -0.074
  C  C175  1  0.131670  0.654660  0.532000  1.0  0.0218
  C  C176  1  0.164420  0.648070  0.531770  1.0  -0.069
  C  C177  1  0.177960  0.629870  0.556280  1.0  -0.0076
  C  C178  1  0.158760  0.618250  0.581020  1.0  -0.0617
  C  C179  1  0.811900  0.529500  0.218200  1.0  -0.1051
  C  C180  1  0.843170  0.528700  0.227500  1.0  0.0148
  C  C181  1  0.931590  0.575330  0.349650  1.0  -0.0842
  C  C182  1  0.906490  0.595420  0.340590  1.0  -0.1037
  C  C183  1  0.888500  0.611210  0.363890  1.0  -0.0573
  C  C184  1  0.895610  0.606900  0.396240  1.0  0.0489
  C  C185  1  0.920700  0.586800  0.405290  1.0  -0.0762
  C  C186  1  0.938690  0.571010  0.382000  1.0  -0.104
  C  C187  1  0.947020  0.555600  0.324900  1.0  0.6941
  C  C188  1  0.743400  0.525000  0.200200  1.0  0.1133
  C  C189  1  0.637000  0.584200  0.526900  1.0  0.1261
  C  C190  1  0.758600  0.651900  0.477100  1.0  0.008
  C  C191  1  0.669400  0.598100  0.529900  1.0  -0.0966
  C  C192  1  0.710300  0.523900  0.195900  1.0  0.1822
  C  C193  1  0.727100  0.638100  0.477200  1.0  -0.0004
  C  C194  1  0.873980  0.624830  0.418750  1.0  0.0112
  C  C195  1  0.887530  0.643040  0.443260  1.0  -0.0756
  C  C196  1  0.868330  0.654660  0.468000  1.0  0.0194
  C  C197  1  0.835580  0.648070  0.468230  1.0  -0.0694
  C  C198  1  0.822040  0.629870  0.443720  1.0  -0.0094
  C  C199  1  0.841240  0.618250  0.418980  1.0  -0.0656
  C  C200  1  0.811900  0.470500  0.781800  1.0  -0.1065
  C  C201  1  0.843170  0.471300  0.772500  1.0  0.0141
  C  C202  1  0.931590  0.424670  0.650350  1.0  -0.0834
  C  C203  1  0.906490  0.404580  0.659410  1.0  -0.0995
  C  C204  1  0.888500  0.388790  0.636110  1.0  -0.0571
  C  C205  1  0.895610  0.393100  0.603760  1.0  0.0497
  C  C206  1  0.920700  0.413200  0.594710  1.0  -0.0784
  C  C207  1  0.938690  0.428990  0.618000  1.0  -0.1086
  C  C208  1  0.947020  0.444400  0.675100  1.0  0.6951
  C  C209  1  0.743400  0.475000  0.799800  1.0  0.1133
  C  C210  1  0.637000  0.415800  0.473100  1.0  0.1292
  C  C211  1  0.758600  0.348100  0.522900  1.0  0.0069
  C  C212  1  0.669400  0.401900  0.470100  1.0  -0.0995
  C  C213  1  0.710300  0.476100  0.804100  1.0  0.1818
  C  C214  1  0.727100  0.361900  0.522800  1.0  -0.0049
  C  C215  1  0.873980  0.375170  0.581250  1.0  0.011
  C  C216  1  0.887530  0.356960  0.556740  1.0  -0.0752
  C  C217  1  0.868330  0.345340  0.532000  1.0  0.0201
  C  C218  1  0.835580  0.351930  0.531770  1.0  -0.0689
  C  C219  1  0.822040  0.370130  0.556280  1.0  -0.0084
  C  C220  1  0.841240  0.381750  0.581020  1.0  -0.064
  C  C221  1  0.218200  0.188100  0.470500  1.0  -0.1051
  C  C222  1  0.227500  0.156830  0.471300  1.0  0.0171
  C  C223  1  0.349650  0.068410  0.424670  1.0  -0.0836
  C  C224  1  0.340590  0.093510  0.404580  1.0  -0.1027
  C  C225  1  0.363890  0.111500  0.388790  1.0  -0.0551
  C  C226  1  0.396240  0.104390  0.393100  1.0  0.0499
  C  C227  1  0.405290  0.079300  0.413200  1.0  -0.0776
  C  C228  1  0.382000  0.061310  0.428990  1.0  -0.1048
  C  C229  1  0.324900  0.052980  0.444400  1.0  0.6953
  C  C230  1  0.200200  0.256600  0.475000  1.0  0.1156
  C  C231  1  0.526900  0.363000  0.415800  1.0  0.1278
  C  C232  1  0.477100  0.241400  0.348100  1.0  0.0159
  C  C233  1  0.529900  0.330600  0.401900  1.0  -0.0993
  C  C234  1  0.195900  0.289700  0.476100  1.0  0.1819
  C  C235  1  0.477200  0.272900  0.361900  1.0  1e-04
  C  C236  1  0.418750  0.126020  0.375170  1.0  0.0126
  C  C237  1  0.443260  0.112470  0.356960  1.0  -0.0752
  C  C238  1  0.468000  0.131670  0.345340  1.0  0.0238
  C  C239  1  0.468230  0.164420  0.351930  1.0  -0.0682
  C  C240  1  0.443720  0.177960  0.370130  1.0  -0.0095
  C  C241  1  0.418980  0.158760  0.381750  1.0  -0.0643
  C  C242  1  0.781800  0.188100  0.529500  1.0  -0.1023
  C  C243  1  0.772500  0.156830  0.528700  1.0  0.0147
  C  C244  1  0.650350  0.068410  0.575330  1.0  -0.0841
  C  C245  1  0.659410  0.093510  0.595420  1.0  -0.1028
  C  C246  1  0.636110  0.111500  0.611210  1.0  -0.055
  C  C247  1  0.603760  0.104390  0.606900  1.0  0.0495
  C  C248  1  0.594710  0.079300  0.586800  1.0  -0.079
  C  C249  1  0.618000  0.061310  0.571010  1.0  -0.1071
  C  C250  1  0.675100  0.052980  0.555600  1.0  0.6943
  C  C251  1  0.799800  0.256600  0.525000  1.0  0.1178
  C  C252  1  0.473100  0.363000  0.584200  1.0  0.1282
  C  C253  1  0.522900  0.241400  0.651900  1.0  0.014
  C  C254  1  0.470100  0.330600  0.598100  1.0  -0.0979
  C  C255  1  0.804100  0.289700  0.523900  1.0  0.1804
  C  C256  1  0.522800  0.272900  0.638100  1.0  0.0012
  C  C257  1  0.581250  0.126020  0.624830  1.0  0.0115
  C  C258  1  0.556740  0.112470  0.643040  1.0  -0.0734
  C  C259  1  0.532000  0.131670  0.654660  1.0  0.0234
  C  C260  1  0.531770  0.164420  0.648070  1.0  -0.0686
  C  C261  1  0.556280  0.177960  0.629870  1.0  -0.0106
  C  C262  1  0.581020  0.158760  0.618250  1.0  -0.0672
  C  C263  1  0.218200  0.811900  0.529500  1.0  -0.1027
  C  C264  1  0.227500  0.843170  0.528700  1.0  0.0153
  C  C265  1  0.349650  0.931590  0.575330  1.0  -0.0837
  C  C266  1  0.340590  0.906490  0.595420  1.0  -0.1027
  C  C267  1  0.363890  0.888500  0.611210  1.0  -0.0543
  C  C268  1  0.396240  0.895610  0.606900  1.0  0.05
  C  C269  1  0.405290  0.920700  0.586800  1.0  -0.0786
  C  C270  1  0.382000  0.938690  0.571010  1.0  -0.1077
  C  C271  1  0.324900  0.947020  0.555600  1.0  0.6959
  C  C272  1  0.200200  0.743400  0.525000  1.0  0.1171
  C  C273  1  0.526900  0.637000  0.584200  1.0  0.1282
  C  C274  1  0.477100  0.758600  0.651900  1.0  0.0153
  C  C275  1  0.529900  0.669400  0.598100  1.0  -0.0997
  C  C276  1  0.195900  0.710300  0.523900  1.0  0.1801
  C  C277  1  0.477200  0.727100  0.638100  1.0  -0.0002
  C  C278  1  0.418750  0.873980  0.624830  1.0  0.0124
  C  C279  1  0.443260  0.887530  0.643040  1.0  -0.0754
  C  C280  1  0.468000  0.868330  0.654660  1.0  0.0229
  C  C281  1  0.468230  0.835580  0.648070  1.0  -0.0677
  C  C282  1  0.443720  0.822040  0.629870  1.0  -0.0098
  C  C283  1  0.418980  0.841240  0.618250  1.0  -0.0673
  C  C284  1  0.781800  0.811900  0.470500  1.0  -0.1054
  C  C285  1  0.772500  0.843170  0.471300  1.0  0.0176
  C  C286  1  0.650350  0.931590  0.424670  1.0  -0.0842
  C  C287  1  0.659410  0.906490  0.404580  1.0  -0.105
  C  C288  1  0.636110  0.888500  0.388790  1.0  -0.0571
  C  C289  1  0.603760  0.895610  0.393100  1.0  0.0498
  C  C290  1  0.594710  0.920700  0.413200  1.0  -0.08
  C  C291  1  0.618000  0.938690  0.428990  1.0  -0.1068
  C  C292  1  0.675100  0.947020  0.444400  1.0  0.6942
  C  C293  1  0.799800  0.743400  0.475000  1.0  0.1158
  C  C294  1  0.473100  0.637000  0.415800  1.0  0.1282
  C  C295  1  0.522900  0.758600  0.348100  1.0  0.0144
  C  C296  1  0.470100  0.669400  0.401900  1.0  -0.0974
  C  C297  1  0.804100  0.710300  0.476100  1.0  0.1813
  C  C298  1  0.522800  0.727100  0.361900  1.0  -0.0002
  C  C299  1  0.581250  0.873980  0.375170  1.0  0.0112
  C  C300  1  0.556740  0.887530  0.356960  1.0  -0.0759
  C  C301  1  0.532000  0.868330  0.345340  1.0  0.0238
  C  C302  1  0.531770  0.835580  0.351930  1.0  -0.0689
  C  C303  1  0.556280  0.822040  0.370130  1.0  -0.0086
  C  C304  1  0.581020  0.841240  0.381750  1.0  -0.0631
  C  C305  1  0.718200  0.970500  0.311900  1.0  -0.1084
  C  C306  1  0.727500  0.971300  0.343170  1.0  0.0126
  C  C307  1  0.849650  0.924670  0.431590  1.0  -0.0837
  C  C308  1  0.840590  0.904580  0.406490  1.0  -0.1034
  C  C309  1  0.863890  0.888790  0.388500  1.0  -0.0579
  C  C310  1  0.896240  0.893100  0.395610  1.0  0.0501
  C  C311  1  0.905290  0.913200  0.420700  1.0  -0.0768
  C  C312  1  0.882000  0.928990  0.438690  1.0  -0.107
  C  C313  1  0.824900  0.944400  0.447020  1.0  0.6958
  C  C314  1  0.700200  0.975000  0.243400  1.0  0.1132
  C  C315  1  0.026900  0.915800  0.137000  1.0  0.128
  C  C316  1  0.977100  0.848100  0.258600  1.0  0.0169
  C  C317  1  0.029900  0.901900  0.169400  1.0  -0.0996
  C  C318  1  0.695900  0.976100  0.210300  1.0  0.1834
  C  C319  1  0.977200  0.861900  0.227100  1.0  -0.0003
  C  C320  1  0.918750  0.875170  0.373980  1.0  0.0122
  C  C321  1  0.943260  0.856960  0.387530  1.0  -0.0767
  C  C322  1  0.968000  0.845340  0.368330  1.0  0.0269
  C  C323  1  0.968230  0.851930  0.335580  1.0  -0.0683
  C  C324  1  0.943720  0.870130  0.322040  1.0  -0.0173
  C  C325  1  0.918980  0.881750  0.341240  1.0  -0.0663
  C  C326  1  0.281800  0.029500  0.311900  1.0  -0.1067
  C  C327  1  0.272500  0.028700  0.343170  1.0  0.0141
  C  C328  1  0.150350  0.075330  0.431590  1.0  -0.0841
  C  C329  1  0.159410  0.095420  0.406490  1.0  -0.1046
  C  C330  1  0.136110  0.111210  0.388500  1.0  -0.0598
  C  C331  1  0.103760  0.106900  0.395610  1.0  0.0493
  C  C332  1  0.094710  0.086800  0.420700  1.0  -0.0777
  C  C333  1  0.118000  0.071010  0.438690  1.0  -0.1055
  C  C334  1  0.175100  0.055600  0.447020  1.0  0.6941
  C  C335  1  0.299800  0.025000  0.243400  1.0  0.1134
  C  C336  1  0.973100  0.084200  0.137000  1.0  0.128
  C  C337  1  0.022900  0.151900  0.258600  1.0  0.0151
  C  C338  1  0.970100  0.098100  0.169400  1.0  -0.0978
  C  C339  1  0.304100  0.023900  0.210300  1.0  0.1838
  C  C340  1  0.022800  0.138100  0.227100  1.0  0.0017
  C  C341  1  0.081250  0.124830  0.373980  1.0  0.011
  C  C342  1  0.056740  0.143040  0.387530  1.0  -0.0765
  C  C343  1  0.032000  0.154660  0.368330  1.0  0.028
  C  C344  1  0.031770  0.148070  0.335580  1.0  -0.0686
  C  C345  1  0.056280  0.129870  0.322040  1.0  -0.017
  C  C346  1  0.081020  0.118250  0.341240  1.0  -0.0656
  C  C347  1  0.718200  0.029500  0.688100  1.0  -0.1064
  C  C348  1  0.727500  0.028700  0.656830  1.0  0.015
  C  C349  1  0.849650  0.075330  0.568410  1.0  -0.0837
  C  C350  1  0.840590  0.095420  0.593510  1.0  -0.1018
  C  C351  1  0.863890  0.111210  0.611500  1.0  -0.0556
  C  C352  1  0.896240  0.106900  0.604390  1.0  0.0498
  C  C353  1  0.905290  0.086800  0.579300  1.0  -0.0766
  C  C354  1  0.882000  0.071010  0.561310  1.0  -0.1072
  C  C355  1  0.824900  0.055600  0.552980  1.0  0.6956
  C  C356  1  0.700200  0.025000  0.756600  1.0  0.1126
  C  C357  1  0.026900  0.084200  0.863000  1.0  0.1273
  C  C358  1  0.977100  0.151900  0.741400  1.0  0.0173
  C  C359  1  0.029900  0.098100  0.830600  1.0  -0.0998
  C  C360  1  0.695900  0.023900  0.789700  1.0  0.1812
  C  C361  1  0.977200  0.138100  0.772900  1.0  0.0013
  C  C362  1  0.918750  0.124830  0.626020  1.0  0.013
  C  C363  1  0.943260  0.143040  0.612470  1.0  -0.077
  C  C364  1  0.968000  0.154660  0.631670  1.0  0.0257
  C  C365  1  0.968230  0.148070  0.664420  1.0  -0.0674
  C  C366  1  0.943720  0.129870  0.677960  1.0  -0.0182
  C  C367  1  0.918980  0.118250  0.658760  1.0  -0.0632
  C  C368  1  0.281800  0.970500  0.688100  1.0  -0.1076
  C  C369  1  0.272500  0.971300  0.656830  1.0  0.0119
  C  C370  1  0.150350  0.924670  0.568410  1.0  -0.084
  C  C371  1  0.159410  0.904580  0.593510  1.0  -0.1024
  C  C372  1  0.136110  0.888790  0.611500  1.0  -0.0563
  C  C373  1  0.103760  0.893100  0.604390  1.0  0.0498
  C  C374  1  0.094710  0.913200  0.579300  1.0  -0.0777
  C  C375  1  0.118000  0.928990  0.561310  1.0  -0.1086
  C  C376  1  0.175100  0.944400  0.552980  1.0  0.6938
  C  C377  1  0.299800  0.975000  0.756600  1.0  0.1125
  C  C378  1  0.973100  0.915800  0.863000  1.0  0.1277
  C  C379  1  0.022900  0.848100  0.741400  1.0  0.0159
  C  C380  1  0.970100  0.901900  0.830600  1.0  -0.098
  C  C381  1  0.304100  0.976100  0.789700  1.0  0.1813
  C  C382  1  0.022800  0.861900  0.772900  1.0  0.0009
  C  C383  1  0.081250  0.875170  0.626020  1.0  0.0119
  C  C384  1  0.056740  0.856960  0.612470  1.0  -0.0751
  C  C385  1  0.032000  0.845340  0.631670  1.0  0.0293
  C  C386  1  0.031770  0.851930  0.664420  1.0  -0.0686
  C  C387  1  0.056280  0.870130  0.677960  1.0  -0.0173
  C  C388  1  0.081020  0.881750  0.658760  1.0  -0.064
  C  C389  1  0.970500  0.688100  0.281800  1.0  -0.1046
  C  C390  1  0.971300  0.656830  0.272500  1.0  0.015
  C  C391  1  0.924670  0.568410  0.150350  1.0  -0.0844
  C  C392  1  0.904580  0.593510  0.159410  1.0  -0.0992
  C  C393  1  0.888790  0.611500  0.136110  1.0  -0.0548
  C  C394  1  0.893100  0.604390  0.103760  1.0  0.0496
  C  C395  1  0.913200  0.579300  0.094710  1.0  -0.0783
  C  C396  1  0.928990  0.561310  0.118000  1.0  -0.1025
  C  C397  1  0.944400  0.552980  0.175100  1.0  0.6937
  C  C398  1  0.975000  0.756600  0.299800  1.0  0.1175
  C  C399  1  0.915800  0.863000  0.973100  1.0  0.1313
  C  C400  1  0.848100  0.741400  0.022900  1.0  0.0106
  C  C401  1  0.901900  0.830600  0.970100  1.0  -0.0986
  C  C402  1  0.976100  0.789700  0.304100  1.0  0.1839
  C  C403  1  0.861900  0.772900  0.022800  1.0  -0.0041
  C  C404  1  0.875170  0.626020  0.081250  1.0  0.0118
  C  C405  1  0.856960  0.612470  0.056740  1.0  -0.0748
  C  C406  1  0.845340  0.631670  0.032000  1.0  0.0237
  C  C407  1  0.851930  0.664420  0.031770  1.0  -0.0687
  C  C408  1  0.870130  0.677960  0.056280  1.0  -0.0135
  C  C409  1  0.881750  0.658760  0.081020  1.0  -0.0625
  C  C410  1  0.029500  0.688100  0.718200  1.0  -0.1081
  C  C411  1  0.028700  0.656830  0.727500  1.0  0.0146
  C  C412  1  0.075330  0.568410  0.849650  1.0  -0.0853
  C  C413  1  0.095420  0.593510  0.840590  1.0  -0.1028
  C  C414  1  0.111210  0.611500  0.863890  1.0  -0.0555
  C  C415  1  0.106900  0.604390  0.896240  1.0  0.0489
  C  C416  1  0.086800  0.579300  0.905290  1.0  -0.0788
  C  C417  1  0.071010  0.561310  0.882000  1.0  -0.1017
  C  C418  1  0.055600  0.552980  0.824900  1.0  0.694
  C  C419  1  0.025000  0.756600  0.700200  1.0  0.117
  C  C420  1  0.084200  0.863000  0.026900  1.0  0.1273
  C  C421  1  0.151900  0.741400  0.977100  1.0  0.0094
  C  C422  1  0.098100  0.830600  0.029900  1.0  -0.0961
  C  C423  1  0.023900  0.789700  0.695900  1.0  0.1829
  C  C424  1  0.138100  0.772900  0.977200  1.0  -0.0021
  C  C425  1  0.124830  0.626020  0.918750  1.0  0.0111
  C  C426  1  0.143040  0.612470  0.943260  1.0  -0.0738
  C  C427  1  0.154660  0.631670  0.968000  1.0  0.0223
  C  C428  1  0.148070  0.664420  0.968230  1.0  -0.069
  C  C429  1  0.129870  0.677960  0.943720  1.0  -0.0135
  C  C430  1  0.118250  0.658760  0.918980  1.0  -0.067
  C  C431  1  0.029500  0.311900  0.281800  1.0  -0.1082
  C  C432  1  0.028700  0.343170  0.272500  1.0  0.0157
  C  C433  1  0.075330  0.431590  0.150350  1.0  -0.0846
  C  C434  1  0.095420  0.406490  0.159410  1.0  -0.0983
  C  C435  1  0.111210  0.388500  0.136110  1.0  -0.0545
  C  C436  1  0.106900  0.395610  0.103760  1.0  0.0495
  C  C437  1  0.086800  0.420700  0.094710  1.0  -0.0794
  C  C438  1  0.071010  0.438690  0.118000  1.0  -0.1041
  C  C439  1  0.055600  0.447020  0.175100  1.0  0.6949
  C  C440  1  0.025000  0.243400  0.299800  1.0  0.1176
  C  C441  1  0.084200  0.137000  0.973100  1.0  0.1305
  C  C442  1  0.151900  0.258600  0.022900  1.0  0.0107
  C  C443  1  0.098100  0.169400  0.970100  1.0  -0.0985
  C  C444  1  0.023900  0.210300  0.304100  1.0  0.183
  C  C445  1  0.138100  0.227100  0.022800  1.0  -0.0029
  C  C446  1  0.124830  0.373980  0.081250  1.0  0.0111
  C  C447  1  0.143040  0.387530  0.056740  1.0  -0.0761
  C  C448  1  0.154660  0.368330  0.032000  1.0  0.0196
  C  C449  1  0.148070  0.335580  0.031770  1.0  -0.069
  C  C450  1  0.129870  0.322040  0.056280  1.0  -0.0124
  C  C451  1  0.118250  0.341240  0.081020  1.0  -0.0638
  C  C452  1  0.970500  0.311900  0.718200  1.0  -0.1054
  C  C453  1  0.971300  0.343170  0.727500  1.0  0.0149
  C  C454  1  0.924670  0.431590  0.849650  1.0  -0.0849
  C  C455  1  0.904580  0.406490  0.840590  1.0  -0.1031
  C  C456  1  0.888790  0.388500  0.863890  1.0  -0.0569
  C  C457  1  0.893100  0.395610  0.896240  1.0  0.0494
  C  C458  1  0.913200  0.420700  0.905290  1.0  -0.0798
  C  C459  1  0.928990  0.438690  0.882000  1.0  -0.1011
  C  C460  1  0.944400  0.447020  0.824900  1.0  0.6933
  C  C461  1  0.975000  0.243400  0.700200  1.0  0.1178
  C  C462  1  0.915800  0.137000  0.026900  1.0  0.127
  C  C463  1  0.848100  0.258600  0.977100  1.0  0.0095
  C  C464  1  0.901900  0.169400  0.029900  1.0  -0.0965
  C  C465  1  0.976100  0.210300  0.695900  1.0  0.1842
  C  C466  1  0.861900  0.227100  0.977200  1.0  -0.0029
  C  C467  1  0.875170  0.373980  0.918750  1.0  0.0114
  C  C468  1  0.856960  0.387530  0.943260  1.0  -0.0756
  C  C469  1  0.845340  0.368330  0.968000  1.0  0.0239
  C  C470  1  0.851930  0.335580  0.968230  1.0  -0.0696
  C  C471  1  0.870130  0.322040  0.943720  1.0  -0.0123
  C  C472  1  0.881750  0.341240  0.918980  1.0  -0.0656
  C  C473  1  0.688100  0.718200  0.029500  1.0  -0.1024
  C  C474  1  0.656830  0.727500  0.028700  1.0  0.0172
  C  C475  1  0.568410  0.849650  0.075330  1.0  -0.0824
  C  C476  1  0.593510  0.840590  0.095420  1.0  -0.0969
  C  C477  1  0.611500  0.863890  0.111210  1.0  -0.0558
  C  C478  1  0.604390  0.896240  0.106900  1.0  0.0491
  C  C479  1  0.579300  0.905290  0.086800  1.0  -0.0775
  C  C480  1  0.561310  0.882000  0.071010  1.0  -0.1084
  C  C481  1  0.552980  0.824900  0.055600  1.0  0.6952
  C  C482  1  0.756600  0.700200  0.025000  1.0  0.1172
  C  C483  1  0.863000  0.026900  0.084200  1.0  0.124
  C  C484  1  0.741400  0.977100  0.151900  1.0  0.0103
  C  C485  1  0.830600  0.029900  0.098100  1.0  -0.1015
  C  C486  1  0.789700  0.695900  0.023900  1.0  0.1793
  C  C487  1  0.772900  0.977200  0.138100  1.0  -0.0015
  C  C488  1  0.626020  0.918750  0.124830  1.0  0.0123
  C  C489  1  0.612470  0.943260  0.143040  1.0  -0.0727
  C  C490  1  0.631670  0.968000  0.154660  1.0  0.0235
  C  C491  1  0.664420  0.968230  0.148070  1.0  -0.0698
  C  C492  1  0.677960  0.943720  0.129870  1.0  -0.0135
  C  C493  1  0.658760  0.918980  0.118250  1.0  -0.0665
  C  C494  1  0.688100  0.281800  0.970500  1.0  -0.1045
  C  C495  1  0.656830  0.272500  0.971300  1.0  0.0179
  C  C496  1  0.568410  0.150350  0.924670  1.0  -0.0827
  C  C497  1  0.593510  0.159410  0.904580  1.0  -0.1007
  C  C498  1  0.611500  0.136110  0.888790  1.0  -0.0582
  C  C499  1  0.604390  0.103760  0.893100  1.0  0.0494
  C  C500  1  0.579300  0.094710  0.913200  1.0  -0.0771
  C  C501  1  0.561310  0.118000  0.928990  1.0  -0.1076
  C  C502  1  0.552980  0.175100  0.944400  1.0  0.6947
  C  C503  1  0.756600  0.299800  0.975000  1.0  0.1174
  C  C504  1  0.863000  0.973100  0.915800  1.0  0.1256
  C  C505  1  0.741400  0.022900  0.848100  1.0  0.0138
  C  C506  1  0.830600  0.970100  0.901900  1.0  -0.0981
  C  C507  1  0.789700  0.304100  0.976100  1.0  0.1813
  C  C508  1  0.772900  0.022800  0.861900  1.0  0.0006
  C  C509  1  0.626020  0.081250  0.875170  1.0  0.012
  C  C510  1  0.612470  0.056740  0.856960  1.0  -0.0742
  C  C511  1  0.631670  0.032000  0.845340  1.0  0.025
  C  C512  1  0.664420  0.031770  0.851930  1.0  -0.0697
  C  C513  1  0.677960  0.056280  0.870130  1.0  -0.0125
  C  C514  1  0.658760  0.081020  0.881750  1.0  -0.0632
  C  C515  1  0.311900  0.718200  0.970500  1.0  -0.1044
  C  C516  1  0.343170  0.727500  0.971300  1.0  0.018
  C  C517  1  0.431590  0.849650  0.924670  1.0  -0.0825
  C  C518  1  0.406490  0.840590  0.904580  1.0  -0.0999
  C  C519  1  0.388500  0.863890  0.888790  1.0  -0.0588
  C  C520  1  0.395610  0.896240  0.893100  1.0  0.0494
  C  C521  1  0.420700  0.905290  0.913200  1.0  -0.0777
  C  C522  1  0.438690  0.882000  0.928990  1.0  -0.1079
  C  C523  1  0.447020  0.824900  0.944400  1.0  0.6943
  C  C524  1  0.243400  0.700200  0.975000  1.0  0.1164
  C  C525  1  0.137000  0.026900  0.915800  1.0  0.1238
  C  C526  1  0.258600  0.977100  0.848100  1.0  0.0126
  C  C527  1  0.169400  0.029900  0.901900  1.0  -0.1021
  C  C528  1  0.210300  0.695900  0.976100  1.0  0.1823
  C  C529  1  0.227100  0.977200  0.861900  1.0  -0.0018
  C  C530  1  0.373980  0.918750  0.875170  1.0  0.0117
  C  C531  1  0.387530  0.943260  0.856960  1.0  -0.0749
  C  C532  1  0.368330  0.968000  0.845340  1.0  0.0207
  C  C533  1  0.335580  0.968230  0.851930  1.0  -0.0703
  C  C534  1  0.322040  0.943720  0.870130  1.0  -0.0134
  C  C535  1  0.341240  0.918980  0.881750  1.0  -0.064
  C  C536  1  0.311900  0.281800  0.029500  1.0  -0.103
  C  C537  1  0.343170  0.272500  0.028700  1.0  0.015
  C  C538  1  0.431590  0.150350  0.075330  1.0  -0.0826
  C  C539  1  0.406490  0.159410  0.095420  1.0  -0.1008
  C  C540  1  0.388500  0.136110  0.111210  1.0  -0.0565
  C  C541  1  0.395610  0.103760  0.106900  1.0  0.0495
  C  C542  1  0.420700  0.094710  0.086800  1.0  -0.0771
  C  C543  1  0.438690  0.118000  0.071010  1.0  -0.1095
  C  C544  1  0.447020  0.175100  0.055600  1.0  0.6939
  C  C545  1  0.243400  0.299800  0.025000  1.0  0.1184
  C  C546  1  0.137000  0.973100  0.084200  1.0  0.1256
  C  C547  1  0.258600  0.022900  0.151900  1.0  0.0122
  C  C548  1  0.169400  0.970100  0.098100  1.0  -0.0982
  C  C549  1  0.210300  0.304100  0.023900  1.0  0.1801
  C  C550  1  0.227100  0.022800  0.138100  1.0  -0.0005
  C  C551  1  0.373980  0.081250  0.124830  1.0  0.0117
  C  C552  1  0.387530  0.056740  0.143040  1.0  -0.0739
  C  C553  1  0.368330  0.032000  0.154660  1.0  0.0211
  C  C554  1  0.335580  0.031770  0.148070  1.0  -0.0689
  C  C555  1  0.322040  0.056280  0.129870  1.0  -0.013
  C  C556  1  0.341240  0.081020  0.118250  1.0  -0.0659
  C  C557  1  0.529500  0.781800  0.811900  1.0  -0.1087
  C  C558  1  0.528700  0.772500  0.843170  1.0  0.0145
  C  C559  1  0.575330  0.650350  0.931590  1.0  -0.0841
  C  C560  1  0.595420  0.659410  0.906490  1.0  -0.1004
  C  C561  1  0.611210  0.636110  0.888500  1.0  -0.0585
  C  C562  1  0.606900  0.603760  0.895610  1.0  0.0495
  C  C563  1  0.586800  0.594710  0.920700  1.0  -0.0762
  C  C564  1  0.571010  0.618000  0.938690  1.0  -0.1055
  C  C565  1  0.555600  0.675100  0.947020  1.0  0.6935
  C  C566  1  0.525000  0.799800  0.743400  1.0  0.1182
  C  C567  1  0.584200  0.473100  0.637000  1.0  0.1243
  C  C568  1  0.651900  0.522900  0.758600  1.0  0.0168
  C  C569  1  0.598100  0.470100  0.669400  1.0  -0.0982
  C  C570  1  0.523900  0.804100  0.710300  1.0  0.1836
  C  C571  1  0.638100  0.522800  0.727100  1.0  0.0004
  C  C572  1  0.624830  0.581250  0.873980  1.0  0.0114
  C  C573  1  0.643040  0.556740  0.887530  1.0  -0.0752
  C  C574  1  0.654660  0.532000  0.868330  1.0  0.0256
  C  C575  1  0.648070  0.531770  0.835580  1.0  -0.0738
  C  C576  1  0.629870  0.556280  0.822040  1.0  -0.0147
  C  C577  1  0.618250  0.581020  0.841240  1.0  -0.0658
  C  C578  1  0.470500  0.218200  0.811900  1.0  -0.1059
  C  C579  1  0.471300  0.227500  0.843170  1.0  0.0147
  C  C580  1  0.424670  0.349650  0.931590  1.0  -0.0836
  C  C581  1  0.404580  0.340590  0.906490  1.0  -0.099
  C  C582  1  0.388790  0.363890  0.888500  1.0  -0.06
  C  C583  1  0.393100  0.396240  0.895610  1.0  0.0494
  C  C584  1  0.413200  0.405290  0.920700  1.0  -0.0776
  C  C585  1  0.428990  0.382000  0.938690  1.0  -0.1038
  C  C586  1  0.444400  0.324900  0.947020  1.0  0.6933
  C  C587  1  0.475000  0.200200  0.743400  1.0  0.1183
  C  C588  1  0.415800  0.526900  0.637000  1.0  0.1233
  C  C589  1  0.348100  0.477100  0.758600  1.0  0.015
  C  C590  1  0.401900  0.529900  0.669400  1.0  -0.1017
  C  C591  1  0.476100  0.195900  0.710300  1.0  0.1848
  C  C592  1  0.361900  0.477200  0.727100  1.0  -0.0015
  C  C593  1  0.375170  0.418750  0.873980  1.0  0.012
  C  C594  1  0.356960  0.443260  0.887530  1.0  -0.0769
  C  C595  1  0.345340  0.468000  0.868330  1.0  0.027
  C  C596  1  0.351930  0.468230  0.835580  1.0  -0.074
  C  C597  1  0.370130  0.443720  0.822040  1.0  -0.0155
  C  C598  1  0.381750  0.418980  0.841240  1.0  -0.0651
  C  C599  1  0.470500  0.781800  0.188100  1.0  -0.1057
  C  C600  1  0.471300  0.772500  0.156830  1.0  0.0129
  C  C601  1  0.424670  0.650350  0.068410  1.0  -0.0834
  C  C602  1  0.404580  0.659410  0.093510  1.0  -0.0991
  C  C603  1  0.388790  0.636110  0.111500  1.0  -0.0568
  C  C604  1  0.393100  0.603760  0.104390  1.0  0.0497
  C  C605  1  0.413200  0.594710  0.079300  1.0  -0.0774
  C  C606  1  0.428990  0.618000  0.061310  1.0  -0.1062
  C  C607  1  0.444400  0.675100  0.052980  1.0  0.6925
  C  C608  1  0.475000  0.799800  0.256600  1.0  0.1184
  C  C609  1  0.415800  0.473100  0.363000  1.0  0.1242
  C  C610  1  0.348100  0.522900  0.241400  1.0  0.0168
  C  C611  1  0.401900  0.470100  0.330600  1.0  -0.0985
  C  C612  1  0.476100  0.804100  0.289700  1.0  0.1833
  C  C613  1  0.361900  0.522800  0.272900  1.0  0.0005
  C  C614  1  0.375170  0.581250  0.126020  1.0  0.0124
  C  C615  1  0.356960  0.556740  0.112470  1.0  -0.0754
  C  C616  1  0.345340  0.532000  0.131670  1.0  0.0286
  C  C617  1  0.351930  0.531770  0.164420  1.0  -0.0733
  C  C618  1  0.370130  0.556280  0.177960  1.0  -0.0138
  C  C619  1  0.381750  0.581020  0.158760  1.0  -0.0622
  C  C620  1  0.529500  0.218200  0.188100  1.0  -0.1087
  C  C621  1  0.528700  0.227500  0.156830  1.0  0.0146
  C  C622  1  0.575330  0.349650  0.068410  1.0  -0.0836
  C  C623  1  0.595420  0.340590  0.093510  1.0  -0.0962
  C  C624  1  0.611210  0.363890  0.111500  1.0  -0.056
  C  C625  1  0.606900  0.396240  0.104390  1.0  0.0493
  C  C626  1  0.586800  0.405290  0.079300  1.0  -0.0774
  C  C627  1  0.571010  0.382000  0.061310  1.0  -0.1073
  C  C628  1  0.555600  0.324900  0.052980  1.0  0.6939
  C  C629  1  0.525000  0.200200  0.256600  1.0  0.1176
  C  C630  1  0.584200  0.526900  0.363000  1.0  0.1233
  C  C631  1  0.651900  0.477100  0.241400  1.0  0.0155
  C  C632  1  0.598100  0.529900  0.330600  1.0  -0.1019
  C  C633  1  0.523900  0.195900  0.289700  1.0  0.1822
  C  C634  1  0.638100  0.477200  0.272900  1.0  -0.0011
  C  C635  1  0.624830  0.418750  0.126020  1.0  0.0121
  C  C636  1  0.643040  0.443260  0.112470  1.0  -0.0755
  C  C637  1  0.654660  0.468000  0.131670  1.0  0.0251
  C  C638  1  0.648070  0.468230  0.164420  1.0  -0.0741
  C  C639  1  0.629870  0.443720  0.177960  1.0  -0.0141
  C  C640  1  0.618250  0.418980  0.158760  1.0  -0.0634
  C  C641  1  0.811900  0.529500  0.781800  1.0  -0.105
  C  C642  1  0.843170  0.528700  0.772500  1.0  0.015
  C  C643  1  0.931590  0.575330  0.650350  1.0  -0.0832
  C  C644  1  0.906490  0.595420  0.659410  1.0  -0.0998
  C  C645  1  0.888500  0.611210  0.636110  1.0  -0.0562
  C  C646  1  0.895610  0.606900  0.603760  1.0  0.0493
  C  C647  1  0.920700  0.586800  0.594710  1.0  -0.077
  C  C648  1  0.938690  0.571010  0.618000  1.0  -0.1066
  C  C649  1  0.947020  0.555600  0.675100  1.0  0.6947
  C  C650  1  0.743400  0.525000  0.799800  1.0  0.1137
  C  C651  1  0.637000  0.584200  0.473100  1.0  0.1278
  C  C652  1  0.758600  0.651900  0.522900  1.0  0.0073
  C  C653  1  0.669400  0.598100  0.470100  1.0  -0.0996
  C  C654  1  0.710300  0.523900  0.804100  1.0  0.1823
  C  C655  1  0.727100  0.638100  0.522800  1.0  -0.0042
  C  C656  1  0.873980  0.624830  0.581250  1.0  0.0113
  C  C657  1  0.887530  0.643040  0.556740  1.0  -0.0755
  C  C658  1  0.868330  0.654660  0.532000  1.0  0.0174
  C  C659  1  0.835580  0.648070  0.531770  1.0  -0.0733
  C  C660  1  0.822040  0.629870  0.556280  1.0  -0.0094
  C  C661  1  0.841240  0.618250  0.581020  1.0  -0.0631
  C  C662  1  0.811900  0.470500  0.218200  1.0  -0.1062
  C  C663  1  0.843170  0.471300  0.227500  1.0  0.0134
  C  C664  1  0.931590  0.424670  0.349650  1.0  -0.0842
  C  C665  1  0.906490  0.404580  0.340590  1.0  -0.1036
  C  C666  1  0.888500  0.388790  0.363890  1.0  -0.058
  C  C667  1  0.895610  0.393100  0.396240  1.0  0.0493
  C  C668  1  0.920700  0.413200  0.405290  1.0  -0.0771
  C  C669  1  0.938690  0.428990  0.382000  1.0  -0.1051
  C  C670  1  0.947020  0.444400  0.324900  1.0  0.6943
  C  C671  1  0.743400  0.475000  0.200200  1.0  0.1137
  C  C672  1  0.637000  0.415800  0.526900  1.0  0.125
  C  C673  1  0.758600  0.348100  0.477100  1.0  0.0074
  C  C674  1  0.669400  0.401900  0.529900  1.0  -0.0964
  C  C675  1  0.710300  0.476100  0.195900  1.0  0.1816
  C  C676  1  0.727100  0.361900  0.477200  1.0  -0.0023
  C  C677  1  0.873980  0.375170  0.418750  1.0  0.0109
  C  C678  1  0.887530  0.356960  0.443260  1.0  -0.0752
  C  C679  1  0.868330  0.345340  0.468000  1.0  0.0195
  C  C680  1  0.835580  0.351930  0.468230  1.0  -0.074
  C  C681  1  0.822040  0.370130  0.443720  1.0  -0.0081
  C  C682  1  0.841240  0.381750  0.418980  1.0  -0.067
  C  C683  1  0.188100  0.470500  0.781800  1.0  -0.1066
  C  C684  1  0.156830  0.471300  0.772500  1.0  0.0137
  C  C685  1  0.068410  0.424670  0.650350  1.0  -0.0833
  C  C686  1  0.093510  0.404580  0.659410  1.0  -0.0983
  C  C687  1  0.111500  0.388790  0.636110  1.0  -0.0554
  C  C688  1  0.104390  0.393100  0.603760  1.0  0.0494
  C  C689  1  0.079300  0.413200  0.594710  1.0  -0.0776
  C  C690  1  0.061310  0.428990  0.618000  1.0  -0.1071
  C  C691  1  0.052980  0.444400  0.675100  1.0  0.6962
  C  C692  1  0.256600  0.475000  0.799800  1.0  0.1131
  C  C693  1  0.363000  0.415800  0.473100  1.0  0.129
  C  C694  1  0.241400  0.348100  0.522900  1.0  0.0089
  C  C695  1  0.330600  0.401900  0.470100  1.0  -0.0981
  C  C696  1  0.289700  0.476100  0.804100  1.0  0.1814
  C  C697  1  0.272900  0.361900  0.522800  1.0  -0.0035
  C  C698  1  0.126020  0.375170  0.581250  1.0  0.0116
  C  C699  1  0.112470  0.356960  0.556740  1.0  -0.0742
  C  C700  1  0.131670  0.345340  0.532000  1.0  0.0227
  C  C701  1  0.164420  0.351930  0.531770  1.0  -0.0739
  C  C702  1  0.177960  0.370130  0.556280  1.0  -0.0083
  C  C703  1  0.158760  0.381750  0.581020  1.0  -0.0632
  C  C704  1  0.188100  0.529500  0.218200  1.0  -0.105
  C  C705  1  0.156830  0.528700  0.227500  1.0  0.0157
  C  C706  1  0.068410  0.575330  0.349650  1.0  -0.0839
  C  C707  1  0.093510  0.595420  0.340590  1.0  -0.1033
  C  C708  1  0.111500  0.611210  0.363890  1.0  -0.0581
  C  C709  1  0.104390  0.606900  0.396240  1.0  0.0487
  C  C710  1  0.079300  0.586800  0.405290  1.0  -0.0777
  C  C711  1  0.061310  0.571010  0.382000  1.0  -0.1046
  C  C712  1  0.052980  0.555600  0.324900  1.0  0.6955
  C  C713  1  0.256600  0.525000  0.200200  1.0  0.113
  C  C714  1  0.363000  0.584200  0.526900  1.0  0.1252
  C  C715  1  0.241400  0.651900  0.477100  1.0  0.0075
  C  C716  1  0.330600  0.598100  0.529900  1.0  -0.096
  C  C717  1  0.289700  0.523900  0.195900  1.0  0.1809
  C  C718  1  0.272900  0.638100  0.477200  1.0  -0.0013
  C  C719  1  0.126020  0.624830  0.418750  1.0  0.0115
  C  C720  1  0.112470  0.643040  0.443260  1.0  -0.0737
  C  C721  1  0.131670  0.654660  0.468000  1.0  0.0228
  C  C722  1  0.164420  0.648070  0.468230  1.0  -0.0737
  C  C723  1  0.177960  0.629870  0.443720  1.0  -0.0084
  C  C724  1  0.158760  0.618250  0.418980  1.0  -0.0656
  C  C725  1  0.781800  0.811900  0.529500  1.0  -0.1021
  C  C726  1  0.772500  0.843170  0.528700  1.0  0.0144
  C  C727  1  0.650350  0.931590  0.575330  1.0  -0.0841
  C  C728  1  0.659410  0.906490  0.595420  1.0  -0.1033
  C  C729  1  0.636110  0.888500  0.611210  1.0  -0.0554
  C  C730  1  0.603760  0.895610  0.606900  1.0  0.0497
  C  C731  1  0.594710  0.920700  0.586800  1.0  -0.0792
  C  C732  1  0.618000  0.938690  0.571010  1.0  -0.1072
  C  C733  1  0.675100  0.947020  0.555600  1.0  0.6942
  C  C734  1  0.799800  0.743400  0.525000  1.0  0.1174
  C  C735  1  0.473100  0.637000  0.584200  1.0  0.1272
  C  C736  1  0.522900  0.758600  0.651900  1.0  0.0138
  C  C737  1  0.470100  0.669400  0.598100  1.0  -0.0972
  C  C738  1  0.804100  0.710300  0.523900  1.0  0.1796
  C  C739  1  0.522800  0.727100  0.638100  1.0  0.0006
  C  C740  1  0.581250  0.873980  0.624830  1.0  0.0113
  C  C741  1  0.556740  0.887530  0.643040  1.0  -0.0746
  C  C742  1  0.532000  0.868330  0.654660  1.0  0.0235
  C  C743  1  0.531770  0.835580  0.648070  1.0  -0.073
  C  C744  1  0.556280  0.822040  0.629870  1.0  -0.0094
  C  C745  1  0.581020  0.841240  0.618250  1.0  -0.0669
  C  C746  1  0.218200  0.811900  0.470500  1.0  -0.1058
  C  C747  1  0.227500  0.843170  0.471300  1.0  0.0178
  C  C748  1  0.349650  0.931590  0.424670  1.0  -0.0837
  C  C749  1  0.340590  0.906490  0.404580  1.0  -0.1038
  C  C750  1  0.363890  0.888500  0.388790  1.0  -0.0551
  C  C751  1  0.396240  0.895610  0.393100  1.0  0.0501
  C  C752  1  0.405290  0.920700  0.413200  1.0  -0.0792
  C  C753  1  0.382000  0.938690  0.428990  1.0  -0.1069
  C  C754  1  0.324900  0.947020  0.444400  1.0  0.6957
  C  C755  1  0.200200  0.743400  0.475000  1.0  0.1159
  C  C756  1  0.526900  0.637000  0.415800  1.0  0.1266
  C  C757  1  0.477100  0.758600  0.348100  1.0  0.0162
  C  C758  1  0.529900  0.669400  0.401900  1.0  -0.0995
  C  C759  1  0.195900  0.710300  0.476100  1.0  0.1812
  C  C760  1  0.477200  0.727100  0.361900  1.0  -0.0013
  C  C761  1  0.418750  0.873980  0.375170  1.0  0.0124
  C  C762  1  0.443260  0.887530  0.356960  1.0  -0.0769
  C  C763  1  0.468000  0.868330  0.345340  1.0  0.0211
  C  C764  1  0.468230  0.835580  0.351930  1.0  -0.073
  C  C765  1  0.443720  0.822040  0.370130  1.0  -0.0089
  C  C766  1  0.418980  0.841240  0.381750  1.0  -0.0645
  C  C767  1  0.781800  0.188100  0.470500  1.0  -0.105
  C  C768  1  0.772500  0.156830  0.471300  1.0  0.0164
  C  C769  1  0.650350  0.068410  0.424670  1.0  -0.0842
  C  C770  1  0.659410  0.093510  0.404580  1.0  -0.1041
  C  C771  1  0.636110  0.111500  0.388790  1.0  -0.0569
  C  C772  1  0.603760  0.104390  0.393100  1.0  0.0496
  C  C773  1  0.594710  0.079300  0.413200  1.0  -0.0797
  C  C774  1  0.618000  0.061310  0.428990  1.0  -0.1061
  C  C775  1  0.675100  0.052980  0.444400  1.0  0.6943
  C  C776  1  0.799800  0.256600  0.475000  1.0  0.1157
  C  C777  1  0.473100  0.363000  0.415800  1.0  0.1268
  C  C778  1  0.522900  0.241400  0.348100  1.0  0.0144
  C  C779  1  0.470100  0.330600  0.401900  1.0  -0.098
  C  C780  1  0.804100  0.289700  0.476100  1.0  0.1821
  C  C781  1  0.522800  0.272900  0.361900  1.0  0.0007
  C  C782  1  0.581250  0.126020  0.375170  1.0  0.0114
  C  C783  1  0.556740  0.112470  0.356960  1.0  -0.0751
  C  C784  1  0.532000  0.131670  0.345340  1.0  0.0234
  C  C785  1  0.531770  0.164420  0.351930  1.0  -0.0732
  C  C786  1  0.556280  0.177960  0.370130  1.0  -0.0093
  C  C787  1  0.581020  0.158760  0.381750  1.0  -0.0642
  C  C788  1  0.218200  0.188100  0.529500  1.0  -0.1027
  C  C789  1  0.227500  0.156830  0.528700  1.0  0.0151
  C  C790  1  0.349650  0.068410  0.575330  1.0  -0.0837
  C  C791  1  0.340590  0.093510  0.595420  1.0  -0.1018
  C  C792  1  0.363890  0.111500  0.611210  1.0  -0.0537
  C  C793  1  0.396240  0.104390  0.606900  1.0  0.0498
  C  C794  1  0.405290  0.079300  0.586800  1.0  -0.0775
  C  C795  1  0.382000  0.061310  0.571010  1.0  -0.1061
  C  C796  1  0.324900  0.052980  0.555600  1.0  0.6955
  C  C797  1  0.200200  0.256600  0.525000  1.0  0.1176
  C  C798  1  0.526900  0.363000  0.584200  1.0  0.1268
  C  C799  1  0.477100  0.241400  0.651900  1.0  0.0153
  C  C800  1  0.529900  0.330600  0.598100  1.0  -0.0995
  C  C801  1  0.195900  0.289700  0.523900  1.0  0.1807
  C  C802  1  0.477200  0.272900  0.638100  1.0  1e-04
  C  C803  1  0.418750  0.126020  0.624830  1.0  0.0125
  C  C804  1  0.443260  0.112470  0.643040  1.0  -0.0733
  C  C805  1  0.468000  0.131670  0.654660  1.0  0.0222
  C  C806  1  0.468230  0.164420  0.648070  1.0  -0.0718
  C  C807  1  0.443720  0.177960  0.629870  1.0  -0.0109
  C  C808  1  0.418980  0.158760  0.618250  1.0  -0.0663
  C  C809  1  0.281800  0.029500  0.688100  1.0  -0.1061
  C  C810  1  0.272500  0.028700  0.656830  1.0  0.0142
  C  C811  1  0.150350  0.075330  0.568410  1.0  -0.084
  C  C812  1  0.159410  0.095420  0.593510  1.0  -0.1024
  C  C813  1  0.136110  0.111210  0.611500  1.0  -0.0573
  C  C814  1  0.103760  0.106900  0.604390  1.0  0.0494
  C  C815  1  0.094710  0.086800  0.579300  1.0  -0.078
  C  C816  1  0.118000  0.071010  0.561310  1.0  -0.108
  C  C817  1  0.175100  0.055600  0.552980  1.0  0.6939
  C  C818  1  0.299800  0.025000  0.756600  1.0  0.1126
  C  C819  1  0.973100  0.084200  0.863000  1.0  0.1269
  C  C820  1  0.022900  0.151900  0.741400  1.0  0.0151
  C  C821  1  0.970100  0.098100  0.830600  1.0  -0.0979
  C  C822  1  0.304100  0.023900  0.789700  1.0  0.1809
  C  C823  1  0.022800  0.138100  0.772900  1.0  0.0019
  C  C824  1  0.081250  0.124830  0.626020  1.0  0.012
  C  C825  1  0.056740  0.143040  0.612470  1.0  -0.0765
  C  C826  1  0.032000  0.154660  0.631670  1.0  0.027
  C  C827  1  0.031770  0.148070  0.664420  1.0  -0.0731
  C  C828  1  0.056280  0.129870  0.677960  1.0  -0.0176
  C  C829  1  0.081020  0.118250  0.658760  1.0  -0.062
  C  C830  1  0.718200  0.970500  0.688100  1.0  -0.1085
  C  C831  1  0.727500  0.971300  0.656830  1.0  0.0122
  C  C832  1  0.849650  0.924670  0.568410  1.0  -0.0837
  C  C833  1  0.840590  0.904580  0.593510  1.0  -0.1024
  C  C834  1  0.863890  0.888790  0.611500  1.0  -0.0557
  C  C835  1  0.896240  0.893100  0.604390  1.0  0.0501
  C  C836  1  0.905290  0.913200  0.579300  1.0  -0.0776
  C  C837  1  0.882000  0.928990  0.561310  1.0  -0.1094
  C  C838  1  0.824900  0.944400  0.552980  1.0  0.6956
  C  C839  1  0.700200  0.975000  0.756600  1.0  0.1126
  C  C840  1  0.026900  0.915800  0.863000  1.0  0.1262
  C  C841  1  0.977100  0.848100  0.741400  1.0  0.0169
  C  C842  1  0.029900  0.901900  0.830600  1.0  -0.0996
  C  C843  1  0.695900  0.976100  0.789700  1.0  0.1815
  C  C844  1  0.977200  0.861900  0.772900  1.0  -0.0003
  C  C845  1  0.918750  0.875170  0.626020  1.0  0.013
  C  C846  1  0.943260  0.856960  0.612470  1.0  -0.0752
  C  C847  1  0.968000  0.845340  0.631670  1.0  0.0268
  C  C848  1  0.968230  0.851930  0.664420  1.0  -0.0723
  C  C849  1  0.943720  0.870130  0.677960  1.0  -0.0178
  C  C850  1  0.918980  0.881750  0.658760  1.0  -0.064
  C  C851  1  0.281800  0.970500  0.311900  1.0  -0.1075
  C  C852  1  0.272500  0.971300  0.343170  1.0  0.012
  C  C853  1  0.150350  0.924670  0.431590  1.0  -0.0842
  C  C854  1  0.159410  0.904580  0.406490  1.0  -0.1047
  C  C855  1  0.136110  0.888790  0.388500  1.0  -0.0595
  C  C856  1  0.103760  0.893100  0.395610  1.0  0.0497
  C  C857  1  0.094710  0.913200  0.420700  1.0  -0.0773
  C  C858  1  0.118000  0.928990  0.438690  1.0  -0.107
  C  C859  1  0.175100  0.944400  0.447020  1.0  0.6946
  C  C860  1  0.299800  0.975000  0.243400  1.0  0.1131
  C  C861  1  0.973100  0.915800  0.137000  1.0  0.1262
  C  C862  1  0.022900  0.848100  0.258600  1.0  0.0157
  C  C863  1  0.970100  0.901900  0.169400  1.0  -0.0979
  C  C864  1  0.304100  0.976100  0.210300  1.0  0.183
  C  C865  1  0.022800  0.861900  0.227100  1.0  0.0004
  C  C866  1  0.081250  0.875170  0.373980  1.0  0.0108
  C  C867  1  0.056740  0.856960  0.387530  1.0  -0.0765
  C  C868  1  0.032000  0.845340  0.368330  1.0  0.0266
  C  C869  1  0.031770  0.851930  0.335580  1.0  -0.0733
  C  C870  1  0.056280  0.870130  0.322040  1.0  -0.0168
  C  C871  1  0.081020  0.881750  0.341240  1.0  -0.0676
  C  C872  1  0.718200  0.029500  0.311900  1.0  -0.1071
  C  C873  1  0.727500  0.028700  0.343170  1.0  0.0146
  C  C874  1  0.849650  0.075330  0.431590  1.0  -0.0837
  C  C875  1  0.840590  0.095420  0.406490  1.0  -0.103
  C  C876  1  0.863890  0.111210  0.388500  1.0  -0.0577
  C  C877  1  0.896240  0.106900  0.395610  1.0  0.0496
  C  C878  1  0.905290  0.086800  0.420700  1.0  -0.0757
  C  C879  1  0.882000  0.071010  0.438690  1.0  -0.1045
  C  C880  1  0.824900  0.055600  0.447020  1.0  0.6953
  C  C881  1  0.700200  0.025000  0.243400  1.0  0.1134
  C  C882  1  0.026900  0.084200  0.137000  1.0  0.1263
  C  C883  1  0.977100  0.151900  0.258600  1.0  0.0176
  C  C884  1  0.029900  0.098100  0.169400  1.0  -0.0998
  C  C885  1  0.695900  0.023900  0.210300  1.0  0.184
  C  C886  1  0.977200  0.138100  0.227100  1.0  0.0018
  C  C887  1  0.918750  0.124830  0.373980  1.0  0.0123
  C  C888  1  0.943260  0.143040  0.387530  1.0  -0.0771
  C  C889  1  0.968000  0.154660  0.368330  1.0  0.025
  C  C890  1  0.968230  0.148070  0.335580  1.0  -0.0724
  C  C891  1  0.943720  0.129870  0.322040  1.0  -0.0175
  C  C892  1  0.918980  0.118250  0.341240  1.0  -0.0656
  C  C893  1  0.029500  0.311900  0.718200  1.0  -0.1079
  C  C894  1  0.028700  0.343170  0.727500  1.0  0.015
  C  C895  1  0.075330  0.431590  0.849650  1.0  -0.0853
  C  C896  1  0.095420  0.406490  0.840590  1.0  -0.1023
  C  C897  1  0.111210  0.388500  0.863890  1.0  -0.0559
  C  C898  1  0.106900  0.395610  0.896240  1.0  0.0491
  C  C899  1  0.086800  0.420700  0.905290  1.0  -0.0798
  C  C900  1  0.071010  0.438690  0.882000  1.0  -0.1019
  C  C901  1  0.055600  0.447020  0.824900  1.0  0.6942
  C  C902  1  0.025000  0.243400  0.700200  1.0  0.1173
  C  C903  1  0.084200  0.137000  0.026900  1.0  0.1262
  C  C904  1  0.151900  0.258600  0.977100  1.0  0.0101
  C  C905  1  0.098100  0.169400  0.029900  1.0  -0.0963
  C  C906  1  0.023900  0.210300  0.695900  1.0  0.183
  C  C907  1  0.138100  0.227100  0.977200  1.0  -0.0025
  C  C908  1  0.124830  0.373980  0.918750  1.0  0.011
  C  C909  1  0.143040  0.387530  0.943260  1.0  -0.0757
  C  C910  1  0.154660  0.368330  0.968000  1.0  0.0209
  C  C911  1  0.148070  0.335580  0.968230  1.0  -0.0739
  C  C912  1  0.129870  0.322040  0.943720  1.0  -0.0116
  C  C913  1  0.118250  0.341240  0.918980  1.0  -0.0663
  C  C914  1  0.970500  0.311900  0.281800  1.0  -0.1055
  C  C915  1  0.971300  0.343170  0.272500  1.0  0.0151
  C  C916  1  0.924670  0.431590  0.150350  1.0  -0.0843
  C  C917  1  0.904580  0.406490  0.159410  1.0  -0.0993
  C  C918  1  0.888790  0.388500  0.136110  1.0  -0.056
  C  C919  1  0.893100  0.395610  0.103760  1.0  0.0498
  C  C920  1  0.913200  0.420700  0.094710  1.0  -0.0809
  C  C921  1  0.928990  0.438690  0.118000  1.0  -0.1039
  C  C922  1  0.944400  0.447020  0.175100  1.0  0.6941
  C  C923  1  0.975000  0.243400  0.299800  1.0  0.1178
  C  C924  1  0.915800  0.137000  0.973100  1.0  0.1296
  C  C925  1  0.848100  0.258600  0.022900  1.0  0.0091
  C  C926  1  0.901900  0.169400  0.970100  1.0  -0.0986
  C  C927  1  0.976100  0.210300  0.304100  1.0  0.1842
  C  C928  1  0.861900  0.227100  0.022800  1.0  -0.0042
  C  C929  1  0.875170  0.373980  0.081250  1.0  0.0115
  C  C930  1  0.856960  0.387530  0.056740  1.0  -0.076
  C  C931  1  0.845340  0.368330  0.032000  1.0  0.0211
  C  C932  1  0.851930  0.335580  0.031770  1.0  -0.0733
  C  C933  1  0.870130  0.322040  0.056280  1.0  -0.0122
  C  C934  1  0.881750  0.341240  0.081020  1.0  -0.0618
  C  C935  1  0.970500  0.688100  0.718200  1.0  -0.1045
  C  C936  1  0.971300  0.656830  0.727500  1.0  0.0144
  C  C937  1  0.924670  0.568410  0.849650  1.0  -0.085
  C  C938  1  0.904580  0.593510  0.840590  1.0  -0.103
  C  C939  1  0.888790  0.611500  0.863890  1.0  -0.0562
  C  C940  1  0.893100  0.604390  0.896240  1.0  0.0492
  C  C941  1  0.913200  0.579300  0.905290  1.0  -0.0787
  C  C942  1  0.928990  0.561310  0.882000  1.0  -0.1003
  C  C943  1  0.944400  0.552980  0.824900  1.0  0.6931
  C  C944  1  0.975000  0.756600  0.700200  1.0  0.1176
  C  C945  1  0.915800  0.863000  0.026900  1.0  0.1259
  C  C946  1  0.848100  0.741400  0.977100  1.0  0.0092
  C  C947  1  0.901900  0.830600  0.029900  1.0  -0.0963
  C  C948  1  0.976100  0.789700  0.695900  1.0  0.1838
  C  C949  1  0.861900  0.772900  0.977200  1.0  -0.0026
  C  C950  1  0.875170  0.626020  0.918750  1.0  0.0115
  C  C951  1  0.856960  0.612470  0.943260  1.0  -0.074
  C  C952  1  0.845340  0.631670  0.968000  1.0  0.0227
  C  C953  1  0.851930  0.664420  0.968230  1.0  -0.0734
  C  C954  1  0.870130  0.677960  0.943720  1.0  -0.0147
  C  C955  1  0.881750  0.658760  0.918980  1.0  -0.0666
  C  C956  1  0.029500  0.688100  0.281800  1.0  -0.1083
  C  C957  1  0.028700  0.656830  0.272500  1.0  0.0149
  C  C958  1  0.075330  0.568410  0.150350  1.0  -0.0846
  C  C959  1  0.095420  0.593510  0.159410  1.0  -0.0984
  C  C960  1  0.111210  0.611500  0.136110  1.0  -0.0538
  C  C961  1  0.106900  0.604390  0.103760  1.0  0.0493
  C  C962  1  0.086800  0.579300  0.094710  1.0  -0.0773
  C  C963  1  0.071010  0.561310  0.118000  1.0  -0.1035
  C  C964  1  0.055600  0.552980  0.175100  1.0  0.6946
  C  C965  1  0.025000  0.756600  0.299800  1.0  0.1172
  C  C966  1  0.084200  0.863000  0.973100  1.0  0.1294
  C  C967  1  0.151900  0.741400  0.022900  1.0  0.012
  C  C968  1  0.098100  0.830600  0.970100  1.0  -0.0984
  C  C969  1  0.023900  0.789700  0.304100  1.0  0.1829
  C  C970  1  0.138100  0.772900  0.022800  1.0  -0.0025
  C  C971  1  0.124830  0.626020  0.081250  1.0  0.0114
  C  C972  1  0.143040  0.612470  0.056740  1.0  -0.0744
  C  C973  1  0.154660  0.631670  0.032000  1.0  0.021
  C  C974  1  0.148070  0.664420  0.031770  1.0  -0.0733
  C  C975  1  0.129870  0.677960  0.056280  1.0  -0.0136
  C  C976  1  0.118250  0.658760  0.081020  1.0  -0.0641
  C  C977  1  0.311900  0.281800  0.970500  1.0  -0.1042
  C  C978  1  0.343170  0.272500  0.971300  1.0  0.0172
  C  C979  1  0.431590  0.150350  0.924670  1.0  -0.0825
  C  C980  1  0.406490  0.159410  0.904580  1.0  -0.1014
  C  C981  1  0.388500  0.136110  0.888790  1.0  -0.0579
  C  C982  1  0.395610  0.103760  0.893100  1.0  0.0496
  C  C983  1  0.420700  0.094710  0.913200  1.0  -0.0772
  C  C984  1  0.438690  0.118000  0.928990  1.0  -0.108
  C  C985  1  0.447020  0.175100  0.944400  1.0  0.6938
  C  C986  1  0.243400  0.299800  0.975000  1.0  0.1165
  C  C987  1  0.137000  0.973100  0.915800  1.0  0.1239
  C  C988  1  0.258600  0.022900  0.848100  1.0  0.0129
  C  C989  1  0.169400  0.970100  0.901900  1.0  -0.098
  C  C990  1  0.210300  0.304100  0.976100  1.0  0.1821
  C  C991  1  0.227100  0.022800  0.861900  1.0  -0.0009
  C  C992  1  0.373980  0.081250  0.875170  1.0  0.0116
  C  C993  1  0.387530  0.056740  0.856960  1.0  -0.0756
  C  C994  1  0.368330  0.032000  0.845340  1.0  0.0202
  C  C995  1  0.335580  0.031770  0.851930  1.0  -0.074
  C  C996  1  0.322040  0.056280  0.870130  1.0  -0.0125
  C  C997  1  0.341240  0.081020  0.881750  1.0  -0.064
  C  C998  1  0.311900  0.718200  0.029500  1.0  -0.1026
  C  C999  1  0.343170  0.727500  0.028700  1.0  0.0151
  C  C1000  1  0.431590  0.849650  0.075330  1.0  -0.0825
  C  C1001  1  0.406490  0.840590  0.095420  1.0  -0.0985
  C  C1002  1  0.388500  0.863890  0.111210  1.0  -0.0575
  C  C1003  1  0.395610  0.896240  0.106900  1.0  0.0494
  C  C1004  1  0.420700  0.905290  0.086800  1.0  -0.077
  C  C1005  1  0.438690  0.882000  0.071010  1.0  -0.1098
  C  C1006  1  0.447020  0.824900  0.055600  1.0  0.6943
  C  C1007  1  0.243400  0.700200  0.025000  1.0  0.1182
  C  C1008  1  0.137000  0.026900  0.084200  1.0  0.1229
  C  C1009  1  0.258600  0.977100  0.151900  1.0  0.0111
  C  C1010  1  0.169400  0.029900  0.098100  1.0  -0.1021
  C  C1011  1  0.210300  0.695900  0.023900  1.0  0.1803
  C  C1012  1  0.227100  0.977200  0.138100  1.0  -0.0016
  C  C1013  1  0.373980  0.918750  0.124830  1.0  0.0119
  C  C1014  1  0.387530  0.943260  0.143040  1.0  -0.0735
  C  C1015  1  0.368330  0.968000  0.154660  1.0  0.0199
  C  C1016  1  0.335580  0.968230  0.148070  1.0  -0.0742
  C  C1017  1  0.322040  0.943720  0.129870  1.0  -0.0133
  C  C1018  1  0.341240  0.918980  0.118250  1.0  -0.0662
  C  C1019  1  0.688100  0.281800  0.029500  1.0  -0.1028
  C  C1020  1  0.656830  0.272500  0.028700  1.0  0.0166
  C  C1021  1  0.568410  0.150350  0.075330  1.0  -0.0829
  C  C1022  1  0.593510  0.159410  0.095420  1.0  -0.0996
  C  C1023  1  0.611500  0.136110  0.111210  1.0  -0.0558
  C  C1024  1  0.604390  0.103760  0.106900  1.0  0.0493
  C  C1025  1  0.579300  0.094710  0.086800  1.0  -0.0768
  C  C1026  1  0.561310  0.118000  0.071010  1.0  -0.1076
  C  C1027  1  0.552980  0.175100  0.055600  1.0  0.6947
  C  C1028  1  0.756600  0.299800  0.025000  1.0  0.1173
  C  C1029  1  0.863000  0.973100  0.084200  1.0  0.1248
  C  C1030  1  0.741400  0.022900  0.151900  1.0  0.0136
  C  C1031  1  0.830600  0.970100  0.098100  1.0  -0.0983
  C  C1032  1  0.789700  0.304100  0.023900  1.0  0.1791
  C  C1033  1  0.772900  0.022800  0.138100  1.0  0.0009
  C  C1034  1  0.626020  0.081250  0.124830  1.0  0.0121
  C  C1035  1  0.612470  0.056740  0.143040  1.0  -0.0729
  C  C1036  1  0.631670  0.032000  0.154660  1.0  0.023
  C  C1037  1  0.664420  0.031770  0.148070  1.0  -0.0736
  C  C1038  1  0.677960  0.056280  0.129870  1.0  -0.0136
  C  C1039  1  0.658760  0.081020  0.118250  1.0  -0.0663
  C  C1040  1  0.688100  0.718200  0.970500  1.0  -0.1048
  C  C1041  1  0.656830  0.727500  0.971300  1.0  0.0178
  C  C1042  1  0.568410  0.849650  0.924670  1.0  -0.0824
  C  C1043  1  0.593510  0.840590  0.904580  1.0  -0.0988
  C  C1044  1  0.611500  0.863890  0.888790  1.0  -0.0583
  C  C1045  1  0.604390  0.896240  0.893100  1.0  0.0492
  C  C1046  1  0.579300  0.905290  0.913200  1.0  -0.0782
  C  C1047  1  0.561310  0.882000  0.928990  1.0  -0.1075
  C  C1048  1  0.552980  0.824900  0.944400  1.0  0.695
  C  C1049  1  0.756600  0.700200  0.975000  1.0  0.117
  C  C1050  1  0.863000  0.026900  0.915800  1.0  0.1224
  C  C1051  1  0.741400  0.977100  0.848100  1.0  0.0114
  C  C1052  1  0.830600  0.029900  0.901900  1.0  -0.1015
  C  C1053  1  0.789700  0.695900  0.976100  1.0  0.1818
  C  C1054  1  0.772900  0.977200  0.861900  1.0  -0.0017
  C  C1055  1  0.626020  0.918750  0.875170  1.0  0.0121
  C  C1056  1  0.612470  0.943260  0.856960  1.0  -0.0738
  C  C1057  1  0.631670  0.968000  0.845340  1.0  0.0235
  C  C1058  1  0.664420  0.968230  0.851930  1.0  -0.0748
  C  C1059  1  0.677960  0.943720  0.870130  1.0  -0.0123
  C  C1060  1  0.658760  0.918980  0.881750  1.0  -0.063
  C  C1061  1  0.500000  0.232000  0.140400  1.0  -0.1056
  C  C1062  1  0.500000  0.204900  0.238900  1.0  0.3524
  C  C1063  1  0.500000  0.244000  0.106600  1.0  0.6596
  C  C1064  1  0.500000  0.213600  0.205200  1.0  -0.0345
  C  C1065  1  0.500000  0.189800  0.305600  1.0  0.3848
  C  C1066  1  0.500000  0.768000  0.140400  1.0  -0.1055
  C  C1067  1  0.500000  0.795100  0.238900  1.0  0.3522
  C  C1068  1  0.500000  0.756000  0.106600  1.0  0.6594
  C  C1069  1  0.500000  0.786400  0.205200  1.0  -0.0347
  C  C1070  1  0.500000  0.810200  0.305600  1.0  0.3853
  C  C1071  1  0.500000  0.232000  0.859600  1.0  -0.1061
  C  C1072  1  0.500000  0.204900  0.761100  1.0  0.3531
  C  C1073  1  0.500000  0.244000  0.893400  1.0  0.6592
  C  C1074  1  0.500000  0.213600  0.794800  1.0  -0.0346
  C  C1075  1  0.500000  0.189800  0.694400  1.0  0.3839
  C  C1076  1  0.500000  0.768000  0.859600  1.0  -0.1059
  C  C1077  1  0.500000  0.795100  0.761100  1.0  0.353
  C  C1078  1  0.500000  0.756000  0.893400  1.0  0.659
  C  C1079  1  0.500000  0.786400  0.794800  1.0  -0.0347
  C  C1080  1  0.500000  0.810200  0.694400  1.0  0.3829
  C  C1081  1  0.140400  0.500000  0.232000  1.0  -0.1026
  C  C1082  1  0.238900  0.500000  0.204900  1.0  0.3535
  C  C1083  1  0.106600  0.500000  0.244000  1.0  0.6633
  C  C1084  1  0.205200  0.500000  0.213600  1.0  -0.0348
  C  C1085  1  0.305600  0.500000  0.189800  1.0  0.3823
  C  C1086  1  0.140400  0.500000  0.768000  1.0  -0.1023
  C  C1087  1  0.238900  0.500000  0.795100  1.0  0.3537
  C  C1088  1  0.106600  0.500000  0.756000  1.0  0.6629
  C  C1089  1  0.205200  0.500000  0.786400  1.0  -0.0349
  C  C1090  1  0.305600  0.500000  0.810200  1.0  0.3824
  C  C1091  1  0.859600  0.500000  0.232000  1.0  -0.1037
  C  C1092  1  0.761100  0.500000  0.204900  1.0  0.3538
  C  C1093  1  0.893400  0.500000  0.244000  1.0  0.663
  C  C1094  1  0.794800  0.500000  0.213600  1.0  -0.0348
  C  C1095  1  0.694400  0.500000  0.189800  1.0  0.3816
  C  C1096  1  0.859600  0.500000  0.768000  1.0  -0.1036
  C  C1097  1  0.761100  0.500000  0.795100  1.0  0.3539
  C  C1098  1  0.893400  0.500000  0.756000  1.0  0.6632
  C  C1099  1  0.794800  0.500000  0.786400  1.0  -0.0349
  C  C1100  1  0.694400  0.500000  0.810200  1.0  0.3806
  C  C1101  1  0.232000  0.140400  0.500000  1.0  -0.1032
  C  C1102  1  0.204900  0.238900  0.500000  1.0  0.3523
  C  C1103  1  0.244000  0.106600  0.500000  1.0  0.6603
  C  C1104  1  0.213600  0.205200  0.500000  1.0  -0.035
  C  C1105  1  0.189800  0.305600  0.500000  1.0  0.3821
  C  C1106  1  0.768000  0.140400  0.500000  1.0  -0.1033
  C  C1107  1  0.795100  0.238900  0.500000  1.0  0.3526
  C  C1108  1  0.756000  0.106600  0.500000  1.0  0.6599
  C  C1109  1  0.786400  0.205200  0.500000  1.0  -0.0348
  C  C1110  1  0.810200  0.305600  0.500000  1.0  0.3835
  C  C1111  1  0.232000  0.859600  0.500000  1.0  -0.1037
  C  C1112  1  0.204900  0.761100  0.500000  1.0  0.3525
  C  C1113  1  0.244000  0.893400  0.500000  1.0  0.6613
  C  C1114  1  0.213600  0.794800  0.500000  1.0  -0.0352
  C  C1115  1  0.189800  0.694400  0.500000  1.0  0.383
  C  C1116  1  0.768000  0.859600  0.500000  1.0  -0.1039
  C  C1117  1  0.795100  0.761100  0.500000  1.0  0.3527
  C  C1118  1  0.756000  0.893400  0.500000  1.0  0.6614
  C  C1119  1  0.786400  0.794800  0.500000  1.0  -0.035
  C  C1120  1  0.810200  0.694400  0.500000  1.0  0.3831
  C  C1121  1  0.732000  0.000000  0.359600  1.0  -0.1057
  C  C1122  1  0.704900  0.000000  0.261100  1.0  0.3524
  C  C1123  1  0.744000  0.000000  0.393400  1.0  0.6598
  C  C1124  1  0.713600  0.000000  0.294800  1.0  -0.0351
  C  C1125  1  0.689800  0.000000  0.194400  1.0  0.3832
  C  C1126  1  0.268000  0.000000  0.359600  1.0  -0.1058
  C  C1127  1  0.295100  0.000000  0.261100  1.0  0.353
  C  C1128  1  0.256000  0.000000  0.393400  1.0  0.6593
  C  C1129  1  0.286400  0.000000  0.294800  1.0  -0.0349
  C  C1130  1  0.310200  0.000000  0.194400  1.0  0.3835
  C  C1131  1  0.732000  0.000000  0.640400  1.0  -0.1053
  C  C1132  1  0.704900  0.000000  0.738900  1.0  0.3518
  C  C1133  1  0.744000  0.000000  0.606600  1.0  0.6603
  C  C1134  1  0.713600  0.000000  0.705200  1.0  -0.035
  C  C1135  1  0.689800  0.000000  0.805600  1.0  0.3843
  C  C1136  1  0.268000  0.000000  0.640400  1.0  -0.1053
  C  C1137  1  0.295100  0.000000  0.738900  1.0  0.3521
  C  C1138  1  0.256000  0.000000  0.606600  1.0  0.6592
  C  C1139  1  0.286400  0.000000  0.705200  1.0  -0.0348
  C  C1140  1  0.310200  0.000000  0.805600  1.0  0.3853
  C  C1141  1  0.000000  0.640400  0.268000  1.0  -0.1039
  C  C1142  1  0.000000  0.738900  0.295100  1.0  0.3525
  C  C1143  1  0.000000  0.606600  0.256000  1.0  0.6598
  C  C1144  1  0.000000  0.705200  0.286400  1.0  -0.0347
  C  C1145  1  0.000000  0.805600  0.310200  1.0  0.3822
  C  C1146  1  0.000000  0.640400  0.732000  1.0  -0.1043
  C  C1147  1  0.000000  0.738900  0.704900  1.0  0.3523
  C  C1148  1  0.000000  0.606600  0.744000  1.0  0.6597
  C  C1149  1  0.000000  0.705200  0.713600  1.0  -0.0346
  C  C1150  1  0.000000  0.805600  0.689800  1.0  0.3827
  C  C1151  1  0.000000  0.359600  0.268000  1.0  -0.1043
  C  C1152  1  0.000000  0.261100  0.295100  1.0  0.3529
  C  C1153  1  0.000000  0.393400  0.256000  1.0  0.6607
  C  C1154  1  0.000000  0.294800  0.286400  1.0  -0.0348
  C  C1155  1  0.000000  0.194400  0.310200  1.0  0.3829
  C  C1156  1  0.000000  0.359600  0.732000  1.0  -0.1045
  C  C1157  1  0.000000  0.261100  0.704900  1.0  0.3527
  C  C1158  1  0.000000  0.393400  0.744000  1.0  0.6609
  C  C1159  1  0.000000  0.294800  0.713600  1.0  -0.0347
  C  C1160  1  0.000000  0.194400  0.689800  1.0  0.3833
  C  C1161  1  0.640400  0.732000  0.000000  1.0  -0.1023
  C  C1162  1  0.738900  0.704900  0.000000  1.0  0.3541
  C  C1163  1  0.606600  0.744000  0.000000  1.0  0.663
  C  C1164  1  0.705200  0.713600  0.000000  1.0  -0.0348
  C  C1165  1  0.805600  0.689800  0.000000  1.0  0.3821
  C  C1166  1  0.640400  0.268000  0.000000  1.0  -0.1023
  C  C1167  1  0.738900  0.295100  0.000000  1.0  0.354
  C  C1168  1  0.606600  0.256000  0.000000  1.0  0.6628
  C  C1169  1  0.705200  0.286400  0.000000  1.0  -0.0349
  C  C1170  1  0.805600  0.310200  0.000000  1.0  0.3826
  C  C1171  1  0.359600  0.732000  0.000000  1.0  -0.1036
  C  C1172  1  0.261100  0.704900  0.000000  1.0  0.3539
  C  C1173  1  0.393400  0.744000  0.000000  1.0  0.6633
  C  C1174  1  0.294800  0.713600  0.000000  1.0  -0.0347
  C  C1175  1  0.194400  0.689800  0.000000  1.0  0.3814
  C  C1176  1  0.359600  0.268000  0.000000  1.0  -0.1035
  C  C1177  1  0.261100  0.295100  0.000000  1.0  0.3541
  C  C1178  1  0.393400  0.256000  0.000000  1.0  0.6631
  C  C1179  1  0.294800  0.286400  0.000000  1.0  -0.0349
  C  C1180  1  0.194400  0.310200  0.000000  1.0  0.3812
  C  C1181  1  0.341900  0.500000  0.184600  1.0  -0.0949
  C  C1182  1  0.357100  0.500000  0.218700  1.0  -0.0729
  C  C1183  1  0.396600  0.500000  0.314000  1.0  -0.1023
  C  C1184  1  0.382800  0.500000  0.280800  1.0  0.3248
  C  C1185  1  0.423100  0.500000  0.376100  1.0  0.3437
  C  C1186  1  0.437100  0.500000  0.411300  1.0  0.6431
  C  C1187  1  0.658100  0.500000  0.184600  1.0  -0.0939
  C  C1188  1  0.642900  0.500000  0.218700  1.0  -0.0737
  C  C1189  1  0.603400  0.500000  0.314000  1.0  -0.1023
  C  C1190  1  0.617200  0.500000  0.280800  1.0  0.3206
  C  C1191  1  0.576900  0.500000  0.376100  1.0  0.344
  C  C1192  1  0.562900  0.500000  0.411300  1.0  0.6434
  C  C1193  1  0.658100  0.500000  0.815400  1.0  -0.0939
  C  C1194  1  0.642900  0.500000  0.781300  1.0  -0.0743
  C  C1195  1  0.603400  0.500000  0.686000  1.0  -0.1026
  C  C1196  1  0.617200  0.500000  0.719200  1.0  0.3209
  C  C1197  1  0.576900  0.500000  0.623900  1.0  0.3446
  C  C1198  1  0.562900  0.500000  0.588700  1.0  0.6415
  C  C1199  1  0.341900  0.500000  0.815400  1.0  -0.0947
  C  C1200  1  0.357100  0.500000  0.781300  1.0  -0.0746
  C  C1201  1  0.396600  0.500000  0.686000  1.0  -0.1025
  C  C1202  1  0.382800  0.500000  0.719200  1.0  0.3246
  C  C1203  1  0.423100  0.500000  0.623900  1.0  0.3436
  C  C1204  1  0.437100  0.500000  0.588700  1.0  0.6418
  C  C1205  1  0.184600  0.341900  0.500000  1.0  -0.0939
  C  C1206  1  0.218700  0.357100  0.500000  1.0  -0.071
  C  C1207  1  0.314000  0.396600  0.500000  1.0  -0.1021
  C  C1208  1  0.280800  0.382800  0.500000  1.0  0.3239
  C  C1209  1  0.376100  0.423100  0.500000  1.0  0.3462
  C  C1210  1  0.411300  0.437100  0.500000  1.0  0.6422
  C  C1211  1  0.184600  0.658100  0.500000  1.0  -0.0938
  C  C1212  1  0.218700  0.642900  0.500000  1.0  -0.0736
  C  C1213  1  0.314000  0.603400  0.500000  1.0  -0.1026
  C  C1214  1  0.280800  0.617200  0.500000  1.0  0.3262
  C  C1215  1  0.376100  0.576900  0.500000  1.0  0.3459
  C  C1216  1  0.411300  0.562900  0.500000  1.0  0.6421
  C  C1217  1  0.815400  0.658100  0.500000  1.0  -0.0946
  C  C1218  1  0.781300  0.642900  0.500000  1.0  -0.0737
  C  C1219  1  0.686000  0.603400  0.500000  1.0  -0.1025
  C  C1220  1  0.719200  0.617200  0.500000  1.0  0.3268
  C  C1221  1  0.623900  0.576900  0.500000  1.0  0.3464
  C  C1222  1  0.588700  0.562900  0.500000  1.0  0.6419
  C  C1223  1  0.815400  0.341900  0.500000  1.0  -0.0948
  C  C1224  1  0.781300  0.357100  0.500000  1.0  -0.0712
  C  C1225  1  0.686000  0.396600  0.500000  1.0  -0.102
  C  C1226  1  0.719200  0.382800  0.500000  1.0  0.3245
  C  C1227  1  0.623900  0.423100  0.500000  1.0  0.3468
  C  C1228  1  0.588700  0.437100  0.500000  1.0  0.6423
  C  C1229  1  0.500000  0.184600  0.341900  1.0  -0.0945
  C  C1230  1  0.500000  0.218700  0.357100  1.0  -0.0692
  C  C1231  1  0.500000  0.314000  0.396600  1.0  -0.1016
  C  C1232  1  0.500000  0.280800  0.382800  1.0  0.3201
  C  C1233  1  0.500000  0.376100  0.423100  1.0  0.3435
  C  C1234  1  0.500000  0.411300  0.437100  1.0  0.6393
  C  C1235  1  0.500000  0.184600  0.658100  1.0  -0.096
  C  C1236  1  0.500000  0.218700  0.642900  1.0  -0.069
  C  C1237  1  0.500000  0.314000  0.603400  1.0  -0.1021
  C  C1238  1  0.500000  0.280800  0.617200  1.0  0.3238
  C  C1239  1  0.500000  0.376100  0.576900  1.0  0.3435
  C  C1240  1  0.500000  0.411300  0.562900  1.0  0.64
  C  C1241  1  0.500000  0.815400  0.658100  1.0  -0.0957
  C  C1242  1  0.500000  0.781300  0.642900  1.0  -0.0687
  C  C1243  1  0.500000  0.686000  0.603400  1.0  -0.1021
  C  C1244  1  0.500000  0.719200  0.617200  1.0  0.3244
  C  C1245  1  0.500000  0.623900  0.576900  1.0  0.3433
  C  C1246  1  0.500000  0.588700  0.562900  1.0  0.6407
  C  C1247  1  0.500000  0.815400  0.341900  1.0  -0.0946
  C  C1248  1  0.500000  0.781300  0.357100  1.0  -0.0683
  C  C1249  1  0.500000  0.686000  0.396600  1.0  -0.1018
  C  C1250  1  0.500000  0.719200  0.382800  1.0  0.3203
  C  C1251  1  0.500000  0.623900  0.423100  1.0  0.3434
  C  C1252  1  0.500000  0.588700  0.437100  1.0  0.6384
  C  C1253  1  0.000000  0.841900  0.315400  1.0  -0.0943
  C  C1254  1  0.000000  0.857100  0.281300  1.0  -0.0695
  C  C1255  1  0.000000  0.896600  0.186000  1.0  -0.1019
  C  C1256  1  0.000000  0.882800  0.219200  1.0  0.3257
  C  C1257  1  0.000000  0.923100  0.123900  1.0  0.3436
  C  C1258  1  0.000000  0.937100  0.088700  1.0  0.6383
  C  C1259  1  0.000000  0.158100  0.315400  1.0  -0.094
  C  C1260  1  0.000000  0.142900  0.281300  1.0  -0.0722
  C  C1261  1  0.000000  0.103400  0.186000  1.0  -0.1024
  C  C1262  1  0.000000  0.117200  0.219200  1.0  0.3276
  C  C1263  1  0.000000  0.076900  0.123900  1.0  0.3429
  C  C1264  1  0.000000  0.062900  0.088700  1.0  0.6387
  C  C1265  1  0.000000  0.158100  0.684600  1.0  -0.0942
  C  C1266  1  0.000000  0.142900  0.718700  1.0  -0.0704
  C  C1267  1  0.000000  0.103400  0.814000  1.0  -0.1023
  C  C1268  1  0.000000  0.117200  0.780800  1.0  0.3278
  C  C1269  1  0.000000  0.076900  0.876100  1.0  0.3422
  C  C1270  1  0.000000  0.062900  0.911300  1.0  0.6401
  C  C1271  1  0.000000  0.841900  0.684600  1.0  -0.0945
  C  C1272  1  0.000000  0.857100  0.718700  1.0  -0.0681
  C  C1273  1  0.000000  0.896600  0.814000  1.0  -0.1018
  C  C1274  1  0.000000  0.882800  0.780800  1.0  0.3255
  C  C1275  1  0.000000  0.923100  0.876100  1.0  0.343
  C  C1276  1  0.000000  0.937100  0.911300  1.0  0.6398
  C  C1277  1  0.841900  0.684600  0.000000  1.0  -0.0945
  C  C1278  1  0.857100  0.718700  0.000000  1.0  -0.0731
  C  C1279  1  0.896600  0.814000  0.000000  1.0  -0.1023
  C  C1280  1  0.882800  0.780800  0.000000  1.0  0.325
  C  C1281  1  0.923100  0.876100  0.000000  1.0  0.3458
  C  C1282  1  0.937100  0.911300  0.000000  1.0  0.643
  C  C1283  1  0.158100  0.684600  0.000000  1.0  -0.0936
  C  C1284  1  0.142900  0.718700  0.000000  1.0  -0.0736
  C  C1285  1  0.103400  0.814000  0.000000  1.0  -0.1024
  C  C1286  1  0.117200  0.780800  0.000000  1.0  0.321
  C  C1287  1  0.076900  0.876100  0.000000  1.0  0.3461
  C  C1288  1  0.062900  0.911300  0.000000  1.0  0.6433
  C  C1289  1  0.158100  0.315400  0.000000  1.0  -0.0936
  C  C1290  1  0.142900  0.281300  0.000000  1.0  -0.0729
  C  C1291  1  0.103400  0.186000  0.000000  1.0  -0.1024
  C  C1292  1  0.117200  0.219200  0.000000  1.0  0.3218
  C  C1293  1  0.076900  0.123900  0.000000  1.0  0.3462
  C  C1294  1  0.062900  0.088700  0.000000  1.0  0.6433
  C  C1295  1  0.841900  0.315400  0.000000  1.0  -0.0944
  C  C1296  1  0.857100  0.281300  0.000000  1.0  -0.0727
  C  C1297  1  0.896600  0.186000  0.000000  1.0  -0.1026
  C  C1298  1  0.882800  0.219200  0.000000  1.0  0.3252
  C  C1299  1  0.923100  0.123900  0.000000  1.0  0.3455
  C  C1300  1  0.937100  0.088700  0.000000  1.0  0.6431
  C  C1301  1  0.684600  0.000000  0.158100  1.0  -0.0955
  C  C1302  1  0.718700  0.000000  0.142900  1.0  -0.0724
  C  C1303  1  0.814000  0.000000  0.103400  1.0  -0.1024
  C  C1304  1  0.780800  0.000000  0.117200  1.0  0.3222
  C  C1305  1  0.876100  0.000000  0.076900  1.0  0.3449
  C  C1306  1  0.911300  0.000000  0.062900  1.0  0.6422
  C  C1307  1  0.684600  0.000000  0.841900  1.0  -0.0943
  C  C1308  1  0.718700  0.000000  0.857100  1.0  -0.0712
  C  C1309  1  0.814000  0.000000  0.896600  1.0  -0.102
  C  C1310  1  0.780800  0.000000  0.882800  1.0  0.3179
  C  C1311  1  0.876100  0.000000  0.923100  1.0  0.3453
  C  C1312  1  0.911300  0.000000  0.937100  1.0  0.6416
  C  C1313  1  0.315400  0.000000  0.841900  1.0  -0.0952
  C  C1314  1  0.281300  0.000000  0.857100  1.0  -0.0716
  C  C1315  1  0.186000  0.000000  0.896600  1.0  -0.102
  C  C1316  1  0.219200  0.000000  0.882800  1.0  0.3186
  C  C1317  1  0.123900  0.000000  0.923100  1.0  0.3453
  C  C1318  1  0.088700  0.000000  0.937100  1.0  0.6417
  C  C1319  1  0.315400  0.000000  0.158100  1.0  -0.0964
  C  C1320  1  0.281300  0.000000  0.142900  1.0  -0.072
  C  C1321  1  0.186000  0.000000  0.103400  1.0  -0.1024
  C  C1322  1  0.219200  0.000000  0.117200  1.0  0.3228
  C  C1323  1  0.123900  0.000000  0.076900  1.0  0.3452
  C  C1324  1  0.088700  0.000000  0.062900  1.0  0.6423
  O  O1325  1  0.438620  0.295680  0.059760  1.0  -0.6195
  O  O1326  1  0.472760  0.247790  0.093750  1.0  -0.6491
  O  O1327  1  0.465120  0.335350  0.032280  1.0  -0.6318
  O  O1328  1  0.448100  0.524400  0.419800  1.0  -0.5984
  O  O1329  1  0.561380  0.704320  0.059760  1.0  -0.6199
  O  O1330  1  0.527240  0.752210  0.093750  1.0  -0.6511
  O  O1331  1  0.534880  0.664650  0.032280  1.0  -0.6332
  O  O1332  1  0.551900  0.475600  0.419800  1.0  -0.5974
  O  O1333  1  0.561380  0.295680  0.940240  1.0  -0.623
  O  O1334  1  0.527240  0.247790  0.906250  1.0  -0.6517
  O  O1335  1  0.534880  0.335350  0.967720  1.0  -0.633
  O  O1336  1  0.551900  0.524400  0.580200  1.0  -0.5978
  O  O1337  1  0.438620  0.704320  0.940240  1.0  -0.6208
  O  O1338  1  0.472760  0.752210  0.906250  1.0  -0.6502
  O  O1339  1  0.465120  0.664650  0.967720  1.0  -0.6333
  O  O1340  1  0.448100  0.475600  0.580200  1.0  -0.5976
  O  O1341  1  0.059760  0.438620  0.295680  1.0  -0.6211
  O  O1342  1  0.093750  0.472760  0.247790  1.0  -0.6538
  O  O1343  1  0.032280  0.465120  0.335350  1.0  -0.632
  O  O1344  1  0.419800  0.448100  0.524400  1.0  -0.5969
  O  O1345  1  0.059760  0.561380  0.704320  1.0  -0.6208
  O  O1346  1  0.093750  0.527240  0.752210  1.0  -0.6519
  O  O1347  1  0.032280  0.534880  0.664650  1.0  -0.636
  O  O1348  1  0.419800  0.551900  0.475600  1.0  -0.5956
  O  O1349  1  0.940240  0.561380  0.295680  1.0  -0.6201
  O  O1350  1  0.906250  0.527240  0.247790  1.0  -0.6526
  O  O1351  1  0.967720  0.534880  0.335350  1.0  -0.6326
  O  O1352  1  0.580200  0.551900  0.524400  1.0  -0.5971
  O  O1353  1  0.940240  0.438620  0.704320  1.0  -0.6204
  O  O1354  1  0.906250  0.472760  0.752210  1.0  -0.6531
  O  O1355  1  0.967720  0.465120  0.664650  1.0  -0.6353
  O  O1356  1  0.580200  0.448100  0.475600  1.0  -0.5963
  O  O1357  1  0.295680  0.059760  0.438620  1.0  -0.6194
  O  O1358  1  0.247790  0.093750  0.472760  1.0  -0.6499
  O  O1359  1  0.335350  0.032280  0.465120  1.0  -0.6237
  O  O1360  1  0.524400  0.419800  0.448100  1.0  -0.5993
  O  O1361  1  0.704320  0.059760  0.561380  1.0  -0.6193
  O  O1362  1  0.752210  0.093750  0.527240  1.0  -0.6499
  O  O1363  1  0.664650  0.032280  0.534880  1.0  -0.6272
  O  O1364  1  0.475600  0.419800  0.551900  1.0  -0.5986
  O  O1365  1  0.295680  0.940240  0.561380  1.0  -0.6193
  O  O1366  1  0.247790  0.906250  0.527240  1.0  -0.6476
  O  O1367  1  0.335350  0.967720  0.534880  1.0  -0.6234
  O  O1368  1  0.524400  0.580200  0.551900  1.0  -0.5985
  O  O1369  1  0.704320  0.940240  0.438620  1.0  -0.6205
  O  O1370  1  0.752210  0.906250  0.472760  1.0  -0.6484
  O  O1371  1  0.664650  0.967720  0.465120  1.0  -0.6264
  O  O1372  1  0.475600  0.580200  0.448100  1.0  -0.6011
  O  O1373  1  0.795680  0.938620  0.440240  1.0  -0.6206
  O  O1374  1  0.747790  0.972760  0.406250  1.0  -0.6508
  O  O1375  1  0.835350  0.965120  0.467720  1.0  -0.6252
  O  O1376  1  0.024400  0.948100  0.080200  1.0  -0.5976
  O  O1377  1  0.204320  0.061380  0.440240  1.0  -0.6211
  O  O1378  1  0.252210  0.027240  0.406250  1.0  -0.6498
  O  O1379  1  0.164650  0.034880  0.467720  1.0  -0.6282
  O  O1380  1  0.975600  0.051900  0.080200  1.0  -0.5971
  O  O1381  1  0.795680  0.061380  0.559760  1.0  -0.6176
  O  O1382  1  0.747790  0.027240  0.593750  1.0  -0.6485
  O  O1383  1  0.835350  0.034880  0.532280  1.0  -0.6239
  O  O1384  1  0.024400  0.051900  0.919800  1.0  -0.5964
  O  O1385  1  0.204320  0.938620  0.559760  1.0  -0.6192
  O  O1386  1  0.252210  0.972760  0.593750  1.0  -0.65
  O  O1387  1  0.164650  0.965120  0.532280  1.0  -0.6276
  O  O1388  1  0.975600  0.948100  0.919800  1.0  -0.5974
  O  O1389  1  0.938620  0.559760  0.204320  1.0  -0.6206
  O  O1390  1  0.972760  0.593750  0.252210  1.0  -0.6498
  O  O1391  1  0.965120  0.532280  0.164650  1.0  -0.6337
  O  O1392  1  0.948100  0.919800  0.975600  1.0  -0.5969
  O  O1393  1  0.061380  0.559760  0.795680  1.0  -0.6202
  O  O1394  1  0.027240  0.593750  0.747790  1.0  -0.6514
  O  O1395  1  0.034880  0.532280  0.835350  1.0  -0.6309
  O  O1396  1  0.051900  0.919800  0.024400  1.0  -0.5976
  O  O1397  1  0.061380  0.440240  0.204320  1.0  -0.6213
  O  O1398  1  0.027240  0.406250  0.252210  1.0  -0.6504
  O  O1399  1  0.034880  0.467720  0.164650  1.0  -0.6345
  O  O1400  1  0.051900  0.080200  0.975600  1.0  -0.5964
  O  O1401  1  0.938620  0.440240  0.795680  1.0  -0.6207
  O  O1402  1  0.972760  0.406250  0.747790  1.0  -0.6481
  O  O1403  1  0.965120  0.467720  0.835350  1.0  -0.6296
  O  O1404  1  0.948100  0.080200  0.024400  1.0  -0.5991
  O  O1405  1  0.559760  0.795680  0.061380  1.0  -0.6221
  O  O1406  1  0.593750  0.747790  0.027240  1.0  -0.6519
  O  O1407  1  0.532280  0.835350  0.034880  1.0  -0.633
  O  O1408  1  0.919800  0.024400  0.051900  1.0  -0.6
  O  O1409  1  0.559760  0.204320  0.938620  1.0  -0.6221
  O  O1410  1  0.593750  0.252210  0.972760  1.0  -0.6523
  O  O1411  1  0.532280  0.164650  0.965120  1.0  -0.6337
  O  O1412  1  0.919800  0.975600  0.948100  1.0  -0.6002
  O  O1413  1  0.440240  0.795680  0.938620  1.0  -0.6212
  O  O1414  1  0.406250  0.747790  0.972760  1.0  -0.6521
  O  O1415  1  0.467720  0.835350  0.965120  1.0  -0.6334
  O  O1416  1  0.080200  0.024400  0.948100  1.0  -0.6
  O  O1417  1  0.440240  0.204320  0.061380  1.0  -0.6195
  O  O1418  1  0.406250  0.252210  0.027240  1.0  -0.6505
  O  O1419  1  0.467720  0.164650  0.034880  1.0  -0.6339
  O  O1420  1  0.080200  0.975600  0.051900  1.0  -0.6002
  O  O1421  1  0.561380  0.704320  0.940240  1.0  -0.6216
  O  O1422  1  0.527240  0.752210  0.906250  1.0  -0.652
  O  O1423  1  0.534880  0.664650  0.967720  1.0  -0.6338
  O  O1424  1  0.551900  0.475600  0.580200  1.0  -0.5978
  O  O1425  1  0.438620  0.295680  0.940240  1.0  -0.6218
  O  O1426  1  0.472760  0.247790  0.906250  1.0  -0.6498
  O  O1427  1  0.465120  0.335350  0.967720  1.0  -0.6328
  O  O1428  1  0.448100  0.524400  0.580200  1.0  -0.5984
  O  O1429  1  0.438620  0.704320  0.059760  1.0  -0.6194
  O  O1430  1  0.472760  0.752210  0.093750  1.0  -0.649
  O  O1431  1  0.465120  0.664650  0.032280  1.0  -0.6326
  O  O1432  1  0.448100  0.475600  0.419800  1.0  -0.5976
  O  O1433  1  0.561380  0.295680  0.059760  1.0  -0.6206
  O  O1434  1  0.527240  0.247790  0.093750  1.0  -0.6512
  O  O1435  1  0.534880  0.335350  0.032280  1.0  -0.6318
  O  O1436  1  0.551900  0.524400  0.419800  1.0  -0.5974
  O  O1437  1  0.940240  0.561380  0.704320  1.0  -0.6204
  O  O1438  1  0.906250  0.527240  0.752210  1.0  -0.6525
  O  O1439  1  0.967720  0.534880  0.664650  1.0  -0.6351
  O  O1440  1  0.580200  0.551900  0.475600  1.0  -0.5951
  O  O1441  1  0.940240  0.438620  0.295680  1.0  -0.6205
  O  O1442  1  0.906250  0.472760  0.247790  1.0  -0.6522
  O  O1443  1  0.967720  0.465120  0.335350  1.0  -0.6324
  O  O1444  1  0.580200  0.448100  0.524400  1.0  -0.5976
  O  O1445  1  0.059760  0.438620  0.704320  1.0  -0.6214
  O  O1446  1  0.093750  0.472760  0.752210  1.0  -0.6543
  O  O1447  1  0.032280  0.465120  0.664650  1.0  -0.6356
  O  O1448  1  0.419800  0.448100  0.475600  1.0  -0.5963
  O  O1449  1  0.059760  0.561380  0.295680  1.0  -0.6203
  O  O1450  1  0.093750  0.527240  0.247790  1.0  -0.652
  O  O1451  1  0.032280  0.534880  0.335350  1.0  -0.6323
  O  O1452  1  0.419800  0.551900  0.524400  1.0  -0.5972
  O  O1453  1  0.704320  0.940240  0.561380  1.0  -0.6199
  O  O1454  1  0.752210  0.906250  0.527240  1.0  -0.6479
  O  O1455  1  0.664650  0.967720  0.534880  1.0  -0.6274
  O  O1456  1  0.475600  0.580200  0.551900  1.0  -0.6004
  O  O1457  1  0.295680  0.940240  0.438620  1.0  -0.6201
  O  O1458  1  0.247790  0.906250  0.472760  1.0  -0.6485
  O  O1459  1  0.335350  0.967720  0.465120  1.0  -0.6236
  O  O1460  1  0.524400  0.580200  0.448100  1.0  -0.5989
  O  O1461  1  0.704320  0.059760  0.438620  1.0  -0.6209
  O  O1462  1  0.752210  0.093750  0.472760  1.0  -0.6503
  O  O1463  1  0.664650  0.032280  0.465120  1.0  -0.6272
  O  O1464  1  0.475600  0.419800  0.448100  1.0  -0.6003
  O  O1465  1  0.295680  0.059760  0.561380  1.0  -0.6179
  O  O1466  1  0.247790  0.093750  0.527240  1.0  -0.6491
  O  O1467  1  0.335350  0.032280  0.534880  1.0  -0.623
  O  O1468  1  0.524400  0.419800  0.551900  1.0  -0.5983
  O  O1469  1  0.204320  0.061380  0.559760  1.0  -0.619
  O  O1470  1  0.252210  0.027240  0.593750  1.0  -0.6494
  O  O1471  1  0.164650  0.034880  0.532280  1.0  -0.6279
  O  O1472  1  0.975600  0.051900  0.919800  1.0  -0.5968
  O  O1473  1  0.795680  0.938620  0.559760  1.0  -0.6189
  O  O1474  1  0.747790  0.972760  0.593750  1.0  -0.6497
  O  O1475  1  0.835350  0.965120  0.532280  1.0  -0.6236
  O  O1476  1  0.024400  0.948100  0.919800  1.0  -0.5982
  O  O1477  1  0.204320  0.938620  0.440240  1.0  -0.6209
  O  O1478  1  0.252210  0.972760  0.406250  1.0  -0.651
  O  O1479  1  0.164650  0.965120  0.467720  1.0  -0.628
  O  O1480  1  0.975600  0.948100  0.080200  1.0  -0.5972
  O  O1481  1  0.795680  0.061380  0.440240  1.0  -0.6194
  O  O1482  1  0.747790  0.027240  0.406250  1.0  -0.6496
  O  O1483  1  0.835350  0.034880  0.467720  1.0  -0.6252
  O  O1484  1  0.024400  0.051900  0.080200  1.0  -0.5963
  O  O1485  1  0.061380  0.440240  0.795680  1.0  -0.621
  O  O1486  1  0.027240  0.406250  0.747790  1.0  -0.6503
  O  O1487  1  0.034880  0.467720  0.835350  1.0  -0.6306
  O  O1488  1  0.051900  0.080200  0.024400  1.0  -0.5984
  O  O1489  1  0.938620  0.440240  0.204320  1.0  -0.6207
  O  O1490  1  0.972760  0.406250  0.252210  1.0  -0.6481
  O  O1491  1  0.965120  0.467720  0.164650  1.0  -0.6338
  O  O1492  1  0.948100  0.080200  0.975600  1.0  -0.5975
  O  O1493  1  0.938620  0.559760  0.795680  1.0  -0.6202
  O  O1494  1  0.972760  0.593750  0.747790  1.0  -0.6502
  O  O1495  1  0.965120  0.532280  0.835350  1.0  -0.6304
  O  O1496  1  0.948100  0.919800  0.024400  1.0  -0.598
  O  O1497  1  0.061380  0.559760  0.204320  1.0  -0.621
  O  O1498  1  0.027240  0.593750  0.252210  1.0  -0.6512
  O  O1499  1  0.034880  0.532280  0.164650  1.0  -0.6346
  O  O1500  1  0.051900  0.919800  0.975600  1.0  -0.5957
  O  O1501  1  0.440240  0.204320  0.938620  1.0  -0.6214
  O  O1502  1  0.406250  0.252210  0.972760  1.0  -0.6527
  O  O1503  1  0.467720  0.164650  0.965120  1.0  -0.6334
  O  O1504  1  0.080200  0.975600  0.948100  1.0  -0.6008
  O  O1505  1  0.440240  0.795680  0.061380  1.0  -0.6201
  O  O1506  1  0.406250  0.747790  0.027240  1.0  -0.6509
  O  O1507  1  0.467720  0.835350  0.034880  1.0  -0.6336
  O  O1508  1  0.080200  0.024400  0.051900  1.0  -0.5994
  O  O1509  1  0.559760  0.204320  0.061380  1.0  -0.6206
  O  O1510  1  0.593750  0.252210  0.027240  1.0  -0.652
  O  O1511  1  0.532280  0.164650  0.034880  1.0  -0.634
  O  O1512  1  0.919800  0.975600  0.051900  1.0  -0.5992
  O  O1513  1  0.559760  0.795680  0.938620  1.0  -0.6226
  O  O1514  1  0.593750  0.747790  0.972760  1.0  -0.6519
  O  O1515  1  0.532280  0.835350  0.965120  1.0  -0.633
  O  O1516  1  0.919800  0.024400  0.948100  1.0  -0.601
  O  O1517  1  0.500000  0.283090  0.953080  1.0  -0.9401
  O  O1518  1  0.500000  0.716910  0.953080  1.0  -0.9408
  O  O1519  1  0.500000  0.283090  0.046920  1.0  -0.9387
  O  O1520  1  0.500000  0.716910  0.046920  1.0  -0.9402
  O  O1521  1  0.953080  0.500000  0.283090  1.0  -0.936
  O  O1522  1  0.953080  0.500000  0.716910  1.0  -0.9366
  O  O1523  1  0.046920  0.500000  0.283090  1.0  -0.9368
  O  O1524  1  0.046920  0.500000  0.716910  1.0  -0.9387
  O  O1525  1  0.283090  0.953080  0.500000  1.0  -0.9412
  O  O1526  1  0.716910  0.953080  0.500000  1.0  -0.9406
  O  O1527  1  0.283090  0.046920  0.500000  1.0  -0.9407
  O  O1528  1  0.716910  0.046920  0.500000  1.0  -0.9406
  O  O1529  1  0.783090  0.000000  0.546920  1.0  -0.9378
  O  O1530  1  0.216910  0.000000  0.546920  1.0  -0.9382
  O  O1531  1  0.783090  0.000000  0.453080  1.0  -0.9396
  O  O1532  1  0.216910  0.000000  0.453080  1.0  -0.9385
  O  O1533  1  0.000000  0.453080  0.216910  1.0  -0.9388
  O  O1534  1  0.000000  0.453080  0.783090  1.0  -0.9386
  O  O1535  1  0.000000  0.546920  0.216910  1.0  -0.9385
  O  O1536  1  0.000000  0.546920  0.783090  1.0  -0.9373
  O  O1537  1  0.453080  0.783090  0.000000  1.0  -0.9399
  O  O1538  1  0.453080  0.216910  0.000000  1.0  -0.94
  O  O1539  1  0.546920  0.783090  0.000000  1.0  -0.941
  O  O1540  1  0.546920  0.216910  0.000000  1.0  -0.9425
  O  O1541  1  0.464140  0.275100  0.000000  1.0  -0.8435
  O  O1542  1  0.535860  0.724900  0.000000  1.0  -0.8452
  O  O1543  1  0.535860  0.275100  0.000000  1.0  -0.8448
  O  O1544  1  0.464140  0.724900  0.000000  1.0  -0.8439
  O  O1545  1  0.000000  0.464140  0.275100  1.0  -0.8448
  O  O1546  1  0.000000  0.535860  0.724900  1.0  -0.8432
  O  O1547  1  0.000000  0.535860  0.275100  1.0  -0.8435
  O  O1548  1  0.000000  0.464140  0.724900  1.0  -0.8445
  O  O1549  1  0.275100  0.000000  0.464140  1.0  -0.8428
  O  O1550  1  0.724900  0.000000  0.535860  1.0  -0.8439
  O  O1551  1  0.275100  0.000000  0.535860  1.0  -0.8435
  O  O1552  1  0.724900  0.000000  0.464140  1.0  -0.8428
  O  O1553  1  0.775100  0.964140  0.500000  1.0  -0.8461
  O  O1554  1  0.224900  0.035860  0.500000  1.0  -0.8448
  O  O1555  1  0.775100  0.035860  0.500000  1.0  -0.8449
  O  O1556  1  0.224900  0.964140  0.500000  1.0  -0.8458
  O  O1557  1  0.964140  0.500000  0.224900  1.0  -0.8417
  O  O1558  1  0.035860  0.500000  0.775100  1.0  -0.8435
  O  O1559  1  0.035860  0.500000  0.224900  1.0  -0.843
  O  O1560  1  0.964140  0.500000  0.775100  1.0  -0.8425
  O  O1561  1  0.500000  0.775100  0.035860  1.0  -0.8435
  O  O1562  1  0.500000  0.224900  0.964140  1.0  -0.8434
  O  O1563  1  0.500000  0.775100  0.964140  1.0  -0.8428
  O  O1564  1  0.500000  0.224900  0.035860  1.0  -0.8437
  O  O1565  1  0.450010  0.500000  0.468120  1.0  -0.6407
  O  O1566  1  0.549990  0.500000  0.468120  1.0  -0.6394
  O  O1567  1  0.549990  0.500000  0.531880  1.0  -0.6389
  O  O1568  1  0.450010  0.500000  0.531880  1.0  -0.641
  O  O1569  1  0.468120  0.450010  0.500000  1.0  -0.6432
  O  O1570  1  0.468120  0.549990  0.500000  1.0  -0.6438
  O  O1571  1  0.531880  0.549990  0.500000  1.0  -0.6434
  O  O1572  1  0.531880  0.450010  0.500000  1.0  -0.6422
  O  O1573  1  0.500000  0.468120  0.450010  1.0  -0.6416
  O  O1574  1  0.500000  0.468120  0.549990  1.0  -0.6449
  O  O1575  1  0.500000  0.531880  0.549990  1.0  -0.6456
  O  O1576  1  0.500000  0.531880  0.450010  1.0  -0.6415
  O  O1577  1  0.000000  0.950010  0.031880  1.0  -0.6427
  O  O1578  1  0.000000  0.049990  0.031880  1.0  -0.645
  O  O1579  1  0.000000  0.049990  0.968120  1.0  -0.645
  O  O1580  1  0.000000  0.950010  0.968120  1.0  -0.6437
  O  O1581  1  0.950010  0.968120  0.000000  1.0  -0.6427
  O  O1582  1  0.049990  0.968120  0.000000  1.0  -0.6405
  O  O1583  1  0.049990  0.031880  0.000000  1.0  -0.6405
  O  O1584  1  0.950010  0.031880  0.000000  1.0  -0.6416
  O  O1585  1  0.968120  0.000000  0.049990  1.0  -0.643
  O  O1586  1  0.968120  0.000000  0.950010  1.0  -0.639
  O  O1587  1  0.031880  0.000000  0.950010  1.0  -0.6389
  O  O1588  1  0.031880  0.000000  0.049990  1.0  -0.6426
