# generated using pymatgen
data_Zr13B6H96C360(O11F16)6
_symmetry_space_group_name_H-M   'P 1'
_cell_length_a   49.36500000
_cell_length_b   49.36500000
_cell_length_c   49.36500000
_cell_angle_alpha   90.00000000
_cell_angle_beta   90.00000000
_cell_angle_gamma   90.00000000
_symmetry_Int_Tables_number   1
_chemical_formula_structural   Zr13B6H96C360(O11F16)6
_chemical_formula_sum   'Zr52 B24 H384 C1440 O264 F384'
_cell_volume   120297.72770213
_cell_formula_units_Z   4
loop_
 _symmetry_equiv_pos_site_id
 _symmetry_equiv_pos_as_xyz
  1  'x, y, z'
loop_
 _atom_site_type_symbol
 _atom_site_label
 _atom_site_symmetry_multiplicity
 _atom_site_fract_x
 _atom_site_fract_y
 _atom_site_fract_z
 _atom_site_occupancy
 _atom_site_charge
  Zr  Zr1  1  0.250000  0.464400  0.964400  1.0  2.0661
  Zr  Zr2  1  0.750000  0.535600  0.964400  1.0  2.0617
  Zr  Zr3  1  0.750000  0.464400  0.035600  1.0  2.0678
  Zr  Zr4  1  0.250000  0.535600  0.035600  1.0  2.0634
  Zr  Zr5  1  0.964400  0.250000  0.464400  1.0  2.0629
  Zr  Zr6  1  0.964400  0.750000  0.535600  1.0  2.064
  Zr  Zr7  1  0.035600  0.750000  0.464400  1.0  2.0631
  Zr  Zr8  1  0.035600  0.250000  0.535600  1.0  2.0652
  Zr  Zr9  1  0.464400  0.964400  0.250000  1.0  2.0628
  Zr  Zr10  1  0.535600  0.964400  0.750000  1.0  2.0632
  Zr  Zr11  1  0.464400  0.035600  0.750000  1.0  2.0578
  Zr  Zr12  1  0.535600  0.035600  0.250000  1.0  2.0586
  Zr  Zr13  1  0.750000  0.535600  0.035600  1.0  2.0634
  Zr  Zr14  1  0.250000  0.464400  0.035600  1.0  2.0678
  Zr  Zr15  1  0.250000  0.535600  0.964400  1.0  2.0617
  Zr  Zr16  1  0.750000  0.464400  0.964400  1.0  2.0661
  Zr  Zr17  1  0.035600  0.750000  0.535600  1.0  2.0652
  Zr  Zr18  1  0.035600  0.250000  0.464400  1.0  2.0631
  Zr  Zr19  1  0.964400  0.250000  0.535600  1.0  2.064
  Zr  Zr20  1  0.964400  0.750000  0.464400  1.0  2.0629
  Zr  Zr21  1  0.535600  0.035600  0.750000  1.0  2.0586
  Zr  Zr22  1  0.464400  0.035600  0.250000  1.0  2.0578
  Zr  Zr23  1  0.535600  0.964400  0.250000  1.0  2.0632
  Zr  Zr24  1  0.464400  0.964400  0.750000  1.0  2.0628
  Zr  Zr25  1  0.199620  0.500000  0.000000  1.0  2.0401
  Zr  Zr26  1  0.800380  0.500000  0.000000  1.0  2.0401
  Zr  Zr27  1  0.000000  0.199620  0.500000  1.0  2.0451
  Zr  Zr28  1  0.000000  0.800380  0.500000  1.0  2.0407
  Zr  Zr29  1  0.500000  0.000000  0.199620  1.0  2.0399
  Zr  Zr30  1  0.500000  0.000000  0.800380  1.0  2.0403
  Zr  Zr31  1  0.000000  0.699620  0.500000  1.0  2.0452
  Zr  Zr32  1  0.000000  0.300380  0.500000  1.0  2.0408
  Zr  Zr33  1  0.699620  0.500000  0.000000  1.0  2.0402
  Zr  Zr34  1  0.300380  0.500000  0.000000  1.0  2.0402
  Zr  Zr35  1  0.500000  0.000000  0.300380  1.0  2.0404
  Zr  Zr36  1  0.500000  0.000000  0.699620  1.0  2.04
  Zr  Zr37  1  0.972990  0.972990  0.027010  1.0  1.8416
  Zr  Zr38  1  0.027010  0.027010  0.027010  1.0  1.8486
  Zr  Zr39  1  0.027010  0.972990  0.972990  1.0  1.8414
  Zr  Zr40  1  0.972990  0.027010  0.972990  1.0  1.8511
  Zr  Zr41  1  0.472990  0.472990  0.472990  1.0  1.8427
  Zr  Zr42  1  0.527010  0.527010  0.472990  1.0  1.8496
  Zr  Zr43  1  0.472990  0.527010  0.527010  1.0  1.8495
  Zr  Zr44  1  0.527010  0.472990  0.527010  1.0  1.8406
  Zr  Zr45  1  0.027010  0.027010  0.972990  1.0  1.8496
  Zr  Zr46  1  0.972990  0.972990  0.972990  1.0  1.8427
  Zr  Zr47  1  0.972990  0.027010  0.027010  1.0  1.8495
  Zr  Zr48  1  0.027010  0.972990  0.027010  1.0  1.8406
  Zr  Zr49  1  0.527010  0.527010  0.527010  1.0  1.8486
  Zr  Zr50  1  0.472990  0.472990  0.527010  1.0  1.8416
  Zr  Zr51  1  0.527010  0.472990  0.472990  1.0  1.8414
  Zr  Zr52  1  0.472990  0.527010  0.472990  1.0  1.8511
  B  B53  1  0.000000  0.687300  0.155700  1.0  0.5414
  B  B54  1  0.000000  0.312700  0.155700  1.0  0.5414
  B  B55  1  0.000000  0.687300  0.844300  1.0  0.5418
  B  B56  1  0.000000  0.312700  0.844300  1.0  0.5417
  B  B57  1  0.155700  0.000000  0.687300  1.0  0.5416
  B  B58  1  0.155700  0.000000  0.312700  1.0  0.5393
  B  B59  1  0.844300  0.000000  0.687300  1.0  0.5417
  B  B60  1  0.844300  0.000000  0.312700  1.0  0.5394
  B  B61  1  0.687300  0.155700  0.000000  1.0  0.5417
  B  B62  1  0.312700  0.155700  0.000000  1.0  0.5405
  B  B63  1  0.687300  0.844300  0.000000  1.0  0.5418
  B  B64  1  0.312700  0.844300  0.000000  1.0  0.5406
  B  B65  1  0.187300  0.500000  0.344300  1.0  0.542
  B  B66  1  0.812700  0.500000  0.344300  1.0  0.5409
  B  B67  1  0.187300  0.500000  0.655700  1.0  0.5417
  B  B68  1  0.812700  0.500000  0.655700  1.0  0.5405
  B  B69  1  0.500000  0.655700  0.812700  1.0  0.5394
  B  B70  1  0.500000  0.655700  0.187300  1.0  0.5418
  B  B71  1  0.500000  0.344300  0.812700  1.0  0.5395
  B  B72  1  0.500000  0.344300  0.187300  1.0  0.5419
  B  B73  1  0.655700  0.187300  0.500000  1.0  0.5413
  B  B74  1  0.655700  0.812700  0.500000  1.0  0.5413
  B  B75  1  0.344300  0.187300  0.500000  1.0  0.5414
  B  B76  1  0.344300  0.812700  0.500000  1.0  0.5414
  H  H77  1  0.265600  0.374600  0.042300  1.0  0.0997
  H  H78  1  0.272200  0.327700  0.040900  1.0  0.1084
  H  H79  1  0.190400  0.580800  0.086700  1.0  0.0942
  H  H80  1  0.156900  0.605300  0.108600  1.0  0.1106
  H  H81  1  0.100200  0.567600  0.064100  1.0  0.104
  H  H82  1  0.133700  0.543100  0.042100  1.0  0.1008
  H  H83  1  0.961100  0.856100  0.095400  1.0  0.1109
  H  H84  1  0.960200  0.894800  0.068800  1.0  0.0812
  H  H85  1  0.734400  0.625400  0.042300  1.0  0.0997
  H  H86  1  0.727800  0.672300  0.040900  1.0  0.108
  H  H87  1  0.809600  0.419200  0.086700  1.0  0.0944
  H  H88  1  0.843100  0.394700  0.108600  1.0  0.1109
  H  H89  1  0.899800  0.432400  0.064100  1.0  0.1034
  H  H90  1  0.866300  0.456900  0.042100  1.0  0.1009
  H  H91  1  0.038900  0.143900  0.095400  1.0  0.1108
  H  H92  1  0.039800  0.105200  0.068800  1.0  0.0803
  H  H93  1  0.734400  0.374600  0.957700  1.0  0.0993
  H  H94  1  0.727800  0.327700  0.959100  1.0  0.1076
  H  H95  1  0.809600  0.580800  0.913300  1.0  0.0947
  H  H96  1  0.843100  0.605300  0.891400  1.0  0.1107
  H  H97  1  0.899800  0.567600  0.935900  1.0  0.1034
  H  H98  1  0.866300  0.543100  0.957900  1.0  0.1011
  H  H99  1  0.038900  0.856100  0.904600  1.0  0.1116
  H  H100  1  0.039800  0.894800  0.931200  1.0  0.0806
  H  H101  1  0.265600  0.625400  0.957700  1.0  0.0991
  H  H102  1  0.272200  0.672300  0.959100  1.0  0.1076
  H  H103  1  0.190400  0.419200  0.913300  1.0  0.094
  H  H104  1  0.156900  0.394700  0.891400  1.0  0.1101
  H  H105  1  0.100200  0.432400  0.935900  1.0  0.1044
  H  H106  1  0.133700  0.456900  0.957900  1.0  0.1002
  H  H107  1  0.961100  0.143900  0.904600  1.0  0.1113
  H  H108  1  0.960200  0.105200  0.931200  1.0  0.0804
  H  H109  1  0.042300  0.265600  0.374600  1.0  0.0999
  H  H110  1  0.040900  0.272200  0.327700  1.0  0.1102
  H  H111  1  0.086700  0.190400  0.580800  1.0  0.0957
  H  H112  1  0.108600  0.156900  0.605300  1.0  0.1098
  H  H113  1  0.064100  0.100200  0.567600  1.0  0.1037
  H  H114  1  0.042100  0.133700  0.543100  1.0  0.1002
  H  H115  1  0.095400  0.961100  0.856100  1.0  0.1123
  H  H116  1  0.068800  0.960200  0.894800  1.0  0.0811
  H  H117  1  0.042300  0.734400  0.625400  1.0  0.0997
  H  H118  1  0.040900  0.727800  0.672300  1.0  0.1099
  H  H119  1  0.086700  0.809600  0.419200  1.0  0.0952
  H  H120  1  0.108600  0.843100  0.394700  1.0  0.1098
  H  H121  1  0.064100  0.899800  0.432400  1.0  0.1037
  H  H122  1  0.042100  0.866300  0.456900  1.0  0.1008
  H  H123  1  0.095400  0.038900  0.143900  1.0  0.1126
  H  H124  1  0.068800  0.039800  0.105200  1.0  0.0815
  H  H125  1  0.957700  0.734400  0.374600  1.0  0.0994
  H  H126  1  0.959100  0.727800  0.327700  1.0  0.1092
  H  H127  1  0.913300  0.809600  0.580800  1.0  0.0953
  H  H128  1  0.891400  0.843100  0.605300  1.0  0.1101
  H  H129  1  0.935900  0.899800  0.567600  1.0  0.1042
  H  H130  1  0.957900  0.866300  0.543100  1.0  0.1009
  H  H131  1  0.904600  0.038900  0.856100  1.0  0.1126
  H  H132  1  0.931200  0.039800  0.894800  1.0  0.0812
  H  H133  1  0.957700  0.265600  0.625400  1.0  0.0997
  H  H134  1  0.959100  0.272200  0.672300  1.0  0.1094
  H  H135  1  0.913300  0.190400  0.419200  1.0  0.095
  H  H136  1  0.891400  0.156900  0.394700  1.0  0.1094
  H  H137  1  0.935900  0.100200  0.432400  1.0  0.1037
  H  H138  1  0.957900  0.133700  0.456900  1.0  0.1008
  H  H139  1  0.904600  0.961100  0.143900  1.0  0.1127
  H  H140  1  0.931200  0.960200  0.105200  1.0  0.0812
  H  H141  1  0.374600  0.042300  0.265600  1.0  0.1009
  H  H142  1  0.327700  0.040900  0.272200  1.0  0.1097
  H  H143  1  0.580800  0.086700  0.190400  1.0  0.0959
  H  H144  1  0.605300  0.108600  0.156900  1.0  0.1109
  H  H145  1  0.567600  0.064100  0.100200  1.0  0.102
  H  H146  1  0.543100  0.042100  0.133700  1.0  0.1007
  H  H147  1  0.856100  0.095400  0.961100  1.0  0.1109
  H  H148  1  0.894800  0.068800  0.960200  1.0  0.0814
  H  H149  1  0.625400  0.042300  0.734400  1.0  0.1018
  H  H150  1  0.672300  0.040900  0.727800  1.0  0.1097
  H  H151  1  0.419200  0.086700  0.809600  1.0  0.0953
  H  H152  1  0.394700  0.108600  0.843100  1.0  0.111
  H  H153  1  0.432400  0.064100  0.899800  1.0  0.1024
  H  H154  1  0.456900  0.042100  0.866300  1.0  0.1008
  H  H155  1  0.143900  0.095400  0.038900  1.0  0.1109
  H  H156  1  0.105200  0.068800  0.039800  1.0  0.0807
  H  H157  1  0.374600  0.957700  0.734400  1.0  0.1006
  H  H158  1  0.327700  0.959100  0.727800  1.0  0.1102
  H  H159  1  0.580800  0.913300  0.809600  1.0  0.0953
  H  H160  1  0.605300  0.891400  0.843100  1.0  0.1102
  H  H161  1  0.567600  0.935900  0.899800  1.0  0.1023
  H  H162  1  0.543100  0.957900  0.866300  1.0  0.1007
  H  H163  1  0.856100  0.904600  0.038900  1.0  0.1113
  H  H164  1  0.894800  0.931200  0.039800  1.0  0.0813
  H  H165  1  0.625400  0.957700  0.265600  1.0  0.1015
  H  H166  1  0.672300  0.959100  0.272200  1.0  0.1101
  H  H167  1  0.419200  0.913300  0.190400  1.0  0.0962
  H  H168  1  0.394700  0.891400  0.156900  1.0  0.1106
  H  H169  1  0.432400  0.935900  0.100200  1.0  0.1027
  H  H170  1  0.456900  0.957900  0.133700  1.0  0.1006
  H  H171  1  0.143900  0.904600  0.961100  1.0  0.1112
  H  H172  1  0.105200  0.931200  0.960200  1.0  0.0804
  H  H173  1  0.874600  0.765600  0.457700  1.0  0.0993
  H  H174  1  0.827700  0.772200  0.459100  1.0  0.1091
  H  H175  1  0.080800  0.690400  0.413300  1.0  0.0957
  H  H176  1  0.105300  0.656900  0.391400  1.0  0.1104
  H  H177  1  0.067600  0.600200  0.435900  1.0  0.1043
  H  H178  1  0.043100  0.633700  0.457900  1.0  0.1013
  H  H179  1  0.356100  0.461100  0.404600  1.0  0.1127
  H  H180  1  0.394800  0.460200  0.431200  1.0  0.0817
  H  H181  1  0.125400  0.234400  0.457700  1.0  0.1002
  H  H182  1  0.172300  0.227800  0.459100  1.0  0.109
  H  H183  1  0.919200  0.309600  0.413300  1.0  0.0951
  H  H184  1  0.894700  0.343100  0.391400  1.0  0.1095
  H  H185  1  0.932400  0.399800  0.435900  1.0  0.1042
  H  H186  1  0.956900  0.366300  0.457900  1.0  0.1011
  H  H187  1  0.643900  0.538900  0.404600  1.0  0.1131
  H  H188  1  0.605200  0.539800  0.431200  1.0  0.0811
  H  H189  1  0.874600  0.234400  0.542300  1.0  0.0995
  H  H190  1  0.827700  0.227800  0.540900  1.0  0.1092
  H  H191  1  0.080800  0.309600  0.586700  1.0  0.0952
  H  H192  1  0.105300  0.343100  0.608600  1.0  0.1099
  H  H193  1  0.067600  0.399800  0.564100  1.0  0.1039
  H  H194  1  0.043100  0.366300  0.542100  1.0  0.1011
  H  H195  1  0.356100  0.538900  0.595400  1.0  0.1124
  H  H196  1  0.394800  0.539800  0.568800  1.0  0.0818
  H  H197  1  0.125400  0.765600  0.542300  1.0  0.1004
  H  H198  1  0.172300  0.772200  0.540900  1.0  0.1091
  H  H199  1  0.919200  0.690400  0.586700  1.0  0.0952
  H  H200  1  0.894700  0.656900  0.608600  1.0  0.11
  H  H201  1  0.932400  0.600200  0.564100  1.0  0.104
  H  H202  1  0.956900  0.633700  0.542100  1.0  0.1008
  H  H203  1  0.643900  0.461100  0.595400  1.0  0.1121
  H  H204  1  0.605200  0.460200  0.568800  1.0  0.0817
  H  H205  1  0.765600  0.542300  0.125400  1.0  0.1004
  H  H206  1  0.772200  0.540900  0.172300  1.0  0.1087
  H  H207  1  0.690400  0.586700  0.919200  1.0  0.094
  H  H208  1  0.656900  0.608600  0.894700  1.0  0.1109
  H  H209  1  0.600200  0.564100  0.932400  1.0  0.1032
  H  H210  1  0.633700  0.542100  0.956900  1.0  0.1015
  H  H211  1  0.461100  0.595400  0.643900  1.0  0.1112
  H  H212  1  0.460200  0.568800  0.605200  1.0  0.081
  H  H213  1  0.234400  0.542300  0.874600  1.0  0.1005
  H  H214  1  0.227800  0.540900  0.827700  1.0  0.1093
  H  H215  1  0.309600  0.586700  0.080800  1.0  0.0941
  H  H216  1  0.343100  0.608600  0.105300  1.0  0.1105
  H  H217  1  0.399800  0.564100  0.067600  1.0  0.1024
  H  H218  1  0.366300  0.542100  0.043100  1.0  0.1009
  H  H219  1  0.538900  0.595400  0.356100  1.0  0.1115
  H  H220  1  0.539800  0.568800  0.394800  1.0  0.0804
  H  H221  1  0.234400  0.457700  0.125400  1.0  0.1005
  H  H222  1  0.227800  0.459100  0.172300  1.0  0.1092
  H  H223  1  0.309600  0.413300  0.919200  1.0  0.0952
  H  H224  1  0.343100  0.391400  0.894700  1.0  0.1096
  H  H225  1  0.399800  0.435900  0.932400  1.0  0.1023
  H  H226  1  0.366300  0.457900  0.956900  1.0  0.1004
  H  H227  1  0.538900  0.404600  0.643900  1.0  0.1116
  H  H228  1  0.539800  0.431200  0.605200  1.0  0.0807
  H  H229  1  0.765600  0.457700  0.874600  1.0  0.1004
  H  H230  1  0.772200  0.459100  0.827700  1.0  0.1085
  H  H231  1  0.690400  0.413300  0.080800  1.0  0.0942
  H  H232  1  0.656900  0.391400  0.105300  1.0  0.1102
  H  H233  1  0.600200  0.435900  0.067600  1.0  0.1031
  H  H234  1  0.633700  0.457900  0.043100  1.0  0.1008
  H  H235  1  0.461100  0.404600  0.356100  1.0  0.1111
  H  H236  1  0.460200  0.431200  0.394800  1.0  0.0809
  H  H237  1  0.542300  0.874600  0.234400  1.0  0.1003
  H  H238  1  0.540900  0.827700  0.227800  1.0  0.1104
  H  H239  1  0.586700  0.080800  0.309600  1.0  0.0958
  H  H240  1  0.608600  0.105300  0.343100  1.0  0.1112
  H  H241  1  0.564100  0.067600  0.399800  1.0  0.1027
  H  H242  1  0.542100  0.043100  0.366300  1.0  0.1006
  H  H243  1  0.595400  0.356100  0.538900  1.0  0.1109
  H  H244  1  0.568800  0.394800  0.539800  1.0  0.0804
  H  H245  1  0.542300  0.125400  0.765600  1.0  0.1002
  H  H246  1  0.540900  0.172300  0.772200  1.0  0.1099
  H  H247  1  0.586700  0.919200  0.690400  1.0  0.0959
  H  H248  1  0.608600  0.894700  0.656900  1.0  0.1106
  H  H249  1  0.564100  0.932400  0.600200  1.0  0.1027
  H  H250  1  0.542100  0.956900  0.633700  1.0  0.0998
  H  H251  1  0.595400  0.643900  0.461100  1.0  0.1113
  H  H252  1  0.568800  0.605200  0.460200  1.0  0.0799
  H  H253  1  0.457700  0.874600  0.765600  1.0  0.1001
  H  H254  1  0.459100  0.827700  0.772200  1.0  0.1091
  H  H255  1  0.413300  0.080800  0.690400  1.0  0.0958
  H  H256  1  0.391400  0.105300  0.656900  1.0  0.1109
  H  H257  1  0.435900  0.067600  0.600200  1.0  0.1026
  H  H258  1  0.457900  0.043100  0.633700  1.0  0.0999
  H  H259  1  0.404600  0.356100  0.461100  1.0  0.1109
  H  H260  1  0.431200  0.394800  0.460200  1.0  0.0802
  H  H261  1  0.457700  0.125400  0.234400  1.0  0.1002
  H  H262  1  0.459100  0.172300  0.227800  1.0  0.1092
  H  H263  1  0.413300  0.919200  0.309600  1.0  0.0951
  H  H264  1  0.391400  0.894700  0.343100  1.0  0.1101
  H  H265  1  0.435900  0.932400  0.399800  1.0  0.1029
  H  H266  1  0.457900  0.956900  0.366300  1.0  0.0998
  H  H267  1  0.404600  0.643900  0.538900  1.0  0.111
  H  H268  1  0.431200  0.605200  0.539800  1.0  0.0802
  H  H269  1  0.734400  0.625400  0.957700  1.0  0.0994
  H  H270  1  0.727800  0.672300  0.959100  1.0  0.1077
  H  H271  1  0.809600  0.419200  0.913300  1.0  0.0948
  H  H272  1  0.843100  0.394700  0.891400  1.0  0.1101
  H  H273  1  0.899800  0.432400  0.935900  1.0  0.1033
  H  H274  1  0.866300  0.456900  0.957900  1.0  0.1002
  H  H275  1  0.038900  0.143900  0.904600  1.0  0.1119
  H  H276  1  0.039800  0.105200  0.931200  1.0  0.0799
  H  H277  1  0.265600  0.374600  0.957700  1.0  0.099
  H  H278  1  0.272200  0.327700  0.959100  1.0  0.1076
  H  H279  1  0.190400  0.580800  0.913300  1.0  0.0943
  H  H280  1  0.156900  0.605300  0.891400  1.0  0.1109
  H  H281  1  0.100200  0.567600  0.935900  1.0  0.1043
  H  H282  1  0.133700  0.543100  0.957900  1.0  0.1014
  H  H283  1  0.961100  0.856100  0.904600  1.0  0.1112
  H  H284  1  0.960200  0.894800  0.931200  1.0  0.0809
  H  H285  1  0.265600  0.625400  0.042300  1.0  0.0995
  H  H286  1  0.272200  0.672300  0.040900  1.0  0.1086
  H  H287  1  0.190400  0.419200  0.086700  1.0  0.094
  H  H288  1  0.156900  0.394700  0.108600  1.0  0.1104
  H  H289  1  0.100200  0.432400  0.064100  1.0  0.1043
  H  H290  1  0.133700  0.456900  0.042100  1.0  0.1006
  H  H291  1  0.961100  0.143900  0.095400  1.0  0.1106
  H  H292  1  0.960200  0.105200  0.068800  1.0  0.0807
  H  H293  1  0.734400  0.374600  0.042300  1.0  0.0999
  H  H294  1  0.727800  0.327700  0.040900  1.0  0.1081
  H  H295  1  0.809600  0.580800  0.086700  1.0  0.0943
  H  H296  1  0.843100  0.605300  0.108600  1.0  0.1107
  H  H297  1  0.899800  0.567600  0.064100  1.0  0.1032
  H  H298  1  0.866300  0.543100  0.042100  1.0  0.1009
  H  H299  1  0.038900  0.856100  0.095400  1.0  0.1109
  H  H300  1  0.039800  0.894800  0.068800  1.0  0.0809
  H  H301  1  0.957700  0.734400  0.625400  1.0  0.0999
  H  H302  1  0.959100  0.727800  0.672300  1.0  0.1093
  H  H303  1  0.913300  0.809600  0.419200  1.0  0.0948
  H  H304  1  0.891400  0.843100  0.394700  1.0  0.1094
  H  H305  1  0.935900  0.899800  0.432400  1.0  0.1043
  H  H306  1  0.957900  0.866300  0.456900  1.0  0.1006
  H  H307  1  0.904600  0.038900  0.143900  1.0  0.1128
  H  H308  1  0.931200  0.039800  0.105200  1.0  0.0815
  H  H309  1  0.957700  0.265600  0.374600  1.0  0.0996
  H  H310  1  0.959100  0.272200  0.327700  1.0  0.1095
  H  H311  1  0.913300  0.190400  0.580800  1.0  0.0951
  H  H312  1  0.891400  0.156900  0.605300  1.0  0.1098
  H  H313  1  0.935900  0.100200  0.567600  1.0  0.1038
  H  H314  1  0.957900  0.133700  0.543100  1.0  0.1005
  H  H315  1  0.904600  0.961100  0.856100  1.0  0.1124
  H  H316  1  0.931200  0.960200  0.894800  1.0  0.0813
  H  H317  1  0.042300  0.265600  0.625400  1.0  0.0996
  H  H318  1  0.040900  0.272200  0.672300  1.0  0.11
  H  H319  1  0.086700  0.190400  0.419200  1.0  0.0956
  H  H320  1  0.108600  0.156900  0.394700  1.0  0.1101
  H  H321  1  0.064100  0.100200  0.432400  1.0  0.1038
  H  H322  1  0.042100  0.133700  0.456900  1.0  0.101
  H  H323  1  0.095400  0.961100  0.143900  1.0  0.1125
  H  H324  1  0.068800  0.960200  0.105200  1.0  0.0811
  H  H325  1  0.042300  0.734400  0.374600  1.0  0.0999
  H  H326  1  0.040900  0.727800  0.327700  1.0  0.11
  H  H327  1  0.086700  0.809600  0.580800  1.0  0.0955
  H  H328  1  0.108600  0.843100  0.605300  1.0  0.1098
  H  H329  1  0.064100  0.899800  0.567600  1.0  0.1037
  H  H330  1  0.042100  0.866300  0.543100  1.0  0.1006
  H  H331  1  0.095400  0.038900  0.856100  1.0  0.1124
  H  H332  1  0.068800  0.039800  0.894800  1.0  0.081
  H  H333  1  0.625400  0.957700  0.734400  1.0  0.1016
  H  H334  1  0.672300  0.959100  0.727800  1.0  0.1106
  H  H335  1  0.419200  0.913300  0.809600  1.0  0.0954
  H  H336  1  0.394700  0.891400  0.843100  1.0  0.11
  H  H337  1  0.432400  0.935900  0.899800  1.0  0.1024
  H  H338  1  0.456900  0.957900  0.866300  1.0  0.1005
  H  H339  1  0.143900  0.904600  0.038900  1.0  0.111
  H  H340  1  0.105200  0.931200  0.039800  1.0  0.0805
  H  H341  1  0.374600  0.957700  0.265600  1.0  0.1006
  H  H342  1  0.327700  0.959100  0.272200  1.0  0.1096
  H  H343  1  0.580800  0.913300  0.190400  1.0  0.0957
  H  H344  1  0.605300  0.891400  0.156900  1.0  0.1104
  H  H345  1  0.567600  0.935900  0.100200  1.0  0.1023
  H  H346  1  0.543100  0.957900  0.133700  1.0  0.1005
  H  H347  1  0.856100  0.904600  0.961100  1.0  0.111
  H  H348  1  0.894800  0.931200  0.960200  1.0  0.0814
  H  H349  1  0.625400  0.042300  0.265600  1.0  0.1017
  H  H350  1  0.672300  0.040900  0.272200  1.0  0.1094
  H  H351  1  0.419200  0.086700  0.190400  1.0  0.0959
  H  H352  1  0.394700  0.108600  0.156900  1.0  0.1109
  H  H353  1  0.432400  0.064100  0.100200  1.0  0.1025
  H  H354  1  0.456900  0.042100  0.133700  1.0  0.1003
  H  H355  1  0.143900  0.095400  0.961100  1.0  0.1111
  H  H356  1  0.105200  0.068800  0.960200  1.0  0.0806
  H  H357  1  0.374600  0.042300  0.734400  1.0  0.1008
  H  H358  1  0.327700  0.040900  0.727800  1.0  0.1099
  H  H359  1  0.580800  0.086700  0.809600  1.0  0.0955
  H  H360  1  0.605300  0.108600  0.843100  1.0  0.1113
  H  H361  1  0.567600  0.064100  0.899800  1.0  0.1024
  H  H362  1  0.543100  0.042100  0.866300  1.0  0.1013
  H  H363  1  0.856100  0.095400  0.038900  1.0  0.1111
  H  H364  1  0.894800  0.068800  0.039800  1.0  0.0812
  H  H365  1  0.125400  0.234400  0.542300  1.0  0.1003
  H  H366  1  0.172300  0.227800  0.540900  1.0  0.109
  H  H367  1  0.919200  0.309600  0.586700  1.0  0.0953
  H  H368  1  0.894700  0.343100  0.608600  1.0  0.1103
  H  H369  1  0.932400  0.399800  0.564100  1.0  0.1042
  H  H370  1  0.956900  0.366300  0.542100  1.0  0.1011
  H  H371  1  0.643900  0.538900  0.595400  1.0  0.1123
  H  H372  1  0.605200  0.539800  0.568800  1.0  0.0817
  H  H373  1  0.874600  0.765600  0.542300  1.0  0.0995
  H  H374  1  0.827700  0.772200  0.540900  1.0  0.1093
  H  H375  1  0.080800  0.690400  0.586700  1.0  0.0953
  H  H376  1  0.105300  0.656900  0.608600  1.0  0.1099
  H  H377  1  0.067600  0.600200  0.564100  1.0  0.1038
  H  H378  1  0.043100  0.633700  0.542100  1.0  0.1008
  H  H379  1  0.356100  0.461100  0.595400  1.0  0.1123
  H  H380  1  0.394800  0.460200  0.568800  1.0  0.0817
  H  H381  1  0.125400  0.765600  0.457700  1.0  0.1
  H  H382  1  0.172300  0.772200  0.459100  1.0  0.1092
  H  H383  1  0.919200  0.690400  0.413300  1.0  0.0954
  H  H384  1  0.894700  0.656900  0.391400  1.0  0.1094
  H  H385  1  0.932400  0.600200  0.435900  1.0  0.1039
  H  H386  1  0.956900  0.633700  0.457900  1.0  0.1014
  H  H387  1  0.643900  0.461100  0.404600  1.0  0.1128
  H  H388  1  0.605200  0.460200  0.431200  1.0  0.0815
  H  H389  1  0.874600  0.234400  0.457700  1.0  0.0996
  H  H390  1  0.827700  0.227800  0.459100  1.0  0.1089
  H  H391  1  0.080800  0.309600  0.413300  1.0  0.0954
  H  H392  1  0.105300  0.343100  0.391400  1.0  0.1101
  H  H393  1  0.067600  0.399800  0.435900  1.0  0.1041
  H  H394  1  0.043100  0.366300  0.457900  1.0  0.1011
  H  H395  1  0.356100  0.538900  0.404600  1.0  0.1131
  H  H396  1  0.394800  0.539800  0.431200  1.0  0.0814
  H  H397  1  0.234400  0.457700  0.874600  1.0  0.1007
  H  H398  1  0.227800  0.459100  0.827700  1.0  0.1086
  H  H399  1  0.309600  0.413300  0.080800  1.0  0.0946
  H  H400  1  0.343100  0.391400  0.105300  1.0  0.1106
  H  H401  1  0.399800  0.435900  0.067600  1.0  0.1027
  H  H402  1  0.366300  0.457900  0.043100  1.0  0.1012
  H  H403  1  0.538900  0.404600  0.356100  1.0  0.1113
  H  H404  1  0.539800  0.431200  0.394800  1.0  0.0806
  H  H405  1  0.765600  0.457700  0.125400  1.0  0.1003
  H  H406  1  0.772200  0.459100  0.172300  1.0  0.1093
  H  H407  1  0.690400  0.413300  0.919200  1.0  0.0936
  H  H408  1  0.656900  0.391400  0.894700  1.0  0.1096
  H  H409  1  0.600200  0.435900  0.932400  1.0  0.1029
  H  H410  1  0.633700  0.457900  0.956900  1.0  0.1007
  H  H411  1  0.461100  0.404600  0.643900  1.0  0.1116
  H  H412  1  0.460200  0.431200  0.605200  1.0  0.0809
  H  H413  1  0.765600  0.542300  0.874600  1.0  0.1001
  H  H414  1  0.772200  0.540900  0.827700  1.0  0.1091
  H  H415  1  0.690400  0.586700  0.080800  1.0  0.0942
  H  H416  1  0.656900  0.608600  0.105300  1.0  0.1104
  H  H417  1  0.600200  0.564100  0.067600  1.0  0.1031
  H  H418  1  0.633700  0.542100  0.043100  1.0  0.1007
  H  H419  1  0.461100  0.595400  0.356100  1.0  0.111
  H  H420  1  0.460200  0.568800  0.394800  1.0  0.081
  H  H421  1  0.234400  0.542300  0.125400  1.0  0.1006
  H  H422  1  0.227800  0.540900  0.172300  1.0  0.1086
  H  H423  1  0.309600  0.586700  0.919200  1.0  0.0948
  H  H424  1  0.343100  0.608600  0.894700  1.0  0.1106
  H  H425  1  0.399800  0.564100  0.932400  1.0  0.1024
  H  H426  1  0.366300  0.542100  0.956900  1.0  0.1009
  H  H427  1  0.538900  0.595400  0.643900  1.0  0.1116
  H  H428  1  0.539800  0.568800  0.605200  1.0  0.0806
  H  H429  1  0.457700  0.125400  0.765600  1.0  0.1001
  H  H430  1  0.459100  0.172300  0.772200  1.0  0.1088
  H  H431  1  0.413300  0.919200  0.690400  1.0  0.0959
  H  H432  1  0.391400  0.894700  0.656900  1.0  0.1107
  H  H433  1  0.435900  0.932400  0.600200  1.0  0.1029
  H  H434  1  0.457900  0.956900  0.633700  1.0  0.1
  H  H435  1  0.404600  0.643900  0.461100  1.0  0.1111
  H  H436  1  0.431200  0.605200  0.460200  1.0  0.0801
  H  H437  1  0.457700  0.874600  0.234400  1.0  0.1002
  H  H438  1  0.459100  0.827700  0.227800  1.0  0.1098
  H  H439  1  0.413300  0.080800  0.309600  1.0  0.0952
  H  H440  1  0.391400  0.105300  0.343100  1.0  0.1111
  H  H441  1  0.435900  0.067600  0.399800  1.0  0.1027
  H  H442  1  0.457900  0.043100  0.366300  1.0  0.1005
  H  H443  1  0.404600  0.356100  0.538900  1.0  0.1112
  H  H444  1  0.431200  0.394800  0.539800  1.0  0.0808
  H  H445  1  0.542300  0.125400  0.234400  1.0  0.1002
  H  H446  1  0.540900  0.172300  0.227800  1.0  0.1102
  H  H447  1  0.586700  0.919200  0.309600  1.0  0.0955
  H  H448  1  0.608600  0.894700  0.343100  1.0  0.1103
  H  H449  1  0.564100  0.932400  0.399800  1.0  0.1028
  H  H450  1  0.542100  0.956900  0.366300  1.0  0.0999
  H  H451  1  0.595400  0.643900  0.538900  1.0  0.1107
  H  H452  1  0.568800  0.605200  0.539800  1.0  0.0797
  H  H453  1  0.542300  0.874600  0.765600  1.0  0.1004
  H  H454  1  0.540900  0.827700  0.772200  1.0  0.1098
  H  H455  1  0.586700  0.080800  0.690400  1.0  0.0961
  H  H456  1  0.608600  0.105300  0.656900  1.0  0.1109
  H  H457  1  0.564100  0.067600  0.600200  1.0  0.1024
  H  H458  1  0.542100  0.043100  0.633700  1.0  0.1
  H  H459  1  0.595400  0.356100  0.461100  1.0  0.1111
  H  H460  1  0.568800  0.394800  0.460200  1.0  0.08
  C  C461  1  0.266000  0.365200  0.025900  1.0  -0.0835
  C  C462  1  0.270700  0.337700  0.025000  1.0  -0.1519
  C  C463  1  0.295200  0.230800  0.021900  1.0  0.1683
  C  C464  1  0.186900  0.546000  0.046200  1.0  0.6654
  C  C465  1  0.165400  0.559500  0.062200  1.0  -0.1496
  C  C466  1  0.172350  0.578200  0.082100  1.0  -0.054
  C  C467  1  0.152300  0.592900  0.095300  1.0  -0.1011
  C  C468  1  0.125200  0.588900  0.088500  1.0  0.0104
  C  C469  1  0.118260  0.570200  0.068600  1.0  -0.1148
  C  C470  1  0.138400  0.555500  0.055500  1.0  -0.0726
  C  C471  1  0.104300  0.605200  0.101600  1.0  0.0375
  C  C472  1  0.087600  0.619000  0.111800  1.0  -0.0537
  C  C473  1  0.066600  0.637000  0.122800  1.0  -0.1515
  C  C474  1  0.056800  0.631700  0.148600  1.0  0.3017
  C  C475  1  0.036400  0.647800  0.159600  1.0  0.284
  C  C476  1  0.025950  0.669300  0.144600  1.0  -0.0885
  C  C477  1  0.035800  0.674600  0.118800  1.0  0.2363
  C  C478  1  0.056100  0.658400  0.107900  1.0  0.2611
  C  C479  1  0.021300  0.733200  0.142700  1.0  0.2246
  C  C480  1  0.021300  0.759600  0.135100  1.0  0.2124
  C  C481  1  0.976400  0.862100  0.086300  1.0  -0.1251
  C  C482  1  0.976800  0.886600  0.072600  1.0  -0.0725
  C  C483  1  0.022800  0.697500  0.204000  1.0  0.2577
  C  C484  1  0.734000  0.634800  0.025900  1.0  -0.0844
  C  C485  1  0.729300  0.662300  0.025000  1.0  -0.1518
  C  C486  1  0.704800  0.769200  0.021900  1.0  0.1663
  C  C487  1  0.813100  0.454000  0.046200  1.0  0.6663
  C  C488  1  0.834600  0.440500  0.062200  1.0  -0.15
  C  C489  1  0.827650  0.421800  0.082100  1.0  -0.0559
  C  C490  1  0.847700  0.407100  0.095300  1.0  -0.1001
  C  C491  1  0.874800  0.411100  0.088500  1.0  0.0113
  C  C492  1  0.881740  0.429800  0.068600  1.0  -0.1155
  C  C493  1  0.861600  0.444500  0.055500  1.0  -0.0734
  C  C494  1  0.895700  0.394800  0.101600  1.0  0.0393
  C  C495  1  0.912400  0.381000  0.111800  1.0  -0.0557
  C  C496  1  0.933400  0.363000  0.122800  1.0  -0.1505
  C  C497  1  0.943200  0.368300  0.148600  1.0  0.2991
  C  C498  1  0.963600  0.352200  0.159600  1.0  0.2822
  C  C499  1  0.974050  0.330700  0.144600  1.0  -0.0898
  C  C500  1  0.964200  0.325400  0.118800  1.0  0.2356
  C  C501  1  0.943900  0.341600  0.107900  1.0  0.2602
  C  C502  1  0.978700  0.266800  0.142700  1.0  0.2256
  C  C503  1  0.978700  0.240400  0.135100  1.0  0.2153
  C  C504  1  0.023600  0.137900  0.086300  1.0  -0.1231
  C  C505  1  0.023200  0.113400  0.072600  1.0  -0.0734
  C  C506  1  0.977200  0.302500  0.204000  1.0  0.2583
  C  C507  1  0.734000  0.365200  0.974100  1.0  -0.0863
  C  C508  1  0.729300  0.337700  0.975000  1.0  -0.1519
  C  C509  1  0.704800  0.230800  0.978100  1.0  0.1667
  C  C510  1  0.813100  0.546000  0.953800  1.0  0.6663
  C  C511  1  0.834600  0.559500  0.937800  1.0  -0.15
  C  C512  1  0.827650  0.578200  0.917900  1.0  -0.0564
  C  C513  1  0.847700  0.592900  0.904700  1.0  -0.1021
  C  C514  1  0.874800  0.588900  0.911500  1.0  0.0123
  C  C515  1  0.881740  0.570200  0.931400  1.0  -0.1147
  C  C516  1  0.861600  0.555500  0.944500  1.0  -0.0726
  C  C517  1  0.895700  0.605200  0.898400  1.0  0.0372
  C  C518  1  0.912400  0.619000  0.888200  1.0  -0.056
  C  C519  1  0.933400  0.637000  0.877200  1.0  -0.1505
  C  C520  1  0.943200  0.631700  0.851400  1.0  0.3011
  C  C521  1  0.963600  0.647800  0.840400  1.0  0.2844
  C  C522  1  0.974050  0.669300  0.855400  1.0  -0.0905
  C  C523  1  0.964200  0.674600  0.881200  1.0  0.2356
  C  C524  1  0.943900  0.658400  0.892100  1.0  0.2596
  C  C525  1  0.978700  0.733200  0.857300  1.0  0.2234
  C  C526  1  0.978700  0.759600  0.864900  1.0  0.2149
  C  C527  1  0.023600  0.862100  0.913700  1.0  -0.1225
  C  C528  1  0.023200  0.886600  0.927400  1.0  -0.0729
  C  C529  1  0.977200  0.697500  0.796000  1.0  0.2602
  C  C530  1  0.266000  0.634800  0.974100  1.0  -0.0861
  C  C531  1  0.270700  0.662300  0.975000  1.0  -0.1516
  C  C532  1  0.295200  0.769200  0.978100  1.0  0.1672
  C  C533  1  0.186900  0.454000  0.953800  1.0  0.6657
  C  C534  1  0.165400  0.440500  0.937800  1.0  -0.1497
  C  C535  1  0.172350  0.421800  0.917900  1.0  -0.0545
  C  C536  1  0.152300  0.407100  0.904700  1.0  -0.1034
  C  C537  1  0.125200  0.411100  0.911500  1.0  0.0113
  C  C538  1  0.118260  0.429800  0.931400  1.0  -0.115
  C  C539  1  0.138400  0.444500  0.944500  1.0  -0.0724
  C  C540  1  0.104300  0.394800  0.898400  1.0  0.0363
  C  C541  1  0.087600  0.381000  0.888200  1.0  -0.0533
  C  C542  1  0.066600  0.363000  0.877200  1.0  -0.1516
  C  C543  1  0.056800  0.368300  0.851400  1.0  0.2983
  C  C544  1  0.036400  0.352200  0.840400  1.0  0.2813
  C  C545  1  0.025950  0.330700  0.855400  1.0  -0.088
  C  C546  1  0.035800  0.325400  0.881200  1.0  0.2362
  C  C547  1  0.056100  0.341600  0.892100  1.0  0.261
  C  C548  1  0.021300  0.266800  0.857300  1.0  0.2267
  C  C549  1  0.021300  0.240400  0.864900  1.0  0.2125
  C  C550  1  0.976400  0.137900  0.913700  1.0  -0.1242
  C  C551  1  0.976800  0.113400  0.927400  1.0  -0.0736
  C  C552  1  0.022800  0.302500  0.796000  1.0  0.2589
  C  C553  1  0.025900  0.266000  0.365200  1.0  -0.0831
  C  C554  1  0.025000  0.270700  0.337700  1.0  -0.1524
  C  C555  1  0.021900  0.295200  0.230800  1.0  0.1641
  C  C556  1  0.046200  0.186900  0.546000  1.0  0.6651
  C  C557  1  0.062200  0.165400  0.559500  1.0  -0.1511
  C  C558  1  0.082100  0.172350  0.578200  1.0  -0.0552
  C  C559  1  0.095300  0.152300  0.592900  1.0  -0.1015
  C  C560  1  0.088500  0.125200  0.588900  1.0  0.011
  C  C561  1  0.068600  0.118260  0.570200  1.0  -0.1178
  C  C562  1  0.055500  0.138400  0.555500  1.0  -0.0716
  C  C563  1  0.101600  0.104300  0.605200  1.0  0.0388
  C  C564  1  0.111800  0.087600  0.619000  1.0  -0.0547
  C  C565  1  0.122800  0.066600  0.637000  1.0  -0.1505
  C  C566  1  0.148600  0.056800  0.631700  1.0  0.3077
  C  C567  1  0.159600  0.036400  0.647800  1.0  0.28
  C  C568  1  0.144600  0.025950  0.669300  1.0  -0.0905
  C  C569  1  0.118800  0.035800  0.674600  1.0  0.2301
  C  C570  1  0.107900  0.056100  0.658400  1.0  0.2569
  C  C571  1  0.142700  0.021300  0.733200  1.0  0.2246
  C  C572  1  0.135100  0.021300  0.759600  1.0  0.2153
  C  C573  1  0.086300  0.976400  0.862100  1.0  -0.1236
  C  C574  1  0.072600  0.976800  0.886600  1.0  -0.0737
  C  C575  1  0.204000  0.022800  0.697500  1.0  0.256
  C  C576  1  0.025900  0.734000  0.634800  1.0  -0.0836
  C  C577  1  0.025000  0.729300  0.662300  1.0  -0.1508
  C  C578  1  0.021900  0.704800  0.769200  1.0  0.1622
  C  C579  1  0.046200  0.813100  0.454000  1.0  0.6635
  C  C580  1  0.062200  0.834600  0.440500  1.0  -0.1508
  C  C581  1  0.082100  0.827650  0.421800  1.0  -0.0546
  C  C582  1  0.095300  0.847700  0.407100  1.0  -0.103
  C  C583  1  0.088500  0.874800  0.411100  1.0  0.0099
  C  C584  1  0.068600  0.881740  0.429800  1.0  -0.114
  C  C585  1  0.055500  0.861600  0.444500  1.0  -0.0717
  C  C586  1  0.101600  0.895700  0.394800  1.0  0.0373
  C  C587  1  0.111800  0.912400  0.381000  1.0  -0.0544
  C  C588  1  0.122800  0.933400  0.363000  1.0  -0.151
  C  C589  1  0.148600  0.943200  0.368300  1.0  0.3086
  C  C590  1  0.159600  0.963600  0.352200  1.0  0.2808
  C  C591  1  0.144600  0.974050  0.330700  1.0  -0.0896
  C  C592  1  0.118800  0.964200  0.325400  1.0  0.2301
  C  C593  1  0.107900  0.943900  0.341600  1.0  0.2562
  C  C594  1  0.142700  0.978700  0.266800  1.0  0.2269
  C  C595  1  0.135100  0.978700  0.240400  1.0  0.2182
  C  C596  1  0.086300  0.023600  0.137900  1.0  -0.1231
  C  C597  1  0.072600  0.023200  0.113400  1.0  -0.0765
  C  C598  1  0.204000  0.977200  0.302500  1.0  0.2597
  C  C599  1  0.974100  0.734000  0.365200  1.0  -0.0852
  C  C600  1  0.975000  0.729300  0.337700  1.0  -0.1516
  C  C601  1  0.978100  0.704800  0.230800  1.0  0.1643
  C  C602  1  0.953800  0.813100  0.546000  1.0  0.6633
  C  C603  1  0.937800  0.834600  0.559500  1.0  -0.1499
  C  C604  1  0.917900  0.827650  0.578200  1.0  -0.0547
  C  C605  1  0.904700  0.847700  0.592900  1.0  -0.101
  C  C606  1  0.911500  0.874800  0.588900  1.0  0.0087
  C  C607  1  0.931400  0.881740  0.570200  1.0  -0.1148
  C  C608  1  0.944500  0.861600  0.555500  1.0  -0.0726
  C  C609  1  0.898400  0.895700  0.605200  1.0  0.0375
  C  C610  1  0.888200  0.912400  0.619000  1.0  -0.0551
  C  C611  1  0.877200  0.933400  0.637000  1.0  -0.152
  C  C612  1  0.851400  0.943200  0.631700  1.0  0.3076
  C  C613  1  0.840400  0.963600  0.647800  1.0  0.2839
  C  C614  1  0.855400  0.974050  0.669300  1.0  -0.0889
  C  C615  1  0.881200  0.964200  0.674600  1.0  0.23
  C  C616  1  0.892100  0.943900  0.658400  1.0  0.2563
  C  C617  1  0.857300  0.978700  0.733200  1.0  0.2269
  C  C618  1  0.864900  0.978700  0.759600  1.0  0.2175
  C  C619  1  0.913700  0.023600  0.862100  1.0  -0.1246
  C  C620  1  0.927400  0.023200  0.886600  1.0  -0.0755
  C  C621  1  0.796000  0.977200  0.697500  1.0  0.2599
  C  C622  1  0.974100  0.266000  0.634800  1.0  -0.0859
  C  C623  1  0.975000  0.270700  0.662300  1.0  -0.152
  C  C624  1  0.978100  0.295200  0.769200  1.0  0.1642
  C  C625  1  0.953800  0.186900  0.454000  1.0  0.6634
  C  C626  1  0.937800  0.165400  0.440500  1.0  -0.1499
  C  C627  1  0.917900  0.172350  0.421800  1.0  -0.0573
  C  C628  1  0.904700  0.152300  0.407100  1.0  -0.1016
  C  C629  1  0.911500  0.125200  0.411100  1.0  0.0107
  C  C630  1  0.931400  0.118260  0.429800  1.0  -0.1183
  C  C631  1  0.944500  0.138400  0.444500  1.0  -0.0726
  C  C632  1  0.898400  0.104300  0.394800  1.0  0.0378
  C  C633  1  0.888200  0.087600  0.381000  1.0  -0.0537
  C  C634  1  0.877200  0.066600  0.363000  1.0  -0.1491
  C  C635  1  0.851400  0.056800  0.368300  1.0  0.3085
  C  C636  1  0.840400  0.036400  0.352200  1.0  0.2818
  C  C637  1  0.855400  0.025950  0.330700  1.0  -0.089
  C  C638  1  0.881200  0.035800  0.325400  1.0  0.2296
  C  C639  1  0.892100  0.056100  0.341600  1.0  0.2564
  C  C640  1  0.857300  0.021300  0.266800  1.0  0.2235
  C  C641  1  0.864900  0.021300  0.240400  1.0  0.2158
  C  C642  1  0.913700  0.976400  0.137900  1.0  -0.1238
  C  C643  1  0.927400  0.976800  0.113400  1.0  -0.0747
  C  C644  1  0.796000  0.022800  0.302500  1.0  0.2582
  C  C645  1  0.365200  0.025900  0.266000  1.0  -0.0884
  C  C646  1  0.337700  0.025000  0.270700  1.0  -0.1533
  C  C647  1  0.230800  0.021900  0.295200  1.0  0.162
  C  C648  1  0.546000  0.046200  0.186900  1.0  0.6649
  C  C649  1  0.559500  0.062200  0.165400  1.0  -0.1515
  C  C650  1  0.578200  0.082100  0.172350  1.0  -0.0576
  C  C651  1  0.592900  0.095300  0.152300  1.0  -0.1022
  C  C652  1  0.588900  0.088500  0.125200  1.0  0.0111
  C  C653  1  0.570200  0.068600  0.118260  1.0  -0.1178
  C  C654  1  0.555500  0.055500  0.138400  1.0  -0.0718
  C  C655  1  0.605200  0.101600  0.104300  1.0  0.037
  C  C656  1  0.619000  0.111800  0.087600  1.0  -0.0551
  C  C657  1  0.637000  0.122800  0.066600  1.0  -0.1493
  C  C658  1  0.631700  0.148600  0.056800  1.0  0.3002
  C  C659  1  0.647800  0.159600  0.036400  1.0  0.2816
  C  C660  1  0.669300  0.144600  0.025950  1.0  -0.0893
  C  C661  1  0.674600  0.118800  0.035800  1.0  0.2317
  C  C662  1  0.658400  0.107900  0.056100  1.0  0.2581
  C  C663  1  0.733200  0.142700  0.021300  1.0  0.2308
  C  C664  1  0.759600  0.135100  0.021300  1.0  0.2156
  C  C665  1  0.862100  0.086300  0.976400  1.0  -0.1243
  C  C666  1  0.886600  0.072600  0.976800  1.0  -0.0768
  C  C667  1  0.697500  0.204000  0.022800  1.0  0.2644
  C  C668  1  0.634800  0.025900  0.734000  1.0  -0.0883
  C  C669  1  0.662300  0.025000  0.729300  1.0  -0.153
  C  C670  1  0.769200  0.021900  0.704800  1.0  0.1626
  C  C671  1  0.454000  0.046200  0.813100  1.0  0.6634
  C  C672  1  0.440500  0.062200  0.834600  1.0  -0.1519
  C  C673  1  0.421800  0.082100  0.827650  1.0  -0.057
  C  C674  1  0.407100  0.095300  0.847700  1.0  -0.102
  C  C675  1  0.411100  0.088500  0.874800  1.0  0.0102
  C  C676  1  0.429800  0.068600  0.881740  1.0  -0.1162
  C  C677  1  0.444500  0.055500  0.861600  1.0  -0.0724
  C  C678  1  0.394800  0.101600  0.895700  1.0  0.0361
  C  C679  1  0.381000  0.111800  0.912400  1.0  -0.054
  C  C680  1  0.363000  0.122800  0.933400  1.0  -0.1498
  C  C681  1  0.368300  0.148600  0.943200  1.0  0.2991
  C  C682  1  0.352200  0.159600  0.963600  1.0  0.2784
  C  C683  1  0.330700  0.144600  0.974050  1.0  -0.087
  C  C684  1  0.325400  0.118800  0.964200  1.0  0.2307
  C  C685  1  0.341600  0.107900  0.943900  1.0  0.258
  C  C686  1  0.266800  0.142700  0.978700  1.0  0.2288
  C  C687  1  0.240400  0.135100  0.978700  1.0  0.2181
  C  C688  1  0.137900  0.086300  0.023600  1.0  -0.1249
  C  C689  1  0.113400  0.072600  0.023200  1.0  -0.076
  C  C690  1  0.302500  0.204000  0.977200  1.0  0.2654
  C  C691  1  0.365200  0.974100  0.734000  1.0  -0.0865
  C  C692  1  0.337700  0.975000  0.729300  1.0  -0.1539
  C  C693  1  0.230800  0.978100  0.704800  1.0  0.1657
  C  C694  1  0.546000  0.953800  0.813100  1.0  0.6642
  C  C695  1  0.559500  0.937800  0.834600  1.0  -0.1521
  C  C696  1  0.578200  0.917900  0.827650  1.0  -0.0574
  C  C697  1  0.592900  0.904700  0.847700  1.0  -0.1028
  C  C698  1  0.588900  0.911500  0.874800  1.0  0.0107
  C  C699  1  0.570200  0.931400  0.881740  1.0  -0.1173
  C  C700  1  0.555500  0.944500  0.861600  1.0  -0.0721
  C  C701  1  0.605200  0.898400  0.895700  1.0  0.0392
  C  C702  1  0.619000  0.888200  0.912400  1.0  -0.0558
  C  C703  1  0.637000  0.877200  0.933400  1.0  -0.1501
  C  C704  1  0.631700  0.851400  0.943200  1.0  0.2988
  C  C705  1  0.647800  0.840400  0.963600  1.0  0.2819
  C  C706  1  0.669300  0.855400  0.974050  1.0  -0.0891
  C  C707  1  0.674600  0.881200  0.964200  1.0  0.2295
  C  C708  1  0.658400  0.892100  0.943900  1.0  0.2555
  C  C709  1  0.733200  0.857300  0.978700  1.0  0.2308
  C  C710  1  0.759600  0.864900  0.978700  1.0  0.216
  C  C711  1  0.862100  0.913700  0.023600  1.0  -0.1271
  C  C712  1  0.886600  0.927400  0.023200  1.0  -0.0769
  C  C713  1  0.697500  0.796000  0.977200  1.0  0.2646
  C  C714  1  0.634800  0.974100  0.266000  1.0  -0.0873
  C  C715  1  0.662300  0.975000  0.270700  1.0  -0.1531
  C  C716  1  0.769200  0.978100  0.295200  1.0  0.1659
  C  C717  1  0.454000  0.953800  0.186900  1.0  0.6655
  C  C718  1  0.440500  0.937800  0.165400  1.0  -0.1508
  C  C719  1  0.421800  0.917900  0.172350  1.0  -0.0578
  C  C720  1  0.407100  0.904700  0.152300  1.0  -0.1007
  C  C721  1  0.411100  0.911500  0.125200  1.0  0.0109
  C  C722  1  0.429800  0.931400  0.118260  1.0  -0.1199
  C  C723  1  0.444500  0.944500  0.138400  1.0  -0.0733
  C  C724  1  0.394800  0.898400  0.104300  1.0  0.0353
  C  C725  1  0.381000  0.888200  0.087600  1.0  -0.0538
  C  C726  1  0.363000  0.877200  0.066600  1.0  -0.1488
  C  C727  1  0.368300  0.851400  0.056800  1.0  0.301
  C  C728  1  0.352200  0.840400  0.036400  1.0  0.2801
  C  C729  1  0.330700  0.855400  0.025950  1.0  -0.087
  C  C730  1  0.325400  0.881200  0.035800  1.0  0.2309
  C  C731  1  0.341600  0.892100  0.056100  1.0  0.2566
  C  C732  1  0.266800  0.857300  0.021300  1.0  0.2302
  C  C733  1  0.240400  0.864900  0.021300  1.0  0.2187
  C  C734  1  0.137900  0.913700  0.976400  1.0  -0.123
  C  C735  1  0.113400  0.927400  0.976800  1.0  -0.0766
  C  C736  1  0.302500  0.796000  0.022800  1.0  0.2633
  C  C737  1  0.865200  0.766000  0.474100  1.0  -0.0878
  C  C738  1  0.837700  0.770700  0.475000  1.0  -0.1528
  C  C739  1  0.730800  0.795200  0.478100  1.0  0.1683
  C  C740  1  0.046000  0.686900  0.453800  1.0  0.6665
  C  C741  1  0.059500  0.665400  0.437800  1.0  -0.151
  C  C742  1  0.078200  0.672350  0.417900  1.0  -0.0565
  C  C743  1  0.092900  0.652300  0.404700  1.0  -0.103
  C  C744  1  0.088900  0.625200  0.411500  1.0  0.0112
  C  C745  1  0.070200  0.618260  0.431400  1.0  -0.118
  C  C746  1  0.055500  0.638400  0.444500  1.0  -0.0721
  C  C747  1  0.105200  0.604300  0.398400  1.0  0.0381
  C  C748  1  0.119000  0.587600  0.388200  1.0  -0.0553
  C  C749  1  0.137000  0.566600  0.377200  1.0  -0.1501
  C  C750  1  0.131700  0.556800  0.351400  1.0  0.2994
  C  C751  1  0.147800  0.536400  0.340400  1.0  0.2856
  C  C752  1  0.169300  0.525950  0.355400  1.0  -0.0915
  C  C753  1  0.174600  0.535800  0.381200  1.0  0.2347
  C  C754  1  0.158400  0.556100  0.392100  1.0  0.2614
  C  C755  1  0.233200  0.521300  0.357300  1.0  0.2236
  C  C756  1  0.259600  0.521300  0.364900  1.0  0.2128
  C  C757  1  0.362100  0.476400  0.413700  1.0  -0.1238
  C  C758  1  0.386600  0.476800  0.427400  1.0  -0.0758
  C  C759  1  0.197500  0.522800  0.296000  1.0  0.2565
  C  C760  1  0.134800  0.234000  0.474100  1.0  -0.0886
  C  C761  1  0.162300  0.229300  0.475000  1.0  -0.1531
  C  C762  1  0.269200  0.204800  0.478100  1.0  0.1678
  C  C763  1  0.954000  0.313100  0.453800  1.0  0.6655
  C  C764  1  0.940500  0.334600  0.437800  1.0  -0.1503
  C  C765  1  0.921800  0.327650  0.417900  1.0  -0.0553
  C  C766  1  0.907100  0.347700  0.404700  1.0  -0.1009
  C  C767  1  0.911100  0.374800  0.411500  1.0  0.0097
  C  C768  1  0.929800  0.381740  0.431400  1.0  -0.1142
  C  C769  1  0.944500  0.361600  0.444500  1.0  -0.0722
  C  C770  1  0.894800  0.395700  0.398400  1.0  0.0354
  C  C771  1  0.881000  0.412400  0.388200  1.0  -0.0543
  C  C772  1  0.863000  0.433400  0.377200  1.0  -0.1514
  C  C773  1  0.868300  0.443200  0.351400  1.0  0.2988
  C  C774  1  0.852200  0.463600  0.340400  1.0  0.2816
  C  C775  1  0.830700  0.474050  0.355400  1.0  -0.0884
  C  C776  1  0.825400  0.464200  0.381200  1.0  0.2338
  C  C777  1  0.841600  0.443900  0.392100  1.0  0.262
  C  C778  1  0.766800  0.478700  0.357300  1.0  0.2255
  C  C779  1  0.740400  0.478700  0.364900  1.0  0.2173
  C  C780  1  0.637900  0.523600  0.413700  1.0  -0.1223
  C  C781  1  0.613400  0.523200  0.427400  1.0  -0.0768
  C  C782  1  0.802500  0.477200  0.296000  1.0  0.2581
  C  C783  1  0.865200  0.234000  0.525900  1.0  -0.0865
  C  C784  1  0.837700  0.229300  0.525000  1.0  -0.1538
  C  C785  1  0.730800  0.204800  0.521900  1.0  0.1681
  C  C786  1  0.046000  0.313100  0.546200  1.0  0.6654
  C  C787  1  0.059500  0.334600  0.562200  1.0  -0.1507
  C  C788  1  0.078200  0.327650  0.582100  1.0  -0.0537
  C  C789  1  0.092900  0.347700  0.595300  1.0  -0.1014
  C  C790  1  0.088900  0.374800  0.588500  1.0  0.0083
  C  C791  1  0.070200  0.381740  0.568600  1.0  -0.115
  C  C792  1  0.055500  0.361600  0.555500  1.0  -0.0725
  C  C793  1  0.105200  0.395700  0.601600  1.0  0.0389
  C  C794  1  0.119000  0.412400  0.611800  1.0  -0.0559
  C  C795  1  0.137000  0.433400  0.622800  1.0  -0.1523
  C  C796  1  0.131700  0.443200  0.648600  1.0  0.2996
  C  C797  1  0.147800  0.463600  0.659600  1.0  0.2842
  C  C798  1  0.169300  0.474050  0.644600  1.0  -0.0907
  C  C799  1  0.174600  0.464200  0.618800  1.0  0.2333
  C  C800  1  0.158400  0.443900  0.607900  1.0  0.262
  C  C801  1  0.233200  0.478700  0.642700  1.0  0.2269
  C  C802  1  0.259600  0.478700  0.635100  1.0  0.2152
  C  C803  1  0.362100  0.523600  0.586300  1.0  -0.1258
  C  C804  1  0.386600  0.523200  0.572600  1.0  -0.0774
  C  C805  1  0.197500  0.477200  0.704000  1.0  0.258
  C  C806  1  0.134800  0.766000  0.525900  1.0  -0.0875
  C  C807  1  0.162300  0.770700  0.525000  1.0  -0.1518
  C  C808  1  0.269200  0.795200  0.521900  1.0  0.1683
  C  C809  1  0.954000  0.686900  0.546200  1.0  0.6661
  C  C810  1  0.940500  0.665400  0.562200  1.0  -0.1504
  C  C811  1  0.921800  0.672350  0.582100  1.0  -0.0557
  C  C812  1  0.907100  0.652300  0.595300  1.0  -0.1013
  C  C813  1  0.911100  0.625200  0.588500  1.0  0.01
  C  C814  1  0.929800  0.618260  0.568600  1.0  -0.1181
  C  C815  1  0.944500  0.638400  0.555500  1.0  -0.0729
  C  C816  1  0.894800  0.604300  0.601600  1.0  0.0373
  C  C817  1  0.881000  0.587600  0.611800  1.0  -0.0541
  C  C818  1  0.863000  0.566600  0.622800  1.0  -0.1502
  C  C819  1  0.868300  0.556800  0.648600  1.0  0.3007
  C  C820  1  0.852200  0.536400  0.659600  1.0  0.2836
  C  C821  1  0.830700  0.525950  0.644600  1.0  -0.089
  C  C822  1  0.825400  0.535800  0.618800  1.0  0.2344
  C  C823  1  0.841600  0.556100  0.607900  1.0  0.2623
  C  C824  1  0.766800  0.521300  0.642700  1.0  0.2238
  C  C825  1  0.740400  0.521300  0.635100  1.0  0.2164
  C  C826  1  0.637900  0.476400  0.586300  1.0  -0.123
  C  C827  1  0.613400  0.476800  0.572600  1.0  -0.0751
  C  C828  1  0.802500  0.522800  0.704000  1.0  0.2544
  C  C829  1  0.766000  0.525900  0.134800  1.0  -0.0845
  C  C830  1  0.770700  0.525000  0.162300  1.0  -0.1522
  C  C831  1  0.795200  0.521900  0.269200  1.0  0.1624
  C  C832  1  0.686900  0.546200  0.954000  1.0  0.6636
  C  C833  1  0.665400  0.562200  0.940500  1.0  -0.1506
  C  C834  1  0.672350  0.582100  0.921800  1.0  -0.0541
  C  C835  1  0.652300  0.595300  0.907100  1.0  -0.1039
  C  C836  1  0.625200  0.588500  0.911100  1.0  0.0115
  C  C837  1  0.618260  0.568600  0.929800  1.0  -0.1136
  C  C838  1  0.638400  0.555500  0.944500  1.0  -0.0723
  C  C839  1  0.604300  0.601600  0.894800  1.0  0.0358
  C  C840  1  0.587600  0.611800  0.881000  1.0  -0.053
  C  C841  1  0.566600  0.622800  0.863000  1.0  -0.1498
  C  C842  1  0.556800  0.648600  0.868300  1.0  0.3082
  C  C843  1  0.536400  0.659600  0.852200  1.0  0.2806
  C  C844  1  0.525950  0.644600  0.830700  1.0  -0.0875
  C  C845  1  0.535800  0.618800  0.825400  1.0  0.2335
  C  C846  1  0.556100  0.607900  0.841600  1.0  0.2574
  C  C847  1  0.521300  0.642700  0.766800  1.0  0.2271
  C  C848  1  0.521300  0.635100  0.740400  1.0  0.2142
  C  C849  1  0.476400  0.586300  0.637900  1.0  -0.1242
  C  C850  1  0.476800  0.572600  0.613400  1.0  -0.0725
  C  C851  1  0.522800  0.704000  0.802500  1.0  0.2589
  C  C852  1  0.234000  0.525900  0.865200  1.0  -0.0845
  C  C853  1  0.229300  0.525000  0.837700  1.0  -0.1543
  C  C854  1  0.204800  0.521900  0.730800  1.0  0.1633
  C  C855  1  0.313100  0.546200  0.046000  1.0  0.6647
  C  C856  1  0.334600  0.562200  0.059500  1.0  -0.1512
  C  C857  1  0.327650  0.582100  0.078200  1.0  -0.0561
  C  C858  1  0.347700  0.595300  0.092900  1.0  -0.101
  C  C859  1  0.374800  0.588500  0.088900  1.0  0.0107
  C  C860  1  0.381740  0.568600  0.070200  1.0  -0.1147
  C  C861  1  0.361600  0.555500  0.055500  1.0  -0.0731
  C  C862  1  0.395700  0.601600  0.105200  1.0  0.0377
  C  C863  1  0.412400  0.611800  0.119000  1.0  -0.056
  C  C864  1  0.433400  0.622800  0.137000  1.0  -0.1504
  C  C865  1  0.443200  0.648600  0.131700  1.0  0.3061
  C  C866  1  0.463600  0.659600  0.147800  1.0  0.2825
  C  C867  1  0.474050  0.644600  0.169300  1.0  -0.0902
  C  C868  1  0.464200  0.618800  0.174600  1.0  0.233
  C  C869  1  0.443900  0.607900  0.158400  1.0  0.2566
  C  C870  1  0.478700  0.642700  0.233200  1.0  0.2266
  C  C871  1  0.478700  0.635100  0.259600  1.0  0.2156
  C  C872  1  0.523600  0.586300  0.362100  1.0  -0.123
  C  C873  1  0.523200  0.572600  0.386600  1.0  -0.0705
  C  C874  1  0.477200  0.704000  0.197500  1.0  0.2589
  C  C875  1  0.234000  0.474100  0.134800  1.0  -0.0835
  C  C876  1  0.229300  0.475000  0.162300  1.0  -0.1535
  C  C877  1  0.204800  0.478100  0.269200  1.0  0.166
  C  C878  1  0.313100  0.453800  0.954000  1.0  0.6647
  C  C879  1  0.334600  0.437800  0.940500  1.0  -0.151
  C  C880  1  0.327650  0.417900  0.921800  1.0  -0.0557
  C  C881  1  0.347700  0.404700  0.907100  1.0  -0.102
  C  C882  1  0.374800  0.411500  0.911100  1.0  0.0125
  C  C883  1  0.381740  0.431400  0.929800  1.0  -0.1149
  C  C884  1  0.361600  0.444500  0.944500  1.0  -0.0727
  C  C885  1  0.395700  0.398400  0.894800  1.0  0.0376
  C  C886  1  0.412400  0.388200  0.881000  1.0  -0.0555
  C  C887  1  0.433400  0.377200  0.863000  1.0  -0.1488
  C  C888  1  0.443200  0.351400  0.868300  1.0  0.3078
  C  C889  1  0.463600  0.340400  0.852200  1.0  0.2834
  C  C890  1  0.474050  0.355400  0.830700  1.0  -0.0896
  C  C891  1  0.464200  0.381200  0.825400  1.0  0.2321
  C  C892  1  0.443900  0.392100  0.841600  1.0  0.2547
  C  C893  1  0.478700  0.357300  0.766800  1.0  0.225
  C  C894  1  0.478700  0.364900  0.740400  1.0  0.2166
  C  C895  1  0.523600  0.413700  0.637900  1.0  -0.1223
  C  C896  1  0.523200  0.427400  0.613400  1.0  -0.0722
  C  C897  1  0.477200  0.296000  0.802500  1.0  0.2589
  C  C898  1  0.766000  0.474100  0.865200  1.0  -0.0829
  C  C899  1  0.770700  0.475000  0.837700  1.0  -0.1534
  C  C900  1  0.795200  0.478100  0.730800  1.0  0.167
  C  C901  1  0.686900  0.453800  0.046000  1.0  0.6645
  C  C902  1  0.665400  0.437800  0.059500  1.0  -0.1509
  C  C903  1  0.672350  0.417900  0.078200  1.0  -0.0538
  C  C904  1  0.652300  0.404700  0.092900  1.0  -0.1013
  C  C905  1  0.625200  0.411500  0.088900  1.0  0.0108
  C  C906  1  0.618260  0.431400  0.070200  1.0  -0.1147
  C  C907  1  0.638400  0.444500  0.055500  1.0  -0.0724
  C  C908  1  0.604300  0.398400  0.105200  1.0  0.0364
  C  C909  1  0.587600  0.388200  0.119000  1.0  -0.054
  C  C910  1  0.566600  0.377200  0.137000  1.0  -0.1507
  C  C911  1  0.556800  0.351400  0.131700  1.0  0.3067
  C  C912  1  0.536400  0.340400  0.147800  1.0  0.2822
  C  C913  1  0.525950  0.355400  0.169300  1.0  -0.0872
  C  C914  1  0.535800  0.381200  0.174600  1.0  0.2314
  C  C915  1  0.556100  0.392100  0.158400  1.0  0.2557
  C  C916  1  0.521300  0.357300  0.233200  1.0  0.2279
  C  C917  1  0.521300  0.364900  0.259600  1.0  0.2136
  C  C918  1  0.476400  0.413700  0.362100  1.0  -0.1242
  C  C919  1  0.476800  0.427400  0.386600  1.0  -0.0709
  C  C920  1  0.522800  0.296000  0.197500  1.0  0.2584
  C  C921  1  0.525900  0.865200  0.234000  1.0  -0.0841
  C  C922  1  0.525000  0.837700  0.229300  1.0  -0.151
  C  C923  1  0.521900  0.730800  0.204800  1.0  0.1624
  C  C924  1  0.546200  0.046000  0.313100  1.0  0.6639
  C  C925  1  0.562200  0.059500  0.334600  1.0  -0.1512
  C  C926  1  0.582100  0.078200  0.327650  1.0  -0.0581
  C  C927  1  0.595300  0.092900  0.347700  1.0  -0.1021
  C  C928  1  0.588500  0.088900  0.374800  1.0  0.011
  C  C929  1  0.568600  0.070200  0.381740  1.0  -0.1171
  C  C930  1  0.555500  0.055500  0.361600  1.0  -0.0714
  C  C931  1  0.601600  0.105200  0.395700  1.0  0.0386
  C  C932  1  0.611800  0.119000  0.412400  1.0  -0.0548
  C  C933  1  0.622800  0.137000  0.433400  1.0  -0.1509
  C  C934  1  0.648600  0.131700  0.443200  1.0  0.3015
  C  C935  1  0.659600  0.147800  0.463600  1.0  0.2771
  C  C936  1  0.644600  0.169300  0.474050  1.0  -0.0893
  C  C937  1  0.618800  0.174600  0.464200  1.0  0.2287
  C  C938  1  0.607900  0.158400  0.443900  1.0  0.2557
  C  C939  1  0.642700  0.233200  0.478700  1.0  0.2272
  C  C940  1  0.635100  0.259600  0.478700  1.0  0.217
  C  C941  1  0.586300  0.362100  0.523600  1.0  -0.1252
  C  C942  1  0.572600  0.386600  0.523200  1.0  -0.0769
  C  C943  1  0.704000  0.197500  0.477200  1.0  0.2671
  C  C944  1  0.525900  0.134800  0.766000  1.0  -0.0843
  C  C945  1  0.525000  0.162300  0.770700  1.0  -0.1507
  C  C946  1  0.521900  0.269200  0.795200  1.0  0.1617
  C  C947  1  0.546200  0.954000  0.686900  1.0  0.665
  C  C948  1  0.562200  0.940500  0.665400  1.0  -0.1506
  C  C949  1  0.582100  0.921800  0.672350  1.0  -0.058
  C  C950  1  0.595300  0.907100  0.652300  1.0  -0.1016
  C  C951  1  0.588500  0.911100  0.625200  1.0  0.012
  C  C952  1  0.568600  0.929800  0.618260  1.0  -0.1187
  C  C953  1  0.555500  0.944500  0.638400  1.0  -0.0724
  C  C954  1  0.601600  0.894800  0.604300  1.0  0.0375
  C  C955  1  0.611800  0.881000  0.587600  1.0  -0.0538
  C  C956  1  0.622800  0.863000  0.566600  1.0  -0.1495
  C  C957  1  0.648600  0.868300  0.556800  1.0  0.3001
  C  C958  1  0.659600  0.852200  0.536400  1.0  0.2779
  C  C959  1  0.644600  0.830700  0.525950  1.0  -0.0886
  C  C960  1  0.618800  0.825400  0.535800  1.0  0.2292
  C  C961  1  0.607900  0.841600  0.556100  1.0  0.2564
  C  C962  1  0.642700  0.766800  0.521300  1.0  0.2296
  C  C963  1  0.635100  0.740400  0.521300  1.0  0.2178
  C  C964  1  0.586300  0.637900  0.476400  1.0  -0.1241
  C  C965  1  0.572600  0.613400  0.476800  1.0  -0.0768
  C  C966  1  0.704000  0.802500  0.522800  1.0  0.2661
  C  C967  1  0.474100  0.865200  0.766000  1.0  -0.0863
  C  C968  1  0.475000  0.837700  0.770700  1.0  -0.1508
  C  C969  1  0.478100  0.730800  0.795200  1.0  0.163
  C  C970  1  0.453800  0.046000  0.686900  1.0  0.6637
  C  C971  1  0.437800  0.059500  0.665400  1.0  -0.1493
  C  C972  1  0.417900  0.078200  0.672350  1.0  -0.0586
  C  C973  1  0.404700  0.092900  0.652300  1.0  -0.1015
  C  C974  1  0.411500  0.088900  0.625200  1.0  0.011
  C  C975  1  0.431400  0.070200  0.618260  1.0  -0.1202
  C  C976  1  0.444500  0.055500  0.638400  1.0  -0.0729
  C  C977  1  0.398400  0.105200  0.604300  1.0  0.0373
  C  C978  1  0.388200  0.119000  0.587600  1.0  -0.0541
  C  C979  1  0.377200  0.137000  0.566600  1.0  -0.1495
  C  C980  1  0.351400  0.131700  0.556800  1.0  0.3029
  C  C981  1  0.340400  0.147800  0.536400  1.0  0.2822
  C  C982  1  0.355400  0.169300  0.525950  1.0  -0.0884
  C  C983  1  0.381200  0.174600  0.535800  1.0  0.2298
  C  C984  1  0.392100  0.158400  0.556100  1.0  0.2565
  C  C985  1  0.357300  0.233200  0.521300  1.0  0.2271
  C  C986  1  0.364900  0.259600  0.521300  1.0  0.2177
  C  C987  1  0.413700  0.362100  0.476400  1.0  -0.1245
  C  C988  1  0.427400  0.386600  0.476800  1.0  -0.0774
  C  C989  1  0.296000  0.197500  0.522800  1.0  0.2664
  C  C990  1  0.474100  0.134800  0.234000  1.0  -0.0871
  C  C991  1  0.475000  0.162300  0.229300  1.0  -0.1511
  C  C992  1  0.478100  0.269200  0.204800  1.0  0.1628
  C  C993  1  0.453800  0.954000  0.313100  1.0  0.6631
  C  C994  1  0.437800  0.940500  0.334600  1.0  -0.1502
  C  C995  1  0.417900  0.921800  0.327650  1.0  -0.0577
  C  C996  1  0.404700  0.907100  0.347700  1.0  -0.1012
  C  C997  1  0.411500  0.911100  0.374800  1.0  0.0102
  C  C998  1  0.431400  0.929800  0.381740  1.0  -0.1169
  C  C999  1  0.444500  0.944500  0.361600  1.0  -0.072
  C  C1000  1  0.398400  0.894800  0.395700  1.0  0.0386
  C  C1001  1  0.388200  0.881000  0.412400  1.0  -0.0541
  C  C1002  1  0.377200  0.863000  0.433400  1.0  -0.1502
  C  C1003  1  0.351400  0.868300  0.443200  1.0  0.2991
  C  C1004  1  0.340400  0.852200  0.463600  1.0  0.2797
  C  C1005  1  0.355400  0.830700  0.474050  1.0  -0.0873
  C  C1006  1  0.381200  0.825400  0.464200  1.0  0.2289
  C  C1007  1  0.392100  0.841600  0.443900  1.0  0.2547
  C  C1008  1  0.357300  0.766800  0.478700  1.0  0.228
  C  C1009  1  0.364900  0.740400  0.478700  1.0  0.2173
  C  C1010  1  0.413700  0.637900  0.523600  1.0  -0.1277
  C  C1011  1  0.427400  0.613400  0.523200  1.0  -0.0771
  C  C1012  1  0.296000  0.802500  0.477200  1.0  0.2679
  C  C1013  1  0.734000  0.634800  0.974100  1.0  -0.0868
  C  C1014  1  0.729300  0.662300  0.975000  1.0  -0.1514
  C  C1015  1  0.704800  0.769200  0.978100  1.0  0.167
  C  C1016  1  0.813100  0.454000  0.953800  1.0  0.6665
  C  C1017  1  0.834600  0.440500  0.937800  1.0  -0.1503
  C  C1018  1  0.827650  0.421800  0.917900  1.0  -0.0562
  C  C1019  1  0.847700  0.407100  0.904700  1.0  -0.1015
  C  C1020  1  0.874800  0.411100  0.911500  1.0  0.0126
  C  C1021  1  0.881740  0.429800  0.931400  1.0  -0.115
  C  C1022  1  0.861600  0.444500  0.944500  1.0  -0.0727
  C  C1023  1  0.895700  0.394800  0.898400  1.0  0.0375
  C  C1024  1  0.912400  0.381000  0.888200  1.0  -0.0556
  C  C1025  1  0.933400  0.363000  0.877200  1.0  -0.1495
  C  C1026  1  0.943200  0.368300  0.851400  1.0  0.2984
  C  C1027  1  0.963600  0.352200  0.840400  1.0  0.2827
  C  C1028  1  0.974050  0.330700  0.855400  1.0  -0.0901
  C  C1029  1  0.964200  0.325400  0.881200  1.0  0.2362
  C  C1030  1  0.943900  0.341600  0.892100  1.0  0.2598
  C  C1031  1  0.978700  0.266800  0.857300  1.0  0.2277
  C  C1032  1  0.978700  0.240400  0.864900  1.0  0.215
  C  C1033  1  0.023600  0.137900  0.913700  1.0  -0.1228
  C  C1034  1  0.023200  0.113400  0.927400  1.0  -0.0727
  C  C1035  1  0.977200  0.302500  0.796000  1.0  0.2596
  C  C1036  1  0.266000  0.365200  0.974100  1.0  -0.0854
  C  C1037  1  0.270700  0.337700  0.975000  1.0  -0.1523
  C  C1038  1  0.295200  0.230800  0.978100  1.0  0.1671
  C  C1039  1  0.186900  0.546000  0.953800  1.0  0.6655
  C  C1040  1  0.165400  0.559500  0.937800  1.0  -0.1495
  C  C1041  1  0.172350  0.578200  0.917900  1.0  -0.0542
  C  C1042  1  0.152300  0.592900  0.904700  1.0  -0.1035
  C  C1043  1  0.125200  0.588900  0.911500  1.0  0.0118
  C  C1044  1  0.118260  0.570200  0.931400  1.0  -0.1145
  C  C1045  1  0.138400  0.555500  0.944500  1.0  -0.0724
  C  C1046  1  0.104300  0.605200  0.898400  1.0  0.0362
  C  C1047  1  0.087600  0.619000  0.888200  1.0  -0.0536
  C  C1048  1  0.066600  0.637000  0.877200  1.0  -0.1516
  C  C1049  1  0.056800  0.631700  0.851400  1.0  0.3006
  C  C1050  1  0.036400  0.647800  0.840400  1.0  0.283
  C  C1051  1  0.025950  0.669300  0.855400  1.0  -0.0885
  C  C1052  1  0.035800  0.674600  0.881200  1.0  0.2359
  C  C1053  1  0.056100  0.658400  0.892100  1.0  0.261
  C  C1054  1  0.021300  0.733200  0.857300  1.0  0.2255
  C  C1055  1  0.021300  0.759600  0.864900  1.0  0.212
  C  C1056  1  0.976400  0.862100  0.913700  1.0  -0.1239
  C  C1057  1  0.976800  0.886600  0.927400  1.0  -0.0732
  C  C1058  1  0.022800  0.697500  0.796000  1.0  0.2588
  C  C1059  1  0.266000  0.634800  0.025900  1.0  -0.0846
  C  C1060  1  0.270700  0.662300  0.025000  1.0  -0.1515
  C  C1061  1  0.295200  0.769200  0.021900  1.0  0.1668
  C  C1062  1  0.186900  0.454000  0.046200  1.0  0.6657
  C  C1063  1  0.165400  0.440500  0.062200  1.0  -0.1496
  C  C1064  1  0.172350  0.421800  0.082100  1.0  -0.0541
  C  C1065  1  0.152300  0.407100  0.095300  1.0  -0.1011
  C  C1066  1  0.125200  0.411100  0.088500  1.0  0.0103
  C  C1067  1  0.118260  0.429800  0.068600  1.0  -0.115
  C  C1068  1  0.138400  0.444500  0.055500  1.0  -0.0725
  C  C1069  1  0.104300  0.394800  0.101600  1.0  0.0376
  C  C1070  1  0.087600  0.381000  0.111800  1.0  -0.0535
  C  C1071  1  0.066600  0.363000  0.122800  1.0  -0.1515
  C  C1072  1  0.056800  0.368300  0.148600  1.0  0.299
  C  C1073  1  0.036400  0.352200  0.159600  1.0  0.2812
  C  C1074  1  0.025950  0.330700  0.144600  1.0  -0.0878
  C  C1075  1  0.035800  0.325400  0.118800  1.0  0.2363
  C  C1076  1  0.056100  0.341600  0.107900  1.0  0.2609
  C  C1077  1  0.021300  0.266800  0.142700  1.0  0.2287
  C  C1078  1  0.021300  0.240400  0.135100  1.0  0.213
  C  C1079  1  0.976400  0.137900  0.086300  1.0  -0.1252
  C  C1080  1  0.976800  0.113400  0.072600  1.0  -0.0733
  C  C1081  1  0.022800  0.302500  0.204000  1.0  0.2583
  C  C1082  1  0.734000  0.365200  0.025900  1.0  -0.0837
  C  C1083  1  0.729300  0.337700  0.025000  1.0  -0.1518
  C  C1084  1  0.704800  0.230800  0.021900  1.0  0.1682
  C  C1085  1  0.813100  0.546000  0.046200  1.0  0.6662
  C  C1086  1  0.834600  0.559500  0.062200  1.0  -0.1499
  C  C1087  1  0.827650  0.578200  0.082100  1.0  -0.0562
  C  C1088  1  0.847700  0.592900  0.095300  1.0  -0.1009
  C  C1089  1  0.874800  0.588900  0.088500  1.0  0.0106
  C  C1090  1  0.881740  0.570200  0.068600  1.0  -0.1155
  C  C1091  1  0.861600  0.555500  0.055500  1.0  -0.0734
  C  C1092  1  0.895700  0.605200  0.101600  1.0  0.0389
  C  C1093  1  0.912400  0.619000  0.111800  1.0  -0.0559
  C  C1094  1  0.933400  0.637000  0.122800  1.0  -0.1514
  C  C1095  1  0.943200  0.631700  0.148600  1.0  0.3019
  C  C1096  1  0.963600  0.647800  0.159600  1.0  0.2847
  C  C1097  1  0.974050  0.669300  0.144600  1.0  -0.0905
  C  C1098  1  0.964200  0.674600  0.118800  1.0  0.2354
  C  C1099  1  0.943900  0.658400  0.107900  1.0  0.2606
  C  C1100  1  0.978700  0.733200  0.142700  1.0  0.2261
  C  C1101  1  0.978700  0.759600  0.135100  1.0  0.2154
  C  C1102  1  0.023600  0.862100  0.086300  1.0  -0.1226
  C  C1103  1  0.023200  0.886600  0.072600  1.0  -0.0729
  C  C1104  1  0.977200  0.697500  0.204000  1.0  0.2584
  C  C1105  1  0.974100  0.734000  0.634800  1.0  -0.0851
  C  C1106  1  0.975000  0.729300  0.662300  1.0  -0.152
  C  C1107  1  0.978100  0.704800  0.769200  1.0  0.1639
  C  C1108  1  0.953800  0.813100  0.454000  1.0  0.6625
  C  C1109  1  0.937800  0.834600  0.440500  1.0  -0.1496
  C  C1110  1  0.917900  0.827650  0.421800  1.0  -0.0554
  C  C1111  1  0.904700  0.847700  0.407100  1.0  -0.1013
  C  C1112  1  0.911500  0.874800  0.411100  1.0  0.0092
  C  C1113  1  0.931400  0.881740  0.429800  1.0  -0.1144
  C  C1114  1  0.944500  0.861600  0.444500  1.0  -0.072
  C  C1115  1  0.898400  0.895700  0.394800  1.0  0.0371
  C  C1116  1  0.888200  0.912400  0.381000  1.0  -0.0543
  C  C1117  1  0.877200  0.933400  0.363000  1.0  -0.1501
  C  C1118  1  0.851400  0.943200  0.368300  1.0  0.3077
  C  C1119  1  0.840400  0.963600  0.352200  1.0  0.2818
  C  C1120  1  0.855400  0.974050  0.330700  1.0  -0.0886
  C  C1121  1  0.881200  0.964200  0.325400  1.0  0.2295
  C  C1122  1  0.892100  0.943900  0.341600  1.0  0.2562
  C  C1123  1  0.857300  0.978700  0.266800  1.0  0.2278
  C  C1124  1  0.864900  0.978700  0.240400  1.0  0.2178
  C  C1125  1  0.913700  0.023600  0.137900  1.0  -0.1248
  C  C1126  1  0.927400  0.023200  0.113400  1.0  -0.0771
  C  C1127  1  0.796000  0.977200  0.302500  1.0  0.2599
  C  C1128  1  0.974100  0.266000  0.365200  1.0  -0.0853
  C  C1129  1  0.975000  0.270700  0.337700  1.0  -0.1518
  C  C1130  1  0.978100  0.295200  0.230800  1.0  0.1648
  C  C1131  1  0.953800  0.186900  0.546000  1.0  0.6643
  C  C1132  1  0.937800  0.165400  0.559500  1.0  -0.1501
  C  C1133  1  0.917900  0.172350  0.578200  1.0  -0.0561
  C  C1134  1  0.904700  0.152300  0.592900  1.0  -0.1015
  C  C1135  1  0.911500  0.125200  0.588900  1.0  0.0104
  C  C1136  1  0.931400  0.118260  0.570200  1.0  -0.1186
  C  C1137  1  0.944500  0.138400  0.555500  1.0  -0.0726
  C  C1138  1  0.898400  0.104300  0.605200  1.0  0.0383
  C  C1139  1  0.888200  0.087600  0.619000  1.0  -0.0545
  C  C1140  1  0.877200  0.066600  0.637000  1.0  -0.1499
  C  C1141  1  0.851400  0.056800  0.631700  1.0  0.3074
  C  C1142  1  0.840400  0.036400  0.647800  1.0  0.2835
  C  C1143  1  0.855400  0.025950  0.669300  1.0  -0.089
  C  C1144  1  0.881200  0.035800  0.674600  1.0  0.2297
  C  C1145  1  0.892100  0.056100  0.658400  1.0  0.2566
  C  C1146  1  0.857300  0.021300  0.733200  1.0  0.227
  C  C1147  1  0.864900  0.021300  0.759600  1.0  0.2154
  C  C1148  1  0.913700  0.976400  0.862100  1.0  -0.1244
  C  C1149  1  0.927400  0.976800  0.886600  1.0  -0.0735
  C  C1150  1  0.796000  0.022800  0.697500  1.0  0.2577
  C  C1151  1  0.025900  0.266000  0.634800  1.0  -0.0836
  C  C1152  1  0.025000  0.270700  0.662300  1.0  -0.1511
  C  C1153  1  0.021900  0.295200  0.769200  1.0  0.1631
  C  C1154  1  0.046200  0.186900  0.454000  1.0  0.6643
  C  C1155  1  0.062200  0.165400  0.440500  1.0  -0.1509
  C  C1156  1  0.082100  0.172350  0.421800  1.0  -0.0563
  C  C1157  1  0.095300  0.152300  0.407100  1.0  -0.103
  C  C1158  1  0.088500  0.125200  0.411100  1.0  0.0115
  C  C1159  1  0.068600  0.118260  0.429800  1.0  -0.1176
  C  C1160  1  0.055500  0.138400  0.444500  1.0  -0.0718
  C  C1161  1  0.101600  0.104300  0.394800  1.0  0.0382
  C  C1162  1  0.111800  0.087600  0.381000  1.0  -0.054
  C  C1163  1  0.122800  0.066600  0.363000  1.0  -0.1497
  C  C1164  1  0.148600  0.056800  0.368300  1.0  0.3097
  C  C1165  1  0.159600  0.036400  0.352200  1.0  0.2818
  C  C1166  1  0.144600  0.025950  0.330700  1.0  -0.0905
  C  C1167  1  0.118800  0.035800  0.325400  1.0  0.2303
  C  C1168  1  0.107900  0.056100  0.341600  1.0  0.2567
  C  C1169  1  0.142700  0.021300  0.266800  1.0  0.2272
  C  C1170  1  0.135100  0.021300  0.240400  1.0  0.2165
  C  C1171  1  0.086300  0.976400  0.137900  1.0  -0.1232
  C  C1172  1  0.072600  0.976800  0.113400  1.0  -0.0749
  C  C1173  1  0.204000  0.022800  0.302500  1.0  0.2567
  C  C1174  1  0.025900  0.734000  0.365200  1.0  -0.0829
  C  C1175  1  0.025000  0.729300  0.337700  1.0  -0.1521
  C  C1176  1  0.021900  0.704800  0.230800  1.0  0.1629
  C  C1177  1  0.046200  0.813100  0.546000  1.0  0.6643
  C  C1178  1  0.062200  0.834600  0.559500  1.0  -0.151
  C  C1179  1  0.082100  0.827650  0.578200  1.0  -0.054
  C  C1180  1  0.095300  0.847700  0.592900  1.0  -0.1013
  C  C1181  1  0.088500  0.874800  0.588900  1.0  0.0091
  C  C1182  1  0.068600  0.881740  0.570200  1.0  -0.1143
  C  C1183  1  0.055500  0.861600  0.555500  1.0  -0.0721
  C  C1184  1  0.101600  0.895700  0.605200  1.0  0.0377
  C  C1185  1  0.111800  0.912400  0.619000  1.0  -0.0552
  C  C1186  1  0.122800  0.933400  0.637000  1.0  -0.1525
  C  C1187  1  0.148600  0.943200  0.631700  1.0  0.3068
  C  C1188  1  0.159600  0.963600  0.647800  1.0  0.2789
  C  C1189  1  0.144600  0.974050  0.669300  1.0  -0.09
  C  C1190  1  0.118800  0.964200  0.674600  1.0  0.2299
  C  C1191  1  0.107900  0.943900  0.658400  1.0  0.2564
  C  C1192  1  0.142700  0.978700  0.733200  1.0  0.2299
  C  C1193  1  0.135100  0.978700  0.759600  1.0  0.2178
  C  C1194  1  0.086300  0.023600  0.862100  1.0  -0.123
  C  C1195  1  0.072600  0.023200  0.886600  1.0  -0.075
  C  C1196  1  0.204000  0.977200  0.697500  1.0  0.2593
  C  C1197  1  0.634800  0.974100  0.734000  1.0  -0.0872
  C  C1198  1  0.662300  0.975000  0.729300  1.0  -0.153
  C  C1199  1  0.769200  0.978100  0.704800  1.0  0.1653
  C  C1200  1  0.454000  0.953800  0.813100  1.0  0.6639
  C  C1201  1  0.440500  0.937800  0.834600  1.0  -0.1519
  C  C1202  1  0.421800  0.917900  0.827650  1.0  -0.0565
  C  C1203  1  0.407100  0.904700  0.847700  1.0  -0.1015
  C  C1204  1  0.411100  0.911500  0.874800  1.0  0.0106
  C  C1205  1  0.429800  0.931400  0.881740  1.0  -0.1169
  C  C1206  1  0.444500  0.944500  0.861600  1.0  -0.0722
  C  C1207  1  0.394800  0.898400  0.895700  1.0  0.0365
  C  C1208  1  0.381000  0.888200  0.912400  1.0  -0.0543
  C  C1209  1  0.363000  0.877200  0.933400  1.0  -0.1499
  C  C1210  1  0.368300  0.851400  0.943200  1.0  0.2988
  C  C1211  1  0.352200  0.840400  0.963600  1.0  0.2787
  C  C1212  1  0.330700  0.855400  0.974050  1.0  -0.0868
  C  C1213  1  0.325400  0.881200  0.964200  1.0  0.23
  C  C1214  1  0.341600  0.892100  0.943900  1.0  0.256
  C  C1215  1  0.266800  0.857300  0.978700  1.0  0.2315
  C  C1216  1  0.240400  0.864900  0.978700  1.0  0.2186
  C  C1217  1  0.137900  0.913700  0.023600  1.0  -0.1246
  C  C1218  1  0.113400  0.927400  0.023200  1.0  -0.0761
  C  C1219  1  0.302500  0.796000  0.977200  1.0  0.2651
  C  C1220  1  0.365200  0.974100  0.266000  1.0  -0.0863
  C  C1221  1  0.337700  0.975000  0.270700  1.0  -0.1537
  C  C1222  1  0.230800  0.978100  0.295200  1.0  0.1664
  C  C1223  1  0.546000  0.953800  0.186900  1.0  0.6657
  C  C1224  1  0.559500  0.937800  0.165400  1.0  -0.1513
  C  C1225  1  0.578200  0.917900  0.172350  1.0  -0.0579
  C  C1226  1  0.592900  0.904700  0.152300  1.0  -0.1021
  C  C1227  1  0.588900  0.911500  0.125200  1.0  0.0113
  C  C1228  1  0.570200  0.931400  0.118260  1.0  -0.1187
  C  C1229  1  0.555500  0.944500  0.138400  1.0  -0.0726
  C  C1230  1  0.605200  0.898400  0.104300  1.0  0.0372
  C  C1231  1  0.619000  0.888200  0.087600  1.0  -0.0552
  C  C1232  1  0.637000  0.877200  0.066600  1.0  -0.1493
  C  C1233  1  0.631700  0.851400  0.056800  1.0  0.3001
  C  C1234  1  0.647800  0.840400  0.036400  1.0  0.2824
  C  C1235  1  0.669300  0.855400  0.025950  1.0  -0.0887
  C  C1236  1  0.674600  0.881200  0.035800  1.0  0.2306
  C  C1237  1  0.658400  0.892100  0.056100  1.0  0.2562
  C  C1238  1  0.733200  0.857300  0.021300  1.0  0.2333
  C  C1239  1  0.759600  0.864900  0.021300  1.0  0.2159
  C  C1240  1  0.862100  0.913700  0.976400  1.0  -0.1238
  C  C1241  1  0.886600  0.927400  0.976800  1.0  -0.0773
  C  C1242  1  0.697500  0.796000  0.022800  1.0  0.2634
  C  C1243  1  0.634800  0.025900  0.266000  1.0  -0.0883
  C  C1244  1  0.662300  0.025000  0.270700  1.0  -0.1524
  C  C1245  1  0.769200  0.021900  0.295200  1.0  0.162
  C  C1246  1  0.454000  0.046200  0.186900  1.0  0.6649
  C  C1247  1  0.440500  0.062200  0.165400  1.0  -0.1511
  C  C1248  1  0.421800  0.082100  0.172350  1.0  -0.058
  C  C1249  1  0.407100  0.095300  0.152300  1.0  -0.1017
  C  C1250  1  0.411100  0.088500  0.125200  1.0  0.011
  C  C1251  1  0.429800  0.068600  0.118260  1.0  -0.1191
  C  C1252  1  0.444500  0.055500  0.138400  1.0  -0.0729
  C  C1253  1  0.394800  0.101600  0.104300  1.0  0.0351
  C  C1254  1  0.381000  0.111800  0.087600  1.0  -0.0535
  C  C1255  1  0.363000  0.122800  0.066600  1.0  -0.1489
  C  C1256  1  0.368300  0.148600  0.056800  1.0  0.3004
  C  C1257  1  0.352200  0.159600  0.036400  1.0  0.279
  C  C1258  1  0.330700  0.144600  0.025950  1.0  -0.0874
  C  C1259  1  0.325400  0.118800  0.035800  1.0  0.232
  C  C1260  1  0.341600  0.107900  0.056100  1.0  0.2586
  C  C1261  1  0.266800  0.142700  0.021300  1.0  0.2325
  C  C1262  1  0.240400  0.135100  0.021300  1.0  0.218
  C  C1263  1  0.137900  0.086300  0.976400  1.0  -0.1235
  C  C1264  1  0.113400  0.072600  0.976800  1.0  -0.0762
  C  C1265  1  0.302500  0.204000  0.022800  1.0  0.2637
  C  C1266  1  0.365200  0.025900  0.734000  1.0  -0.0881
  C  C1267  1  0.337700  0.025000  0.729300  1.0  -0.1536
  C  C1268  1  0.230800  0.021900  0.704800  1.0  0.1627
  C  C1269  1  0.546000  0.046200  0.813100  1.0  0.6637
  C  C1270  1  0.559500  0.062200  0.834600  1.0  -0.1521
  C  C1271  1  0.578200  0.082100  0.827650  1.0  -0.0573
  C  C1272  1  0.592900  0.095300  0.847700  1.0  -0.1025
  C  C1273  1  0.588900  0.088500  0.874800  1.0  0.0102
  C  C1274  1  0.570200  0.068600  0.881740  1.0  -0.1163
  C  C1275  1  0.555500  0.055500  0.861600  1.0  -0.0718
  C  C1276  1  0.605200  0.101600  0.895700  1.0  0.0386
  C  C1277  1  0.619000  0.111800  0.912400  1.0  -0.0556
  C  C1278  1  0.637000  0.122800  0.933400  1.0  -0.15
  C  C1279  1  0.631700  0.148600  0.943200  1.0  0.2989
  C  C1280  1  0.647800  0.159600  0.963600  1.0  0.2814
  C  C1281  1  0.669300  0.144600  0.974050  1.0  -0.0893
  C  C1282  1  0.674600  0.118800  0.964200  1.0  0.2301
  C  C1283  1  0.658400  0.107900  0.943900  1.0  0.2575
  C  C1284  1  0.733200  0.142700  0.978700  1.0  0.2339
  C  C1285  1  0.759600  0.135100  0.978700  1.0  0.2162
  C  C1286  1  0.862100  0.086300  0.023600  1.0  -0.1275
  C  C1287  1  0.886600  0.072600  0.023200  1.0  -0.077
  C  C1288  1  0.697500  0.204000  0.977200  1.0  0.2651
  C  C1289  1  0.134800  0.234000  0.525900  1.0  -0.0873
  C  C1290  1  0.162300  0.229300  0.525000  1.0  -0.1516
  C  C1291  1  0.269200  0.204800  0.521900  1.0  0.168
  C  C1292  1  0.954000  0.313100  0.546200  1.0  0.6653
  C  C1293  1  0.940500  0.334600  0.562200  1.0  -0.1503
  C  C1294  1  0.921800  0.327650  0.582100  1.0  -0.0544
  C  C1295  1  0.907100  0.347700  0.595300  1.0  -0.1009
  C  C1296  1  0.911100  0.374800  0.588500  1.0  0.0084
  C  C1297  1  0.929800  0.381740  0.568600  1.0  -0.1148
  C  C1298  1  0.944500  0.361600  0.555500  1.0  -0.0728
  C  C1299  1  0.894800  0.395700  0.601600  1.0  0.0364
  C  C1300  1  0.881000  0.412400  0.611800  1.0  -0.0545
  C  C1301  1  0.863000  0.433400  0.622800  1.0  -0.1515
  C  C1302  1  0.868300  0.443200  0.648600  1.0  0.3004
  C  C1303  1  0.852200  0.463600  0.659600  1.0  0.2828
  C  C1304  1  0.830700  0.474050  0.644600  1.0  -0.0886
  C  C1305  1  0.825400  0.464200  0.618800  1.0  0.2336
  C  C1306  1  0.841600  0.443900  0.607900  1.0  0.2626
  C  C1307  1  0.766800  0.478700  0.642700  1.0  0.2282
  C  C1308  1  0.740400  0.478700  0.635100  1.0  0.2178
  C  C1309  1  0.637900  0.523600  0.586300  1.0  -0.1233
  C  C1310  1  0.613400  0.523200  0.572600  1.0  -0.0767
  C  C1311  1  0.802500  0.477200  0.704000  1.0  0.2578
  C  C1312  1  0.865200  0.766000  0.525900  1.0  -0.0866
  C  C1313  1  0.837700  0.770700  0.525000  1.0  -0.154
  C  C1314  1  0.730800  0.795200  0.521900  1.0  0.1689
  C  C1315  1  0.046000  0.686900  0.546200  1.0  0.6664
  C  C1316  1  0.059500  0.665400  0.562200  1.0  -0.1509
  C  C1317  1  0.078200  0.672350  0.582100  1.0  -0.0556
  C  C1318  1  0.092900  0.652300  0.595300  1.0  -0.1016
  C  C1319  1  0.088900  0.625200  0.588500  1.0  0.0101
  C  C1320  1  0.070200  0.618260  0.568600  1.0  -0.1179
  C  C1321  1  0.055500  0.638400  0.555500  1.0  -0.072
  C  C1322  1  0.105200  0.604300  0.601600  1.0  0.0399
  C  C1323  1  0.119000  0.587600  0.611800  1.0  -0.0555
  C  C1324  1  0.137000  0.566600  0.622800  1.0  -0.1506
  C  C1325  1  0.131700  0.556800  0.648600  1.0  0.3002
  C  C1326  1  0.147800  0.536400  0.659600  1.0  0.285
  C  C1327  1  0.169300  0.525950  0.644600  1.0  -0.0912
  C  C1328  1  0.174600  0.535800  0.618800  1.0  0.2338
  C  C1329  1  0.158400  0.556100  0.607900  1.0  0.2615
  C  C1330  1  0.233200  0.521300  0.642700  1.0  0.2259
  C  C1331  1  0.259600  0.521300  0.635100  1.0  0.2131
  C  C1332  1  0.362100  0.476400  0.586300  1.0  -0.1248
  C  C1333  1  0.386600  0.476800  0.572600  1.0  -0.0754
  C  C1334  1  0.197500  0.522800  0.704000  1.0  0.2547
  C  C1335  1  0.134800  0.766000  0.474100  1.0  -0.0885
  C  C1336  1  0.162300  0.770700  0.475000  1.0  -0.1532
  C  C1337  1  0.269200  0.795200  0.478100  1.0  0.1679
  C  C1338  1  0.954000  0.686900  0.453800  1.0  0.6662
  C  C1339  1  0.940500  0.665400  0.437800  1.0  -0.1505
  C  C1340  1  0.921800  0.672350  0.417900  1.0  -0.0566
  C  C1341  1  0.907100  0.652300  0.404700  1.0  -0.1013
  C  C1342  1  0.911100  0.625200  0.411500  1.0  0.011
  C  C1343  1  0.929800  0.618260  0.431400  1.0  -0.118
  C  C1344  1  0.944500  0.638400  0.444500  1.0  -0.073
  C  C1345  1  0.894800  0.604300  0.398400  1.0  0.036
  C  C1346  1  0.881000  0.587600  0.388200  1.0  -0.0539
  C  C1347  1  0.863000  0.566600  0.377200  1.0  -0.1504
  C  C1348  1  0.868300  0.556800  0.351400  1.0  0.2998
  C  C1349  1  0.852200  0.536400  0.340400  1.0  0.2826
  C  C1350  1  0.830700  0.525950  0.355400  1.0  -0.0892
  C  C1351  1  0.825400  0.535800  0.381200  1.0  0.2342
  C  C1352  1  0.841600  0.556100  0.392100  1.0  0.2618
  C  C1353  1  0.766800  0.521300  0.357300  1.0  0.2266
  C  C1354  1  0.740400  0.521300  0.364900  1.0  0.2163
  C  C1355  1  0.637900  0.476400  0.413700  1.0  -0.1223
  C  C1356  1  0.613400  0.476800  0.427400  1.0  -0.0754
  C  C1357  1  0.802500  0.522800  0.296000  1.0  0.2569
  C  C1358  1  0.865200  0.234000  0.474100  1.0  -0.0875
  C  C1359  1  0.837700  0.229300  0.475000  1.0  -0.1528
  C  C1360  1  0.730800  0.204800  0.478100  1.0  0.1677
  C  C1361  1  0.046000  0.313100  0.453800  1.0  0.6656
  C  C1362  1  0.059500  0.334600  0.437800  1.0  -0.1508
  C  C1363  1  0.078200  0.327650  0.417900  1.0  -0.0544
  C  C1364  1  0.092900  0.347700  0.404700  1.0  -0.1029
  C  C1365  1  0.088900  0.374800  0.411500  1.0  0.01
  C  C1366  1  0.070200  0.381740  0.431400  1.0  -0.1144
  C  C1367  1  0.055500  0.361600  0.444500  1.0  -0.072
  C  C1368  1  0.105200  0.395700  0.398400  1.0  0.0373
  C  C1369  1  0.119000  0.412400  0.388200  1.0  -0.0559
  C  C1370  1  0.137000  0.433400  0.377200  1.0  -0.1516
  C  C1371  1  0.131700  0.443200  0.351400  1.0  0.2989
  C  C1372  1  0.147800  0.463600  0.340400  1.0  0.2847
  C  C1373  1  0.169300  0.474050  0.355400  1.0  -0.0905
  C  C1374  1  0.174600  0.464200  0.381200  1.0  0.2342
  C  C1375  1  0.158400  0.443900  0.392100  1.0  0.2616
  C  C1376  1  0.233200  0.478700  0.357300  1.0  0.2291
  C  C1377  1  0.259600  0.478700  0.364900  1.0  0.2148
  C  C1378  1  0.362100  0.523600  0.413700  1.0  -0.1241
  C  C1379  1  0.386600  0.523200  0.427400  1.0  -0.0777
  C  C1380  1  0.197500  0.477200  0.296000  1.0  0.2576
  C  C1381  1  0.234000  0.474100  0.865200  1.0  -0.0832
  C  C1382  1  0.229300  0.475000  0.837700  1.0  -0.1536
  C  C1383  1  0.204800  0.478100  0.730800  1.0  0.1663
  C  C1384  1  0.313100  0.453800  0.046000  1.0  0.6653
  C  C1385  1  0.334600  0.437800  0.059500  1.0  -0.1511
  C  C1386  1  0.327650  0.417900  0.078200  1.0  -0.0553
  C  C1387  1  0.347700  0.404700  0.092900  1.0  -0.1003
  C  C1388  1  0.374800  0.411500  0.088900  1.0  0.0118
  C  C1389  1  0.381740  0.431400  0.070200  1.0  -0.1152
  C  C1390  1  0.361600  0.444500  0.055500  1.0  -0.0734
  C  C1391  1  0.395700  0.398400  0.105200  1.0  0.0383
  C  C1392  1  0.412400  0.388200  0.119000  1.0  -0.0563
  C  C1393  1  0.433400  0.377200  0.137000  1.0  -0.15
  C  C1394  1  0.443200  0.351400  0.131700  1.0  0.3067
  C  C1395  1  0.463600  0.340400  0.147800  1.0  0.2833
  C  C1396  1  0.474050  0.355400  0.169300  1.0  -0.0897
  C  C1397  1  0.464200  0.381200  0.174600  1.0  0.2314
  C  C1398  1  0.443900  0.392100  0.158400  1.0  0.2549
  C  C1399  1  0.478700  0.357300  0.233200  1.0  0.2293
  C  C1400  1  0.478700  0.364900  0.259600  1.0  0.2154
  C  C1401  1  0.523600  0.413700  0.362100  1.0  -0.1227
  C  C1402  1  0.523200  0.427400  0.386600  1.0  -0.0705
  C  C1403  1  0.477200  0.296000  0.197500  1.0  0.2586
  C  C1404  1  0.766000  0.474100  0.134800  1.0  -0.083
  C  C1405  1  0.770700  0.475000  0.162300  1.0  -0.1532
  C  C1406  1  0.795200  0.478100  0.269200  1.0  0.1663
  C  C1407  1  0.686900  0.453800  0.954000  1.0  0.6642
  C  C1408  1  0.665400  0.437800  0.940500  1.0  -0.1505
  C  C1409  1  0.672350  0.417900  0.921800  1.0  -0.0539
  C  C1410  1  0.652300  0.404700  0.907100  1.0  -0.1038
  C  C1411  1  0.625200  0.411500  0.911100  1.0  0.011
  C  C1412  1  0.618260  0.431400  0.929800  1.0  -0.1142
  C  C1413  1  0.638400  0.444500  0.944500  1.0  -0.0724
  C  C1414  1  0.604300  0.398400  0.894800  1.0  0.0361
  C  C1415  1  0.587600  0.388200  0.881000  1.0  -0.0532
  C  C1416  1  0.566600  0.377200  0.863000  1.0  -0.1497
  C  C1417  1  0.556800  0.351400  0.868300  1.0  0.3082
  C  C1418  1  0.536400  0.340400  0.852200  1.0  0.2822
  C  C1419  1  0.525950  0.355400  0.830700  1.0  -0.0872
  C  C1420  1  0.535800  0.381200  0.825400  1.0  0.232
  C  C1421  1  0.556100  0.392100  0.841600  1.0  0.2555
  C  C1422  1  0.521300  0.357300  0.766800  1.0  0.2294
  C  C1423  1  0.521300  0.364900  0.740400  1.0  0.2142
  C  C1424  1  0.476400  0.413700  0.637900  1.0  -0.1237
  C  C1425  1  0.476800  0.427400  0.613400  1.0  -0.0723
  C  C1426  1  0.522800  0.296000  0.802500  1.0  0.2591
  C  C1427  1  0.766000  0.525900  0.865200  1.0  -0.0843
  C  C1428  1  0.770700  0.525000  0.837700  1.0  -0.1541
  C  C1429  1  0.795200  0.521900  0.730800  1.0  0.1634
  C  C1430  1  0.686900  0.546200  0.046000  1.0  0.6639
  C  C1431  1  0.665400  0.562200  0.059500  1.0  -0.1511
  C  C1432  1  0.672350  0.582100  0.078200  1.0  -0.054
  C  C1433  1  0.652300  0.595300  0.092900  1.0  -0.1012
  C  C1434  1  0.625200  0.588500  0.088900  1.0  0.0106
  C  C1435  1  0.618260  0.568600  0.070200  1.0  -0.1143
  C  C1436  1  0.638400  0.555500  0.055500  1.0  -0.0723
  C  C1437  1  0.604300  0.601600  0.105200  1.0  0.0362
  C  C1438  1  0.587600  0.611800  0.119000  1.0  -0.0537
  C  C1439  1  0.566600  0.622800  0.137000  1.0  -0.1508
  C  C1440  1  0.556800  0.648600  0.131700  1.0  0.3067
  C  C1441  1  0.536400  0.659600  0.147800  1.0  0.2814
  C  C1442  1  0.525950  0.644600  0.169300  1.0  -0.0876
  C  C1443  1  0.535800  0.618800  0.174600  1.0  0.2335
  C  C1444  1  0.556100  0.607900  0.158400  1.0  0.2575
  C  C1445  1  0.521300  0.642700  0.233200  1.0  0.2303
  C  C1446  1  0.521300  0.635100  0.259600  1.0  0.2139
  C  C1447  1  0.476400  0.586300  0.362100  1.0  -0.1243
  C  C1448  1  0.476800  0.572600  0.386600  1.0  -0.0708
  C  C1449  1  0.522800  0.704000  0.197500  1.0  0.2581
  C  C1450  1  0.234000  0.525900  0.134800  1.0  -0.0844
  C  C1451  1  0.229300  0.525000  0.162300  1.0  -0.1524
  C  C1452  1  0.204800  0.521900  0.269200  1.0  0.1622
  C  C1453  1  0.313100  0.546200  0.954000  1.0  0.664
  C  C1454  1  0.334600  0.562200  0.940500  1.0  -0.1511
  C  C1455  1  0.327650  0.582100  0.921800  1.0  -0.0564
  C  C1456  1  0.347700  0.595300  0.907100  1.0  -0.1026
  C  C1457  1  0.374800  0.588500  0.911100  1.0  0.0118
  C  C1458  1  0.381740  0.568600  0.929800  1.0  -0.1143
  C  C1459  1  0.361600  0.555500  0.944500  1.0  -0.0726
  C  C1460  1  0.395700  0.601600  0.894800  1.0  0.037
  C  C1461  1  0.412400  0.611800  0.881000  1.0  -0.0553
  C  C1462  1  0.433400  0.622800  0.863000  1.0  -0.1492
  C  C1463  1  0.443200  0.648600  0.868300  1.0  0.3075
  C  C1464  1  0.463600  0.659600  0.852200  1.0  0.2817
  C  C1465  1  0.474050  0.644600  0.830700  1.0  -0.0898
  C  C1466  1  0.464200  0.618800  0.825400  1.0  0.233
  C  C1467  1  0.443900  0.607900  0.841600  1.0  0.2564
  C  C1468  1  0.478700  0.642700  0.766800  1.0  0.228
  C  C1469  1  0.478700  0.635100  0.740400  1.0  0.2169
  C  C1470  1  0.523600  0.586300  0.637900  1.0  -0.1225
  C  C1471  1  0.523200  0.572600  0.613400  1.0  -0.0724
  C  C1472  1  0.477200  0.704000  0.802500  1.0  0.2594
  C  C1473  1  0.474100  0.134800  0.766000  1.0  -0.0869
  C  C1474  1  0.475000  0.162300  0.770700  1.0  -0.1507
  C  C1475  1  0.478100  0.269200  0.795200  1.0  0.1623
  C  C1476  1  0.453800  0.954000  0.686900  1.0  0.664
  C  C1477  1  0.437800  0.940500  0.665400  1.0  -0.1496
  C  C1478  1  0.417900  0.921800  0.672350  1.0  -0.0588
  C  C1479  1  0.404700  0.907100  0.652300  1.0  -0.1004
  C  C1480  1  0.411500  0.911100  0.625200  1.0  0.0109
  C  C1481  1  0.431400  0.929800  0.618260  1.0  -0.1206
  C  C1482  1  0.444500  0.944500  0.638400  1.0  -0.0731
  C  C1483  1  0.398400  0.894800  0.604300  1.0  0.0373
  C  C1484  1  0.388200  0.881000  0.587600  1.0  -0.0536
  C  C1485  1  0.377200  0.863000  0.566600  1.0  -0.1487
  C  C1486  1  0.351400  0.868300  0.556800  1.0  0.3001
  C  C1487  1  0.340400  0.852200  0.536400  1.0  0.2793
  C  C1488  1  0.355400  0.830700  0.525950  1.0  -0.0876
  C  C1489  1  0.381200  0.825400  0.535800  1.0  0.2299
  C  C1490  1  0.392100  0.841600  0.556100  1.0  0.2561
  C  C1491  1  0.357300  0.766800  0.521300  1.0  0.2312
  C  C1492  1  0.364900  0.740400  0.521300  1.0  0.2173
  C  C1493  1  0.413700  0.637900  0.476400  1.0  -0.1245
  C  C1494  1  0.427400  0.613400  0.476800  1.0  -0.0773
  C  C1495  1  0.296000  0.802500  0.522800  1.0  0.2666
  C  C1496  1  0.474100  0.865200  0.234000  1.0  -0.086
  C  C1497  1  0.475000  0.837700  0.229300  1.0  -0.1509
  C  C1498  1  0.478100  0.730800  0.204800  1.0  0.1639
  C  C1499  1  0.453800  0.046000  0.313100  1.0  0.663
  C  C1500  1  0.437800  0.059500  0.334600  1.0  -0.15
  C  C1501  1  0.417900  0.078200  0.327650  1.0  -0.058
  C  C1502  1  0.404700  0.092900  0.347700  1.0  -0.1019
  C  C1503  1  0.411500  0.088900  0.374800  1.0  0.0102
  C  C1504  1  0.431400  0.070200  0.381740  1.0  -0.117
  C  C1505  1  0.444500  0.055500  0.361600  1.0  -0.072
  C  C1506  1  0.398400  0.105200  0.395700  1.0  0.0385
  C  C1507  1  0.388200  0.119000  0.412400  1.0  -0.0546
  C  C1508  1  0.377200  0.137000  0.433400  1.0  -0.1505
  C  C1509  1  0.351400  0.131700  0.443200  1.0  0.3019
  C  C1510  1  0.340400  0.147800  0.463600  1.0  0.2816
  C  C1511  1  0.355400  0.169300  0.474050  1.0  -0.0884
  C  C1512  1  0.381200  0.174600  0.464200  1.0  0.2287
  C  C1513  1  0.392100  0.158400  0.443900  1.0  0.255
  C  C1514  1  0.357300  0.233200  0.478700  1.0  0.2289
  C  C1515  1  0.364900  0.259600  0.478700  1.0  0.2168
  C  C1516  1  0.413700  0.362100  0.523600  1.0  -0.1271
  C  C1517  1  0.427400  0.386600  0.523200  1.0  -0.0772
  C  C1518  1  0.296000  0.197500  0.477200  1.0  0.2684
  C  C1519  1  0.525900  0.134800  0.234000  1.0  -0.0841
  C  C1520  1  0.525000  0.162300  0.229300  1.0  -0.1508
  C  C1521  1  0.521900  0.269200  0.204800  1.0  0.1613
  C  C1522  1  0.546200  0.954000  0.313100  1.0  0.6639
  C  C1523  1  0.562200  0.940500  0.334600  1.0  -0.1511
  C  C1524  1  0.582100  0.921800  0.327650  1.0  -0.0581
  C  C1525  1  0.595300  0.907100  0.347700  1.0  -0.1024
  C  C1526  1  0.588500  0.911100  0.374800  1.0  0.0111
  C  C1527  1  0.568600  0.929800  0.381740  1.0  -0.1173
  C  C1528  1  0.555500  0.944500  0.361600  1.0  -0.072
  C  C1529  1  0.601600  0.894800  0.395700  1.0  0.0391
  C  C1530  1  0.611800  0.881000  0.412400  1.0  -0.0544
  C  C1531  1  0.622800  0.863000  0.433400  1.0  -0.1506
  C  C1532  1  0.648600  0.868300  0.443200  1.0  0.299
  C  C1533  1  0.659600  0.852200  0.463600  1.0  0.2768
  C  C1534  1  0.644600  0.830700  0.474050  1.0  -0.0885
  C  C1535  1  0.618800  0.825400  0.464200  1.0  0.2291
  C  C1536  1  0.607900  0.841600  0.443900  1.0  0.2557
  C  C1537  1  0.642700  0.766800  0.478700  1.0  0.2317
  C  C1538  1  0.635100  0.740400  0.478700  1.0  0.2181
  C  C1539  1  0.586300  0.637900  0.523600  1.0  -0.126
  C  C1540  1  0.572600  0.613400  0.523200  1.0  -0.0769
  C  C1541  1  0.704000  0.802500  0.477200  1.0  0.267
  C  C1542  1  0.525900  0.865200  0.766000  1.0  -0.084
  C  C1543  1  0.525000  0.837700  0.770700  1.0  -0.1507
  C  C1544  1  0.521900  0.730800  0.795200  1.0  0.1621
  C  C1545  1  0.546200  0.046000  0.686900  1.0  0.6648
  C  C1546  1  0.562200  0.059500  0.665400  1.0  -0.1505
  C  C1547  1  0.582100  0.078200  0.672350  1.0  -0.0577
  C  C1548  1  0.595300  0.092900  0.652300  1.0  -0.1016
  C  C1549  1  0.588500  0.088900  0.625200  1.0  0.0118
  C  C1550  1  0.568600  0.070200  0.618260  1.0  -0.1181
  C  C1551  1  0.555500  0.055500  0.638400  1.0  -0.0717
  C  C1552  1  0.601600  0.105200  0.604300  1.0  0.0373
  C  C1553  1  0.611800  0.119000  0.587600  1.0  -0.0541
  C  C1554  1  0.622800  0.137000  0.566600  1.0  -0.1503
  C  C1555  1  0.648600  0.131700  0.556800  1.0  0.3027
  C  C1556  1  0.659600  0.147800  0.536400  1.0  0.2793
  C  C1557  1  0.644600  0.169300  0.525950  1.0  -0.0889
  C  C1558  1  0.618800  0.174600  0.535800  1.0  0.229
  C  C1559  1  0.607900  0.158400  0.556100  1.0  0.2563
  C  C1560  1  0.642700  0.233200  0.521300  1.0  0.2306
  C  C1561  1  0.635100  0.259600  0.521300  1.0  0.2181
  C  C1562  1  0.586300  0.362100  0.476400  1.0  -0.1235
  C  C1563  1  0.572600  0.386600  0.476800  1.0  -0.0767
  C  C1564  1  0.704000  0.197500  0.522800  1.0  0.2659
  C  C1565  1  0.252900  0.409300  0.000000  1.0  0.5735
  C  C1566  1  0.261700  0.378900  0.000000  1.0  -0.2026
  C  C1567  1  0.273200  0.324900  0.000000  1.0  0.1231
  C  C1568  1  0.278300  0.296300  0.000000  1.0  -0.1395
  C  C1569  1  0.285600  0.273200  0.000000  1.0  0.1324
  C  C1570  1  0.293700  0.248100  0.000000  1.0  0.2703
  C  C1571  1  0.747100  0.590700  0.000000  1.0  0.5735
  C  C1572  1  0.738300  0.621100  0.000000  1.0  -0.2033
  C  C1573  1  0.726800  0.675100  0.000000  1.0  0.1224
  C  C1574  1  0.721700  0.703700  0.000000  1.0  -0.1397
  C  C1575  1  0.714400  0.726800  0.000000  1.0  0.1336
  C  C1576  1  0.706300  0.751900  0.000000  1.0  0.2707
  C  C1577  1  0.747100  0.409300  0.000000  1.0  0.5728
  C  C1578  1  0.738300  0.378900  0.000000  1.0  -0.204
  C  C1579  1  0.726800  0.324900  0.000000  1.0  0.1232
  C  C1580  1  0.721700  0.296300  0.000000  1.0  -0.1394
  C  C1581  1  0.714400  0.273200  0.000000  1.0  0.1326
  C  C1582  1  0.706300  0.248100  0.000000  1.0  0.2708
  C  C1583  1  0.252900  0.590700  0.000000  1.0  0.574
  C  C1584  1  0.261700  0.621100  0.000000  1.0  -0.2026
  C  C1585  1  0.273200  0.675100  0.000000  1.0  0.1224
  C  C1586  1  0.278300  0.703700  0.000000  1.0  -0.1397
  C  C1587  1  0.285600  0.726800  0.000000  1.0  0.1333
  C  C1588  1  0.293700  0.751900  0.000000  1.0  0.2707
  C  C1589  1  0.000000  0.252900  0.409300  1.0  0.5732
  C  C1590  1  0.000000  0.261700  0.378900  1.0  -0.2022
  C  C1591  1  0.000000  0.273200  0.324900  1.0  0.1251
  C  C1592  1  0.000000  0.278300  0.296300  1.0  -0.1421
  C  C1593  1  0.000000  0.285600  0.273200  1.0  0.134
  C  C1594  1  0.000000  0.293700  0.248100  1.0  0.271
  C  C1595  1  0.000000  0.747100  0.590700  1.0  0.5715
  C  C1596  1  0.000000  0.738300  0.621100  1.0  -0.2042
  C  C1597  1  0.000000  0.726800  0.675100  1.0  0.1252
  C  C1598  1  0.000000  0.721700  0.703700  1.0  -0.1395
  C  C1599  1  0.000000  0.714400  0.726800  1.0  0.1312
  C  C1600  1  0.000000  0.706300  0.751900  1.0  0.269
  C  C1601  1  0.000000  0.747100  0.409300  1.0  0.5728
  C  C1602  1  0.000000  0.738300  0.378900  1.0  -0.2017
  C  C1603  1  0.000000  0.726800  0.324900  1.0  0.1253
  C  C1604  1  0.000000  0.721700  0.296300  1.0  -0.1417
  C  C1605  1  0.000000  0.714400  0.273200  1.0  0.1338
  C  C1606  1  0.000000  0.706300  0.248100  1.0  0.2704
  C  C1607  1  0.000000  0.252900  0.590700  1.0  0.5716
  C  C1608  1  0.000000  0.261700  0.621100  1.0  -0.2053
  C  C1609  1  0.000000  0.273200  0.675100  1.0  0.125
  C  C1610  1  0.000000  0.278300  0.703700  1.0  -0.1396
  C  C1611  1  0.000000  0.285600  0.726800  1.0  0.1312
  C  C1612  1  0.000000  0.293700  0.751900  1.0  0.2704
  C  C1613  1  0.409300  0.000000  0.252900  1.0  0.5764
  C  C1614  1  0.378900  0.000000  0.261700  1.0  -0.2024
  C  C1615  1  0.324900  0.000000  0.273200  1.0  0.1227
  C  C1616  1  0.296300  0.000000  0.278300  1.0  -0.1408
  C  C1617  1  0.273200  0.000000  0.285600  1.0  0.1323
  C  C1618  1  0.248100  0.000000  0.293700  1.0  0.2675
  C  C1619  1  0.590700  0.000000  0.747100  1.0  0.577
  C  C1620  1  0.621100  0.000000  0.738300  1.0  -0.2025
  C  C1621  1  0.675100  0.000000  0.726800  1.0  0.1223
  C  C1622  1  0.703700  0.000000  0.721700  1.0  -0.1397
  C  C1623  1  0.726800  0.000000  0.714400  1.0  0.1323
  C  C1624  1  0.751900  0.000000  0.706300  1.0  0.2684
  C  C1625  1  0.409300  0.000000  0.747100  1.0  0.5757
  C  C1626  1  0.378900  0.000000  0.738300  1.0  -0.2025
  C  C1627  1  0.324900  0.000000  0.726800  1.0  0.1226
  C  C1628  1  0.296300  0.000000  0.721700  1.0  -0.1406
  C  C1629  1  0.273200  0.000000  0.714400  1.0  0.1328
  C  C1630  1  0.248100  0.000000  0.706300  1.0  0.2677
  C  C1631  1  0.590700  0.000000  0.252900  1.0  0.5774
  C  C1632  1  0.621100  0.000000  0.261700  1.0  -0.2026
  C  C1633  1  0.675100  0.000000  0.273200  1.0  0.1223
  C  C1634  1  0.703700  0.000000  0.278300  1.0  -0.1399
  C  C1635  1  0.726800  0.000000  0.285600  1.0  0.1316
  C  C1636  1  0.751900  0.000000  0.293700  1.0  0.2686
  C  C1637  1  0.909300  0.752900  0.500000  1.0  0.5749
  C  C1638  1  0.878900  0.761700  0.500000  1.0  -0.2029
  C  C1639  1  0.824900  0.773200  0.500000  1.0  0.1225
  C  C1640  1  0.796300  0.778300  0.500000  1.0  -0.1406
  C  C1641  1  0.773200  0.785600  0.500000  1.0  0.1332
  C  C1642  1  0.748100  0.793700  0.500000  1.0  0.2688
  C  C1643  1  0.090700  0.247100  0.500000  1.0  0.5755
  C  C1644  1  0.121100  0.238300  0.500000  1.0  -0.2023
  C  C1645  1  0.175100  0.226800  0.500000  1.0  0.1223
  C  C1646  1  0.203700  0.221700  0.500000  1.0  -0.1397
  C  C1647  1  0.226800  0.214400  0.500000  1.0  0.1322
  C  C1648  1  0.251900  0.206300  0.500000  1.0  0.2689
  C  C1649  1  0.909300  0.247100  0.500000  1.0  0.5748
  C  C1650  1  0.878900  0.238300  0.500000  1.0  -0.2023
  C  C1651  1  0.824900  0.226800  0.500000  1.0  0.1226
  C  C1652  1  0.796300  0.221700  0.500000  1.0  -0.1405
  C  C1653  1  0.773200  0.214400  0.500000  1.0  0.133
  C  C1654  1  0.748100  0.206300  0.500000  1.0  0.2678
  C  C1655  1  0.090700  0.752900  0.500000  1.0  0.5757
  C  C1656  1  0.121100  0.761700  0.500000  1.0  -0.2031
  C  C1657  1  0.175100  0.773200  0.500000  1.0  0.1221
  C  C1658  1  0.203700  0.778300  0.500000  1.0  -0.1399
  C  C1659  1  0.226800  0.785600  0.500000  1.0  0.1325
  C  C1660  1  0.251900  0.793700  0.500000  1.0  0.2698
  C  C1661  1  0.752900  0.500000  0.090700  1.0  0.5737
  C  C1662  1  0.761700  0.500000  0.121100  1.0  -0.2064
  C  C1663  1  0.773200  0.500000  0.175100  1.0  0.1249
  C  C1664  1  0.778300  0.500000  0.203700  1.0  -0.1398
  C  C1665  1  0.785600  0.500000  0.226800  1.0  0.1311
  C  C1666  1  0.793700  0.500000  0.251900  1.0  0.2698
  C  C1667  1  0.247100  0.500000  0.909300  1.0  0.5745
  C  C1668  1  0.238300  0.500000  0.878900  1.0  -0.2049
  C  C1669  1  0.226800  0.500000  0.824900  1.0  0.1251
  C  C1670  1  0.221700  0.500000  0.796300  1.0  -0.1419
  C  C1671  1  0.214400  0.500000  0.773200  1.0  0.1338
  C  C1672  1  0.206300  0.500000  0.748100  1.0  0.2708
  C  C1673  1  0.247100  0.500000  0.090700  1.0  0.5733
  C  C1674  1  0.238300  0.500000  0.121100  1.0  -0.2072
  C  C1675  1  0.226800  0.500000  0.175100  1.0  0.1249
  C  C1676  1  0.221700  0.500000  0.203700  1.0  -0.1397
  C  C1677  1  0.214400  0.500000  0.226800  1.0  0.131
  C  C1678  1  0.206300  0.500000  0.251900  1.0  0.2699
  C  C1679  1  0.752900  0.500000  0.909300  1.0  0.5749
  C  C1680  1  0.761700  0.500000  0.878900  1.0  -0.2033
  C  C1681  1  0.773200  0.500000  0.824900  1.0  0.1255
  C  C1682  1  0.778300  0.500000  0.796300  1.0  -0.1418
  C  C1683  1  0.785600  0.500000  0.773200  1.0  0.1335
  C  C1684  1  0.793700  0.500000  0.748100  1.0  0.2705
  C  C1685  1  0.500000  0.909300  0.247100  1.0  0.5722
  C  C1686  1  0.500000  0.878900  0.238300  1.0  -0.2013
  C  C1687  1  0.500000  0.824900  0.226800  1.0  0.1234
  C  C1688  1  0.500000  0.796300  0.221700  1.0  -0.139
  C  C1689  1  0.500000  0.773200  0.214400  1.0  0.1325
  C  C1690  1  0.500000  0.748100  0.206300  1.0  0.2695
  C  C1691  1  0.500000  0.090700  0.752900  1.0  0.5733
  C  C1692  1  0.500000  0.121100  0.761700  1.0  -0.2012
  C  C1693  1  0.500000  0.175100  0.773200  1.0  0.1228
  C  C1694  1  0.500000  0.203700  0.778300  1.0  -0.1396
  C  C1695  1  0.500000  0.226800  0.785600  1.0  0.133
  C  C1696  1  0.500000  0.251900  0.793700  1.0  0.27
  C  C1697  1  0.500000  0.909300  0.752900  1.0  0.5726
  C  C1698  1  0.500000  0.878900  0.761700  1.0  -0.2012
  C  C1699  1  0.500000  0.824900  0.773200  1.0  0.1234
  C  C1700  1  0.500000  0.796300  0.778300  1.0  -0.1395
  C  C1701  1  0.500000  0.773200  0.785600  1.0  0.132
  C  C1702  1  0.500000  0.748100  0.793700  1.0  0.2695
  C  C1703  1  0.500000  0.090700  0.247100  1.0  0.5728
  C  C1704  1  0.500000  0.121100  0.238300  1.0  -0.2009
  C  C1705  1  0.500000  0.175100  0.226800  1.0  0.1226
  C  C1706  1  0.500000  0.203700  0.221700  1.0  -0.1393
  C  C1707  1  0.500000  0.226800  0.214400  1.0  0.1334
  C  C1708  1  0.500000  0.251900  0.206300  1.0  0.2699
  C  C1709  1  0.000000  0.716200  0.147600  1.0  0.0085
  C  C1710  1  0.000000  0.775700  0.129100  1.0  0.1339
  C  C1711  1  0.000000  0.801900  0.115100  1.0  -0.0827
  C  C1712  1  0.000000  0.820900  0.100000  1.0  0.0212
  C  C1713  1  0.000000  0.847100  0.085700  1.0  0.2146
  C  C1714  1  0.000000  0.899500  0.064300  1.0  -0.0461
  C  C1715  1  0.000000  0.927400  0.053200  1.0  0.4005
  C  C1716  1  0.000000  0.693200  0.188600  1.0  -0.0038
  C  C1717  1  0.000000  0.283800  0.147600  1.0  0.008
  C  C1718  1  0.000000  0.224300  0.129100  1.0  0.1369
  C  C1719  1  0.000000  0.198100  0.115100  1.0  -0.0825
  C  C1720  1  0.000000  0.179100  0.100000  1.0  0.0199
  C  C1721  1  0.000000  0.152900  0.085700  1.0  0.2127
  C  C1722  1  0.000000  0.100500  0.064300  1.0  -0.0473
  C  C1723  1  0.000000  0.072600  0.053200  1.0  0.4011
  C  C1724  1  0.000000  0.306800  0.188600  1.0  -0.0041
  C  C1725  1  0.000000  0.716200  0.852400  1.0  0.0086
  C  C1726  1  0.000000  0.775700  0.870900  1.0  0.1343
  C  C1727  1  0.000000  0.801900  0.884900  1.0  -0.0829
  C  C1728  1  0.000000  0.820900  0.900000  1.0  0.0208
  C  C1729  1  0.000000  0.847100  0.914300  1.0  0.2139
  C  C1730  1  0.000000  0.899500  0.935700  1.0  -0.0463
  C  C1731  1  0.000000  0.927400  0.946800  1.0  0.4008
  C  C1732  1  0.000000  0.693200  0.811400  1.0  -0.0051
  C  C1733  1  0.000000  0.283800  0.852400  1.0  0.0084
  C  C1734  1  0.000000  0.224300  0.870900  1.0  0.137
  C  C1735  1  0.000000  0.198100  0.884900  1.0  -0.0827
  C  C1736  1  0.000000  0.179100  0.900000  1.0  0.0199
  C  C1737  1  0.000000  0.152900  0.914300  1.0  0.2132
  C  C1738  1  0.000000  0.100500  0.935700  1.0  -0.0473
  C  C1739  1  0.000000  0.072600  0.946800  1.0  0.4005
  C  C1740  1  0.000000  0.306800  0.811400  1.0  -0.0048
  C  C1741  1  0.147600  0.000000  0.716200  1.0  0.0088
  C  C1742  1  0.129100  0.000000  0.775700  1.0  0.135
  C  C1743  1  0.115100  0.000000  0.801900  1.0  -0.0847
  C  C1744  1  0.100000  0.000000  0.820900  1.0  0.0208
  C  C1745  1  0.085700  0.000000  0.847100  1.0  0.2147
  C  C1746  1  0.064300  0.000000  0.899500  1.0  -0.0494
  C  C1747  1  0.053200  0.000000  0.927400  1.0  0.403
  C  C1748  1  0.188600  0.000000  0.693200  1.0  -0.0037
  C  C1749  1  0.147600  0.000000  0.283800  1.0  0.0076
  C  C1750  1  0.129100  0.000000  0.224300  1.0  0.1328
  C  C1751  1  0.115100  0.000000  0.198100  1.0  -0.0855
  C  C1752  1  0.100000  0.000000  0.179100  1.0  0.022
  C  C1753  1  0.085700  0.000000  0.152900  1.0  0.2136
  C  C1754  1  0.064300  0.000000  0.100500  1.0  -0.0503
  C  C1755  1  0.053200  0.000000  0.072600  1.0  0.4026
  C  C1756  1  0.188600  0.000000  0.306800  1.0  -0.0032
  C  C1757  1  0.852400  0.000000  0.716200  1.0  0.0091
  C  C1758  1  0.870900  0.000000  0.775700  1.0  0.1349
  C  C1759  1  0.884900  0.000000  0.801900  1.0  -0.0833
  C  C1760  1  0.900000  0.000000  0.820900  1.0  0.0202
  C  C1761  1  0.914300  0.000000  0.847100  1.0  0.2136
  C  C1762  1  0.935700  0.000000  0.899500  1.0  -0.047
  C  C1763  1  0.946800  0.000000  0.927400  1.0  0.4061
  C  C1764  1  0.811400  0.000000  0.693200  1.0  -0.0025
  C  C1765  1  0.852400  0.000000  0.283800  1.0  0.0081
  C  C1766  1  0.870900  0.000000  0.224300  1.0  0.1334
  C  C1767  1  0.884900  0.000000  0.198100  1.0  -0.0844
  C  C1768  1  0.900000  0.000000  0.179100  1.0  0.0212
  C  C1769  1  0.914300  0.000000  0.152900  1.0  0.2126
  C  C1770  1  0.935700  0.000000  0.100500  1.0  -0.0482
  C  C1771  1  0.946800  0.000000  0.072600  1.0  0.4062
  C  C1772  1  0.811400  0.000000  0.306800  1.0  -0.0019
  C  C1773  1  0.716200  0.147600  0.000000  1.0  0.0083
  C  C1774  1  0.775700  0.129100  0.000000  1.0  0.1268
  C  C1775  1  0.801900  0.115100  0.000000  1.0  -0.081
  C  C1776  1  0.820900  0.100000  0.000000  1.0  0.0219
  C  C1777  1  0.847100  0.085700  0.000000  1.0  0.2127
  C  C1778  1  0.899500  0.064300  0.000000  1.0  -0.0443
  C  C1779  1  0.927400  0.053200  0.000000  1.0  0.4026
  C  C1780  1  0.693200  0.188600  0.000000  1.0  -0.0021
  C  C1781  1  0.283800  0.147600  0.000000  1.0  0.0088
  C  C1782  1  0.224300  0.129100  0.000000  1.0  0.1302
  C  C1783  1  0.198100  0.115100  0.000000  1.0  -0.0822
  C  C1784  1  0.179100  0.100000  0.000000  1.0  0.0234
  C  C1785  1  0.152900  0.085700  0.000000  1.0  0.2113
  C  C1786  1  0.100500  0.064300  0.000000  1.0  -0.0459
  C  C1787  1  0.072600  0.053200  0.000000  1.0  0.4002
  C  C1788  1  0.306800  0.188600  0.000000  1.0  -0.0019
  C  C1789  1  0.716200  0.852400  0.000000  1.0  0.0087
  C  C1790  1  0.775700  0.870900  0.000000  1.0  0.1261
  C  C1791  1  0.801900  0.884900  0.000000  1.0  -0.0818
  C  C1792  1  0.820900  0.900000  0.000000  1.0  0.0221
  C  C1793  1  0.847100  0.914300  0.000000  1.0  0.2126
  C  C1794  1  0.899500  0.935700  0.000000  1.0  -0.0449
  C  C1795  1  0.927400  0.946800  0.000000  1.0  0.4062
  C  C1796  1  0.693200  0.811400  0.000000  1.0  -0.0032
  C  C1797  1  0.283800  0.852400  0.000000  1.0  0.009
  C  C1798  1  0.224300  0.870900  0.000000  1.0  0.1299
  C  C1799  1  0.198100  0.884900  0.000000  1.0  -0.0829
  C  C1800  1  0.179100  0.900000  0.000000  1.0  0.0233
  C  C1801  1  0.152900  0.914300  0.000000  1.0  0.2107
  C  C1802  1  0.100500  0.935700  0.000000  1.0  -0.0463
  C  C1803  1  0.072600  0.946800  0.000000  1.0  0.4031
  C  C1804  1  0.306800  0.811400  0.000000  1.0  -0.0024
  C  C1805  1  0.216200  0.500000  0.352400  1.0  0.0078
  C  C1806  1  0.275700  0.500000  0.370900  1.0  0.1264
  C  C1807  1  0.301900  0.500000  0.384900  1.0  -0.0799
  C  C1808  1  0.320900  0.500000  0.400000  1.0  0.0219
  C  C1809  1  0.347100  0.500000  0.414300  1.0  0.2124
  C  C1810  1  0.399500  0.500000  0.435700  1.0  -0.0464
  C  C1811  1  0.427400  0.500000  0.446800  1.0  0.403
  C  C1812  1  0.193200  0.500000  0.311400  1.0  -0.0056
  C  C1813  1  0.783800  0.500000  0.352400  1.0  0.0077
  C  C1814  1  0.724300  0.500000  0.370900  1.0  0.1301
  C  C1815  1  0.698100  0.500000  0.384900  1.0  -0.0812
  C  C1816  1  0.679100  0.500000  0.400000  1.0  0.023
  C  C1817  1  0.652900  0.500000  0.414300  1.0  0.211
  C  C1818  1  0.600500  0.500000  0.435700  1.0  -0.0479
  C  C1819  1  0.572600  0.500000  0.446800  1.0  0.4011
  C  C1820  1  0.806800  0.500000  0.311400  1.0  -0.0052
  C  C1821  1  0.216200  0.500000  0.647600  1.0  0.0074
  C  C1822  1  0.275700  0.500000  0.629100  1.0  0.1261
  C  C1823  1  0.301900  0.500000  0.615100  1.0  -0.0794
  C  C1824  1  0.320900  0.500000  0.600000  1.0  0.022
  C  C1825  1  0.347100  0.500000  0.585700  1.0  0.2127
  C  C1826  1  0.399500  0.500000  0.564300  1.0  -0.0463
  C  C1827  1  0.427400  0.500000  0.553200  1.0  0.4035
  C  C1828  1  0.193200  0.500000  0.688600  1.0  -0.0047
  C  C1829  1  0.783800  0.500000  0.647600  1.0  0.0077
  C  C1830  1  0.724300  0.500000  0.629100  1.0  0.1297
  C  C1831  1  0.698100  0.500000  0.615100  1.0  -0.0806
  C  C1832  1  0.679100  0.500000  0.600000  1.0  0.0233
  C  C1833  1  0.652900  0.500000  0.585700  1.0  0.2116
  C  C1834  1  0.600500  0.500000  0.564300  1.0  -0.0474
  C  C1835  1  0.572600  0.500000  0.553200  1.0  0.4009
  C  C1836  1  0.806800  0.500000  0.688600  1.0  -0.0043
  C  C1837  1  0.500000  0.647600  0.783800  1.0  0.0084
  C  C1838  1  0.500000  0.629100  0.724300  1.0  0.1331
  C  C1839  1  0.500000  0.615100  0.698100  1.0  -0.0807
  C  C1840  1  0.500000  0.600000  0.679100  1.0  0.0222
  C  C1841  1  0.500000  0.585700  0.652900  1.0  0.2122
  C  C1842  1  0.500000  0.564300  0.600500  1.0  -0.0471
  C  C1843  1  0.500000  0.553200  0.572600  1.0  0.4016
  C  C1844  1  0.500000  0.688600  0.806800  1.0  -0.0006
  C  C1845  1  0.500000  0.647600  0.216200  1.0  0.009
  C  C1846  1  0.500000  0.629100  0.275700  1.0  0.1352
  C  C1847  1  0.500000  0.615100  0.301900  1.0  -0.08
  C  C1848  1  0.500000  0.600000  0.320900  1.0  0.0212
  C  C1849  1  0.500000  0.585700  0.347100  1.0  0.2135
  C  C1850  1  0.500000  0.564300  0.399500  1.0  -0.0461
  C  C1851  1  0.500000  0.553200  0.427400  1.0  0.4013
  C  C1852  1  0.500000  0.688600  0.193200  1.0  -0.0009
  C  C1853  1  0.500000  0.352400  0.783800  1.0  0.0081
  C  C1854  1  0.500000  0.370900  0.724300  1.0  0.1328
  C  C1855  1  0.500000  0.384900  0.698100  1.0  -0.081
  C  C1856  1  0.500000  0.400000  0.679100  1.0  0.0223
  C  C1857  1  0.500000  0.414300  0.652900  1.0  0.2128
  C  C1858  1  0.500000  0.435700  0.600500  1.0  -0.0474
  C  C1859  1  0.500000  0.446800  0.572600  1.0  0.405
  C  C1860  1  0.500000  0.311400  0.806800  1.0  -0.0017
  C  C1861  1  0.500000  0.352400  0.216200  1.0  0.009
  C  C1862  1  0.500000  0.370900  0.275700  1.0  0.1348
  C  C1863  1  0.500000  0.384900  0.301900  1.0  -0.0806
  C  C1864  1  0.500000  0.400000  0.320900  1.0  0.0214
  C  C1865  1  0.500000  0.414300  0.347100  1.0  0.2137
  C  C1866  1  0.500000  0.435700  0.399500  1.0  -0.0461
  C  C1867  1  0.500000  0.446800  0.427400  1.0  0.4038
  C  C1868  1  0.500000  0.311400  0.193200  1.0  -0.0016
  C  C1869  1  0.647600  0.216200  0.500000  1.0  0.009
  C  C1870  1  0.629100  0.275700  0.500000  1.0  0.1338
  C  C1871  1  0.615100  0.301900  0.500000  1.0  -0.0825
  C  C1872  1  0.600000  0.320900  0.500000  1.0  0.0206
  C  C1873  1  0.585700  0.347100  0.500000  1.0  0.2154
  C  C1874  1  0.564300  0.399500  0.500000  1.0  -0.048
  C  C1875  1  0.553200  0.427400  0.500000  1.0  0.4026
  C  C1876  1  0.688600  0.193200  0.500000  1.0  -0.0041
  C  C1877  1  0.647600  0.783800  0.500000  1.0  0.0087
  C  C1878  1  0.629100  0.724300  0.500000  1.0  0.1366
  C  C1879  1  0.615100  0.698100  0.500000  1.0  -0.082
  C  C1880  1  0.600000  0.679100  0.500000  1.0  0.0194
  C  C1881  1  0.585700  0.652900  0.500000  1.0  0.2142
  C  C1882  1  0.564300  0.600500  0.500000  1.0  -0.0492
  C  C1883  1  0.553200  0.572600  0.500000  1.0  0.4026
  C  C1884  1  0.688600  0.806800  0.500000  1.0  -0.0041
  C  C1885  1  0.352400  0.216200  0.500000  1.0  0.0093
  C  C1886  1  0.370900  0.275700  0.500000  1.0  0.1341
  C  C1887  1  0.384900  0.301900  0.500000  1.0  -0.0813
  C  C1888  1  0.400000  0.320900  0.500000  1.0  0.0199
  C  C1889  1  0.414300  0.347100  0.500000  1.0  0.2147
  C  C1890  1  0.435700  0.399500  0.500000  1.0  -0.0456
  C  C1891  1  0.446800  0.427400  0.500000  1.0  0.4053
  C  C1892  1  0.311400  0.193200  0.500000  1.0  -0.0025
  C  C1893  1  0.352400  0.783800  0.500000  1.0  0.0089
  C  C1894  1  0.370900  0.724300  0.500000  1.0  0.137
  C  C1895  1  0.384900  0.698100  0.500000  1.0  -0.0807
  C  C1896  1  0.400000  0.679100  0.500000  1.0  0.0186
  C  C1897  1  0.414300  0.652900  0.500000  1.0  0.213
  C  C1898  1  0.435700  0.600500  0.500000  1.0  -0.0468
  C  C1899  1  0.446800  0.572600  0.500000  1.0  0.4056
  C  C1900  1  0.311400  0.806800  0.500000  1.0  -0.0027
  O  O1901  1  0.251870  0.420230  0.975770  1.0  -0.6322
  O  O1902  1  0.211110  0.448040  0.947310  1.0  -0.684
  O  O1903  1  0.176750  0.527560  0.028870  1.0  -0.6508
  O  O1904  1  0.980200  0.929700  0.040000  1.0  -0.6511
  O  O1905  1  0.748130  0.579770  0.975770  1.0  -0.6314
  O  O1906  1  0.788890  0.551960  0.947310  1.0  -0.6822
  O  O1907  1  0.823250  0.472440  0.028870  1.0  -0.6492
  O  O1908  1  0.019800  0.070300  0.040000  1.0  -0.6514
  O  O1909  1  0.748130  0.420230  0.024230  1.0  -0.6305
  O  O1910  1  0.788890  0.448040  0.052690  1.0  -0.6839
  O  O1911  1  0.823250  0.527560  0.971130  1.0  -0.6502
  O  O1912  1  0.019800  0.929700  0.960000  1.0  -0.6507
  O  O1913  1  0.251870  0.579770  0.024230  1.0  -0.6312
  O  O1914  1  0.211110  0.551960  0.052690  1.0  -0.6824
  O  O1915  1  0.176750  0.472440  0.971130  1.0  -0.649
  O  O1916  1  0.980200  0.070300  0.960000  1.0  -0.6532
  O  O1917  1  0.975770  0.251870  0.420230  1.0  -0.6313
  O  O1918  1  0.947310  0.211110  0.448040  1.0  -0.6852
  O  O1919  1  0.028870  0.176750  0.527560  1.0  -0.6481
  O  O1920  1  0.040000  0.980200  0.929700  1.0  -0.6492
  O  O1921  1  0.975770  0.748130  0.579770  1.0  -0.6309
  O  O1922  1  0.947310  0.788890  0.551960  1.0  -0.6859
  O  O1923  1  0.028870  0.823250  0.472440  1.0  -0.6458
  O  O1924  1  0.040000  0.019800  0.070300  1.0  -0.6484
  O  O1925  1  0.024230  0.748130  0.420230  1.0  -0.6296
  O  O1926  1  0.052690  0.788890  0.448040  1.0  -0.6854
  O  O1927  1  0.971130  0.823250  0.527560  1.0  -0.6469
  O  O1928  1  0.960000  0.019800  0.929700  1.0  -0.6503
  O  O1929  1  0.024230  0.251870  0.579770  1.0  -0.6301
  O  O1930  1  0.052690  0.211110  0.551960  1.0  -0.6847
  O  O1931  1  0.971130  0.176750  0.472440  1.0  -0.6483
  O  O1932  1  0.960000  0.980200  0.070300  1.0  -0.6479
  O  O1933  1  0.420230  0.975770  0.251870  1.0  -0.6345
  O  O1934  1  0.448040  0.947310  0.211110  1.0  -0.6838
  O  O1935  1  0.527560  0.028870  0.176750  1.0  -0.649
  O  O1936  1  0.929700  0.040000  0.980200  1.0  -0.6488
  O  O1937  1  0.579770  0.975770  0.748130  1.0  -0.6335
  O  O1938  1  0.551960  0.947310  0.788890  1.0  -0.6847
  O  O1939  1  0.472440  0.028870  0.823250  1.0  -0.6491
  O  O1940  1  0.070300  0.040000  0.019800  1.0  -0.6478
  O  O1941  1  0.420230  0.024230  0.748130  1.0  -0.6345
  O  O1942  1  0.448040  0.052690  0.788890  1.0  -0.6842
  O  O1943  1  0.527560  0.971130  0.823250  1.0  -0.6467
  O  O1944  1  0.929700  0.960000  0.019800  1.0  -0.6477
  O  O1945  1  0.579770  0.024230  0.251870  1.0  -0.6331
  O  O1946  1  0.551960  0.052690  0.211110  1.0  -0.684
  O  O1947  1  0.472440  0.971130  0.176750  1.0  -0.6478
  O  O1948  1  0.070300  0.960000  0.980200  1.0  -0.6483
  O  O1949  1  0.920230  0.751870  0.524230  1.0  -0.6341
  O  O1950  1  0.948040  0.711110  0.552690  1.0  -0.6864
  O  O1951  1  0.027560  0.676750  0.471130  1.0  -0.6481
  O  O1952  1  0.429700  0.480200  0.460000  1.0  -0.6485
  O  O1953  1  0.079770  0.248130  0.524230  1.0  -0.6334
  O  O1954  1  0.051960  0.288890  0.552690  1.0  -0.6868
  O  O1955  1  0.972440  0.323250  0.471130  1.0  -0.647
  O  O1956  1  0.570300  0.519800  0.460000  1.0  -0.649
  O  O1957  1  0.920230  0.248130  0.475770  1.0  -0.6356
  O  O1958  1  0.948040  0.288890  0.447310  1.0  -0.6869
  O  O1959  1  0.027560  0.323250  0.528870  1.0  -0.6466
  O  O1960  1  0.429700  0.519800  0.540000  1.0  -0.6509
  O  O1961  1  0.079770  0.751870  0.475770  1.0  -0.6342
  O  O1962  1  0.051960  0.711110  0.447310  1.0  -0.6859
  O  O1963  1  0.972440  0.676750  0.528870  1.0  -0.649
  O  O1964  1  0.570300  0.480200  0.540000  1.0  -0.6504
  O  O1965  1  0.751870  0.475770  0.079770  1.0  -0.6315
  O  O1966  1  0.711110  0.447310  0.051960  1.0  -0.6821
  O  O1967  1  0.676750  0.528870  0.972440  1.0  -0.6503
  O  O1968  1  0.480200  0.540000  0.570300  1.0  -0.651
  O  O1969  1  0.248130  0.475770  0.920230  1.0  -0.6304
  O  O1970  1  0.288890  0.447310  0.948040  1.0  -0.6824
  O  O1971  1  0.323250  0.528870  0.027560  1.0  -0.6505
  O  O1972  1  0.519800  0.540000  0.429700  1.0  -0.6512
  O  O1973  1  0.248130  0.524230  0.079770  1.0  -0.6305
  O  O1974  1  0.288890  0.552690  0.051960  1.0  -0.6818
  O  O1975  1  0.323250  0.471130  0.972440  1.0  -0.6489
  O  O1976  1  0.519800  0.460000  0.570300  1.0  -0.6507
  O  O1977  1  0.751870  0.524230  0.920230  1.0  -0.6308
  O  O1978  1  0.711110  0.552690  0.948040  1.0  -0.6821
  O  O1979  1  0.676750  0.471130  0.027560  1.0  -0.6495
  O  O1980  1  0.480200  0.460000  0.429700  1.0  -0.6515
  O  O1981  1  0.475770  0.920230  0.248130  1.0  -0.6302
  O  O1982  1  0.447310  0.948040  0.288890  1.0  -0.6857
  O  O1983  1  0.528870  0.027560  0.323250  1.0  -0.6481
  O  O1984  1  0.540000  0.429700  0.519800  1.0  -0.6473
  O  O1985  1  0.475770  0.079770  0.751870  1.0  -0.6305
  O  O1986  1  0.447310  0.051960  0.711110  1.0  -0.6842
  O  O1987  1  0.528870  0.972440  0.676750  1.0  -0.6464
  O  O1988  1  0.540000  0.570300  0.480200  1.0  -0.6487
  O  O1989  1  0.524230  0.920230  0.751870  1.0  -0.6291
  O  O1990  1  0.552690  0.948040  0.711110  1.0  -0.6849
  O  O1991  1  0.471130  0.027560  0.676750  1.0  -0.6488
  O  O1992  1  0.460000  0.429700  0.480200  1.0  -0.6488
  O  O1993  1  0.524230  0.079770  0.248130  1.0  -0.6295
  O  O1994  1  0.552690  0.051960  0.288890  1.0  -0.6842
  O  O1995  1  0.471130  0.972440  0.323250  1.0  -0.6473
  O  O1996  1  0.460000  0.570300  0.519800  1.0  -0.6502
  O  O1997  1  0.748130  0.579770  0.024230  1.0  -0.6306
  O  O1998  1  0.788890  0.551960  0.052690  1.0  -0.6824
  O  O1999  1  0.823250  0.472440  0.971130  1.0  -0.649
  O  O2000  1  0.019800  0.070300  0.960000  1.0  -0.651
  O  O2001  1  0.251870  0.420230  0.024230  1.0  -0.6311
  O  O2002  1  0.211110  0.448040  0.052690  1.0  -0.6841
  O  O2003  1  0.176750  0.527560  0.971130  1.0  -0.6503
  O  O2004  1  0.980200  0.929700  0.960000  1.0  -0.6509
  O  O2005  1  0.251870  0.579770  0.975770  1.0  -0.6321
  O  O2006  1  0.211110  0.551960  0.947310  1.0  -0.6821
  O  O2007  1  0.176750  0.472440  0.028870  1.0  -0.6498
  O  O2008  1  0.980200  0.070300  0.040000  1.0  -0.6537
  O  O2009  1  0.748130  0.420230  0.975770  1.0  -0.6317
  O  O2010  1  0.788890  0.448040  0.947310  1.0  -0.684
  O  O2011  1  0.823250  0.527560  0.028870  1.0  -0.6501
  O  O2012  1  0.019800  0.929700  0.040000  1.0  -0.651
  O  O2013  1  0.024230  0.748130  0.579770  1.0  -0.63
  O  O2014  1  0.052690  0.788890  0.551960  1.0  -0.6856
  O  O2015  1  0.971130  0.823250  0.472440  1.0  -0.6465
  O  O2016  1  0.960000  0.019800  0.070300  1.0  -0.6502
  O  O2017  1  0.024230  0.251870  0.420230  1.0  -0.6297
  O  O2018  1  0.052690  0.211110  0.448040  1.0  -0.6849
  O  O2019  1  0.971130  0.176750  0.527560  1.0  -0.6485
  O  O2020  1  0.960000  0.980200  0.929700  1.0  -0.6493
  O  O2021  1  0.975770  0.251870  0.579770  1.0  -0.6309
  O  O2022  1  0.947310  0.211110  0.551960  1.0  -0.6846
  O  O2023  1  0.028870  0.176750  0.472440  1.0  -0.6479
  O  O2024  1  0.040000  0.980200  0.070300  1.0  -0.6479
  O  O2025  1  0.975770  0.748130  0.420230  1.0  -0.6312
  O  O2026  1  0.947310  0.788890  0.448040  1.0  -0.6861
  O  O2027  1  0.028870  0.823250  0.527560  1.0  -0.6461
  O  O2028  1  0.040000  0.019800  0.929700  1.0  -0.6483
  O  O2029  1  0.579770  0.024230  0.748130  1.0  -0.6336
  O  O2030  1  0.551960  0.052690  0.788890  1.0  -0.684
  O  O2031  1  0.472440  0.971130  0.823250  1.0  -0.6479
  O  O2032  1  0.070300  0.960000  0.019800  1.0  -0.6478
  O  O2033  1  0.420230  0.024230  0.251870  1.0  -0.6344
  O  O2034  1  0.448040  0.052690  0.211110  1.0  -0.6841
  O  O2035  1  0.527560  0.971130  0.176750  1.0  -0.647
  O  O2036  1  0.929700  0.960000  0.980200  1.0  -0.6482
  O  O2037  1  0.579770  0.975770  0.251870  1.0  -0.6334
  O  O2038  1  0.551960  0.947310  0.211110  1.0  -0.6837
  O  O2039  1  0.472440  0.028870  0.176750  1.0  -0.6496
  O  O2040  1  0.070300  0.040000  0.980200  1.0  -0.6484
  O  O2041  1  0.420230  0.975770  0.748130  1.0  -0.6342
  O  O2042  1  0.448040  0.947310  0.788890  1.0  -0.6847
  O  O2043  1  0.527560  0.028870  0.823250  1.0  -0.6482
  O  O2044  1  0.929700  0.040000  0.019800  1.0  -0.6478
  O  O2045  1  0.079770  0.248130  0.475770  1.0  -0.634
  O  O2046  1  0.051960  0.288890  0.447310  1.0  -0.6861
  O  O2047  1  0.972440  0.323250  0.528870  1.0  -0.6475
  O  O2048  1  0.570300  0.519800  0.540000  1.0  -0.6487
  O  O2049  1  0.920230  0.751870  0.475770  1.0  -0.6358
  O  O2050  1  0.948040  0.711110  0.447310  1.0  -0.6865
  O  O2051  1  0.027560  0.676750  0.528870  1.0  -0.6485
  O  O2052  1  0.429700  0.480200  0.540000  1.0  -0.6486
  O  O2053  1  0.079770  0.751870  0.524230  1.0  -0.633
  O  O2054  1  0.051960  0.711110  0.552690  1.0  -0.6866
  O  O2055  1  0.972440  0.676750  0.471130  1.0  -0.6488
  O  O2056  1  0.570300  0.480200  0.460000  1.0  -0.651
  O  O2057  1  0.920230  0.248130  0.524230  1.0  -0.6344
  O  O2058  1  0.948040  0.288890  0.552690  1.0  -0.6869
  O  O2059  1  0.027560  0.323250  0.471130  1.0  -0.6458
  O  O2060  1  0.429700  0.519800  0.460000  1.0  -0.6507
  O  O2061  1  0.248130  0.524230  0.920230  1.0  -0.6299
  O  O2062  1  0.288890  0.552690  0.948040  1.0  -0.6818
  O  O2063  1  0.323250  0.471130  0.027560  1.0  -0.6489
  O  O2064  1  0.519800  0.460000  0.429700  1.0  -0.651
  O  O2065  1  0.751870  0.524230  0.079770  1.0  -0.631
  O  O2066  1  0.711110  0.552690  0.051960  1.0  -0.6822
  O  O2067  1  0.676750  0.471130  0.972440  1.0  -0.6487
  O  O2068  1  0.480200  0.460000  0.570300  1.0  -0.6506
  O  O2069  1  0.751870  0.475770  0.920230  1.0  -0.6312
  O  O2070  1  0.711110  0.447310  0.948040  1.0  -0.6826
  O  O2071  1  0.676750  0.528870  0.027560  1.0  -0.6514
  O  O2072  1  0.480200  0.540000  0.429700  1.0  -0.6523
  O  O2073  1  0.248130  0.475770  0.079770  1.0  -0.6311
  O  O2074  1  0.288890  0.447310  0.051960  1.0  -0.682
  O  O2075  1  0.323250  0.528870  0.972440  1.0  -0.6503
  O  O2076  1  0.519800  0.540000  0.570300  1.0  -0.6507
  O  O2077  1  0.524230  0.079770  0.751870  1.0  -0.6289
  O  O2078  1  0.552690  0.051960  0.711110  1.0  -0.6836
  O  O2079  1  0.471130  0.972440  0.676750  1.0  -0.6473
  O  O2080  1  0.460000  0.570300  0.480200  1.0  -0.6504
  O  O2081  1  0.524230  0.920230  0.248130  1.0  -0.6293
  O  O2082  1  0.552690  0.948040  0.288890  1.0  -0.6861
  O  O2083  1  0.471130  0.027560  0.323250  1.0  -0.6485
  O  O2084  1  0.460000  0.429700  0.519800  1.0  -0.6479
  O  O2085  1  0.475770  0.079770  0.248130  1.0  -0.631
  O  O2086  1  0.447310  0.051960  0.288890  1.0  -0.6839
  O  O2087  1  0.528870  0.972440  0.323250  1.0  -0.6468
  O  O2088  1  0.540000  0.570300  0.519800  1.0  -0.6485
  O  O2089  1  0.475770  0.920230  0.751870  1.0  -0.6302
  O  O2090  1  0.447310  0.948040  0.711110  1.0  -0.6853
  O  O2091  1  0.528870  0.027560  0.676750  1.0  -0.648
  O  O2092  1  0.540000  0.429700  0.480200  1.0  -0.6478
  O  O2093  1  0.222160  0.460320  0.000000  1.0  -0.9105
  O  O2094  1  0.272680  0.467810  0.000000  1.0  -0.8693
  O  O2095  1  0.017800  0.956600  0.000000  1.0  -0.7637
  O  O2096  1  0.777840  0.539680  0.000000  1.0  -0.9102
  O  O2097  1  0.727320  0.532190  0.000000  1.0  -0.8707
  O  O2098  1  0.982200  0.043400  0.000000  1.0  -0.763
  O  O2099  1  0.777840  0.460320  0.000000  1.0  -0.9102
  O  O2100  1  0.727320  0.467810  0.000000  1.0  -0.8706
  O  O2101  1  0.982200  0.956600  0.000000  1.0  -0.7626
  O  O2102  1  0.222160  0.539680  0.000000  1.0  -0.9108
  O  O2103  1  0.272680  0.532190  0.000000  1.0  -0.8691
  O  O2104  1  0.017800  0.043400  0.000000  1.0  -0.7643
  O  O2105  1  0.000000  0.222160  0.460320  1.0  -0.9086
  O  O2106  1  0.000000  0.272680  0.467810  1.0  -0.8681
  O  O2107  1  0.000000  0.017800  0.956600  1.0  -0.7584
  O  O2108  1  0.000000  0.777840  0.539680  1.0  -0.9072
  O  O2109  1  0.000000  0.727320  0.532190  1.0  -0.8673
  O  O2110  1  0.000000  0.982200  0.043400  1.0  -0.7588
  O  O2111  1  0.000000  0.777840  0.460320  1.0  -0.9085
  O  O2112  1  0.000000  0.727320  0.467810  1.0  -0.8679
  O  O2113  1  0.000000  0.982200  0.956600  1.0  -0.7586
  O  O2114  1  0.000000  0.222160  0.539680  1.0  -0.9083
  O  O2115  1  0.000000  0.272680  0.532190  1.0  -0.8679
  O  O2116  1  0.000000  0.017800  0.043400  1.0  -0.7599
  O  O2117  1  0.460320  0.000000  0.222160  1.0  -0.9065
  O  O2118  1  0.467810  0.000000  0.272680  1.0  -0.8701
  O  O2119  1  0.956600  0.000000  0.017800  1.0  -0.7625
  O  O2120  1  0.539680  0.000000  0.777840  1.0  -0.9069
  O  O2121  1  0.532190  0.000000  0.727320  1.0  -0.8681
  O  O2122  1  0.043400  0.000000  0.982200  1.0  -0.7629
  O  O2123  1  0.460320  0.000000  0.777840  1.0  -0.9061
  O  O2124  1  0.467810  0.000000  0.727320  1.0  -0.8692
  O  O2125  1  0.956600  0.000000  0.982200  1.0  -0.7631
  O  O2126  1  0.539680  0.000000  0.222160  1.0  -0.9076
  O  O2127  1  0.532190  0.000000  0.272680  1.0  -0.8689
  O  O2128  1  0.043400  0.000000  0.017800  1.0  -0.7623
  O  O2129  1  0.960320  0.722160  0.500000  1.0  -0.908
  O  O2130  1  0.967810  0.772680  0.500000  1.0  -0.8703
  O  O2131  1  0.456600  0.517800  0.500000  1.0  -0.7644
  O  O2132  1  0.039680  0.277840  0.500000  1.0  -0.9088
  O  O2133  1  0.032190  0.227320  0.500000  1.0  -0.8687
  O  O2134  1  0.543400  0.482200  0.500000  1.0  -0.7642
  O  O2135  1  0.960320  0.277840  0.500000  1.0  -0.908
  O  O2136  1  0.967810  0.227320  0.500000  1.0  -0.8699
  O  O2137  1  0.456600  0.482200  0.500000  1.0  -0.7637
  O  O2138  1  0.039680  0.722160  0.500000  1.0  -0.9091
  O  O2139  1  0.032190  0.772680  0.500000  1.0  -0.8694
  O  O2140  1  0.543400  0.517800  0.500000  1.0  -0.7639
  O  O2141  1  0.722160  0.500000  0.039680  1.0  -0.9078
  O  O2142  1  0.772680  0.500000  0.032190  1.0  -0.8675
  O  O2143  1  0.517800  0.500000  0.543400  1.0  -0.7619
  O  O2144  1  0.277840  0.500000  0.960320  1.0  -0.9082
  O  O2145  1  0.227320  0.500000  0.967810  1.0  -0.8696
  O  O2146  1  0.482200  0.500000  0.456600  1.0  -0.7604
  O  O2147  1  0.277840  0.500000  0.039680  1.0  -0.9068
  O  O2148  1  0.227320  0.500000  0.032190  1.0  -0.8693
  O  O2149  1  0.482200  0.500000  0.543400  1.0  -0.7617
  O  O2150  1  0.722160  0.500000  0.960320  1.0  -0.9087
  O  O2151  1  0.772680  0.500000  0.967810  1.0  -0.8684
  O  O2152  1  0.517800  0.500000  0.456600  1.0  -0.762
  O  O2153  1  0.500000  0.960320  0.277840  1.0  -0.9088
  O  O2154  1  0.500000  0.967810  0.227320  1.0  -0.8681
  O  O2155  1  0.500000  0.456600  0.482200  1.0  -0.759
  O  O2156  1  0.500000  0.039680  0.722160  1.0  -0.9092
  O  O2157  1  0.500000  0.032190  0.772680  1.0  -0.8686
  O  O2158  1  0.500000  0.543400  0.517800  1.0  -0.7592
  O  O2159  1  0.500000  0.960320  0.722160  1.0  -0.9089
  O  O2160  1  0.500000  0.967810  0.772680  1.0  -0.869
  O  O2161  1  0.500000  0.456600  0.517800  1.0  -0.7593
  O  O2162  1  0.500000  0.039680  0.277840  1.0  -0.9083
  O  O2163  1  0.500000  0.032190  0.227320  1.0  -0.8679
  O  O2164  1  0.500000  0.543400  0.482200  1.0  -0.7595
  F  F2165  1  0.027700  0.643400  0.182600  1.0  -0.1913
  F  F2166  1  0.065800  0.611700  0.163300  1.0  -0.1827
  F  F2167  1  0.067500  0.661000  0.084100  1.0  -0.1798
  F  F2168  1  0.025800  0.691000  0.104000  1.0  -0.2444
  F  F2169  1  0.045900  0.720300  0.142800  1.0  -0.1765
  F  F2170  1  0.045100  0.773700  0.131000  1.0  -0.1848
  F  F2171  1  0.046100  0.692300  0.191500  1.0  -0.1461
  F  F2172  1  0.293700  0.245400  0.045300  1.0  -0.1789
  F  F2173  1  0.972300  0.356600  0.182600  1.0  -0.1887
  F  F2174  1  0.934200  0.388300  0.163300  1.0  -0.1816
  F  F2175  1  0.932500  0.339000  0.084100  1.0  -0.1791
  F  F2176  1  0.974200  0.309000  0.104000  1.0  -0.2455
  F  F2177  1  0.954100  0.279700  0.142800  1.0  -0.1721
  F  F2178  1  0.954900  0.226300  0.131000  1.0  -0.1847
  F  F2179  1  0.953900  0.307700  0.191500  1.0  -0.1421
  F  F2180  1  0.706300  0.754600  0.045300  1.0  -0.1784
  F  F2181  1  0.972300  0.643400  0.817400  1.0  -0.1906
  F  F2182  1  0.934200  0.611700  0.836700  1.0  -0.1813
  F  F2183  1  0.932500  0.661000  0.915900  1.0  -0.1787
  F  F2184  1  0.974200  0.691000  0.896000  1.0  -0.2454
  F  F2185  1  0.954100  0.720300  0.857200  1.0  -0.1723
  F  F2186  1  0.954900  0.773700  0.869000  1.0  -0.1853
  F  F2187  1  0.953900  0.692300  0.808500  1.0  -0.1426
  F  F2188  1  0.706300  0.245400  0.954700  1.0  -0.1794
  F  F2189  1  0.027700  0.356600  0.817400  1.0  -0.1903
  F  F2190  1  0.065800  0.388300  0.836700  1.0  -0.1822
  F  F2191  1  0.067500  0.339000  0.915900  1.0  -0.1769
  F  F2192  1  0.025800  0.309000  0.896000  1.0  -0.2455
  F  F2193  1  0.045900  0.279700  0.857200  1.0  -0.1776
  F  F2194  1  0.045100  0.226300  0.869000  1.0  -0.1848
  F  F2195  1  0.046100  0.307700  0.808500  1.0  -0.1454
  F  F2196  1  0.293700  0.754600  0.954700  1.0  -0.1784
  F  F2197  1  0.182600  0.027700  0.643400  1.0  -0.1868
  F  F2198  1  0.163300  0.065800  0.611700  1.0  -0.1796
  F  F2199  1  0.084100  0.067500  0.661000  1.0  -0.1753
  F  F2200  1  0.104000  0.025800  0.691000  1.0  -0.2414
  F  F2201  1  0.142800  0.045900  0.720300  1.0  -0.182
  F  F2202  1  0.131000  0.045100  0.773700  1.0  -0.1888
  F  F2203  1  0.191500  0.046100  0.692300  1.0  -0.1505
  F  F2204  1  0.045300  0.293700  0.245400  1.0  -0.1791
  F  F2205  1  0.182600  0.972300  0.356600  1.0  -0.1878
  F  F2206  1  0.163300  0.934200  0.388300  1.0  -0.1842
  F  F2207  1  0.084100  0.932500  0.339000  1.0  -0.1762
  F  F2208  1  0.104000  0.974200  0.309000  1.0  -0.2402
  F  F2209  1  0.142800  0.954100  0.279700  1.0  -0.1816
  F  F2210  1  0.131000  0.954900  0.226300  1.0  -0.1884
  F  F2211  1  0.191500  0.953900  0.307700  1.0  -0.1531
  F  F2212  1  0.045300  0.706300  0.754600  1.0  -0.179
  F  F2213  1  0.817400  0.972300  0.643400  1.0  -0.1838
  F  F2214  1  0.836700  0.934200  0.611700  1.0  -0.1821
  F  F2215  1  0.915900  0.932500  0.661000  1.0  -0.1778
  F  F2216  1  0.896000  0.974200  0.691000  1.0  -0.2394
  F  F2217  1  0.857200  0.954100  0.720300  1.0  -0.1828
  F  F2218  1  0.869000  0.954900  0.773700  1.0  -0.1897
  F  F2219  1  0.808500  0.953900  0.692300  1.0  -0.1527
  F  F2220  1  0.954700  0.706300  0.245400  1.0  -0.1765
  F  F2221  1  0.817400  0.027700  0.356600  1.0  -0.1833
  F  F2222  1  0.836700  0.065800  0.388300  1.0  -0.1839
  F  F2223  1  0.915900  0.067500  0.339000  1.0  -0.1778
  F  F2224  1  0.896000  0.025800  0.309000  1.0  -0.2382
  F  F2225  1  0.857200  0.045900  0.279700  1.0  -0.1816
  F  F2226  1  0.869000  0.045100  0.226300  1.0  -0.1898
  F  F2227  1  0.808500  0.046100  0.307700  1.0  -0.1519
  F  F2228  1  0.954700  0.293700  0.754600  1.0  -0.1769
  F  F2229  1  0.643400  0.182600  0.027700  1.0  -0.1866
  F  F2230  1  0.611700  0.163300  0.065800  1.0  -0.1799
  F  F2231  1  0.661000  0.084100  0.067500  1.0  -0.178
  F  F2232  1  0.691000  0.104000  0.025800  1.0  -0.2464
  F  F2233  1  0.720300  0.142800  0.045900  1.0  -0.1839
  F  F2234  1  0.773700  0.131000  0.045100  1.0  -0.1872
  F  F2235  1  0.692300  0.191500  0.046100  1.0  -0.1524
  F  F2236  1  0.245400  0.045300  0.293700  1.0  -0.1781
  F  F2237  1  0.356600  0.182600  0.972300  1.0  -0.1885
  F  F2238  1  0.388300  0.163300  0.934200  1.0  -0.1768
  F  F2239  1  0.339000  0.084100  0.932500  1.0  -0.1791
  F  F2240  1  0.309000  0.104000  0.974200  1.0  -0.2461
  F  F2241  1  0.279700  0.142800  0.954100  1.0  -0.1845
  F  F2242  1  0.226300  0.131000  0.954900  1.0  -0.1875
  F  F2243  1  0.307700  0.191500  0.953900  1.0  -0.1527
  F  F2244  1  0.754600  0.045300  0.706300  1.0  -0.1787
  F  F2245  1  0.643400  0.817400  0.972300  1.0  -0.1864
  F  F2246  1  0.611700  0.836700  0.934200  1.0  -0.1788
  F  F2247  1  0.661000  0.915900  0.932500  1.0  -0.1784
  F  F2248  1  0.691000  0.896000  0.974200  1.0  -0.2463
  F  F2249  1  0.720300  0.857200  0.954100  1.0  -0.1823
  F  F2250  1  0.773700  0.869000  0.954900  1.0  -0.1857
  F  F2251  1  0.692300  0.808500  0.953900  1.0  -0.1506
  F  F2252  1  0.245400  0.954700  0.706300  1.0  -0.1783
  F  F2253  1  0.356600  0.817400  0.027700  1.0  -0.1881
  F  F2254  1  0.388300  0.836700  0.065800  1.0  -0.1782
  F  F2255  1  0.339000  0.915900  0.067500  1.0  -0.1786
  F  F2256  1  0.309000  0.896000  0.025800  1.0  -0.2443
  F  F2257  1  0.279700  0.857200  0.045900  1.0  -0.1839
  F  F2258  1  0.226300  0.869000  0.045100  1.0  -0.1882
  F  F2259  1  0.307700  0.808500  0.046100  1.0  -0.1519
  F  F2260  1  0.754600  0.954700  0.293700  1.0  -0.1776
  F  F2261  1  0.143400  0.527700  0.317400  1.0  -0.1881
  F  F2262  1  0.111700  0.565800  0.336700  1.0  -0.1813
  F  F2263  1  0.161000  0.567500  0.415900  1.0  -0.1769
  F  F2264  1  0.191000  0.525800  0.396000  1.0  -0.2433
  F  F2265  1  0.220300  0.545900  0.357200  1.0  -0.1824
  F  F2266  1  0.273700  0.545100  0.369000  1.0  -0.1866
  F  F2267  1  0.192300  0.546100  0.308500  1.0  -0.1497
  F  F2268  1  0.745400  0.793700  0.454700  1.0  -0.1794
  F  F2269  1  0.856600  0.472300  0.317400  1.0  -0.1902
  F  F2270  1  0.888300  0.434200  0.336700  1.0  -0.1784
  F  F2271  1  0.839000  0.432500  0.415900  1.0  -0.178
  F  F2272  1  0.809000  0.474200  0.396000  1.0  -0.2437
  F  F2273  1  0.779700  0.454100  0.357200  1.0  -0.1841
  F  F2274  1  0.726300  0.454900  0.369000  1.0  -0.1883
  F  F2275  1  0.807700  0.453900  0.308500  1.0  -0.1503
  F  F2276  1  0.254600  0.206300  0.454700  1.0  -0.1784
  F  F2277  1  0.143400  0.472300  0.682600  1.0  -0.1874
  F  F2278  1  0.111700  0.434200  0.663300  1.0  -0.1801
  F  F2279  1  0.161000  0.432500  0.584100  1.0  -0.1784
  F  F2280  1  0.191000  0.474200  0.604000  1.0  -0.2428
  F  F2281  1  0.220300  0.454100  0.642800  1.0  -0.1841
  F  F2282  1  0.273700  0.454900  0.631000  1.0  -0.1871
  F  F2283  1  0.192300  0.453900  0.691500  1.0  -0.1513
  F  F2284  1  0.745400  0.206300  0.545300  1.0  -0.1785
  F  F2285  1  0.856600  0.527700  0.682600  1.0  -0.1902
  F  F2286  1  0.888300  0.565800  0.663300  1.0  -0.1799
  F  F2287  1  0.839000  0.567500  0.584100  1.0  -0.1805
  F  F2288  1  0.809000  0.525800  0.604000  1.0  -0.2436
  F  F2289  1  0.779700  0.545900  0.642800  1.0  -0.1841
  F  F2290  1  0.726300  0.545100  0.631000  1.0  -0.1874
  F  F2291  1  0.807700  0.546100  0.691500  1.0  -0.15
  F  F2292  1  0.254600  0.793700  0.545300  1.0  -0.1799
  F  F2293  1  0.527700  0.682600  0.856600  1.0  -0.1872
  F  F2294  1  0.565800  0.663300  0.888300  1.0  -0.1858
  F  F2295  1  0.567500  0.584100  0.839000  1.0  -0.1786
  F  F2296  1  0.525800  0.604000  0.809000  1.0  -0.2479
  F  F2297  1  0.545900  0.642800  0.779700  1.0  -0.1764
  F  F2298  1  0.545100  0.631000  0.726300  1.0  -0.1878
  F  F2299  1  0.546100  0.691500  0.807700  1.0  -0.1454
  F  F2300  1  0.793700  0.545300  0.254600  1.0  -0.1821
  F  F2301  1  0.472300  0.682600  0.143400  1.0  -0.1874
  F  F2302  1  0.434200  0.663300  0.111700  1.0  -0.1841
  F  F2303  1  0.432500  0.584100  0.161000  1.0  -0.178
  F  F2304  1  0.474200  0.604000  0.191000  1.0  -0.2475
  F  F2305  1  0.454100  0.642800  0.220300  1.0  -0.1729
  F  F2306  1  0.454900  0.631000  0.273700  1.0  -0.1882
  F  F2307  1  0.453900  0.691500  0.192300  1.0  -0.1434
  F  F2308  1  0.206300  0.545300  0.745400  1.0  -0.1812
  F  F2309  1  0.472300  0.317400  0.856600  1.0  -0.1864
  F  F2310  1  0.434200  0.336700  0.888300  1.0  -0.1851
  F  F2311  1  0.432500  0.415900  0.839000  1.0  -0.1778
  F  F2312  1  0.474200  0.396000  0.809000  1.0  -0.2453
  F  F2313  1  0.454100  0.357200  0.779700  1.0  -0.1726
  F  F2314  1  0.454900  0.369000  0.726300  1.0  -0.1871
  F  F2315  1  0.453900  0.308500  0.807700  1.0  -0.142
  F  F2316  1  0.206300  0.454700  0.254600  1.0  -0.18
  F  F2317  1  0.527700  0.317400  0.143400  1.0  -0.1875
  F  F2318  1  0.565800  0.336700  0.111700  1.0  -0.1818
  F  F2319  1  0.567500  0.415900  0.161000  1.0  -0.1772
  F  F2320  1  0.525800  0.396000  0.191000  1.0  -0.2475
  F  F2321  1  0.545900  0.357200  0.220300  1.0  -0.1779
  F  F2322  1  0.545100  0.369000  0.273700  1.0  -0.1897
  F  F2323  1  0.546100  0.308500  0.192300  1.0  -0.1451
  F  F2324  1  0.793700  0.454700  0.745400  1.0  -0.1802
  F  F2325  1  0.682600  0.143400  0.472300  1.0  -0.1886
  F  F2326  1  0.663300  0.111700  0.434200  1.0  -0.1774
  F  F2327  1  0.584100  0.161000  0.432500  1.0  -0.1764
  F  F2328  1  0.604000  0.191000  0.474200  1.0  -0.2417
  F  F2329  1  0.642800  0.220300  0.454100  1.0  -0.1828
  F  F2330  1  0.631000  0.273700  0.454900  1.0  -0.1886
  F  F2331  1  0.691500  0.192300  0.453900  1.0  -0.1515
  F  F2332  1  0.545300  0.745400  0.206300  1.0  -0.177
  F  F2333  1  0.682600  0.856600  0.527700  1.0  -0.1876
  F  F2334  1  0.663300  0.888300  0.565800  1.0  -0.18
  F  F2335  1  0.584100  0.839000  0.567500  1.0  -0.1752
  F  F2336  1  0.604000  0.809000  0.525800  1.0  -0.2406
  F  F2337  1  0.642800  0.779700  0.545900  1.0  -0.1825
  F  F2338  1  0.631000  0.726300  0.545100  1.0  -0.1882
  F  F2339  1  0.691500  0.807700  0.546100  1.0  -0.1539
  F  F2340  1  0.545300  0.254600  0.793700  1.0  -0.1766
  F  F2341  1  0.317400  0.143400  0.527700  1.0  -0.1851
  F  F2342  1  0.336700  0.111700  0.565800  1.0  -0.179
  F  F2343  1  0.415900  0.161000  0.567500  1.0  -0.178
  F  F2344  1  0.396000  0.191000  0.525800  1.0  -0.2387
  F  F2345  1  0.357200  0.220300  0.545900  1.0  -0.1813
  F  F2346  1  0.369000  0.273700  0.545100  1.0  -0.1878
  F  F2347  1  0.308500  0.192300  0.546100  1.0  -0.153
  F  F2348  1  0.454700  0.745400  0.793700  1.0  -0.1747
  F  F2349  1  0.317400  0.856600  0.472300  1.0  -0.184
  F  F2350  1  0.336700  0.888300  0.434200  1.0  -0.1804
  F  F2351  1  0.415900  0.839000  0.432500  1.0  -0.1786
  F  F2352  1  0.396000  0.809000  0.474200  1.0  -0.2397
  F  F2353  1  0.357200  0.779700  0.454100  1.0  -0.1819
  F  F2354  1  0.369000  0.726300  0.454900  1.0  -0.1868
  F  F2355  1  0.308500  0.807700  0.453900  1.0  -0.1524
  F  F2356  1  0.454700  0.254600  0.206300  1.0  -0.1745
  F  F2357  1  0.972300  0.356600  0.817400  1.0  -0.1899
  F  F2358  1  0.934200  0.388300  0.836700  1.0  -0.1824
  F  F2359  1  0.932500  0.339000  0.915900  1.0  -0.1785
  F  F2360  1  0.974200  0.309000  0.896000  1.0  -0.2448
  F  F2361  1  0.954100  0.279700  0.857200  1.0  -0.1719
  F  F2362  1  0.954900  0.226300  0.869000  1.0  -0.1855
  F  F2363  1  0.953900  0.307700  0.808500  1.0  -0.1423
  F  F2364  1  0.706300  0.754600  0.954700  1.0  -0.1788
  F  F2365  1  0.027700  0.643400  0.817400  1.0  -0.1912
  F  F2366  1  0.065800  0.611700  0.836700  1.0  -0.1813
  F  F2367  1  0.067500  0.661000  0.915900  1.0  -0.177
  F  F2368  1  0.025800  0.691000  0.896000  1.0  -0.246
  F  F2369  1  0.045900  0.720300  0.857200  1.0  -0.1767
  F  F2370  1  0.045100  0.773700  0.869000  1.0  -0.1852
  F  F2371  1  0.046100  0.692300  0.808500  1.0  -0.1456
  F  F2372  1  0.293700  0.245400  0.954700  1.0  -0.179
  F  F2373  1  0.027700  0.356600  0.182600  1.0  -0.1896
  F  F2374  1  0.065800  0.388300  0.163300  1.0  -0.1812
  F  F2375  1  0.067500  0.339000  0.084100  1.0  -0.1792
  F  F2376  1  0.025800  0.309000  0.104000  1.0  -0.2444
  F  F2377  1  0.045900  0.279700  0.142800  1.0  -0.1777
  F  F2378  1  0.045100  0.226300  0.131000  1.0  -0.1845
  F  F2379  1  0.046100  0.307700  0.191500  1.0  -0.1456
  F  F2380  1  0.293700  0.754600  0.045300  1.0  -0.1783
  F  F2381  1  0.972300  0.643400  0.182600  1.0  -0.1903
  F  F2382  1  0.934200  0.611700  0.163300  1.0  -0.1826
  F  F2383  1  0.932500  0.661000  0.084100  1.0  -0.1794
  F  F2384  1  0.974200  0.691000  0.104000  1.0  -0.2453
  F  F2385  1  0.954100  0.720300  0.142800  1.0  -0.1724
  F  F2386  1  0.954900  0.773700  0.131000  1.0  -0.1847
  F  F2387  1  0.953900  0.692300  0.191500  1.0  -0.1428
  F  F2388  1  0.706300  0.245400  0.045300  1.0  -0.1785
  F  F2389  1  0.817400  0.972300  0.356600  1.0  -0.1831
  F  F2390  1  0.836700  0.934200  0.388300  1.0  -0.1832
  F  F2391  1  0.915900  0.932500  0.339000  1.0  -0.1785
  F  F2392  1  0.896000  0.974200  0.309000  1.0  -0.2382
  F  F2393  1  0.857200  0.954100  0.279700  1.0  -0.1822
  F  F2394  1  0.869000  0.954900  0.226300  1.0  -0.1884
  F  F2395  1  0.808500  0.953900  0.307700  1.0  -0.1529
  F  F2396  1  0.954700  0.706300  0.754600  1.0  -0.1766
  F  F2397  1  0.817400  0.027700  0.643400  1.0  -0.1838
  F  F2398  1  0.836700  0.065800  0.611700  1.0  -0.1829
  F  F2399  1  0.915900  0.067500  0.661000  1.0  -0.1775
  F  F2400  1  0.896000  0.025800  0.691000  1.0  -0.2395
  F  F2401  1  0.857200  0.045900  0.720300  1.0  -0.1815
  F  F2402  1  0.869000  0.045100  0.773700  1.0  -0.1892
  F  F2403  1  0.808500  0.046100  0.692300  1.0  -0.1516
  F  F2404  1  0.954700  0.293700  0.245400  1.0  -0.1768
  F  F2405  1  0.182600  0.027700  0.356600  1.0  -0.1873
  F  F2406  1  0.163300  0.065800  0.388300  1.0  -0.1845
  F  F2407  1  0.084100  0.067500  0.339000  1.0  -0.1761
  F  F2408  1  0.104000  0.025800  0.309000  1.0  -0.2409
  F  F2409  1  0.142800  0.045900  0.279700  1.0  -0.1821
  F  F2410  1  0.131000  0.045100  0.226300  1.0  -0.1894
  F  F2411  1  0.191500  0.046100  0.307700  1.0  -0.1504
  F  F2412  1  0.045300  0.293700  0.754600  1.0  -0.1791
  F  F2413  1  0.182600  0.972300  0.643400  1.0  -0.187
  F  F2414  1  0.163300  0.934200  0.611700  1.0  -0.1789
  F  F2415  1  0.084100  0.932500  0.661000  1.0  -0.1753
  F  F2416  1  0.104000  0.974200  0.691000  1.0  -0.2408
  F  F2417  1  0.142800  0.954100  0.720300  1.0  -0.1821
  F  F2418  1  0.131000  0.954900  0.773700  1.0  -0.1895
  F  F2419  1  0.191500  0.953900  0.692300  1.0  -0.153
  F  F2420  1  0.045300  0.706300  0.245400  1.0  -0.1788
  F  F2421  1  0.356600  0.817400  0.972300  1.0  -0.1887
  F  F2422  1  0.388300  0.836700  0.934200  1.0  -0.1766
  F  F2423  1  0.339000  0.915900  0.932500  1.0  -0.1797
  F  F2424  1  0.309000  0.896000  0.974200  1.0  -0.2456
  F  F2425  1  0.279700  0.857200  0.954100  1.0  -0.185
  F  F2426  1  0.226300  0.869000  0.954900  1.0  -0.1876
  F  F2427  1  0.307700  0.808500  0.953900  1.0  -0.1517
  F  F2428  1  0.754600  0.954700  0.706300  1.0  -0.1779
  F  F2429  1  0.643400  0.817400  0.027700  1.0  -0.186
  F  F2430  1  0.611700  0.836700  0.065800  1.0  -0.179
  F  F2431  1  0.661000  0.915900  0.067500  1.0  -0.1774
  F  F2432  1  0.691000  0.896000  0.025800  1.0  -0.2451
  F  F2433  1  0.720300  0.857200  0.045900  1.0  -0.1837
  F  F2434  1  0.773700  0.869000  0.045100  1.0  -0.1876
  F  F2435  1  0.692300  0.808500  0.046100  1.0  -0.1525
  F  F2436  1  0.245400  0.954700  0.293700  1.0  -0.1782
  F  F2437  1  0.356600  0.182600  0.027700  1.0  -0.1878
  F  F2438  1  0.388300  0.163300  0.065800  1.0  -0.1786
  F  F2439  1  0.339000  0.084100  0.067500  1.0  -0.1786
  F  F2440  1  0.309000  0.104000  0.025800  1.0  -0.2451
  F  F2441  1  0.279700  0.142800  0.045900  1.0  -0.1838
  F  F2442  1  0.226300  0.131000  0.045100  1.0  -0.1875
  F  F2443  1  0.307700  0.191500  0.046100  1.0  -0.1516
  F  F2444  1  0.754600  0.045300  0.293700  1.0  -0.1783
  F  F2445  1  0.643400  0.182600  0.972300  1.0  -0.1866
  F  F2446  1  0.611700  0.163300  0.934200  1.0  -0.1794
  F  F2447  1  0.661000  0.084100  0.932500  1.0  -0.1781
  F  F2448  1  0.691000  0.104000  0.974200  1.0  -0.247
  F  F2449  1  0.720300  0.142800  0.954100  1.0  -0.1819
  F  F2450  1  0.773700  0.131000  0.954900  1.0  -0.1858
  F  F2451  1  0.692300  0.191500  0.953900  1.0  -0.1515
  F  F2452  1  0.245400  0.045300  0.706300  1.0  -0.1784
  F  F2453  1  0.856600  0.472300  0.682600  1.0  -0.1901
  F  F2454  1  0.888300  0.434200  0.663300  1.0  -0.1799
  F  F2455  1  0.839000  0.432500  0.584100  1.0  -0.179
  F  F2456  1  0.809000  0.474200  0.604000  1.0  -0.2425
  F  F2457  1  0.779700  0.454100  0.642800  1.0  -0.184
  F  F2458  1  0.726300  0.454900  0.631000  1.0  -0.1877
  F  F2459  1  0.807700  0.453900  0.691500  1.0  -0.1512
  F  F2460  1  0.254600  0.206300  0.545300  1.0  -0.1797
  F  F2461  1  0.143400  0.527700  0.682600  1.0  -0.1878
  F  F2462  1  0.111700  0.565800  0.663300  1.0  -0.1801
  F  F2463  1  0.161000  0.567500  0.584100  1.0  -0.1797
  F  F2464  1  0.191000  0.525800  0.604000  1.0  -0.2439
  F  F2465  1  0.220300  0.545900  0.642800  1.0  -0.1825
  F  F2466  1  0.273700  0.545100  0.631000  1.0  -0.1862
  F  F2467  1  0.192300  0.546100  0.691500  1.0  -0.15
  F  F2468  1  0.745400  0.793700  0.545300  1.0  -0.1788
  F  F2469  1  0.856600  0.527700  0.317400  1.0  -0.1898
  F  F2470  1  0.888300  0.565800  0.336700  1.0  -0.1789
  F  F2471  1  0.839000  0.567500  0.415900  1.0  -0.179
  F  F2472  1  0.809000  0.525800  0.396000  1.0  -0.2434
  F  F2473  1  0.779700  0.545900  0.357200  1.0  -0.1841
  F  F2474  1  0.726300  0.545100  0.369000  1.0  -0.1878
  F  F2475  1  0.807700  0.546100  0.308500  1.0  -0.1494
  F  F2476  1  0.254600  0.793700  0.454700  1.0  -0.1785
  F  F2477  1  0.143400  0.472300  0.317400  1.0  -0.1882
  F  F2478  1  0.111700  0.434200  0.336700  1.0  -0.1806
  F  F2479  1  0.161000  0.432500  0.415900  1.0  -0.1771
  F  F2480  1  0.191000  0.474200  0.396000  1.0  -0.2433
  F  F2481  1  0.220300  0.454100  0.357200  1.0  -0.184
  F  F2482  1  0.273700  0.454900  0.369000  1.0  -0.1879
  F  F2483  1  0.192300  0.453900  0.308500  1.0  -0.1505
  F  F2484  1  0.745400  0.206300  0.454700  1.0  -0.1793
  F  F2485  1  0.472300  0.317400  0.143400  1.0  -0.1868
  F  F2486  1  0.434200  0.336700  0.111700  1.0  -0.1819
  F  F2487  1  0.432500  0.415900  0.161000  1.0  -0.1772
  F  F2488  1  0.474200  0.396000  0.191000  1.0  -0.2471
  F  F2489  1  0.454100  0.357200  0.220300  1.0  -0.1734
  F  F2490  1  0.454900  0.369000  0.273700  1.0  -0.1885
  F  F2491  1  0.453900  0.308500  0.192300  1.0  -0.1416
  F  F2492  1  0.206300  0.454700  0.745400  1.0  -0.1803
  F  F2493  1  0.527700  0.317400  0.856600  1.0  -0.1875
  F  F2494  1  0.565800  0.336700  0.888300  1.0  -0.185
  F  F2495  1  0.567500  0.415900  0.839000  1.0  -0.1778
  F  F2496  1  0.525800  0.396000  0.809000  1.0  -0.2458
  F  F2497  1  0.545900  0.357200  0.779700  1.0  -0.1763
  F  F2498  1  0.545100  0.369000  0.726300  1.0  -0.1879
  F  F2499  1  0.546100  0.308500  0.807700  1.0  -0.1461
  F  F2500  1  0.793700  0.454700  0.254600  1.0  -0.1798
  F  F2501  1  0.527700  0.682600  0.143400  1.0  -0.1873
  F  F2502  1  0.565800  0.663300  0.111700  1.0  -0.1835
  F  F2503  1  0.567500  0.584100  0.161000  1.0  -0.1783
  F  F2504  1  0.525800  0.604000  0.191000  1.0  -0.2482
  F  F2505  1  0.545900  0.642800  0.220300  1.0  -0.1777
  F  F2506  1  0.545100  0.631000  0.273700  1.0  -0.1894
  F  F2507  1  0.546100  0.691500  0.192300  1.0  -0.1448
  F  F2508  1  0.793700  0.545300  0.745400  1.0  -0.1812
  F  F2509  1  0.472300  0.682600  0.856600  1.0  -0.1869
  F  F2510  1  0.434200  0.663300  0.888300  1.0  -0.1865
  F  F2511  1  0.432500  0.584100  0.839000  1.0  -0.1783
  F  F2512  1  0.474200  0.604000  0.809000  1.0  -0.2473
  F  F2513  1  0.454100  0.642800  0.779700  1.0  -0.1723
  F  F2514  1  0.454900  0.631000  0.726300  1.0  -0.1871
  F  F2515  1  0.453900  0.691500  0.807700  1.0  -0.143
  F  F2516  1  0.206300  0.545300  0.254600  1.0  -0.1822
  F  F2517  1  0.317400  0.856600  0.527700  1.0  -0.1835
  F  F2518  1  0.336700  0.888300  0.565800  1.0  -0.181
  F  F2519  1  0.415900  0.839000  0.567500  1.0  -0.1784
  F  F2520  1  0.396000  0.809000  0.525800  1.0  -0.2384
  F  F2521  1  0.357200  0.779700  0.545900  1.0  -0.182
  F  F2522  1  0.369000  0.726300  0.545100  1.0  -0.1878
  F  F2523  1  0.308500  0.807700  0.546100  1.0  -0.1528
  F  F2524  1  0.454700  0.254600  0.793700  1.0  -0.1743
  F  F2525  1  0.317400  0.143400  0.472300  1.0  -0.1859
  F  F2526  1  0.336700  0.111700  0.434200  1.0  -0.1782
  F  F2527  1  0.415900  0.161000  0.432500  1.0  -0.1782
  F  F2528  1  0.396000  0.191000  0.474200  1.0  -0.2394
  F  F2529  1  0.357200  0.220300  0.454100  1.0  -0.1816
  F  F2530  1  0.369000  0.273700  0.454900  1.0  -0.1893
  F  F2531  1  0.308500  0.192300  0.453900  1.0  -0.1532
  F  F2532  1  0.454700  0.745400  0.206300  1.0  -0.175
  F  F2533  1  0.682600  0.856600  0.472300  1.0  -0.1883
  F  F2534  1  0.663300  0.888300  0.434200  1.0  -0.1783
  F  F2535  1  0.584100  0.839000  0.432500  1.0  -0.1767
  F  F2536  1  0.604000  0.809000  0.474200  1.0  -0.2412
  F  F2537  1  0.642800  0.779700  0.454100  1.0  -0.1828
  F  F2538  1  0.631000  0.726300  0.454900  1.0  -0.1865
  F  F2539  1  0.691500  0.807700  0.453900  1.0  -0.1507
  F  F2540  1  0.545300  0.254600  0.206300  1.0  -0.1767
  F  F2541  1  0.682600  0.143400  0.527700  1.0  -0.1877
  F  F2542  1  0.663300  0.111700  0.565800  1.0  -0.1795
  F  F2543  1  0.584100  0.161000  0.567500  1.0  -0.175
  F  F2544  1  0.604000  0.191000  0.525800  1.0  -0.2416
  F  F2545  1  0.642800  0.220300  0.545900  1.0  -0.1817
  F  F2546  1  0.631000  0.273700  0.545100  1.0  -0.1884
  F  F2547  1  0.691500  0.192300  0.546100  1.0  -0.1541
  F  F2548  1  0.545300  0.745400  0.793700  1.0  -0.1767
