# generated using pymatgen
data_Zr13H144(C53O11)6
_symmetry_space_group_name_H-M   'P 1'
_cell_length_a   41.51200000
_cell_length_b   41.51200000
_cell_length_c   41.51200000
_cell_angle_alpha   90.00000000
_cell_angle_beta   90.00000000
_cell_angle_gamma   90.00000000
_symmetry_Int_Tables_number   1
_chemical_formula_structural   Zr13H144(C53O11)6
_chemical_formula_sum   'Zr52 H576 C1272 O264'
_cell_volume   71535.39392973
_cell_formula_units_Z   4
loop_
 _symmetry_equiv_pos_site_id
 _symmetry_equiv_pos_as_xyz
  1  'x, y, z'
loop_
 _atom_site_type_symbol
 _atom_site_label
 _atom_site_symmetry_multiplicity
 _atom_site_fract_x
 _atom_site_fract_y
 _atom_site_fract_z
 _atom_site_occupancy
 _atom_site_charge
  Zr  Zr1  1  0.457850  0.250000  0.042150  1.0  1.9973
  Zr  Zr2  1  0.542150  0.750000  0.042150  1.0  1.9977
  Zr  Zr3  1  0.542150  0.250000  0.957850  1.0  1.9972
  Zr  Zr4  1  0.457850  0.750000  0.957850  1.0  1.9973
  Zr  Zr5  1  0.042150  0.457850  0.250000  1.0  1.9971
  Zr  Zr6  1  0.042150  0.542150  0.750000  1.0  1.9936
  Zr  Zr7  1  0.957850  0.542150  0.250000  1.0  1.9932
  Zr  Zr8  1  0.957850  0.457850  0.750000  1.0  1.9973
  Zr  Zr9  1  0.250000  0.042150  0.457850  1.0  1.9977
  Zr  Zr10  1  0.750000  0.042150  0.542150  1.0  1.9973
  Zr  Zr11  1  0.250000  0.957850  0.542150  1.0  2.0014
  Zr  Zr12  1  0.750000  0.957850  0.457850  1.0  2.0012
  Zr  Zr13  1  0.542150  0.750000  0.957850  1.0  1.9972
  Zr  Zr14  1  0.457850  0.250000  0.957850  1.0  1.9973
  Zr  Zr15  1  0.457850  0.750000  0.042150  1.0  1.9973
  Zr  Zr16  1  0.542150  0.250000  0.042150  1.0  1.9977
  Zr  Zr17  1  0.957850  0.542150  0.750000  1.0  1.9932
  Zr  Zr18  1  0.957850  0.457850  0.250000  1.0  1.9973
  Zr  Zr19  1  0.042150  0.457850  0.750000  1.0  1.9971
  Zr  Zr20  1  0.042150  0.542150  0.250000  1.0  1.9936
  Zr  Zr21  1  0.750000  0.957850  0.542150  1.0  2.0014
  Zr  Zr22  1  0.250000  0.957850  0.457850  1.0  2.0012
  Zr  Zr23  1  0.750000  0.042150  0.457850  1.0  1.9977
  Zr  Zr24  1  0.250000  0.042150  0.542150  1.0  1.9973
  Zr  Zr25  1  0.500000  0.190110  0.000000  1.0  2.0096
  Zr  Zr26  1  0.500000  0.809890  0.000000  1.0  2.0056
  Zr  Zr27  1  0.000000  0.500000  0.190110  1.0  2.006
  Zr  Zr28  1  0.000000  0.500000  0.809890  1.0  2.0056
  Zr  Zr29  1  0.190110  0.000000  0.500000  1.0  2.0054
  Zr  Zr30  1  0.809890  0.000000  0.500000  1.0  2.0053
  Zr  Zr31  1  0.690110  0.000000  0.500000  1.0  2.0054
  Zr  Zr32  1  0.309890  0.000000  0.500000  1.0  2.0053
  Zr  Zr33  1  0.000000  0.500000  0.309890  1.0  2.0056
  Zr  Zr34  1  0.000000  0.500000  0.690110  1.0  2.006
  Zr  Zr35  1  0.500000  0.690110  0.000000  1.0  2.0096
  Zr  Zr36  1  0.500000  0.309890  0.000000  1.0  2.0056
  Zr  Zr37  1  0.033140  0.033140  0.966860  1.0  1.8733
  Zr  Zr38  1  0.966860  0.966860  0.966860  1.0  1.8708
  Zr  Zr39  1  0.966860  0.033140  0.033140  1.0  1.8706
  Zr  Zr40  1  0.033140  0.966860  0.033140  1.0  1.8708
  Zr  Zr41  1  0.533140  0.533140  0.533140  1.0  1.8722
  Zr  Zr42  1  0.466860  0.466860  0.533140  1.0  1.8698
  Zr  Zr43  1  0.533140  0.466860  0.466860  1.0  1.8715
  Zr  Zr44  1  0.466860  0.533140  0.466860  1.0  1.8725
  Zr  Zr45  1  0.966860  0.966860  0.033140  1.0  1.8698
  Zr  Zr46  1  0.033140  0.033140  0.033140  1.0  1.8722
  Zr  Zr47  1  0.033140  0.966860  0.966860  1.0  1.8715
  Zr  Zr48  1  0.966860  0.033140  0.966860  1.0  1.8725
  Zr  Zr49  1  0.466860  0.466860  0.466860  1.0  1.8708
  Zr  Zr50  1  0.533140  0.533140  0.466860  1.0  1.8733
  Zr  Zr51  1  0.466860  0.533140  0.533140  1.0  1.8706
  Zr  Zr52  1  0.533140  0.466860  0.533140  1.0  1.8708
  H  H53  1  0.451700  0.216300  0.199400  1.0  0.0819
  H  H54  1  0.451500  0.231800  0.146100  1.0  0.088
  H  H55  1  0.403300  0.065400  0.843900  1.0  0.0971
  H  H56  1  0.369700  0.025900  0.821900  1.0  0.0872
  H  H57  1  0.302700  0.044500  0.890400  1.0  0.0868
  H  H58  1  0.336300  0.084100  0.912500  1.0  0.0965
  H  H59  1  0.371200  0.142100  0.874700  1.0  0.0959
  H  H60  1  0.401500  0.181300  0.901500  1.0  0.0881
  H  H61  1  0.453500  0.111300  0.945300  1.0  0.0842
  H  H62  1  0.423200  0.072000  0.918500  1.0  0.0932
  H  H63  1  0.121200  0.953200  0.909300  1.0  0.0903
  H  H64  1  0.181600  0.955100  0.891100  1.0  0.0833
  H  H65  1  0.548300  0.783700  0.199400  1.0  0.0815
  H  H66  1  0.548500  0.768200  0.146100  1.0  0.0881
  H  H67  1  0.596700  0.934600  0.843900  1.0  0.0972
  H  H68  1  0.630300  0.974100  0.821900  1.0  0.0868
  H  H69  1  0.697300  0.955500  0.890400  1.0  0.086
  H  H70  1  0.663700  0.915900  0.912500  1.0  0.0959
  H  H71  1  0.628800  0.857900  0.874700  1.0  0.0956
  H  H72  1  0.598500  0.818700  0.901500  1.0  0.0876
  H  H73  1  0.546500  0.888700  0.945300  1.0  0.084
  H  H74  1  0.576800  0.928000  0.918500  1.0  0.0937
  H  H75  1  0.878800  0.046800  0.909300  1.0  0.0902
  H  H76  1  0.818400  0.044900  0.891100  1.0  0.0838
  H  H77  1  0.548300  0.216300  0.800600  1.0  0.0813
  H  H78  1  0.548500  0.231800  0.853900  1.0  0.0888
  H  H79  1  0.596700  0.065400  0.156100  1.0  0.0975
  H  H80  1  0.630300  0.025900  0.178100  1.0  0.0865
  H  H81  1  0.697300  0.044500  0.109600  1.0  0.0853
  H  H82  1  0.663700  0.084100  0.087500  1.0  0.0964
  H  H83  1  0.628800  0.142100  0.125300  1.0  0.0954
  H  H84  1  0.598500  0.181300  0.098500  1.0  0.0872
  H  H85  1  0.546500  0.111300  0.054700  1.0  0.084
  H  H86  1  0.576800  0.072000  0.081500  1.0  0.0935
  H  H87  1  0.878800  0.953200  0.090700  1.0  0.0898
  H  H88  1  0.818400  0.955100  0.108900  1.0  0.0834
  H  H89  1  0.451700  0.783700  0.800600  1.0  0.0817
  H  H90  1  0.451500  0.768200  0.853900  1.0  0.089
  H  H91  1  0.403300  0.934600  0.156100  1.0  0.0967
  H  H92  1  0.369700  0.974100  0.178100  1.0  0.0853
  H  H93  1  0.302700  0.955500  0.109600  1.0  0.0855
  H  H94  1  0.336300  0.915900  0.087500  1.0  0.0959
  H  H95  1  0.371200  0.857900  0.125300  1.0  0.0956
  H  H96  1  0.401500  0.818700  0.098500  1.0  0.0878
  H  H97  1  0.453500  0.888700  0.054700  1.0  0.0842
  H  H98  1  0.423200  0.928000  0.081500  1.0  0.0936
  H  H99  1  0.121200  0.046800  0.090700  1.0  0.0907
  H  H100  1  0.181600  0.044900  0.108900  1.0  0.0828
  H  H101  1  0.199400  0.451700  0.216300  1.0  0.0818
  H  H102  1  0.146100  0.451500  0.231800  1.0  0.0888
  H  H103  1  0.843900  0.403300  0.065400  1.0  0.0972
  H  H104  1  0.821900  0.369700  0.025900  1.0  0.0846
  H  H105  1  0.890400  0.302700  0.044500  1.0  0.0876
  H  H106  1  0.912500  0.336300  0.084100  1.0  0.0967
  H  H107  1  0.874700  0.371200  0.142100  1.0  0.0955
  H  H108  1  0.901500  0.401500  0.181300  1.0  0.0873
  H  H109  1  0.945300  0.453500  0.111300  1.0  0.084
  H  H110  1  0.918500  0.423200  0.072000  1.0  0.0917
  H  H111  1  0.909300  0.121200  0.953200  1.0  0.0878
  H  H112  1  0.891100  0.181600  0.955100  1.0  0.0845
  H  H113  1  0.199400  0.548300  0.783700  1.0  0.0813
  H  H114  1  0.146100  0.548500  0.768200  1.0  0.0891
  H  H115  1  0.843900  0.596700  0.934600  1.0  0.0964
  H  H116  1  0.821900  0.630300  0.974100  1.0  0.0843
  H  H117  1  0.890400  0.697300  0.955500  1.0  0.0887
  H  H118  1  0.912500  0.663700  0.915900  1.0  0.097
  H  H119  1  0.874700  0.628800  0.857900  1.0  0.0961
  H  H120  1  0.901500  0.598500  0.818700  1.0  0.0873
  H  H121  1  0.945300  0.546500  0.888700  1.0  0.0841
  H  H122  1  0.918500  0.576800  0.928000  1.0  0.0922
  H  H123  1  0.909300  0.878800  0.046800  1.0  0.0869
  H  H124  1  0.891100  0.818400  0.044900  1.0  0.0841
  H  H125  1  0.800600  0.548300  0.216300  1.0  0.0818
  H  H126  1  0.853900  0.548500  0.231800  1.0  0.0884
  H  H127  1  0.156100  0.596700  0.065400  1.0  0.0968
  H  H128  1  0.178100  0.630300  0.025900  1.0  0.0854
  H  H129  1  0.109600  0.697300  0.044500  1.0  0.0878
  H  H130  1  0.087500  0.663700  0.084100  1.0  0.0968
  H  H131  1  0.125300  0.628800  0.142100  1.0  0.0956
  H  H132  1  0.098500  0.598500  0.181300  1.0  0.087
  H  H133  1  0.054700  0.546500  0.111300  1.0  0.0837
  H  H134  1  0.081500  0.576800  0.072000  1.0  0.092
  H  H135  1  0.090700  0.878800  0.953200  1.0  0.088
  H  H136  1  0.108900  0.818400  0.955100  1.0  0.0843
  H  H137  1  0.800600  0.451700  0.783700  1.0  0.0814
  H  H138  1  0.853900  0.451500  0.768200  1.0  0.0884
  H  H139  1  0.156100  0.403300  0.934600  1.0  0.0973
  H  H140  1  0.178100  0.369700  0.974100  1.0  0.0852
  H  H141  1  0.109600  0.302700  0.955500  1.0  0.0871
  H  H142  1  0.087500  0.336300  0.915900  1.0  0.0964
  H  H143  1  0.125300  0.371200  0.857900  1.0  0.0952
  H  H144  1  0.098500  0.401500  0.818700  1.0  0.0873
  H  H145  1  0.054700  0.453500  0.888700  1.0  0.0841
  H  H146  1  0.081500  0.423200  0.928000  1.0  0.0916
  H  H147  1  0.090700  0.121200  0.046800  1.0  0.0872
  H  H148  1  0.108900  0.181600  0.044900  1.0  0.0839
  H  H149  1  0.216300  0.199400  0.451700  1.0  0.0806
  H  H150  1  0.231800  0.146100  0.451500  1.0  0.0881
  H  H151  1  0.065400  0.843900  0.403300  1.0  0.0962
  H  H152  1  0.025900  0.821900  0.369700  1.0  0.0859
  H  H153  1  0.044500  0.890400  0.302700  1.0  0.0864
  H  H154  1  0.084100  0.912500  0.336300  1.0  0.0979
  H  H155  1  0.142100  0.874700  0.371200  1.0  0.0953
  H  H156  1  0.181300  0.901500  0.401500  1.0  0.0864
  H  H157  1  0.111300  0.945300  0.453500  1.0  0.0839
  H  H158  1  0.072000  0.918500  0.423200  1.0  0.0918
  H  H159  1  0.953200  0.909300  0.121200  1.0  0.0868
  H  H160  1  0.955100  0.891100  0.181600  1.0  0.0846
  H  H161  1  0.783700  0.199400  0.548300  1.0  0.0802
  H  H162  1  0.768200  0.146100  0.548500  1.0  0.0884
  H  H163  1  0.934600  0.843900  0.596700  1.0  0.0958
  H  H164  1  0.974100  0.821900  0.630300  1.0  0.0867
  H  H165  1  0.955500  0.890400  0.697300  1.0  0.0872
  H  H166  1  0.915900  0.912500  0.663700  1.0  0.0979
  H  H167  1  0.857900  0.874700  0.628800  1.0  0.0953
  H  H168  1  0.818700  0.901500  0.598500  1.0  0.0873
  H  H169  1  0.888700  0.945300  0.546500  1.0  0.0841
  H  H170  1  0.928000  0.918500  0.576800  1.0  0.093
  H  H171  1  0.046800  0.909300  0.878800  1.0  0.0878
  H  H172  1  0.044900  0.891100  0.818400  1.0  0.0832
  H  H173  1  0.216300  0.800600  0.548300  1.0  0.0802
  H  H174  1  0.231800  0.853900  0.548500  1.0  0.0887
  H  H175  1  0.065400  0.156100  0.596700  1.0  0.0962
  H  H176  1  0.025900  0.178100  0.630300  1.0  0.0863
  H  H177  1  0.044500  0.109600  0.697300  1.0  0.0863
  H  H178  1  0.084100  0.087500  0.663700  1.0  0.0978
  H  H179  1  0.142100  0.125300  0.628800  1.0  0.0956
  H  H180  1  0.181300  0.098500  0.598500  1.0  0.0862
  H  H181  1  0.111300  0.054700  0.546500  1.0  0.0839
  H  H182  1  0.072000  0.081500  0.576800  1.0  0.0919
  H  H183  1  0.953200  0.090700  0.878800  1.0  0.087
  H  H184  1  0.955100  0.108900  0.818400  1.0  0.0841
  H  H185  1  0.783700  0.800600  0.451700  1.0  0.0808
  H  H186  1  0.768200  0.853900  0.451500  1.0  0.0873
  H  H187  1  0.934600  0.156100  0.403300  1.0  0.0966
  H  H188  1  0.974100  0.178100  0.369700  1.0  0.0858
  H  H189  1  0.955500  0.109600  0.302700  1.0  0.0857
  H  H190  1  0.915900  0.087500  0.336300  1.0  0.0972
  H  H191  1  0.857900  0.125300  0.371200  1.0  0.096
  H  H192  1  0.818700  0.098500  0.401500  1.0  0.0867
  H  H193  1  0.888700  0.054700  0.453500  1.0  0.0838
  H  H194  1  0.928000  0.081500  0.423200  1.0  0.0923
  H  H195  1  0.046800  0.090700  0.121200  1.0  0.0868
  H  H196  1  0.044900  0.108900  0.181600  1.0  0.0835
  H  H197  1  0.716300  0.951700  0.300600  1.0  0.0811
  H  H198  1  0.731800  0.951500  0.353900  1.0  0.0888
  H  H199  1  0.565400  0.903300  0.656100  1.0  0.0968
  H  H200  1  0.525900  0.869700  0.678100  1.0  0.0859
  H  H201  1  0.544500  0.802700  0.609600  1.0  0.0852
  H  H202  1  0.584100  0.836300  0.587500  1.0  0.0963
  H  H203  1  0.642100  0.871200  0.625300  1.0  0.0952
  H  H204  1  0.681300  0.901500  0.598500  1.0  0.0865
  H  H205  1  0.611300  0.953500  0.554700  1.0  0.0837
  H  H206  1  0.572000  0.923200  0.581500  1.0  0.0917
  H  H207  1  0.453200  0.621200  0.590700  1.0  0.088
  H  H208  1  0.455100  0.681600  0.608900  1.0  0.0838
  H  H209  1  0.283700  0.048300  0.300600  1.0  0.0813
  H  H210  1  0.268200  0.048500  0.353900  1.0  0.0883
  H  H211  1  0.434600  0.096700  0.656100  1.0  0.0967
  H  H212  1  0.474100  0.130300  0.678100  1.0  0.0864
  H  H213  1  0.455500  0.197300  0.609600  1.0  0.0852
  H  H214  1  0.415900  0.163700  0.587500  1.0  0.0965
  H  H215  1  0.357900  0.128800  0.625300  1.0  0.0956
  H  H216  1  0.318700  0.098500  0.598500  1.0  0.0869
  H  H217  1  0.388700  0.046500  0.554700  1.0  0.0834
  H  H218  1  0.428000  0.076800  0.581500  1.0  0.0927
  H  H219  1  0.546800  0.378800  0.590700  1.0  0.0877
  H  H220  1  0.544900  0.318400  0.608900  1.0  0.0828
  H  H221  1  0.716300  0.048300  0.699400  1.0  0.0813
  H  H222  1  0.731800  0.048500  0.646100  1.0  0.088
  H  H223  1  0.565400  0.096700  0.343900  1.0  0.0961
  H  H224  1  0.525900  0.130300  0.321900  1.0  0.0869
  H  H225  1  0.544500  0.197300  0.390400  1.0  0.0866
  H  H226  1  0.584100  0.163700  0.412500  1.0  0.0968
  H  H227  1  0.642100  0.128800  0.374700  1.0  0.0959
  H  H228  1  0.681300  0.098500  0.401500  1.0  0.0866
  H  H229  1  0.611300  0.046500  0.445300  1.0  0.0838
  H  H230  1  0.572000  0.076800  0.418500  1.0  0.0922
  H  H231  1  0.453200  0.378800  0.409300  1.0  0.088
  H  H232  1  0.455100  0.318400  0.391100  1.0  0.0839
  H  H233  1  0.283700  0.951700  0.699400  1.0  0.0814
  H  H234  1  0.268200  0.951500  0.646100  1.0  0.0876
  H  H235  1  0.434600  0.903300  0.343900  1.0  0.0967
  H  H236  1  0.474100  0.869700  0.321900  1.0  0.087
  H  H237  1  0.455500  0.802700  0.390400  1.0  0.0857
  H  H238  1  0.415900  0.836300  0.412500  1.0  0.0966
  H  H239  1  0.357900  0.871200  0.374700  1.0  0.0946
  H  H240  1  0.318700  0.901500  0.401500  1.0  0.0873
  H  H241  1  0.388700  0.953500  0.445300  1.0  0.0833
  H  H242  1  0.428000  0.923200  0.418500  1.0  0.0923
  H  H243  1  0.546800  0.621200  0.409300  1.0  0.0882
  H  H244  1  0.544900  0.681600  0.391100  1.0  0.0834
  H  H245  1  0.951700  0.699400  0.283700  1.0  0.0812
  H  H246  1  0.951500  0.646100  0.268200  1.0  0.0887
  H  H247  1  0.903300  0.343900  0.434600  1.0  0.0976
  H  H248  1  0.869700  0.321900  0.474100  1.0  0.0851
  H  H249  1  0.802700  0.390400  0.455500  1.0  0.0887
  H  H250  1  0.836300  0.412500  0.415900  1.0  0.0975
  H  H251  1  0.871200  0.374700  0.357900  1.0  0.0952
  H  H252  1  0.901500  0.401500  0.318700  1.0  0.0876
  H  H253  1  0.953500  0.445300  0.388700  1.0  0.0838
  H  H254  1  0.923200  0.418500  0.428000  1.0  0.0917
  H  H255  1  0.621200  0.409300  0.546800  1.0  0.088
  H  H256  1  0.681600  0.391100  0.544900  1.0  0.084
  H  H257  1  0.048300  0.699400  0.716300  1.0  0.0817
  H  H258  1  0.048500  0.646100  0.731800  1.0  0.0888
  H  H259  1  0.096700  0.343900  0.565400  1.0  0.0977
  H  H260  1  0.130300  0.321900  0.525900  1.0  0.0849
  H  H261  1  0.197300  0.390400  0.544500  1.0  0.0877
  H  H262  1  0.163700  0.412500  0.584100  1.0  0.0969
  H  H263  1  0.128800  0.374700  0.642100  1.0  0.0957
  H  H264  1  0.098500  0.401500  0.681300  1.0  0.0866
  H  H265  1  0.046500  0.445300  0.611300  1.0  0.0837
  H  H266  1  0.076800  0.418500  0.572000  1.0  0.0918
  H  H267  1  0.378800  0.409300  0.453200  1.0  0.0879
  H  H268  1  0.318400  0.391100  0.455100  1.0  0.0843
  H  H269  1  0.048300  0.300600  0.283700  1.0  0.0812
  H  H270  1  0.048500  0.353900  0.268200  1.0  0.0891
  H  H271  1  0.096700  0.656100  0.434600  1.0  0.0979
  H  H272  1  0.130300  0.678100  0.474100  1.0  0.0848
  H  H273  1  0.197300  0.609600  0.455500  1.0  0.0874
  H  H274  1  0.163700  0.587500  0.415900  1.0  0.0968
  H  H275  1  0.128800  0.625300  0.357900  1.0  0.0964
  H  H276  1  0.098500  0.598500  0.318700  1.0  0.0873
  H  H277  1  0.046500  0.554700  0.388700  1.0  0.0839
  H  H278  1  0.076800  0.581500  0.428000  1.0  0.0922
  H  H279  1  0.378800  0.590700  0.546800  1.0  0.0867
  H  H280  1  0.318400  0.608900  0.544900  1.0  0.0841
  H  H281  1  0.951700  0.300600  0.716300  1.0  0.082
  H  H282  1  0.951500  0.353900  0.731800  1.0  0.0888
  H  H283  1  0.903300  0.656100  0.565400  1.0  0.0977
  H  H284  1  0.869700  0.678100  0.525900  1.0  0.0848
  H  H285  1  0.802700  0.609600  0.544500  1.0  0.0874
  H  H286  1  0.836300  0.587500  0.584100  1.0  0.0971
  H  H287  1  0.871200  0.625300  0.642100  1.0  0.0965
  H  H288  1  0.901500  0.598500  0.681300  1.0  0.0871
  H  H289  1  0.953500  0.554700  0.611300  1.0  0.0836
  H  H290  1  0.923200  0.581500  0.572000  1.0  0.0918
  H  H291  1  0.621200  0.590700  0.453200  1.0  0.0881
  H  H292  1  0.681600  0.608900  0.455100  1.0  0.0845
  H  H293  1  0.699400  0.716300  0.048300  1.0  0.0808
  H  H294  1  0.646100  0.731800  0.048500  1.0  0.0885
  H  H295  1  0.343900  0.565400  0.096700  1.0  0.0957
  H  H296  1  0.321900  0.525900  0.130300  1.0  0.0858
  H  H297  1  0.390400  0.544500  0.197300  1.0  0.0872
  H  H298  1  0.412500  0.584100  0.163700  1.0  0.0969
  H  H299  1  0.374700  0.642100  0.128800  1.0  0.0953
  H  H300  1  0.401500  0.681300  0.098500  1.0  0.0876
  H  H301  1  0.445300  0.611300  0.046500  1.0  0.0845
  H  H302  1  0.418500  0.572000  0.076800  1.0  0.0939
  H  H303  1  0.409300  0.453200  0.378800  1.0  0.0899
  H  H304  1  0.391100  0.455100  0.318400  1.0  0.0839
  H  H305  1  0.699400  0.283700  0.951700  1.0  0.0815
  H  H306  1  0.646100  0.268200  0.951500  1.0  0.0883
  H  H307  1  0.343900  0.434600  0.903300  1.0  0.0961
  H  H308  1  0.321900  0.474100  0.869700  1.0  0.0851
  H  H309  1  0.390400  0.455500  0.802700  1.0  0.0861
  H  H310  1  0.412500  0.415900  0.836300  1.0  0.0972
  H  H311  1  0.374700  0.357900  0.871200  1.0  0.0953
  H  H312  1  0.401500  0.318700  0.901500  1.0  0.0877
  H  H313  1  0.445300  0.388700  0.953500  1.0  0.0844
  H  H314  1  0.418500  0.428000  0.923200  1.0  0.0937
  H  H315  1  0.409300  0.546800  0.621200  1.0  0.0889
  H  H316  1  0.391100  0.544900  0.681600  1.0  0.0837
  H  H317  1  0.300600  0.716300  0.951700  1.0  0.0812
  H  H318  1  0.353900  0.731800  0.951500  1.0  0.0883
  H  H319  1  0.656100  0.565400  0.903300  1.0  0.0956
  H  H320  1  0.678100  0.525900  0.869700  1.0  0.0856
  H  H321  1  0.609600  0.544500  0.802700  1.0  0.0852
  H  H322  1  0.587500  0.584100  0.836300  1.0  0.097
  H  H323  1  0.625300  0.642100  0.871200  1.0  0.0959
  H  H324  1  0.598500  0.681300  0.901500  1.0  0.0878
  H  H325  1  0.554700  0.611300  0.953500  1.0  0.0848
  H  H326  1  0.581500  0.572000  0.923200  1.0  0.0937
  H  H327  1  0.590700  0.453200  0.621200  1.0  0.0889
  H  H328  1  0.608900  0.455100  0.681600  1.0  0.0837
  H  H329  1  0.300600  0.283700  0.048300  1.0  0.0807
  H  H330  1  0.353900  0.268200  0.048500  1.0  0.0888
  H  H331  1  0.656100  0.434600  0.096700  1.0  0.0959
  H  H332  1  0.678100  0.474100  0.130300  1.0  0.0866
  H  H333  1  0.609600  0.455500  0.197300  1.0  0.0868
  H  H334  1  0.587500  0.415900  0.163700  1.0  0.097
  H  H335  1  0.625300  0.357900  0.128800  1.0  0.0954
  H  H336  1  0.598500  0.318700  0.098500  1.0  0.0878
  H  H337  1  0.554700  0.388700  0.046500  1.0  0.0845
  H  H338  1  0.581500  0.428000  0.076800  1.0  0.0939
  H  H339  1  0.590700  0.546800  0.378800  1.0  0.09
  H  H340  1  0.608900  0.544900  0.318400  1.0  0.0833
  H  H341  1  0.548300  0.783700  0.800600  1.0  0.0816
  H  H342  1  0.548500  0.768200  0.853900  1.0  0.089
  H  H343  1  0.596700  0.934600  0.156100  1.0  0.0976
  H  H344  1  0.630300  0.974100  0.178100  1.0  0.0862
  H  H345  1  0.697300  0.955500  0.109600  1.0  0.0853
  H  H346  1  0.663700  0.915900  0.087500  1.0  0.096
  H  H347  1  0.628800  0.857900  0.125300  1.0  0.0957
  H  H348  1  0.598500  0.818700  0.098500  1.0  0.0873
  H  H349  1  0.546500  0.888700  0.054700  1.0  0.0841
  H  H350  1  0.576800  0.928000  0.081500  1.0  0.0938
  H  H351  1  0.878800  0.046800  0.090700  1.0  0.0877
  H  H352  1  0.818400  0.044900  0.108900  1.0  0.0834
  H  H353  1  0.451700  0.216300  0.800600  1.0  0.0815
  H  H354  1  0.451500  0.231800  0.853900  1.0  0.0887
  H  H355  1  0.403300  0.065400  0.156100  1.0  0.0967
  H  H356  1  0.369700  0.025900  0.178100  1.0  0.0855
  H  H357  1  0.302700  0.044500  0.109600  1.0  0.0853
  H  H358  1  0.336300  0.084100  0.087500  1.0  0.096
  H  H359  1  0.371200  0.142100  0.125300  1.0  0.0955
  H  H360  1  0.401500  0.181300  0.098500  1.0  0.0879
  H  H361  1  0.453500  0.111300  0.054700  1.0  0.084
  H  H362  1  0.423200  0.072000  0.081500  1.0  0.0935
  H  H363  1  0.121200  0.953200  0.090700  1.0  0.0882
  H  H364  1  0.181600  0.955100  0.108900  1.0  0.0832
  H  H365  1  0.451700  0.783700  0.199400  1.0  0.0818
  H  H366  1  0.451500  0.768200  0.146100  1.0  0.0881
  H  H367  1  0.403300  0.934600  0.843900  1.0  0.0968
  H  H368  1  0.369700  0.974100  0.821900  1.0  0.0868
  H  H369  1  0.302700  0.955500  0.890400  1.0  0.0864
  H  H370  1  0.336300  0.915900  0.912500  1.0  0.0968
  H  H371  1  0.371200  0.857900  0.874700  1.0  0.0952
  H  H372  1  0.401500  0.818700  0.901500  1.0  0.0877
  H  H373  1  0.453500  0.888700  0.945300  1.0  0.084
  H  H374  1  0.423200  0.928000  0.918500  1.0  0.0934
  H  H375  1  0.121200  0.046800  0.909300  1.0  0.0889
  H  H376  1  0.181600  0.044900  0.891100  1.0  0.0834
  H  H377  1  0.548300  0.216300  0.199400  1.0  0.0816
  H  H378  1  0.548500  0.231800  0.146100  1.0  0.088
  H  H379  1  0.596700  0.065400  0.843900  1.0  0.0974
  H  H380  1  0.630300  0.025900  0.821900  1.0  0.087
  H  H381  1  0.697300  0.044500  0.890400  1.0  0.0866
  H  H382  1  0.663700  0.084100  0.912500  1.0  0.0961
  H  H383  1  0.628800  0.142100  0.874700  1.0  0.096
  H  H384  1  0.598500  0.181300  0.901500  1.0  0.0876
  H  H385  1  0.546500  0.111300  0.945300  1.0  0.0843
  H  H386  1  0.576800  0.072000  0.918500  1.0  0.0935
  H  H387  1  0.878800  0.953200  0.909300  1.0  0.0879
  H  H388  1  0.818400  0.955100  0.891100  1.0  0.0835
  H  H389  1  0.800600  0.548300  0.783700  1.0  0.0814
  H  H390  1  0.853900  0.548500  0.768200  1.0  0.0885
  H  H391  1  0.156100  0.596700  0.934600  1.0  0.0972
  H  H392  1  0.178100  0.630300  0.974100  1.0  0.0852
  H  H393  1  0.109600  0.697300  0.955500  1.0  0.0881
  H  H394  1  0.087500  0.663700  0.915900  1.0  0.0968
  H  H395  1  0.125300  0.628800  0.857900  1.0  0.0958
  H  H396  1  0.098500  0.598500  0.818700  1.0  0.0873
  H  H397  1  0.054700  0.546500  0.888700  1.0  0.0841
  H  H398  1  0.081500  0.576800  0.928000  1.0  0.0922
  H  H399  1  0.090700  0.878800  0.046800  1.0  0.085
  H  H400  1  0.108900  0.818400  0.044900  1.0  0.0839
  H  H401  1  0.800600  0.451700  0.216300  1.0  0.0816
  H  H402  1  0.853900  0.451500  0.231800  1.0  0.0886
  H  H403  1  0.156100  0.403300  0.065400  1.0  0.0969
  H  H404  1  0.178100  0.369700  0.025900  1.0  0.0855
  H  H405  1  0.109600  0.302700  0.044500  1.0  0.0872
  H  H406  1  0.087500  0.336300  0.084100  1.0  0.0967
  H  H407  1  0.125300  0.371200  0.142100  1.0  0.0955
  H  H408  1  0.098500  0.401500  0.181300  1.0  0.0869
  H  H409  1  0.054700  0.453500  0.111300  1.0  0.0839
  H  H410  1  0.081500  0.423200  0.072000  1.0  0.0917
  H  H411  1  0.090700  0.121200  0.953200  1.0  0.0862
  H  H412  1  0.108900  0.181600  0.955100  1.0  0.0845
  H  H413  1  0.199400  0.451700  0.783700  1.0  0.0816
  H  H414  1  0.146100  0.451500  0.768200  1.0  0.0887
  H  H415  1  0.843900  0.403300  0.934600  1.0  0.0973
  H  H416  1  0.821900  0.369700  0.974100  1.0  0.0843
  H  H417  1  0.890400  0.302700  0.955500  1.0  0.0879
  H  H418  1  0.912500  0.336300  0.915900  1.0  0.0967
  H  H419  1  0.874700  0.371200  0.857900  1.0  0.095
  H  H420  1  0.901500  0.401500  0.818700  1.0  0.0875
  H  H421  1  0.945300  0.453500  0.888700  1.0  0.0839
  H  H422  1  0.918500  0.423200  0.928000  1.0  0.0918
  H  H423  1  0.909300  0.121200  0.046800  1.0  0.0852
  H  H424  1  0.891100  0.181600  0.044900  1.0  0.0839
  H  H425  1  0.199400  0.548300  0.216300  1.0  0.0817
  H  H426  1  0.146100  0.548500  0.231800  1.0  0.089
  H  H427  1  0.843900  0.596700  0.065400  1.0  0.0965
  H  H428  1  0.821900  0.630300  0.025900  1.0  0.0844
  H  H429  1  0.890400  0.697300  0.044500  1.0  0.0881
  H  H430  1  0.912500  0.663700  0.084100  1.0  0.0968
  H  H431  1  0.874700  0.628800  0.142100  1.0  0.096
  H  H432  1  0.901500  0.598500  0.181300  1.0  0.0869
  H  H433  1  0.945300  0.546500  0.111300  1.0  0.0838
  H  H434  1  0.918500  0.576800  0.072000  1.0  0.0919
  H  H435  1  0.909300  0.878800  0.953200  1.0  0.0854
  H  H436  1  0.891100  0.818400  0.955100  1.0  0.0844
  H  H437  1  0.783700  0.800600  0.548300  1.0  0.0804
  H  H438  1  0.768200  0.853900  0.548500  1.0  0.0884
  H  H439  1  0.934600  0.156100  0.596700  1.0  0.0962
  H  H440  1  0.974100  0.178100  0.630300  1.0  0.086
  H  H441  1  0.955500  0.109600  0.697300  1.0  0.0866
  H  H442  1  0.915900  0.087500  0.663700  1.0  0.0974
  H  H443  1  0.857900  0.125300  0.628800  1.0  0.0957
  H  H444  1  0.818700  0.098500  0.598500  1.0  0.087
  H  H445  1  0.888700  0.054700  0.546500  1.0  0.0837
  H  H446  1  0.928000  0.081500  0.576800  1.0  0.0928
  H  H447  1  0.046800  0.090700  0.878800  1.0  0.0853
  H  H448  1  0.044900  0.108900  0.818400  1.0  0.0836
  H  H449  1  0.216300  0.800600  0.451700  1.0  0.0807
  H  H450  1  0.231800  0.853900  0.451500  1.0  0.0879
  H  H451  1  0.065400  0.156100  0.403300  1.0  0.0966
  H  H452  1  0.025900  0.178100  0.369700  1.0  0.0858
  H  H453  1  0.044500  0.109600  0.302700  1.0  0.0861
  H  H454  1  0.084100  0.087500  0.336300  1.0  0.0975
  H  H455  1  0.142100  0.125300  0.371200  1.0  0.0961
  H  H456  1  0.181300  0.098500  0.401500  1.0  0.0866
  H  H457  1  0.111300  0.054700  0.453500  1.0  0.0842
  H  H458  1  0.072000  0.081500  0.423200  1.0  0.092
  H  H459  1  0.953200  0.090700  0.121200  1.0  0.0844
  H  H460  1  0.955100  0.108900  0.181600  1.0  0.0843
  H  H461  1  0.783700  0.199400  0.451700  1.0  0.0808
  H  H462  1  0.768200  0.146100  0.451500  1.0  0.0877
  H  H463  1  0.934600  0.843900  0.403300  1.0  0.0962
  H  H464  1  0.974100  0.821900  0.369700  1.0  0.086
  H  H465  1  0.955500  0.890400  0.302700  1.0  0.0861
  H  H466  1  0.915900  0.912500  0.336300  1.0  0.0981
  H  H467  1  0.857900  0.874700  0.371200  1.0  0.0949
  H  H468  1  0.818700  0.901500  0.401500  1.0  0.0873
  H  H469  1  0.888700  0.945300  0.453500  1.0  0.0838
  H  H470  1  0.928000  0.918500  0.423200  1.0  0.0925
  H  H471  1  0.046800  0.909300  0.121200  1.0  0.0848
  H  H472  1  0.044900  0.891100  0.181600  1.0  0.0835
  H  H473  1  0.216300  0.199400  0.548300  1.0  0.0799
  H  H474  1  0.231800  0.146100  0.548500  1.0  0.0883
  H  H475  1  0.065400  0.843900  0.596700  1.0  0.0957
  H  H476  1  0.025900  0.821900  0.630300  1.0  0.0866
  H  H477  1  0.044500  0.890400  0.697300  1.0  0.0872
  H  H478  1  0.084100  0.912500  0.663700  1.0  0.0979
  H  H479  1  0.142100  0.874700  0.628800  1.0  0.0951
  H  H480  1  0.181300  0.901500  0.598500  1.0  0.0863
  H  H481  1  0.111300  0.945300  0.546500  1.0  0.0839
  H  H482  1  0.072000  0.918500  0.576800  1.0  0.0917
  H  H483  1  0.953200  0.909300  0.878800  1.0  0.0854
  H  H484  1  0.955100  0.891100  0.818400  1.0  0.084
  H  H485  1  0.283700  0.048300  0.699400  1.0  0.0815
  H  H486  1  0.268200  0.048500  0.646100  1.0  0.0879
  H  H487  1  0.434600  0.096700  0.343900  1.0  0.0962
  H  H488  1  0.474100  0.130300  0.321900  1.0  0.0872
  H  H489  1  0.455500  0.197300  0.390400  1.0  0.0866
  H  H490  1  0.415900  0.163700  0.412500  1.0  0.0967
  H  H491  1  0.357900  0.128800  0.374700  1.0  0.096
  H  H492  1  0.318700  0.098500  0.401500  1.0  0.0873
  H  H493  1  0.388700  0.046500  0.445300  1.0  0.0833
  H  H494  1  0.428000  0.076800  0.418500  1.0  0.0925
  H  H495  1  0.546800  0.378800  0.409300  1.0  0.086
  H  H496  1  0.544900  0.318400  0.391100  1.0  0.083
  H  H497  1  0.716300  0.951700  0.699400  1.0  0.0814
  H  H498  1  0.731800  0.951500  0.646100  1.0  0.0879
  H  H499  1  0.565400  0.903300  0.343900  1.0  0.0967
  H  H500  1  0.525900  0.869700  0.321900  1.0  0.0872
  H  H501  1  0.544500  0.802700  0.390400  1.0  0.0855
  H  H502  1  0.584100  0.836300  0.412500  1.0  0.0967
  H  H503  1  0.642100  0.871200  0.374700  1.0  0.0951
  H  H504  1  0.681300  0.901500  0.401500  1.0  0.0864
  H  H505  1  0.611300  0.953500  0.445300  1.0  0.0836
  H  H506  1  0.572000  0.923200  0.418500  1.0  0.0916
  H  H507  1  0.453200  0.621200  0.409300  1.0  0.0859
  H  H508  1  0.455100  0.681600  0.391100  1.0  0.0842
  H  H509  1  0.283700  0.951700  0.300600  1.0  0.081
  H  H510  1  0.268200  0.951500  0.353900  1.0  0.0886
  H  H511  1  0.434600  0.903300  0.656100  1.0  0.0968
  H  H512  1  0.474100  0.869700  0.678100  1.0  0.086
  H  H513  1  0.455500  0.802700  0.609600  1.0  0.0847
  H  H514  1  0.415900  0.836300  0.587500  1.0  0.0962
  H  H515  1  0.357900  0.871200  0.625300  1.0  0.0953
  H  H516  1  0.318700  0.901500  0.598500  1.0  0.0872
  H  H517  1  0.388700  0.953500  0.554700  1.0  0.0839
  H  H518  1  0.428000  0.923200  0.581500  1.0  0.0926
  H  H519  1  0.546800  0.621200  0.590700  1.0  0.0858
  H  H520  1  0.544900  0.681600  0.608900  1.0  0.0829
  H  H521  1  0.716300  0.048300  0.300600  1.0  0.0811
  H  H522  1  0.731800  0.048500  0.353900  1.0  0.0886
  H  H523  1  0.565400  0.096700  0.656100  1.0  0.0967
  H  H524  1  0.525900  0.130300  0.678100  1.0  0.086
  H  H525  1  0.544500  0.197300  0.609600  1.0  0.0861
  H  H526  1  0.584100  0.163700  0.587500  1.0  0.0966
  H  H527  1  0.642100  0.128800  0.625300  1.0  0.0952
  H  H528  1  0.681300  0.098500  0.598500  1.0  0.0863
  H  H529  1  0.611300  0.046500  0.554700  1.0  0.0834
  H  H530  1  0.572000  0.076800  0.581500  1.0  0.0921
  H  H531  1  0.453200  0.378800  0.590700  1.0  0.0857
  H  H532  1  0.455100  0.318400  0.608900  1.0  0.084
  H  H533  1  0.048300  0.300600  0.716300  1.0  0.0815
  H  H534  1  0.048500  0.353900  0.731800  1.0  0.0888
  H  H535  1  0.096700  0.656100  0.565400  1.0  0.0978
  H  H536  1  0.130300  0.678100  0.525900  1.0  0.085
  H  H537  1  0.197300  0.609600  0.544500  1.0  0.0872
  H  H538  1  0.163700  0.587500  0.584100  1.0  0.0968
  H  H539  1  0.128800  0.625300  0.642100  1.0  0.0962
  H  H540  1  0.098500  0.598500  0.681300  1.0  0.0866
  H  H541  1  0.046500  0.554700  0.611300  1.0  0.0835
  H  H542  1  0.076800  0.581500  0.572000  1.0  0.0918
  H  H543  1  0.378800  0.590700  0.453200  1.0  0.0852
  H  H544  1  0.318400  0.608900  0.455100  1.0  0.0847
  H  H545  1  0.951700  0.300600  0.283700  1.0  0.0817
  H  H546  1  0.951500  0.353900  0.268200  1.0  0.0887
  H  H547  1  0.903300  0.656100  0.434600  1.0  0.0981
  H  H548  1  0.869700  0.678100  0.474100  1.0  0.0845
  H  H549  1  0.802700  0.609600  0.455500  1.0  0.0876
  H  H550  1  0.836300  0.587500  0.415900  1.0  0.0966
  H  H551  1  0.871200  0.625300  0.357900  1.0  0.0966
  H  H552  1  0.901500  0.598500  0.318700  1.0  0.0875
  H  H553  1  0.953500  0.554700  0.388700  1.0  0.0839
  H  H554  1  0.923200  0.581500  0.428000  1.0  0.0916
  H  H555  1  0.621200  0.590700  0.546800  1.0  0.0853
  H  H556  1  0.681600  0.608900  0.544900  1.0  0.084
  H  H557  1  0.951700  0.699400  0.716300  1.0  0.0814
  H  H558  1  0.951500  0.646100  0.731800  1.0  0.0889
  H  H559  1  0.903300  0.343900  0.565400  1.0  0.0973
  H  H560  1  0.869700  0.321900  0.525900  1.0  0.0853
  H  H561  1  0.802700  0.390400  0.544500  1.0  0.0884
  H  H562  1  0.836300  0.412500  0.584100  1.0  0.0975
  H  H563  1  0.871200  0.374700  0.642100  1.0  0.0957
  H  H564  1  0.901500  0.401500  0.681300  1.0  0.0875
  H  H565  1  0.953500  0.445300  0.611300  1.0  0.0838
  H  H566  1  0.923200  0.418500  0.572000  1.0  0.092
  H  H567  1  0.621200  0.409300  0.453200  1.0  0.0861
  H  H568  1  0.681600  0.391100  0.455100  1.0  0.0841
  H  H569  1  0.048300  0.699400  0.283700  1.0  0.0814
  H  H570  1  0.048500  0.646100  0.268200  1.0  0.0887
  H  H571  1  0.096700  0.343900  0.434600  1.0  0.0978
  H  H572  1  0.130300  0.321900  0.474100  1.0  0.0848
  H  H573  1  0.197300  0.390400  0.455500  1.0  0.0882
  H  H574  1  0.163700  0.412500  0.415900  1.0  0.0973
  H  H575  1  0.128800  0.374700  0.357900  1.0  0.0955
  H  H576  1  0.098500  0.401500  0.318700  1.0  0.0871
  H  H577  1  0.046500  0.445300  0.388700  1.0  0.0839
  H  H578  1  0.076800  0.418500  0.428000  1.0  0.0918
  H  H579  1  0.378800  0.409300  0.546800  1.0  0.0854
  H  H580  1  0.318400  0.391100  0.544900  1.0  0.0841
  H  H581  1  0.300600  0.283700  0.951700  1.0  0.0815
  H  H582  1  0.353900  0.268200  0.951500  1.0  0.0886
  H  H583  1  0.656100  0.434600  0.903300  1.0  0.0956
  H  H584  1  0.678100  0.474100  0.869700  1.0  0.0853
  H  H585  1  0.609600  0.455500  0.802700  1.0  0.0855
  H  H586  1  0.587500  0.415900  0.836300  1.0  0.0968
  H  H587  1  0.625300  0.357900  0.871200  1.0  0.0956
  H  H588  1  0.598500  0.318700  0.901500  1.0  0.088
  H  H589  1  0.554700  0.388700  0.953500  1.0  0.0845
  H  H590  1  0.581500  0.428000  0.923200  1.0  0.0937
  H  H591  1  0.590700  0.546800  0.621200  1.0  0.0869
  H  H592  1  0.608900  0.544900  0.681600  1.0  0.0833
  H  H593  1  0.300600  0.716300  0.048300  1.0  0.0809
  H  H594  1  0.353900  0.731800  0.048500  1.0  0.0885
  H  H595  1  0.656100  0.565400  0.096700  1.0  0.0961
  H  H596  1  0.678100  0.525900  0.130300  1.0  0.0869
  H  H597  1  0.609600  0.544500  0.197300  1.0  0.087
  H  H598  1  0.587500  0.584100  0.163700  1.0  0.0969
  H  H599  1  0.625300  0.642100  0.128800  1.0  0.0953
  H  H600  1  0.598500  0.681300  0.098500  1.0  0.0877
  H  H601  1  0.554700  0.611300  0.046500  1.0  0.0845
  H  H602  1  0.581500  0.572000  0.076800  1.0  0.0936
  H  H603  1  0.590700  0.453200  0.378800  1.0  0.0878
  H  H604  1  0.608900  0.455100  0.318400  1.0  0.0835
  H  H605  1  0.699400  0.283700  0.048300  1.0  0.0807
  H  H606  1  0.646100  0.268200  0.048500  1.0  0.0886
  H  H607  1  0.343900  0.434600  0.096700  1.0  0.0954
  H  H608  1  0.321900  0.474100  0.130300  1.0  0.0856
  H  H609  1  0.390400  0.455500  0.197300  1.0  0.0867
  H  H610  1  0.412500  0.415900  0.163700  1.0  0.0968
  H  H611  1  0.374700  0.357900  0.128800  1.0  0.0954
  H  H612  1  0.401500  0.318700  0.098500  1.0  0.0879
  H  H613  1  0.445300  0.388700  0.046500  1.0  0.0845
  H  H614  1  0.418500  0.428000  0.076800  1.0  0.094
  H  H615  1  0.409300  0.546800  0.378800  1.0  0.0877
  H  H616  1  0.391100  0.544900  0.318400  1.0  0.0836
  H  H617  1  0.699400  0.716300  0.951700  1.0  0.0814
  H  H618  1  0.646100  0.731800  0.951500  1.0  0.0885
  H  H619  1  0.343900  0.565400  0.903300  1.0  0.096
  H  H620  1  0.321900  0.525900  0.869700  1.0  0.0854
  H  H621  1  0.390400  0.544500  0.802700  1.0  0.0862
  H  H622  1  0.412500  0.584100  0.836300  1.0  0.0974
  H  H623  1  0.374700  0.642100  0.871200  1.0  0.0958
  H  H624  1  0.401500  0.681300  0.901500  1.0  0.0876
  H  H625  1  0.445300  0.611300  0.953500  1.0  0.0847
  H  H626  1  0.418500  0.572000  0.923200  1.0  0.0936
  H  H627  1  0.409300  0.453200  0.621200  1.0  0.0868
  H  H628  1  0.391100  0.455100  0.681600  1.0  0.0841
  C  C629  1  0.471700  0.220000  0.188860  1.0  -0.0863
  C  C630  1  0.471400  0.229400  0.157110  1.0  -0.1162
  C  C631  1  0.373000  0.078460  0.880300  1.0  0.0603
  C  C632  1  0.382870  0.061200  0.853400  1.0  -0.147
  C  C633  1  0.362900  0.037700  0.840260  1.0  -0.1762
  C  C634  1  0.333000  0.031500  0.854100  1.0  0.0075
  C  C635  1  0.323140  0.048800  0.881000  1.0  -0.1345
  C  C636  1  0.343100  0.072300  0.894100  1.0  -0.1365
  C  C637  1  0.394380  0.103340  0.894060  1.0  0.0293
  C  C638  1  0.387940  0.135810  0.889010  1.0  -0.1619
  C  C639  1  0.405930  0.159120  0.904940  1.0  -0.0934
  C  C640  1  0.430370  0.149970  0.925910  1.0  -0.1541
  C  C641  1  0.436820  0.117510  0.930960  1.0  -0.0892
  C  C642  1  0.418830  0.094190  0.915040  1.0  -0.1269
  C  C643  1  0.448010  0.175000  0.944700  1.0  0.6718
  C  C644  1  0.261600  0.024300  0.859400  1.0  0.0344
  C  C645  1  0.134400  0.971700  0.911700  1.0  -0.0713
  C  C646  1  0.229300  0.024700  0.874600  1.0  0.1244
  C  C647  1  0.171300  0.973500  0.899900  1.0  -0.1234
  C  C648  1  0.475400  0.203900  0.257400  1.0  0.184
  C  C649  1  0.474500  0.191500  0.288200  1.0  0.0978
  C  C650  1  0.528300  0.780000  0.188860  1.0  -0.0859
  C  C651  1  0.528600  0.770600  0.157110  1.0  -0.1166
  C  C652  1  0.627000  0.921540  0.880300  1.0  0.0599
  C  C653  1  0.617130  0.938800  0.853400  1.0  -0.1485
  C  C654  1  0.637100  0.962300  0.840260  1.0  -0.1759
  C  C655  1  0.667000  0.968500  0.854100  1.0  0.0061
  C  C656  1  0.676860  0.951200  0.881000  1.0  -0.1349
  C  C657  1  0.656900  0.927700  0.894100  1.0  -0.1356
  C  C658  1  0.605620  0.896660  0.894060  1.0  0.0291
  C  C659  1  0.612060  0.864190  0.889010  1.0  -0.1618
  C  C660  1  0.594070  0.840880  0.904940  1.0  -0.0935
  C  C661  1  0.569630  0.850030  0.925910  1.0  -0.1545
  C  C662  1  0.563180  0.882490  0.930960  1.0  -0.0894
  C  C663  1  0.581170  0.905810  0.915040  1.0  -0.1271
  C  C664  1  0.551990  0.825000  0.944700  1.0  0.6718
  C  C665  1  0.738400  0.975700  0.859400  1.0  0.0363
  C  C666  1  0.865600  0.028300  0.911700  1.0  -0.07
  C  C667  1  0.770700  0.975300  0.874600  1.0  0.1254
  C  C668  1  0.828700  0.026500  0.899900  1.0  -0.122
  C  C669  1  0.524600  0.796100  0.257400  1.0  0.1865
  C  C670  1  0.525500  0.808500  0.288200  1.0  0.0975
  C  C671  1  0.528300  0.220000  0.811140  1.0  -0.086
  C  C672  1  0.528600  0.229400  0.842890  1.0  -0.1166
  C  C673  1  0.627000  0.078460  0.119700  1.0  0.0599
  C  C674  1  0.617130  0.061200  0.146600  1.0  -0.149
  C  C675  1  0.637100  0.037700  0.159740  1.0  -0.1765
  C  C676  1  0.667000  0.031500  0.145900  1.0  0.0077
  C  C677  1  0.676860  0.048800  0.119000  1.0  -0.134
  C  C678  1  0.656900  0.072300  0.105900  1.0  -0.1379
  C  C679  1  0.605620  0.103340  0.105940  1.0  0.0289
  C  C680  1  0.612060  0.135810  0.110990  1.0  -0.1594
  C  C681  1  0.594070  0.159120  0.095060  1.0  -0.0933
  C  C682  1  0.569630  0.149970  0.074090  1.0  -0.1545
  C  C683  1  0.563180  0.117510  0.069040  1.0  -0.0891
  C  C684  1  0.581170  0.094190  0.084960  1.0  -0.1285
  C  C685  1  0.551990  0.175000  0.055300  1.0  0.6724
  C  C686  1  0.738400  0.024300  0.140600  1.0  0.0349
  C  C687  1  0.865600  0.971700  0.088300  1.0  -0.0701
  C  C688  1  0.770700  0.024700  0.125400  1.0  0.1267
  C  C689  1  0.828700  0.973500  0.100100  1.0  -0.122
  C  C690  1  0.524600  0.203900  0.742600  1.0  0.1865
  C  C691  1  0.525500  0.191500  0.711800  1.0  0.0963
  C  C692  1  0.471700  0.780000  0.811140  1.0  -0.0861
  C  C693  1  0.471400  0.770600  0.842890  1.0  -0.1165
  C  C694  1  0.373000  0.921540  0.119700  1.0  0.0604
  C  C695  1  0.382870  0.938800  0.146600  1.0  -0.1459
  C  C696  1  0.362900  0.962300  0.159740  1.0  -0.1761
  C  C697  1  0.333000  0.968500  0.145900  1.0  0.0061
  C  C698  1  0.323140  0.951200  0.119000  1.0  -0.1342
  C  C699  1  0.343100  0.927700  0.105900  1.0  -0.1382
  C  C700  1  0.394380  0.896660  0.105940  1.0  0.029
  C  C701  1  0.387940  0.864190  0.110990  1.0  -0.1604
  C  C702  1  0.405930  0.840880  0.095060  1.0  -0.094
  C  C703  1  0.430370  0.850030  0.074090  1.0  -0.154
  C  C704  1  0.436820  0.882490  0.069040  1.0  -0.0886
  C  C705  1  0.418830  0.905810  0.084960  1.0  -0.1271
  C  C706  1  0.448010  0.825000  0.055300  1.0  0.671
  C  C707  1  0.261600  0.975700  0.140600  1.0  0.0342
  C  C708  1  0.134400  0.028300  0.088300  1.0  -0.0709
  C  C709  1  0.229300  0.975300  0.125400  1.0  0.1263
  C  C710  1  0.171300  0.026500  0.100100  1.0  -0.1217
  C  C711  1  0.475400  0.796100  0.742600  1.0  0.1838
  C  C712  1  0.474500  0.808500  0.711800  1.0  0.0962
  C  C713  1  0.188860  0.471700  0.220000  1.0  -0.0881
  C  C714  1  0.157110  0.471400  0.229400  1.0  -0.1174
  C  C715  1  0.880300  0.373000  0.078460  1.0  0.0599
  C  C716  1  0.853400  0.382870  0.061200  1.0  -0.1505
  C  C717  1  0.840260  0.362900  0.037700  1.0  -0.1746
  C  C718  1  0.854100  0.333000  0.031500  1.0  0.0089
  C  C719  1  0.881000  0.323140  0.048800  1.0  -0.1347
  C  C720  1  0.894100  0.343100  0.072300  1.0  -0.137
  C  C721  1  0.894060  0.394380  0.103340  1.0  0.0281
  C  C722  1  0.889010  0.387940  0.135810  1.0  -0.1606
  C  C723  1  0.904940  0.405930  0.159120  1.0  -0.0938
  C  C724  1  0.925910  0.430370  0.149970  1.0  -0.1549
  C  C725  1  0.930960  0.436820  0.117510  1.0  -0.0878
  C  C726  1  0.915040  0.418830  0.094190  1.0  -0.1261
  C  C727  1  0.944700  0.448010  0.175000  1.0  0.671
  C  C728  1  0.859400  0.261600  0.024300  1.0  0.0273
  C  C729  1  0.911700  0.134400  0.971700  1.0  -0.067
  C  C730  1  0.874600  0.229300  0.024700  1.0  0.1292
  C  C731  1  0.899900  0.171300  0.973500  1.0  -0.1244
  C  C732  1  0.257400  0.475400  0.203900  1.0  0.1807
  C  C733  1  0.288200  0.474500  0.191500  1.0  0.0948
  C  C734  1  0.188860  0.528300  0.780000  1.0  -0.0874
  C  C735  1  0.157110  0.528600  0.770600  1.0  -0.1159
  C  C736  1  0.880300  0.627000  0.921540  1.0  0.0596
  C  C737  1  0.853400  0.617130  0.938800  1.0  -0.1517
  C  C738  1  0.840260  0.637100  0.962300  1.0  -0.1742
  C  C739  1  0.854100  0.667000  0.968500  1.0  0.0069
  C  C740  1  0.881000  0.676860  0.951200  1.0  -0.1359
  C  C741  1  0.894100  0.656900  0.927700  1.0  -0.1379
  C  C742  1  0.894060  0.605620  0.896660  1.0  0.0282
  C  C743  1  0.889010  0.612060  0.864190  1.0  -0.1629
  C  C744  1  0.904940  0.594070  0.840880  1.0  -0.0935
  C  C745  1  0.925910  0.569630  0.850030  1.0  -0.1546
  C  C746  1  0.930960  0.563180  0.882490  1.0  -0.0882
  C  C747  1  0.915040  0.581170  0.905810  1.0  -0.125
  C  C748  1  0.944700  0.551990  0.825000  1.0  0.6713
  C  C749  1  0.859400  0.738400  0.975700  1.0  0.0333
  C  C750  1  0.911700  0.865600  0.028300  1.0  -0.0671
  C  C751  1  0.874600  0.770700  0.975300  1.0  0.1296
  C  C752  1  0.899900  0.828700  0.026500  1.0  -0.1216
  C  C753  1  0.257400  0.524600  0.796100  1.0  0.1801
  C  C754  1  0.288200  0.525500  0.808500  1.0  0.0926
  C  C755  1  0.811140  0.528300  0.220000  1.0  -0.0892
  C  C756  1  0.842890  0.528600  0.229400  1.0  -0.1161
  C  C757  1  0.119700  0.627000  0.078460  1.0  0.0595
  C  C758  1  0.146600  0.617130  0.061200  1.0  -0.1505
  C  C759  1  0.159740  0.637100  0.037700  1.0  -0.1768
  C  C760  1  0.145900  0.667000  0.031500  1.0  0.0091
  C  C761  1  0.119000  0.676860  0.048800  1.0  -0.1352
  C  C762  1  0.105900  0.656900  0.072300  1.0  -0.1391
  C  C763  1  0.105940  0.605620  0.103340  1.0  0.0285
  C  C764  1  0.110990  0.612060  0.135810  1.0  -0.16
  C  C765  1  0.095060  0.594070  0.159120  1.0  -0.0929
  C  C766  1  0.074090  0.569630  0.149970  1.0  -0.1547
  C  C767  1  0.069040  0.563180  0.117510  1.0  -0.0871
  C  C768  1  0.084960  0.581170  0.094190  1.0  -0.1254
  C  C769  1  0.055300  0.551990  0.175000  1.0  0.671
  C  C770  1  0.140600  0.738400  0.024300  1.0  0.0292
  C  C771  1  0.088300  0.865600  0.971700  1.0  -0.0674
  C  C772  1  0.125400  0.770700  0.024700  1.0  0.1298
  C  C773  1  0.100100  0.828700  0.973500  1.0  -0.1235
  C  C774  1  0.742600  0.524600  0.203900  1.0  0.1803
  C  C775  1  0.711800  0.525500  0.191500  1.0  0.0946
  C  C776  1  0.811140  0.471700  0.780000  1.0  -0.0891
  C  C777  1  0.842890  0.471400  0.770600  1.0  -0.1187
  C  C778  1  0.119700  0.373000  0.921540  1.0  0.0588
  C  C779  1  0.146600  0.382870  0.938800  1.0  -0.1503
  C  C780  1  0.159740  0.362900  0.962300  1.0  -0.1739
  C  C781  1  0.145900  0.333000  0.968500  1.0  0.0068
  C  C782  1  0.119000  0.323140  0.951200  1.0  -0.1358
  C  C783  1  0.105900  0.343100  0.927700  1.0  -0.1383
  C  C784  1  0.105940  0.394380  0.896660  1.0  0.0288
  C  C785  1  0.110990  0.387940  0.864190  1.0  -0.1627
  C  C786  1  0.095060  0.405930  0.840880  1.0  -0.0946
  C  C787  1  0.074090  0.430370  0.850030  1.0  -0.1538
  C  C788  1  0.069040  0.436820  0.882490  1.0  -0.0877
  C  C789  1  0.084960  0.418830  0.905810  1.0  -0.1251
  C  C790  1  0.055300  0.448010  0.825000  1.0  0.6721
  C  C791  1  0.140600  0.261600  0.975700  1.0  0.034
  C  C792  1  0.088300  0.134400  0.028300  1.0  -0.0678
  C  C793  1  0.125400  0.229300  0.975300  1.0  0.1293
  C  C794  1  0.100100  0.171300  0.026500  1.0  -0.122
  C  C795  1  0.742600  0.475400  0.796100  1.0  0.1811
  C  C796  1  0.711800  0.474500  0.808500  1.0  0.0944
  C  C797  1  0.220000  0.188860  0.471700  1.0  -0.0877
  C  C798  1  0.229400  0.157110  0.471400  1.0  -0.1183
  C  C799  1  0.078460  0.880300  0.373000  1.0  0.0594
  C  C800  1  0.061200  0.853400  0.382870  1.0  -0.1494
  C  C801  1  0.037700  0.840260  0.362900  1.0  -0.1765
  C  C802  1  0.031500  0.854100  0.333000  1.0  0.0017
  C  C803  1  0.048800  0.881000  0.323140  1.0  -0.1346
  C  C804  1  0.072300  0.894100  0.343100  1.0  -0.14
  C  C805  1  0.103340  0.894060  0.394380  1.0  0.0291
  C  C806  1  0.135810  0.889010  0.387940  1.0  -0.1607
  C  C807  1  0.159120  0.904940  0.405930  1.0  -0.0919
  C  C808  1  0.149970  0.925910  0.430370  1.0  -0.1544
  C  C809  1  0.117510  0.930960  0.436820  1.0  -0.0906
  C  C810  1  0.094190  0.915040  0.418830  1.0  -0.1252
  C  C811  1  0.175000  0.944700  0.448010  1.0  0.6714
  C  C812  1  0.024300  0.859400  0.261600  1.0  0.037
  C  C813  1  0.971700  0.911700  0.134400  1.0  -0.0673
  C  C814  1  0.024700  0.874600  0.229300  1.0  0.1296
  C  C815  1  0.973500  0.899900  0.171300  1.0  -0.122
  C  C816  1  0.203900  0.257400  0.475400  1.0  0.177
  C  C817  1  0.191500  0.288200  0.474500  1.0  0.0955
  C  C818  1  0.780000  0.188860  0.528300  1.0  -0.0886
  C  C819  1  0.770600  0.157110  0.528600  1.0  -0.1207
  C  C820  1  0.921540  0.880300  0.627000  1.0  0.0582
  C  C821  1  0.938800  0.853400  0.617130  1.0  -0.1493
  C  C822  1  0.962300  0.840260  0.637100  1.0  -0.1755
  C  C823  1  0.968500  0.854100  0.667000  1.0  0.0039
  C  C824  1  0.951200  0.881000  0.676860  1.0  -0.1343
  C  C825  1  0.927700  0.894100  0.656900  1.0  -0.1393
  C  C826  1  0.896660  0.894060  0.605620  1.0  0.0292
  C  C827  1  0.864190  0.889010  0.612060  1.0  -0.1592
  C  C828  1  0.840880  0.904940  0.594070  1.0  -0.0928
  C  C829  1  0.850030  0.925910  0.569630  1.0  -0.1551
  C  C830  1  0.882490  0.930960  0.563180  1.0  -0.0903
  C  C831  1  0.905810  0.915040  0.581170  1.0  -0.124
  C  C832  1  0.825000  0.944700  0.551990  1.0  0.6729
  C  C833  1  0.975700  0.859400  0.738400  1.0  0.0351
  C  C834  1  0.028300  0.911700  0.865600  1.0  -0.0656
  C  C835  1  0.975300  0.874600  0.770700  1.0  0.1265
  C  C836  1  0.026500  0.899900  0.828700  1.0  -0.1231
  C  C837  1  0.796100  0.257400  0.524600  1.0  0.1812
  C  C838  1  0.808500  0.288200  0.525500  1.0  0.0963
  C  C839  1  0.220000  0.811140  0.528300  1.0  -0.0884
  C  C840  1  0.229400  0.842890  0.528600  1.0  -0.1194
  C  C841  1  0.078460  0.119700  0.627000  1.0  0.0595
  C  C842  1  0.061200  0.146600  0.617130  1.0  -0.1502
  C  C843  1  0.037700  0.159740  0.637100  1.0  -0.1772
  C  C844  1  0.031500  0.145900  0.667000  1.0  0.002
  C  C845  1  0.048800  0.119000  0.676860  1.0  -0.1343
  C  C846  1  0.072300  0.105900  0.656900  1.0  -0.1408
  C  C847  1  0.103340  0.105940  0.605620  1.0  0.0295
  C  C848  1  0.135810  0.110990  0.612060  1.0  -0.159
  C  C849  1  0.159120  0.095060  0.594070  1.0  -0.0922
  C  C850  1  0.149970  0.074090  0.569630  1.0  -0.1545
  C  C851  1  0.117510  0.069040  0.563180  1.0  -0.09
  C  C852  1  0.094190  0.084960  0.581170  1.0  -0.1245
  C  C853  1  0.175000  0.055300  0.551990  1.0  0.6716
  C  C854  1  0.024300  0.140600  0.738400  1.0  0.0358
  C  C855  1  0.971700  0.088300  0.865600  1.0  -0.0663
  C  C856  1  0.024700  0.125400  0.770700  1.0  0.1282
  C  C857  1  0.973500  0.100100  0.828700  1.0  -0.1213
  C  C858  1  0.203900  0.742600  0.524600  1.0  0.1835
  C  C859  1  0.191500  0.711800  0.525500  1.0  0.0957
  C  C860  1  0.780000  0.811140  0.471700  1.0  -0.0879
  C  C861  1  0.770600  0.842890  0.471400  1.0  -0.1181
  C  C862  1  0.921540  0.119700  0.373000  1.0  0.058
  C  C863  1  0.938800  0.146600  0.382870  1.0  -0.1513
  C  C864  1  0.962300  0.159740  0.362900  1.0  -0.1755
  C  C865  1  0.968500  0.145900  0.333000  1.0  0.0044
  C  C866  1  0.951200  0.119000  0.323140  1.0  -0.1346
  C  C867  1  0.927700  0.105900  0.343100  1.0  -0.1407
  C  C868  1  0.896660  0.105940  0.394380  1.0  0.0285
  C  C869  1  0.864190  0.110990  0.387940  1.0  -0.1615
  C  C870  1  0.840880  0.095060  0.405930  1.0  -0.0929
  C  C871  1  0.850030  0.074090  0.430370  1.0  -0.1556
  C  C872  1  0.882490  0.069040  0.436820  1.0  -0.0909
  C  C873  1  0.905810  0.084960  0.418830  1.0  -0.1227
  C  C874  1  0.825000  0.055300  0.448010  1.0  0.6721
  C  C875  1  0.975700  0.140600  0.261600  1.0  0.0373
  C  C876  1  0.028300  0.088300  0.134400  1.0  -0.0665
  C  C877  1  0.975300  0.125400  0.229300  1.0  0.1286
  C  C878  1  0.026500  0.100100  0.171300  1.0  -0.1226
  C  C879  1  0.796100  0.742600  0.475400  1.0  0.177
  C  C880  1  0.808500  0.711800  0.474500  1.0  0.0966
  C  C881  1  0.720000  0.971700  0.311140  1.0  -0.0879
  C  C882  1  0.729400  0.971400  0.342890  1.0  -0.1159
  C  C883  1  0.578460  0.873000  0.619700  1.0  0.0594
  C  C884  1  0.561200  0.882870  0.646600  1.0  -0.149
  C  C885  1  0.537700  0.862900  0.659740  1.0  -0.1784
  C  C886  1  0.531500  0.833000  0.645900  1.0  0.0022
  C  C887  1  0.548800  0.823140  0.619000  1.0  -0.1332
  C  C888  1  0.572300  0.843100  0.605900  1.0  -0.1403
  C  C889  1  0.603340  0.894380  0.605940  1.0  0.029
  C  C890  1  0.635810  0.887940  0.610990  1.0  -0.1586
  C  C891  1  0.659120  0.905930  0.595060  1.0  -0.0935
  C  C892  1  0.649970  0.930370  0.574090  1.0  -0.1537
  C  C893  1  0.617510  0.936820  0.569040  1.0  -0.089
  C  C894  1  0.594190  0.918830  0.584960  1.0  -0.1261
  C  C895  1  0.675000  0.948010  0.555300  1.0  0.6724
  C  C896  1  0.524300  0.761600  0.640600  1.0  0.0355
  C  C897  1  0.471700  0.634400  0.588300  1.0  -0.0699
  C  C898  1  0.524700  0.729300  0.625400  1.0  0.1283
  C  C899  1  0.473500  0.671300  0.600100  1.0  -0.1212
  C  C900  1  0.703900  0.975400  0.242600  1.0  0.1807
  C  C901  1  0.691500  0.974500  0.211800  1.0  0.0947
  C  C902  1  0.280000  0.028300  0.311140  1.0  -0.0877
  C  C903  1  0.270600  0.028600  0.342890  1.0  -0.115
  C  C904  1  0.421540  0.127000  0.619700  1.0  0.0581
  C  C905  1  0.438800  0.117130  0.646600  1.0  -0.1518
  C  C906  1  0.462300  0.137100  0.659740  1.0  -0.1774
  C  C907  1  0.468500  0.167000  0.645900  1.0  0.0042
  C  C908  1  0.451200  0.176860  0.619000  1.0  -0.1345
  C  C909  1  0.427700  0.156900  0.605900  1.0  -0.1395
  C  C910  1  0.396660  0.105620  0.605940  1.0  0.0287
  C  C911  1  0.364190  0.112060  0.610990  1.0  -0.1613
  C  C912  1  0.340880  0.094070  0.595060  1.0  -0.094
  C  C913  1  0.350030  0.069630  0.574090  1.0  -0.1552
  C  C914  1  0.382490  0.063180  0.569040  1.0  -0.0896
  C  C915  1  0.405810  0.081170  0.584960  1.0  -0.1248
  C  C916  1  0.325000  0.051990  0.555300  1.0  0.6731
  C  C917  1  0.475700  0.238400  0.640600  1.0  0.036
  C  C918  1  0.528300  0.365600  0.588300  1.0  -0.0679
  C  C919  1  0.475300  0.270700  0.625400  1.0  0.1276
  C  C920  1  0.526500  0.328700  0.600100  1.0  -0.1221
  C  C921  1  0.296100  0.024600  0.242600  1.0  0.1792
  C  C922  1  0.308500  0.025500  0.211800  1.0  0.096
  C  C923  1  0.720000  0.028300  0.688860  1.0  -0.0877
  C  C924  1  0.729400  0.028600  0.657110  1.0  -0.1129
  C  C925  1  0.578460  0.127000  0.380300  1.0  0.0597
  C  C926  1  0.561200  0.117130  0.353400  1.0  -0.1511
  C  C927  1  0.537700  0.137100  0.340260  1.0  -0.1785
  C  C928  1  0.531500  0.167000  0.354100  1.0  0.0019
  C  C929  1  0.548800  0.176860  0.381000  1.0  -0.1337
  C  C930  1  0.572300  0.156900  0.394100  1.0  -0.1384
  C  C931  1  0.603340  0.105620  0.394060  1.0  0.0294
  C  C932  1  0.635810  0.112060  0.389010  1.0  -0.1617
  C  C933  1  0.659120  0.094070  0.404940  1.0  -0.0928
  C  C934  1  0.649970  0.069630  0.425910  1.0  -0.1542
  C  C935  1  0.617510  0.063180  0.430960  1.0  -0.0883
  C  C936  1  0.594190  0.081170  0.415040  1.0  -0.1252
  C  C937  1  0.675000  0.051990  0.444700  1.0  0.6722
  C  C938  1  0.524300  0.238400  0.359400  1.0  0.0364
  C  C939  1  0.471700  0.365600  0.411700  1.0  -0.0687
  C  C940  1  0.524700  0.270700  0.374600  1.0  0.1284
  C  C941  1  0.473500  0.328700  0.399900  1.0  -0.1205
  C  C942  1  0.703900  0.024600  0.757400  1.0  0.1802
  C  C943  1  0.691500  0.025500  0.788200  1.0  0.0962
  C  C944  1  0.280000  0.971700  0.688860  1.0  -0.0882
  C  C945  1  0.270600  0.971400  0.657110  1.0  -0.1157
  C  C946  1  0.421540  0.873000  0.380300  1.0  0.058
  C  C947  1  0.438800  0.882870  0.353400  1.0  -0.151
  C  C948  1  0.462300  0.862900  0.340260  1.0  -0.1761
  C  C949  1  0.468500  0.833000  0.354100  1.0  0.0037
  C  C950  1  0.451200  0.823140  0.381000  1.0  -0.1338
  C  C951  1  0.427700  0.843100  0.394100  1.0  -0.1371
  C  C952  1  0.396660  0.894380  0.394060  1.0  0.029
  C  C953  1  0.364190  0.887940  0.389010  1.0  -0.1618
  C  C954  1  0.340880  0.905930  0.404940  1.0  -0.0935
  C  C955  1  0.350030  0.930370  0.425910  1.0  -0.1546
  C  C956  1  0.382490  0.936820  0.430960  1.0  -0.0895
  C  C957  1  0.405810  0.918830  0.415040  1.0  -0.1236
  C  C958  1  0.325000  0.948010  0.444700  1.0  0.6734
  C  C959  1  0.475700  0.761600  0.359400  1.0  0.0362
  C  C960  1  0.528300  0.634400  0.411700  1.0  -0.0683
  C  C961  1  0.475300  0.729300  0.374600  1.0  0.1267
  C  C962  1  0.526500  0.671300  0.399900  1.0  -0.1229
  C  C963  1  0.296100  0.975400  0.757400  1.0  0.1797
  C  C964  1  0.308500  0.974500  0.788200  1.0  0.0983
  C  C965  1  0.971700  0.688860  0.280000  1.0  -0.0865
  C  C966  1  0.971400  0.657110  0.270600  1.0  -0.1187
  C  C967  1  0.873000  0.380300  0.421540  1.0  0.0595
  C  C968  1  0.882870  0.353400  0.438800  1.0  -0.1485
  C  C969  1  0.862900  0.340260  0.462300  1.0  -0.1742
  C  C970  1  0.833000  0.354100  0.468500  1.0  0.0063
  C  C971  1  0.823140  0.381000  0.451200  1.0  -0.136
  C  C972  1  0.843100  0.394100  0.427700  1.0  -0.1385
  C  C973  1  0.894380  0.394060  0.396660  1.0  0.0292
  C  C974  1  0.887940  0.389010  0.364190  1.0  -0.1614
  C  C975  1  0.905930  0.404940  0.340880  1.0  -0.0942
  C  C976  1  0.930370  0.425910  0.350030  1.0  -0.154
  C  C977  1  0.936820  0.430960  0.382490  1.0  -0.0863
  C  C978  1  0.918830  0.415040  0.405810  1.0  -0.1248
  C  C979  1  0.948010  0.444700  0.325000  1.0  0.6711
  C  C980  1  0.761600  0.359400  0.475700  1.0  0.0329
  C  C981  1  0.634400  0.411700  0.528300  1.0  -0.0666
  C  C982  1  0.729300  0.374600  0.475300  1.0  0.1285
  C  C983  1  0.671300  0.399900  0.526500  1.0  -0.1216
  C  C984  1  0.975400  0.757400  0.296100  1.0  0.1839
  C  C985  1  0.974500  0.788200  0.308500  1.0  0.0981
  C  C986  1  0.028300  0.688860  0.720000  1.0  -0.0862
  C  C987  1  0.028600  0.657110  0.729400  1.0  -0.1189
  C  C988  1  0.127000  0.380300  0.578460  1.0  0.0596
  C  C989  1  0.117130  0.353400  0.561200  1.0  -0.1497
  C  C990  1  0.137100  0.340260  0.537700  1.0  -0.1757
  C  C991  1  0.167000  0.354100  0.531500  1.0  0.0089
  C  C992  1  0.176860  0.381000  0.548800  1.0  -0.1358
  C  C993  1  0.156900  0.394100  0.572300  1.0  -0.1383
  C  C994  1  0.105620  0.394060  0.603340  1.0  0.0287
  C  C995  1  0.112060  0.389010  0.635810  1.0  -0.1588
  C  C996  1  0.094070  0.404940  0.659120  1.0  -0.0931
  C  C997  1  0.069630  0.425910  0.649970  1.0  -0.1551
  C  C998  1  0.063180  0.430960  0.617510  1.0  -0.0874
  C  C999  1  0.081170  0.415040  0.594190  1.0  -0.1258
  C  C1000  1  0.051990  0.444700  0.675000  1.0  0.6712
  C  C1001  1  0.238400  0.359400  0.524300  1.0  0.0284
  C  C1002  1  0.365600  0.411700  0.471700  1.0  -0.0655
  C  C1003  1  0.270700  0.374600  0.524700  1.0  0.1294
  C  C1004  1  0.328700  0.399900  0.473500  1.0  -0.1234
  C  C1005  1  0.024600  0.757400  0.703900  1.0  0.1866
  C  C1006  1  0.025500  0.788200  0.691500  1.0  0.0972
  C  C1007  1  0.028300  0.311140  0.280000  1.0  -0.0857
  C  C1008  1  0.028600  0.342890  0.270600  1.0  -0.1195
  C  C1009  1  0.127000  0.619700  0.421540  1.0  0.0592
  C  C1010  1  0.117130  0.646600  0.438800  1.0  -0.1512
  C  C1011  1  0.137100  0.659740  0.462300  1.0  -0.1738
  C  C1012  1  0.167000  0.645900  0.468500  1.0  0.0074
  C  C1013  1  0.176860  0.619000  0.451200  1.0  -0.1376
  C  C1014  1  0.156900  0.605900  0.427700  1.0  -0.1404
  C  C1015  1  0.105620  0.605940  0.396660  1.0  0.0289
  C  C1016  1  0.112060  0.610990  0.364190  1.0  -0.1622
  C  C1017  1  0.094070  0.595060  0.340880  1.0  -0.0941
  C  C1018  1  0.069630  0.574090  0.350030  1.0  -0.1547
  C  C1019  1  0.063180  0.569040  0.382490  1.0  -0.0876
  C  C1020  1  0.081170  0.584960  0.405810  1.0  -0.1255
  C  C1021  1  0.051990  0.555300  0.325000  1.0  0.6715
  C  C1022  1  0.238400  0.640600  0.475700  1.0  0.0332
  C  C1023  1  0.365600  0.588300  0.528300  1.0  -0.0653
  C  C1024  1  0.270700  0.625400  0.475300  1.0  0.1289
  C  C1025  1  0.328700  0.600100  0.526500  1.0  -0.1217
  C  C1026  1  0.024600  0.242600  0.296100  1.0  0.187
  C  C1027  1  0.025500  0.211800  0.308500  1.0  0.0974
  C  C1028  1  0.971700  0.311140  0.720000  1.0  -0.0857
  C  C1029  1  0.971400  0.342890  0.729400  1.0  -0.1183
  C  C1030  1  0.873000  0.619700  0.578460  1.0  0.0599
  C  C1031  1  0.882870  0.646600  0.561200  1.0  -0.149
  C  C1032  1  0.862900  0.659740  0.537700  1.0  -0.1759
  C  C1033  1  0.833000  0.645900  0.531500  1.0  0.0092
  C  C1034  1  0.823140  0.619000  0.548800  1.0  -0.136
  C  C1035  1  0.843100  0.605900  0.572300  1.0  -0.14
  C  C1036  1  0.894380  0.605940  0.603340  1.0  0.0287
  C  C1037  1  0.887940  0.610990  0.635810  1.0  -0.1617
  C  C1038  1  0.905930  0.595060  0.659120  1.0  -0.0945
  C  C1039  1  0.930370  0.574090  0.649970  1.0  -0.1547
  C  C1040  1  0.936820  0.569040  0.617510  1.0  -0.0874
  C  C1041  1  0.918830  0.584960  0.594190  1.0  -0.1257
  C  C1042  1  0.948010  0.555300  0.675000  1.0  0.6702
  C  C1043  1  0.761600  0.640600  0.524300  1.0  0.027
  C  C1044  1  0.634400  0.588300  0.471700  1.0  -0.0661
  C  C1045  1  0.729300  0.625400  0.524700  1.0  0.1277
  C  C1046  1  0.671300  0.600100  0.473500  1.0  -0.1242
  C  C1047  1  0.975400  0.242600  0.703900  1.0  0.1839
  C  C1048  1  0.974500  0.211800  0.691500  1.0  0.0983
  C  C1049  1  0.688860  0.720000  0.028300  1.0  -0.0881
  C  C1050  1  0.657110  0.729400  0.028600  1.0  -0.1189
  C  C1051  1  0.380300  0.578460  0.127000  1.0  0.0602
  C  C1052  1  0.353400  0.561200  0.117130  1.0  -0.1477
  C  C1053  1  0.340260  0.537700  0.137100  1.0  -0.1744
  C  C1054  1  0.354100  0.531500  0.167000  1.0  0.0075
  C  C1055  1  0.381000  0.548800  0.176860  1.0  -0.1325
  C  C1056  1  0.394100  0.572300  0.156900  1.0  -0.1365
  C  C1057  1  0.394060  0.603340  0.105620  1.0  0.0287
  C  C1058  1  0.389010  0.635810  0.112060  1.0  -0.1609
  C  C1059  1  0.404940  0.659120  0.094070  1.0  -0.0925
  C  C1060  1  0.425910  0.649970  0.069630  1.0  -0.1548
  C  C1061  1  0.430960  0.617510  0.063180  1.0  -0.0914
  C  C1062  1  0.415040  0.594190  0.081170  1.0  -0.1269
  C  C1063  1  0.444700  0.675000  0.051990  1.0  0.6718
  C  C1064  1  0.359400  0.524300  0.238400  1.0  0.0344
  C  C1065  1  0.411700  0.471700  0.365600  1.0  -0.0689
  C  C1066  1  0.374600  0.524700  0.270700  1.0  0.1268
  C  C1067  1  0.399900  0.473500  0.328700  1.0  -0.123
  C  C1068  1  0.757400  0.703900  0.024600  1.0  0.1816
  C  C1069  1  0.788200  0.691500  0.025500  1.0  0.093
  C  C1070  1  0.688860  0.280000  0.971700  1.0  -0.0877
  C  C1071  1  0.657110  0.270600  0.971400  1.0  -0.1175
  C  C1072  1  0.380300  0.421540  0.873000  1.0  0.0603
  C  C1073  1  0.353400  0.438800  0.882870  1.0  -0.1484
  C  C1074  1  0.340260  0.462300  0.862900  1.0  -0.1742
  C  C1075  1  0.354100  0.468500  0.833000  1.0  0.0059
  C  C1076  1  0.381000  0.451200  0.823140  1.0  -0.1341
  C  C1077  1  0.394100  0.427700  0.843100  1.0  -0.1379
  C  C1078  1  0.394060  0.396660  0.894380  1.0  0.0281
  C  C1079  1  0.389010  0.364190  0.887940  1.0  -0.1613
  C  C1080  1  0.404940  0.340880  0.905930  1.0  -0.093
  C  C1081  1  0.425910  0.350030  0.930370  1.0  -0.1545
  C  C1082  1  0.430960  0.382490  0.936820  1.0  -0.0911
  C  C1083  1  0.415040  0.405810  0.918830  1.0  -0.1251
  C  C1084  1  0.444700  0.325000  0.948010  1.0  0.6704
  C  C1085  1  0.359400  0.475700  0.761600  1.0  0.0372
  C  C1086  1  0.411700  0.528300  0.634400  1.0  -0.0696
  C  C1087  1  0.374600  0.475300  0.729300  1.0  0.1269
  C  C1088  1  0.399900  0.526500  0.671300  1.0  -0.123
  C  C1089  1  0.757400  0.296100  0.975400  1.0  0.1772
  C  C1090  1  0.788200  0.308500  0.974500  1.0  0.0946
  C  C1091  1  0.311140  0.720000  0.971700  1.0  -0.0883
  C  C1092  1  0.342890  0.729400  0.971400  1.0  -0.1181
  C  C1093  1  0.619700  0.578460  0.873000  1.0  0.0597
  C  C1094  1  0.646600  0.561200  0.882870  1.0  -0.1471
  C  C1095  1  0.659740  0.537700  0.862900  1.0  -0.1744
  C  C1096  1  0.645900  0.531500  0.833000  1.0  0.0078
  C  C1097  1  0.619000  0.548800  0.823140  1.0  -0.1332
  C  C1098  1  0.605900  0.572300  0.843100  1.0  -0.1385
  C  C1099  1  0.605940  0.603340  0.894380  1.0  0.0286
  C  C1100  1  0.610990  0.635810  0.887940  1.0  -0.1611
  C  C1101  1  0.595060  0.659120  0.905930  1.0  -0.0926
  C  C1102  1  0.574090  0.649970  0.930370  1.0  -0.1543
  C  C1103  1  0.569040  0.617510  0.936820  1.0  -0.0904
  C  C1104  1  0.584960  0.594190  0.918830  1.0  -0.1267
  C  C1105  1  0.555300  0.675000  0.948010  1.0  0.6716
  C  C1106  1  0.640600  0.524300  0.761600  1.0  0.0352
  C  C1107  1  0.588300  0.471700  0.634400  1.0  -0.0697
  C  C1108  1  0.625400  0.524700  0.729300  1.0  0.1273
  C  C1109  1  0.600100  0.473500  0.671300  1.0  -0.1231
  C  C1110  1  0.242600  0.703900  0.975400  1.0  0.1779
  C  C1111  1  0.211800  0.691500  0.974500  1.0  0.0943
  C  C1112  1  0.311140  0.280000  0.028300  1.0  -0.0901
  C  C1113  1  0.342890  0.270600  0.028600  1.0  -0.1206
  C  C1114  1  0.619700  0.421540  0.127000  1.0  0.0598
  C  C1115  1  0.646600  0.438800  0.117130  1.0  -0.1477
  C  C1116  1  0.659740  0.462300  0.137100  1.0  -0.1753
  C  C1117  1  0.645900  0.468500  0.167000  1.0  0.0064
  C  C1118  1  0.619000  0.451200  0.176860  1.0  -0.1348
  C  C1119  1  0.605900  0.427700  0.156900  1.0  -0.1375
  C  C1120  1  0.605940  0.396660  0.105620  1.0  0.029
  C  C1121  1  0.610990  0.364190  0.112060  1.0  -0.1592
  C  C1122  1  0.595060  0.340880  0.094070  1.0  -0.0928
  C  C1123  1  0.574090  0.350030  0.069630  1.0  -0.1542
  C  C1124  1  0.569040  0.382490  0.063180  1.0  -0.0899
  C  C1125  1  0.584960  0.405810  0.081170  1.0  -0.1261
  C  C1126  1  0.555300  0.325000  0.051990  1.0  0.6715
  C  C1127  1  0.640600  0.475700  0.238400  1.0  0.0353
  C  C1128  1  0.588300  0.528300  0.365600  1.0  -0.0692
  C  C1129  1  0.625400  0.475300  0.270700  1.0  0.1264
  C  C1130  1  0.600100  0.526500  0.328700  1.0  -0.1226
  C  C1131  1  0.242600  0.296100  0.024600  1.0  0.1829
  C  C1132  1  0.211800  0.308500  0.025500  1.0  0.0945
  C  C1133  1  0.528300  0.780000  0.811140  1.0  -0.0877
  C  C1134  1  0.528600  0.770600  0.842890  1.0  -0.1171
  C  C1135  1  0.627000  0.921540  0.119700  1.0  0.06
  C  C1136  1  0.617130  0.938800  0.146600  1.0  -0.1489
  C  C1137  1  0.637100  0.962300  0.159740  1.0  -0.1753
  C  C1138  1  0.667000  0.968500  0.145900  1.0  0.0061
  C  C1139  1  0.676860  0.951200  0.119000  1.0  -0.1355
  C  C1140  1  0.656900  0.927700  0.105900  1.0  -0.1386
  C  C1141  1  0.605620  0.896660  0.105940  1.0  0.0289
  C  C1142  1  0.612060  0.864190  0.110990  1.0  -0.1594
  C  C1143  1  0.594070  0.840880  0.095060  1.0  -0.0936
  C  C1144  1  0.569630  0.850030  0.074090  1.0  -0.1545
  C  C1145  1  0.563180  0.882490  0.069040  1.0  -0.0892
  C  C1146  1  0.581170  0.905810  0.084960  1.0  -0.1277
  C  C1147  1  0.551990  0.825000  0.055300  1.0  0.6716
  C  C1148  1  0.738400  0.975700  0.140600  1.0  0.0346
  C  C1149  1  0.865600  0.028300  0.088300  1.0  -0.0697
  C  C1150  1  0.770700  0.975300  0.125400  1.0  0.127
  C  C1151  1  0.828700  0.026500  0.100100  1.0  -0.1206
  C  C1152  1  0.524600  0.796100  0.742600  1.0  0.1873
  C  C1153  1  0.525500  0.808500  0.711800  1.0  0.0946
  C  C1154  1  0.471700  0.220000  0.811140  1.0  -0.0878
  C  C1155  1  0.471400  0.229400  0.842890  1.0  -0.1161
  C  C1156  1  0.373000  0.078460  0.119700  1.0  0.0603
  C  C1157  1  0.382870  0.061200  0.146600  1.0  -0.1459
  C  C1158  1  0.362900  0.037700  0.159740  1.0  -0.1755
  C  C1159  1  0.333000  0.031500  0.145900  1.0  0.0077
  C  C1160  1  0.323140  0.048800  0.119000  1.0  -0.1336
  C  C1161  1  0.343100  0.072300  0.105900  1.0  -0.1376
  C  C1162  1  0.394380  0.103340  0.105940  1.0  0.029
  C  C1163  1  0.387940  0.135810  0.110990  1.0  -0.1609
  C  C1164  1  0.405930  0.159120  0.095060  1.0  -0.0934
  C  C1165  1  0.430370  0.149970  0.074090  1.0  -0.154
  C  C1166  1  0.436820  0.117510  0.069040  1.0  -0.0891
  C  C1167  1  0.418830  0.094190  0.084960  1.0  -0.128
  C  C1168  1  0.448010  0.175000  0.055300  1.0  0.6717
  C  C1169  1  0.261600  0.024300  0.140600  1.0  0.034
  C  C1170  1  0.134400  0.971700  0.088300  1.0  -0.0713
  C  C1171  1  0.229300  0.024700  0.125400  1.0  0.1258
  C  C1172  1  0.171300  0.973500  0.100100  1.0  -0.1219
  C  C1173  1  0.475400  0.203900  0.742600  1.0  0.1846
  C  C1174  1  0.474500  0.191500  0.711800  1.0  0.0944
  C  C1175  1  0.471700  0.780000  0.188860  1.0  -0.0888
  C  C1176  1  0.471400  0.770600  0.157110  1.0  -0.1164
  C  C1177  1  0.373000  0.921540  0.880300  1.0  0.0605
  C  C1178  1  0.382870  0.938800  0.853400  1.0  -0.147
  C  C1179  1  0.362900  0.962300  0.840260  1.0  -0.1761
  C  C1180  1  0.333000  0.968500  0.854100  1.0  0.0059
  C  C1181  1  0.323140  0.951200  0.881000  1.0  -0.1352
  C  C1182  1  0.343100  0.927700  0.894100  1.0  -0.1361
  C  C1183  1  0.394380  0.896660  0.894060  1.0  0.0292
  C  C1184  1  0.387940  0.864190  0.889010  1.0  -0.1614
  C  C1185  1  0.405930  0.840880  0.904940  1.0  -0.094
  C  C1186  1  0.430370  0.850030  0.925910  1.0  -0.1539
  C  C1187  1  0.436820  0.882490  0.930960  1.0  -0.0886
  C  C1188  1  0.418830  0.905810  0.915040  1.0  -0.1261
  C  C1189  1  0.448010  0.825000  0.944700  1.0  0.6711
  C  C1190  1  0.261600  0.975700  0.859400  1.0  0.0357
  C  C1191  1  0.134400  0.028300  0.911700  1.0  -0.0706
  C  C1192  1  0.229300  0.975300  0.874600  1.0  0.1255
  C  C1193  1  0.171300  0.026500  0.899900  1.0  -0.1202
  C  C1194  1  0.475400  0.796100  0.257400  1.0  0.1844
  C  C1195  1  0.474500  0.808500  0.288200  1.0  0.0966
  C  C1196  1  0.528300  0.220000  0.188860  1.0  -0.0877
  C  C1197  1  0.528600  0.229400  0.157110  1.0  -0.1164
  C  C1198  1  0.627000  0.078460  0.880300  1.0  0.0599
  C  C1199  1  0.617130  0.061200  0.853400  1.0  -0.1484
  C  C1200  1  0.637100  0.037700  0.840260  1.0  -0.1748
  C  C1201  1  0.667000  0.031500  0.854100  1.0  0.0076
  C  C1202  1  0.676860  0.048800  0.881000  1.0  -0.1333
  C  C1203  1  0.656900  0.072300  0.894100  1.0  -0.1357
  C  C1204  1  0.605620  0.103340  0.894060  1.0  0.0291
  C  C1205  1  0.612060  0.135810  0.889010  1.0  -0.1615
  C  C1206  1  0.594070  0.159120  0.904940  1.0  -0.0931
  C  C1207  1  0.569630  0.149970  0.925910  1.0  -0.1545
  C  C1208  1  0.563180  0.117510  0.930960  1.0  -0.0892
  C  C1209  1  0.581170  0.094190  0.915040  1.0  -0.1278
  C  C1210  1  0.551990  0.175000  0.944700  1.0  0.6725
  C  C1211  1  0.738400  0.024300  0.859400  1.0  0.0355
  C  C1212  1  0.865600  0.971700  0.911700  1.0  -0.0699
  C  C1213  1  0.770700  0.024700  0.874600  1.0  0.1262
  C  C1214  1  0.828700  0.973500  0.899900  1.0  -0.1204
  C  C1215  1  0.524600  0.203900  0.257400  1.0  0.1873
  C  C1216  1  0.525500  0.191500  0.288200  1.0  0.0956
  C  C1217  1  0.811140  0.528300  0.780000  1.0  -0.0914
  C  C1218  1  0.842890  0.528600  0.770600  1.0  -0.1168
  C  C1219  1  0.119700  0.627000  0.921540  1.0  0.0591
  C  C1220  1  0.146600  0.617130  0.938800  1.0  -0.1507
  C  C1221  1  0.159740  0.637100  0.962300  1.0  -0.1739
  C  C1222  1  0.145900  0.667000  0.968500  1.0  0.0074
  C  C1223  1  0.119000  0.676860  0.951200  1.0  -0.1362
  C  C1224  1  0.105900  0.656900  0.927700  1.0  -0.1388
  C  C1225  1  0.105940  0.605620  0.896660  1.0  0.0288
  C  C1226  1  0.110990  0.612060  0.864190  1.0  -0.1629
  C  C1227  1  0.095060  0.594070  0.840880  1.0  -0.0934
  C  C1228  1  0.074090  0.569630  0.850030  1.0  -0.1544
  C  C1229  1  0.069040  0.563180  0.882490  1.0  -0.0871
  C  C1230  1  0.084960  0.581170  0.905810  1.0  -0.1257
  C  C1231  1  0.055300  0.551990  0.825000  1.0  0.6717
  C  C1232  1  0.140600  0.738400  0.975700  1.0  0.0328
  C  C1233  1  0.088300  0.865600  0.028300  1.0  -0.0668
  C  C1234  1  0.125400  0.770700  0.975300  1.0  0.1292
  C  C1235  1  0.100100  0.828700  0.026500  1.0  -0.1203
  C  C1236  1  0.742600  0.524600  0.796100  1.0  0.181
  C  C1237  1  0.711800  0.525500  0.808500  1.0  0.0925
  C  C1238  1  0.811140  0.471700  0.220000  1.0  -0.0907
  C  C1239  1  0.842890  0.471400  0.229400  1.0  -0.1182
  C  C1240  1  0.119700  0.373000  0.078460  1.0  0.0593
  C  C1241  1  0.146600  0.382870  0.061200  1.0  -0.1501
  C  C1242  1  0.159740  0.362900  0.037700  1.0  -0.1758
  C  C1243  1  0.145900  0.333000  0.031500  1.0  0.0092
  C  C1244  1  0.119000  0.323140  0.048800  1.0  -0.1353
  C  C1245  1  0.105900  0.343100  0.072300  1.0  -0.1379
  C  C1246  1  0.105940  0.394380  0.103340  1.0  0.0285
  C  C1247  1  0.110990  0.387940  0.135810  1.0  -0.1594
  C  C1248  1  0.095060  0.405930  0.159120  1.0  -0.0932
  C  C1249  1  0.074090  0.430370  0.149970  1.0  -0.1542
  C  C1250  1  0.069040  0.436820  0.117510  1.0  -0.0875
  C  C1251  1  0.084960  0.418830  0.094190  1.0  -0.1255
  C  C1252  1  0.055300  0.448010  0.175000  1.0  0.6715
  C  C1253  1  0.140600  0.261600  0.024300  1.0  0.0284
  C  C1254  1  0.088300  0.134400  0.971700  1.0  -0.0671
  C  C1255  1  0.125400  0.229300  0.024700  1.0  0.1302
  C  C1256  1  0.100100  0.171300  0.973500  1.0  -0.123
  C  C1257  1  0.742600  0.475400  0.203900  1.0  0.1818
  C  C1258  1  0.711800  0.474500  0.191500  1.0  0.0926
  C  C1259  1  0.188860  0.471700  0.780000  1.0  -0.0902
  C  C1260  1  0.157110  0.471400  0.770600  1.0  -0.1175
  C  C1261  1  0.880300  0.373000  0.921540  1.0  0.0593
  C  C1262  1  0.853400  0.382870  0.938800  1.0  -0.1505
  C  C1263  1  0.840260  0.362900  0.962300  1.0  -0.173
  C  C1264  1  0.854100  0.333000  0.968500  1.0  0.0062
  C  C1265  1  0.881000  0.323140  0.951200  1.0  -0.1351
  C  C1266  1  0.894100  0.343100  0.927700  1.0  -0.1376
  C  C1267  1  0.894060  0.394380  0.896660  1.0  0.0282
  C  C1268  1  0.889010  0.387940  0.864190  1.0  -0.1621
  C  C1269  1  0.904940  0.405930  0.840880  1.0  -0.0944
  C  C1270  1  0.925910  0.430370  0.850030  1.0  -0.1543
  C  C1271  1  0.930960  0.436820  0.882490  1.0  -0.0873
  C  C1272  1  0.915040  0.418830  0.905810  1.0  -0.1242
  C  C1273  1  0.944700  0.448010  0.825000  1.0  0.6718
  C  C1274  1  0.859400  0.261600  0.975700  1.0  0.0339
  C  C1275  1  0.911700  0.134400  0.028300  1.0  -0.0678
  C  C1276  1  0.874600  0.229300  0.975300  1.0  0.1303
  C  C1277  1  0.899900  0.171300  0.026500  1.0  -0.1203
  C  C1278  1  0.257400  0.475400  0.796100  1.0  0.1817
  C  C1279  1  0.288200  0.474500  0.808500  1.0  0.0933
  C  C1280  1  0.188860  0.528300  0.220000  1.0  -0.0895
  C  C1281  1  0.157110  0.528600  0.229400  1.0  -0.1151
  C  C1282  1  0.880300  0.627000  0.078460  1.0  0.06
  C  C1283  1  0.853400  0.617130  0.061200  1.0  -0.1516
  C  C1284  1  0.840260  0.637100  0.037700  1.0  -0.1754
  C  C1285  1  0.854100  0.667000  0.031500  1.0  0.0088
  C  C1286  1  0.881000  0.676860  0.048800  1.0  -0.1353
  C  C1287  1  0.894100  0.656900  0.072300  1.0  -0.1381
  C  C1288  1  0.894060  0.605620  0.103340  1.0  0.0281
  C  C1289  1  0.889010  0.612060  0.135810  1.0  -0.1618
  C  C1290  1  0.904940  0.594070  0.159120  1.0  -0.0938
  C  C1291  1  0.925910  0.569630  0.149970  1.0  -0.1551
  C  C1292  1  0.930960  0.563180  0.117510  1.0  -0.0886
  C  C1293  1  0.915040  0.581170  0.094190  1.0  -0.1263
  C  C1294  1  0.944700  0.551990  0.175000  1.0  0.6704
  C  C1295  1  0.859400  0.738400  0.024300  1.0  0.0283
  C  C1296  1  0.911700  0.865600  0.971700  1.0  -0.0669
  C  C1297  1  0.874600  0.770700  0.024700  1.0  0.1301
  C  C1298  1  0.899900  0.828700  0.973500  1.0  -0.1219
  C  C1299  1  0.257400  0.524600  0.203900  1.0  0.1802
  C  C1300  1  0.288200  0.525500  0.191500  1.0  0.0913
  C  C1301  1  0.780000  0.811140  0.528300  1.0  -0.0903
  C  C1302  1  0.770600  0.842890  0.528600  1.0  -0.1213
  C  C1303  1  0.921540  0.119700  0.627000  1.0  0.058
  C  C1304  1  0.938800  0.146600  0.617130  1.0  -0.1503
  C  C1305  1  0.962300  0.159740  0.637100  1.0  -0.1754
  C  C1306  1  0.968500  0.145900  0.667000  1.0  0.0046
  C  C1307  1  0.951200  0.119000  0.676860  1.0  -0.1342
  C  C1308  1  0.927700  0.105900  0.656900  1.0  -0.1403
  C  C1309  1  0.896660  0.105940  0.605620  1.0  0.029
  C  C1310  1  0.864190  0.110990  0.612060  1.0  -0.1609
  C  C1311  1  0.840880  0.095060  0.594070  1.0  -0.093
  C  C1312  1  0.850030  0.074090  0.569630  1.0  -0.1553
  C  C1313  1  0.882490  0.069040  0.563180  1.0  -0.0908
  C  C1314  1  0.905810  0.084960  0.581170  1.0  -0.1234
  C  C1315  1  0.825000  0.055300  0.551990  1.0  0.6728
  C  C1316  1  0.975700  0.140600  0.738400  1.0  0.0358
  C  C1317  1  0.028300  0.088300  0.865600  1.0  -0.0656
  C  C1318  1  0.975300  0.125400  0.770700  1.0  0.128
  C  C1319  1  0.026500  0.100100  0.828700  1.0  -0.1215
  C  C1320  1  0.796100  0.742600  0.524600  1.0  0.1824
  C  C1321  1  0.808500  0.711800  0.525500  1.0  0.0949
  C  C1322  1  0.220000  0.811140  0.471700  1.0  -0.0893
  C  C1323  1  0.229400  0.842890  0.471400  1.0  -0.1177
  C  C1324  1  0.078460  0.119700  0.373000  1.0  0.0593
  C  C1325  1  0.061200  0.146600  0.382870  1.0  -0.1496
  C  C1326  1  0.037700  0.159740  0.362900  1.0  -0.1758
  C  C1327  1  0.031500  0.145900  0.333000  1.0  0.0021
  C  C1328  1  0.048800  0.119000  0.323140  1.0  -0.1349
  C  C1329  1  0.072300  0.105900  0.343100  1.0  -0.1418
  C  C1330  1  0.103340  0.105940  0.394380  1.0  0.029
  C  C1331  1  0.135810  0.110990  0.387940  1.0  -0.1608
  C  C1332  1  0.159120  0.095060  0.405930  1.0  -0.0923
  C  C1333  1  0.149970  0.074090  0.430370  1.0  -0.1546
  C  C1334  1  0.117510  0.069040  0.436820  1.0  -0.0901
  C  C1335  1  0.094190  0.084960  0.418830  1.0  -0.1245
  C  C1336  1  0.175000  0.055300  0.448010  1.0  0.6711
  C  C1337  1  0.024300  0.140600  0.261600  1.0  0.0369
  C  C1338  1  0.971700  0.088300  0.134400  1.0  -0.0666
  C  C1339  1  0.024700  0.125400  0.229300  1.0  0.1288
  C  C1340  1  0.973500  0.100100  0.171300  1.0  -0.1202
  C  C1341  1  0.203900  0.742600  0.475400  1.0  0.1777
  C  C1342  1  0.191500  0.711800  0.474500  1.0  0.0941
  C  C1343  1  0.780000  0.188860  0.471700  1.0  -0.0899
  C  C1344  1  0.770600  0.157110  0.471400  1.0  -0.1187
  C  C1345  1  0.921540  0.880300  0.373000  1.0  0.0581
  C  C1346  1  0.938800  0.853400  0.382870  1.0  -0.1504
  C  C1347  1  0.962300  0.840260  0.362900  1.0  -0.175
  C  C1348  1  0.968500  0.854100  0.333000  1.0  0.0037
  C  C1349  1  0.951200  0.881000  0.323140  1.0  -0.1344
  C  C1350  1  0.927700  0.894100  0.343100  1.0  -0.1397
  C  C1351  1  0.896660  0.894060  0.394380  1.0  0.0286
  C  C1352  1  0.864190  0.889010  0.387940  1.0  -0.1611
  C  C1353  1  0.840880  0.904940  0.405930  1.0  -0.0925
  C  C1354  1  0.850030  0.925910  0.430370  1.0  -0.1555
  C  C1355  1  0.882490  0.930960  0.436820  1.0  -0.0907
  C  C1356  1  0.905810  0.915040  0.418830  1.0  -0.1233
  C  C1357  1  0.825000  0.944700  0.448010  1.0  0.6724
  C  C1358  1  0.975700  0.859400  0.261600  1.0  0.037
  C  C1359  1  0.028300  0.911700  0.134400  1.0  -0.0663
  C  C1360  1  0.975300  0.874600  0.229300  1.0  0.1282
  C  C1361  1  0.026500  0.899900  0.171300  1.0  -0.1215
  C  C1362  1  0.796100  0.257400  0.475400  1.0  0.1767
  C  C1363  1  0.808500  0.288200  0.474500  1.0  0.0952
  C  C1364  1  0.220000  0.188860  0.528300  1.0  -0.0906
  C  C1365  1  0.229400  0.157110  0.528600  1.0  -0.119
  C  C1366  1  0.078460  0.880300  0.627000  1.0  0.0596
  C  C1367  1  0.061200  0.853400  0.617130  1.0  -0.1499
  C  C1368  1  0.037700  0.840260  0.637100  1.0  -0.1761
  C  C1369  1  0.031500  0.854100  0.667000  1.0  0.0018
  C  C1370  1  0.048800  0.881000  0.676860  1.0  -0.1343
  C  C1371  1  0.072300  0.894100  0.656900  1.0  -0.1389
  C  C1372  1  0.103340  0.894060  0.605620  1.0  0.0296
  C  C1373  1  0.135810  0.889010  0.612060  1.0  -0.1577
  C  C1374  1  0.159120  0.904940  0.594070  1.0  -0.092
  C  C1375  1  0.149970  0.925910  0.569630  1.0  -0.1543
  C  C1376  1  0.117510  0.930960  0.563180  1.0  -0.0899
  C  C1377  1  0.094190  0.915040  0.581170  1.0  -0.1251
  C  C1378  1  0.175000  0.944700  0.551990  1.0  0.6718
  C  C1379  1  0.024300  0.859400  0.738400  1.0  0.0356
  C  C1380  1  0.971700  0.911700  0.865600  1.0  -0.0662
  C  C1381  1  0.024700  0.874600  0.770700  1.0  0.1294
  C  C1382  1  0.973500  0.899900  0.828700  1.0  -0.1204
  C  C1383  1  0.203900  0.257400  0.524600  1.0  0.1837
  C  C1384  1  0.191500  0.288200  0.525500  1.0  0.094
  C  C1385  1  0.280000  0.028300  0.688860  1.0  -0.0897
  C  C1386  1  0.270600  0.028600  0.657110  1.0  -0.114
  C  C1387  1  0.421540  0.127000  0.380300  1.0  0.058
  C  C1388  1  0.438800  0.117130  0.353400  1.0  -0.1511
  C  C1389  1  0.462300  0.137100  0.340260  1.0  -0.1765
  C  C1390  1  0.468500  0.167000  0.354100  1.0  0.0041
  C  C1391  1  0.451200  0.176860  0.381000  1.0  -0.1337
  C  C1392  1  0.427700  0.156900  0.394100  1.0  -0.1383
  C  C1393  1  0.396660  0.105620  0.394060  1.0  0.029
  C  C1394  1  0.364190  0.112060  0.389010  1.0  -0.1624
  C  C1395  1  0.340880  0.094070  0.404940  1.0  -0.0937
  C  C1396  1  0.350030  0.069630  0.425910  1.0  -0.1551
  C  C1397  1  0.382490  0.063180  0.430960  1.0  -0.0893
  C  C1398  1  0.405810  0.081170  0.415040  1.0  -0.1237
  C  C1399  1  0.325000  0.051990  0.444700  1.0  0.6733
  C  C1400  1  0.475700  0.238400  0.359400  1.0  0.0362
  C  C1401  1  0.528300  0.365600  0.411700  1.0  -0.0676
  C  C1402  1  0.475300  0.270700  0.374600  1.0  0.1276
  C  C1403  1  0.526500  0.328700  0.399900  1.0  -0.1211
  C  C1404  1  0.296100  0.024600  0.757400  1.0  0.1803
  C  C1405  1  0.308500  0.025500  0.788200  1.0  0.0966
  C  C1406  1  0.720000  0.971700  0.688860  1.0  -0.0903
  C  C1407  1  0.729400  0.971400  0.657110  1.0  -0.1153
  C  C1408  1  0.578460  0.873000  0.380300  1.0  0.0593
  C  C1409  1  0.561200  0.882870  0.353400  1.0  -0.1504
  C  C1410  1  0.537700  0.862900  0.340260  1.0  -0.1773
  C  C1411  1  0.531500  0.833000  0.354100  1.0  0.0018
  C  C1412  1  0.548800  0.823140  0.381000  1.0  -0.1337
  C  C1413  1  0.572300  0.843100  0.394100  1.0  -0.1375
  C  C1414  1  0.603340  0.894380  0.394060  1.0  0.0294
  C  C1415  1  0.635810  0.887940  0.389010  1.0  -0.1615
  C  C1416  1  0.659120  0.905930  0.404940  1.0  -0.093
  C  C1417  1  0.649970  0.930370  0.425910  1.0  -0.1537
  C  C1418  1  0.617510  0.936820  0.430960  1.0  -0.0895
  C  C1419  1  0.594190  0.918830  0.415040  1.0  -0.1257
  C  C1420  1  0.675000  0.948010  0.444700  1.0  0.6726
  C  C1421  1  0.524300  0.761600  0.359400  1.0  0.0362
  C  C1422  1  0.471700  0.634400  0.411700  1.0  -0.0692
  C  C1423  1  0.524700  0.729300  0.374600  1.0  0.1285
  C  C1424  1  0.473500  0.671300  0.399900  1.0  -0.1192
  C  C1425  1  0.703900  0.975400  0.757400  1.0  0.1816
  C  C1426  1  0.691500  0.974500  0.788200  1.0  0.0964
  C  C1427  1  0.280000  0.971700  0.311140  1.0  -0.0896
  C  C1428  1  0.270600  0.971400  0.342890  1.0  -0.1165
  C  C1429  1  0.421540  0.873000  0.619700  1.0  0.058
  C  C1430  1  0.438800  0.882870  0.646600  1.0  -0.1511
  C  C1431  1  0.462300  0.862900  0.659740  1.0  -0.1765
  C  C1432  1  0.468500  0.833000  0.645900  1.0  0.004
  C  C1433  1  0.451200  0.823140  0.619000  1.0  -0.133
  C  C1434  1  0.427700  0.843100  0.605900  1.0  -0.1392
  C  C1435  1  0.396660  0.894380  0.605940  1.0  0.0287
  C  C1436  1  0.364190  0.887940  0.610990  1.0  -0.1602
  C  C1437  1  0.340880  0.905930  0.595060  1.0  -0.0939
  C  C1438  1  0.350030  0.930370  0.574090  1.0  -0.1546
  C  C1439  1  0.382490  0.936820  0.569040  1.0  -0.0892
  C  C1440  1  0.405810  0.918830  0.584960  1.0  -0.1248
  C  C1441  1  0.325000  0.948010  0.555300  1.0  0.6732
  C  C1442  1  0.475700  0.761600  0.640600  1.0  0.0358
  C  C1443  1  0.528300  0.634400  0.588300  1.0  -0.0685
  C  C1444  1  0.475300  0.729300  0.625400  1.0  0.1278
  C  C1445  1  0.526500  0.671300  0.600100  1.0  -0.1215
  C  C1446  1  0.296100  0.975400  0.242600  1.0  0.1802
  C  C1447  1  0.308500  0.974500  0.211800  1.0  0.0961
  C  C1448  1  0.720000  0.028300  0.311140  1.0  -0.0899
  C  C1449  1  0.729400  0.028600  0.342890  1.0  -0.1133
  C  C1450  1  0.578460  0.127000  0.619700  1.0  0.0596
  C  C1451  1  0.561200  0.117130  0.646600  1.0  -0.1507
  C  C1452  1  0.537700  0.137100  0.659740  1.0  -0.1777
  C  C1453  1  0.531500  0.167000  0.645900  1.0  0.0021
  C  C1454  1  0.548800  0.176860  0.619000  1.0  -0.1345
  C  C1455  1  0.572300  0.156900  0.605900  1.0  -0.1403
  C  C1456  1  0.603340  0.105620  0.605940  1.0  0.029
  C  C1457  1  0.635810  0.112060  0.610990  1.0  -0.1593
  C  C1458  1  0.659120  0.094070  0.595060  1.0  -0.0932
  C  C1459  1  0.649970  0.069630  0.574090  1.0  -0.1543
  C  C1460  1  0.617510  0.063180  0.569040  1.0  -0.0887
  C  C1461  1  0.594190  0.081170  0.584960  1.0  -0.1258
  C  C1462  1  0.675000  0.051990  0.555300  1.0  0.672
  C  C1463  1  0.524300  0.238400  0.640600  1.0  0.0359
  C  C1464  1  0.471700  0.365600  0.588300  1.0  -0.0688
  C  C1465  1  0.524700  0.270700  0.625400  1.0  0.1291
  C  C1466  1  0.473500  0.328700  0.600100  1.0  -0.1195
  C  C1467  1  0.703900  0.024600  0.242600  1.0  0.1804
  C  C1468  1  0.691500  0.025500  0.211800  1.0  0.0955
  C  C1469  1  0.028300  0.311140  0.720000  1.0  -0.0874
  C  C1470  1  0.028600  0.342890  0.729400  1.0  -0.1189
  C  C1471  1  0.127000  0.619700  0.578460  1.0  0.0594
  C  C1472  1  0.117130  0.646600  0.561200  1.0  -0.151
  C  C1473  1  0.137100  0.659740  0.537700  1.0  -0.1746
  C  C1474  1  0.167000  0.645900  0.531500  1.0  0.0092
  C  C1475  1  0.176860  0.619000  0.548800  1.0  -0.1363
  C  C1476  1  0.156900  0.605900  0.572300  1.0  -0.14
  C  C1477  1  0.105620  0.605940  0.603340  1.0  0.0286
  C  C1478  1  0.112060  0.610990  0.635810  1.0  -0.1596
  C  C1479  1  0.094070  0.595060  0.659120  1.0  -0.0935
  C  C1480  1  0.069630  0.574090  0.649970  1.0  -0.1552
  C  C1481  1  0.063180  0.569040  0.617510  1.0  -0.0871
  C  C1482  1  0.081170  0.584960  0.594190  1.0  -0.1254
  C  C1483  1  0.051990  0.555300  0.675000  1.0  0.6709
  C  C1484  1  0.238400  0.640600  0.524300  1.0  0.029
  C  C1485  1  0.365600  0.588300  0.471700  1.0  -0.0655
  C  C1486  1  0.270700  0.625400  0.524700  1.0  0.1297
  C  C1487  1  0.328700  0.600100  0.473500  1.0  -0.1216
  C  C1488  1  0.024600  0.242600  0.703900  1.0  0.1874
  C  C1489  1  0.025500  0.211800  0.691500  1.0  0.098
  C  C1490  1  0.971700  0.311140  0.280000  1.0  -0.088
  C  C1491  1  0.971400  0.342890  0.270600  1.0  -0.1189
  C  C1492  1  0.873000  0.619700  0.421540  1.0  0.0595
  C  C1493  1  0.882870  0.646600  0.438800  1.0  -0.1495
  C  C1494  1  0.862900  0.659740  0.462300  1.0  -0.1744
  C  C1495  1  0.833000  0.645900  0.468500  1.0  0.0069
  C  C1496  1  0.823140  0.619000  0.451200  1.0  -0.1362
  C  C1497  1  0.843100  0.605900  0.427700  1.0  -0.1403
  C  C1498  1  0.894380  0.605940  0.396660  1.0  0.0291
  C  C1499  1  0.887940  0.610990  0.364190  1.0  -0.1627
  C  C1500  1  0.905930  0.595060  0.340880  1.0  -0.0942
  C  C1501  1  0.930370  0.574090  0.350030  1.0  -0.1541
  C  C1502  1  0.936820  0.569040  0.382490  1.0  -0.0871
  C  C1503  1  0.918830  0.584960  0.405810  1.0  -0.1245
  C  C1504  1  0.948010  0.555300  0.325000  1.0  0.6708
  C  C1505  1  0.761600  0.640600  0.475700  1.0  0.0328
  C  C1506  1  0.634400  0.588300  0.528300  1.0  -0.0668
  C  C1507  1  0.729300  0.625400  0.475300  1.0  0.1292
  C  C1508  1  0.671300  0.600100  0.526500  1.0  -0.1202
  C  C1509  1  0.975400  0.242600  0.296100  1.0  0.1846
  C  C1510  1  0.974500  0.211800  0.308500  1.0  0.0983
  C  C1511  1  0.971700  0.688860  0.720000  1.0  -0.0883
  C  C1512  1  0.971400  0.657110  0.729400  1.0  -0.118
  C  C1513  1  0.873000  0.380300  0.578460  1.0  0.06
  C  C1514  1  0.882870  0.353400  0.561200  1.0  -0.148
  C  C1515  1  0.862900  0.340260  0.537700  1.0  -0.1756
  C  C1516  1  0.833000  0.354100  0.531500  1.0  0.009
  C  C1517  1  0.823140  0.381000  0.548800  1.0  -0.1364
  C  C1518  1  0.843100  0.394100  0.572300  1.0  -0.1391
  C  C1519  1  0.894380  0.394060  0.603340  1.0  0.0288
  C  C1520  1  0.887940  0.389010  0.635810  1.0  -0.1598
  C  C1521  1  0.905930  0.404940  0.659120  1.0  -0.0938
  C  C1522  1  0.930370  0.425910  0.649970  1.0  -0.1546
  C  C1523  1  0.936820  0.430960  0.617510  1.0  -0.0868
  C  C1524  1  0.918830  0.415040  0.594190  1.0  -0.1264
  C  C1525  1  0.948010  0.444700  0.675000  1.0  0.6705
  C  C1526  1  0.761600  0.359400  0.524300  1.0  0.0266
  C  C1527  1  0.634400  0.411700  0.471700  1.0  -0.0658
  C  C1528  1  0.729300  0.374600  0.524700  1.0  0.1287
  C  C1529  1  0.671300  0.399900  0.473500  1.0  -0.123
  C  C1530  1  0.975400  0.757400  0.703900  1.0  0.1847
  C  C1531  1  0.974500  0.788200  0.691500  1.0  0.0976
  C  C1532  1  0.028300  0.688860  0.280000  1.0  -0.0877
  C  C1533  1  0.028600  0.657110  0.270600  1.0  -0.1195
  C  C1534  1  0.127000  0.380300  0.421540  1.0  0.0592
  C  C1535  1  0.117130  0.353400  0.438800  1.0  -0.1502
  C  C1536  1  0.137100  0.340260  0.462300  1.0  -0.1737
  C  C1537  1  0.167000  0.354100  0.468500  1.0  0.0067
  C  C1538  1  0.176860  0.381000  0.451200  1.0  -0.1362
  C  C1539  1  0.156900  0.394100  0.427700  1.0  -0.1381
  C  C1540  1  0.105620  0.394060  0.396660  1.0  0.029
  C  C1541  1  0.112060  0.389010  0.364190  1.0  -0.1618
  C  C1542  1  0.094070  0.404940  0.340880  1.0  -0.0943
  C  C1543  1  0.069630  0.425910  0.350030  1.0  -0.1546
  C  C1544  1  0.063180  0.430960  0.382490  1.0  -0.0878
  C  C1545  1  0.081170  0.415040  0.405810  1.0  -0.1258
  C  C1546  1  0.051990  0.444700  0.325000  1.0  0.6717
  C  C1547  1  0.238400  0.359400  0.475700  1.0  0.0333
  C  C1548  1  0.365600  0.411700  0.528300  1.0  -0.0651
  C  C1549  1  0.270700  0.374600  0.475300  1.0  0.1289
  C  C1550  1  0.328700  0.399900  0.526500  1.0  -0.12
  C  C1551  1  0.024600  0.757400  0.296100  1.0  0.1876
  C  C1552  1  0.025500  0.788200  0.308500  1.0  0.097
  C  C1553  1  0.311140  0.280000  0.971700  1.0  -0.0906
  C  C1554  1  0.342890  0.270600  0.971400  1.0  -0.1181
  C  C1555  1  0.619700  0.421540  0.873000  1.0  0.0598
  C  C1556  1  0.646600  0.438800  0.882870  1.0  -0.1469
  C  C1557  1  0.659740  0.462300  0.862900  1.0  -0.1739
  C  C1558  1  0.645900  0.468500  0.833000  1.0  0.0062
  C  C1559  1  0.619000  0.451200  0.823140  1.0  -0.1345
  C  C1560  1  0.605900  0.427700  0.843100  1.0  -0.1383
  C  C1561  1  0.605940  0.396660  0.894380  1.0  0.0285
  C  C1562  1  0.610990  0.364190  0.887940  1.0  -0.1615
  C  C1563  1  0.595060  0.340880  0.905930  1.0  -0.0928
  C  C1564  1  0.574090  0.350030  0.930370  1.0  -0.1542
  C  C1565  1  0.569040  0.382490  0.936820  1.0  -0.0908
  C  C1566  1  0.584960  0.405810  0.918830  1.0  -0.1259
  C  C1567  1  0.555300  0.325000  0.948010  1.0  0.6708
  C  C1568  1  0.640600  0.475700  0.761600  1.0  0.0372
  C  C1569  1  0.588300  0.528300  0.634400  1.0  -0.069
  C  C1570  1  0.625400  0.475300  0.729300  1.0  0.1271
  C  C1571  1  0.600100  0.526500  0.671300  1.0  -0.1208
  C  C1572  1  0.242600  0.296100  0.975400  1.0  0.1775
  C  C1573  1  0.211800  0.308500  0.974500  1.0  0.0949
  C  C1574  1  0.311140  0.720000  0.028300  1.0  -0.092
  C  C1575  1  0.342890  0.729400  0.028600  1.0  -0.1204
  C  C1576  1  0.619700  0.578460  0.127000  1.0  0.0598
  C  C1577  1  0.646600  0.561200  0.117130  1.0  -0.1477
  C  C1578  1  0.659740  0.537700  0.137100  1.0  -0.1742
  C  C1579  1  0.645900  0.531500  0.167000  1.0  0.0079
  C  C1580  1  0.619000  0.548800  0.176860  1.0  -0.1338
  C  C1581  1  0.605900  0.572300  0.156900  1.0  -0.1381
  C  C1582  1  0.605940  0.603340  0.105620  1.0  0.0291
  C  C1583  1  0.610990  0.635810  0.112060  1.0  -0.1595
  C  C1584  1  0.595060  0.659120  0.094070  1.0  -0.0915
  C  C1585  1  0.574090  0.649970  0.069630  1.0  -0.1542
  C  C1586  1  0.569040  0.617510  0.063180  1.0  -0.0901
  C  C1587  1  0.584960  0.594190  0.081170  1.0  -0.1268
  C  C1588  1  0.555300  0.675000  0.051990  1.0  0.6723
  C  C1589  1  0.640600  0.524300  0.238400  1.0  0.035
  C  C1590  1  0.588300  0.471700  0.365600  1.0  -0.0691
  C  C1591  1  0.625400  0.524700  0.270700  1.0  0.1271
  C  C1592  1  0.600100  0.473500  0.328700  1.0  -0.1222
  C  C1593  1  0.242600  0.703900  0.024600  1.0  0.1837
  C  C1594  1  0.211800  0.691500  0.025500  1.0  0.0943
  C  C1595  1  0.688860  0.280000  0.028300  1.0  -0.09
  C  C1596  1  0.657110  0.270600  0.028600  1.0  -0.119
  C  C1597  1  0.380300  0.421540  0.127000  1.0  0.0603
  C  C1598  1  0.353400  0.438800  0.117130  1.0  -0.1478
  C  C1599  1  0.340260  0.462300  0.137100  1.0  -0.1737
  C  C1600  1  0.354100  0.468500  0.167000  1.0  0.0061
  C  C1601  1  0.381000  0.451200  0.176860  1.0  -0.1336
  C  C1602  1  0.394100  0.427700  0.156900  1.0  -0.1365
  C  C1603  1  0.394060  0.396660  0.105620  1.0  0.0286
  C  C1604  1  0.389010  0.364190  0.112060  1.0  -0.1602
  C  C1605  1  0.404940  0.340880  0.094070  1.0  -0.0931
  C  C1606  1  0.425910  0.350030  0.069630  1.0  -0.1545
  C  C1607  1  0.430960  0.382490  0.063180  1.0  -0.091
  C  C1608  1  0.415040  0.405810  0.081170  1.0  -0.1257
  C  C1609  1  0.444700  0.325000  0.051990  1.0  0.6712
  C  C1610  1  0.359400  0.475700  0.238400  1.0  0.0342
  C  C1611  1  0.411700  0.528300  0.365600  1.0  -0.0692
  C  C1612  1  0.374600  0.475300  0.270700  1.0  0.1268
  C  C1613  1  0.399900  0.526500  0.328700  1.0  -0.1213
  C  C1614  1  0.757400  0.296100  0.024600  1.0  0.1824
  C  C1615  1  0.788200  0.308500  0.025500  1.0  0.0933
  C  C1616  1  0.688860  0.720000  0.971700  1.0  -0.0896
  C  C1617  1  0.657110  0.729400  0.971400  1.0  -0.1175
  C  C1618  1  0.380300  0.578460  0.873000  1.0  0.0603
  C  C1619  1  0.353400  0.561200  0.882870  1.0  -0.1487
  C  C1620  1  0.340260  0.537700  0.862900  1.0  -0.1737
  C  C1621  1  0.354100  0.531500  0.833000  1.0  0.0075
  C  C1622  1  0.381000  0.548800  0.823140  1.0  -0.1329
  C  C1623  1  0.394100  0.572300  0.843100  1.0  -0.1371
  C  C1624  1  0.394060  0.603340  0.894380  1.0  0.0281
  C  C1625  1  0.389010  0.635810  0.887940  1.0  -0.1613
  C  C1626  1  0.404940  0.659120  0.905930  1.0  -0.0933
  C  C1627  1  0.425910  0.649970  0.930370  1.0  -0.1548
  C  C1628  1  0.430960  0.617510  0.936820  1.0  -0.0914
  C  C1629  1  0.415040  0.594190  0.918830  1.0  -0.1263
  C  C1630  1  0.444700  0.675000  0.948010  1.0  0.6712
  C  C1631  1  0.359400  0.524300  0.761600  1.0  0.0358
  C  C1632  1  0.411700  0.471700  0.634400  1.0  -0.0694
  C  C1633  1  0.374600  0.524700  0.729300  1.0  0.128
  C  C1634  1  0.399900  0.473500  0.671300  1.0  -0.1215
  C  C1635  1  0.757400  0.703900  0.975400  1.0  0.1784
  C  C1636  1  0.788200  0.691500  0.974500  1.0  0.0935
  C  C1637  1  0.500000  0.235300  0.141300  1.0  -0.1355
  C  C1638  1  0.500000  0.244100  0.107600  1.0  0.6354
  C  C1639  1  0.500000  0.215700  0.206100  1.0  -0.0661
  C  C1640  1  0.500000  0.207300  0.238900  1.0  0.2569
  C  C1641  1  0.500000  0.764700  0.141300  1.0  -0.1359
  C  C1642  1  0.500000  0.755900  0.107600  1.0  0.6352
  C  C1643  1  0.500000  0.784300  0.206100  1.0  -0.0659
  C  C1644  1  0.500000  0.792700  0.238900  1.0  0.2569
  C  C1645  1  0.500000  0.235300  0.858700  1.0  -0.1349
  C  C1646  1  0.500000  0.244100  0.892400  1.0  0.6357
  C  C1647  1  0.500000  0.215700  0.793900  1.0  -0.0654
  C  C1648  1  0.500000  0.207300  0.761100  1.0  0.2561
  C  C1649  1  0.500000  0.764700  0.858700  1.0  -0.1346
  C  C1650  1  0.500000  0.755900  0.892400  1.0  0.6355
  C  C1651  1  0.500000  0.784300  0.793900  1.0  -0.0652
  C  C1652  1  0.500000  0.792700  0.761100  1.0  0.2561
  C  C1653  1  0.141300  0.500000  0.235300  1.0  -0.135
  C  C1654  1  0.107600  0.500000  0.244100  1.0  0.6377
  C  C1655  1  0.206100  0.500000  0.215700  1.0  -0.0656
  C  C1656  1  0.238900  0.500000  0.207300  1.0  0.2508
  C  C1657  1  0.141300  0.500000  0.764700  1.0  -0.1357
  C  C1658  1  0.107600  0.500000  0.755900  1.0  0.6375
  C  C1659  1  0.206100  0.500000  0.784300  1.0  -0.0657
  C  C1660  1  0.238900  0.500000  0.792700  1.0  0.2508
  C  C1661  1  0.858700  0.500000  0.235300  1.0  -0.1345
  C  C1662  1  0.892400  0.500000  0.244100  1.0  0.6376
  C  C1663  1  0.793900  0.500000  0.215700  1.0  -0.0669
  C  C1664  1  0.761100  0.500000  0.207300  1.0  0.2552
  C  C1665  1  0.858700  0.500000  0.764700  1.0  -0.1355
  C  C1666  1  0.892400  0.500000  0.755900  1.0  0.6382
  C  C1667  1  0.793900  0.500000  0.784300  1.0  -0.0669
  C  C1668  1  0.761100  0.500000  0.792700  1.0  0.255
  C  C1669  1  0.235300  0.141300  0.500000  1.0  -0.1357
  C  C1670  1  0.244100  0.107600  0.500000  1.0  0.6348
  C  C1671  1  0.215700  0.206100  0.500000  1.0  -0.0647
  C  C1672  1  0.207300  0.238900  0.500000  1.0  0.2558
  C  C1673  1  0.764700  0.141300  0.500000  1.0  -0.1359
  C  C1674  1  0.755900  0.107600  0.500000  1.0  0.6351
  C  C1675  1  0.784300  0.206100  0.500000  1.0  -0.0648
  C  C1676  1  0.792700  0.238900  0.500000  1.0  0.2558
  C  C1677  1  0.235300  0.858700  0.500000  1.0  -0.1357
  C  C1678  1  0.244100  0.892400  0.500000  1.0  0.6357
  C  C1679  1  0.215700  0.793900  0.500000  1.0  -0.0647
  C  C1680  1  0.207300  0.761100  0.500000  1.0  0.2563
  C  C1681  1  0.764700  0.858700  0.500000  1.0  -0.1356
  C  C1682  1  0.755900  0.892400  0.500000  1.0  0.6361
  C  C1683  1  0.784300  0.793900  0.500000  1.0  -0.0648
  C  C1684  1  0.792700  0.761100  0.500000  1.0  0.2563
  C  C1685  1  0.735300  0.000000  0.358700  1.0  -0.1371
  C  C1686  1  0.744100  0.000000  0.392400  1.0  0.6369
  C  C1687  1  0.715700  0.000000  0.293900  1.0  -0.0654
  C  C1688  1  0.707300  0.000000  0.261100  1.0  0.2562
  C  C1689  1  0.264700  0.000000  0.358700  1.0  -0.136
  C  C1690  1  0.255900  0.000000  0.392400  1.0  0.6374
  C  C1691  1  0.284300  0.000000  0.293900  1.0  -0.0653
  C  C1692  1  0.292700  0.000000  0.261100  1.0  0.2561
  C  C1693  1  0.735300  0.000000  0.641300  1.0  -0.1371
  C  C1694  1  0.744100  0.000000  0.607600  1.0  0.6368
  C  C1695  1  0.715700  0.000000  0.706100  1.0  -0.0662
  C  C1696  1  0.707300  0.000000  0.738900  1.0  0.257
  C  C1697  1  0.264700  0.000000  0.641300  1.0  -0.1384
  C  C1698  1  0.255900  0.000000  0.607600  1.0  0.6366
  C  C1699  1  0.284300  0.000000  0.706100  1.0  -0.0663
  C  C1700  1  0.292700  0.000000  0.738900  1.0  0.2569
  C  C1701  1  0.000000  0.641300  0.264700  1.0  -0.1348
  C  C1702  1  0.000000  0.607600  0.255900  1.0  0.6348
  C  C1703  1  0.000000  0.706100  0.284300  1.0  -0.0648
  C  C1704  1  0.000000  0.738900  0.292700  1.0  0.2558
  C  C1705  1  0.000000  0.641300  0.735300  1.0  -0.1335
  C  C1706  1  0.000000  0.607600  0.744100  1.0  0.6349
  C  C1707  1  0.000000  0.706100  0.715700  1.0  -0.0647
  C  C1708  1  0.000000  0.738900  0.707300  1.0  0.2558
  C  C1709  1  0.000000  0.358700  0.264700  1.0  -0.1343
  C  C1710  1  0.000000  0.392400  0.255900  1.0  0.6355
  C  C1711  1  0.000000  0.293900  0.284300  1.0  -0.0646
  C  C1712  1  0.000000  0.261100  0.292700  1.0  0.2563
  C  C1713  1  0.000000  0.358700  0.735300  1.0  -0.134
  C  C1714  1  0.000000  0.392400  0.744100  1.0  0.6354
  C  C1715  1  0.000000  0.293900  0.715700  1.0  -0.0647
  C  C1716  1  0.000000  0.261100  0.707300  1.0  0.2564
  C  C1717  1  0.641300  0.735300  0.000000  1.0  -0.1353
  C  C1718  1  0.607600  0.744100  0.000000  1.0  0.6359
  C  C1719  1  0.706100  0.715700  0.000000  1.0  -0.0656
  C  C1720  1  0.738900  0.707300  0.000000  1.0  0.2509
  C  C1721  1  0.641300  0.264700  0.000000  1.0  -0.1353
  C  C1722  1  0.607600  0.255900  0.000000  1.0  0.6361
  C  C1723  1  0.706100  0.284300  0.000000  1.0  -0.0656
  C  C1724  1  0.738900  0.292700  0.000000  1.0  0.2509
  C  C1725  1  0.358700  0.735300  0.000000  1.0  -0.1347
  C  C1726  1  0.392400  0.744100  0.000000  1.0  0.6365
  C  C1727  1  0.293900  0.715700  0.000000  1.0  -0.0668
  C  C1728  1  0.261100  0.707300  0.000000  1.0  0.2551
  C  C1729  1  0.358700  0.264700  0.000000  1.0  -0.1349
  C  C1730  1  0.392400  0.255900  0.000000  1.0  0.6363
  C  C1731  1  0.293900  0.284300  0.000000  1.0  -0.0667
  C  C1732  1  0.261100  0.292700  0.000000  1.0  0.255
  C  C1733  1  0.309400  0.000000  0.805800  1.0  0.342
  C  C1734  1  0.283200  0.000000  0.857700  1.0  -0.0452
  C  C1735  1  0.315200  0.000000  0.841800  1.0  -0.1418
  C  C1736  1  0.218500  0.000000  0.885400  1.0  0.4741
  C  C1737  1  0.186400  0.000000  0.902800  1.0  0.1037
  C  C1738  1  0.091400  0.000000  0.939900  1.0  0.7006
  C  C1739  1  0.124300  0.000000  0.925500  1.0  -0.123
  C  C1740  1  0.690600  0.000000  0.805800  1.0  0.3417
  C  C1741  1  0.716800  0.000000  0.857700  1.0  -0.0458
  C  C1742  1  0.684800  0.000000  0.841800  1.0  -0.1427
  C  C1743  1  0.781500  0.000000  0.885400  1.0  0.4729
  C  C1744  1  0.813600  0.000000  0.902800  1.0  0.105
  C  C1745  1  0.908600  0.000000  0.939900  1.0  0.7008
  C  C1746  1  0.875700  0.000000  0.925500  1.0  -0.1234
  C  C1747  1  0.690600  0.000000  0.194200  1.0  0.3414
  C  C1748  1  0.716800  0.000000  0.142300  1.0  -0.0456
  C  C1749  1  0.684800  0.000000  0.158200  1.0  -0.1429
  C  C1750  1  0.781500  0.000000  0.114600  1.0  0.471
  C  C1751  1  0.813600  0.000000  0.097200  1.0  0.1014
  C  C1752  1  0.908600  0.000000  0.060100  1.0  0.7002
  C  C1753  1  0.875700  0.000000  0.074500  1.0  -0.1229
  C  C1754  1  0.309400  0.000000  0.194200  1.0  0.3413
  C  C1755  1  0.283200  0.000000  0.142300  1.0  -0.0444
  C  C1756  1  0.315200  0.000000  0.158200  1.0  -0.1419
  C  C1757  1  0.218500  0.000000  0.114600  1.0  0.4716
  C  C1758  1  0.186400  0.000000  0.097200  1.0  0.0994
  C  C1759  1  0.091400  0.000000  0.060100  1.0  0.6993
  C  C1760  1  0.124300  0.000000  0.074500  1.0  -0.1222
  C  C1761  1  0.805800  0.309400  0.000000  1.0  0.3412
  C  C1762  1  0.857700  0.283200  0.000000  1.0  -0.043
  C  C1763  1  0.841800  0.315200  0.000000  1.0  -0.1415
  C  C1764  1  0.885400  0.218500  0.000000  1.0  0.4722
  C  C1765  1  0.902800  0.186400  0.000000  1.0  0.1051
  C  C1766  1  0.939900  0.091400  0.000000  1.0  0.6993
  C  C1767  1  0.925500  0.124300  0.000000  1.0  -0.1215
  C  C1768  1  0.805800  0.690600  0.000000  1.0  0.3417
  C  C1769  1  0.857700  0.716800  0.000000  1.0  -0.0437
  C  C1770  1  0.841800  0.684800  0.000000  1.0  -0.1411
  C  C1771  1  0.885400  0.781500  0.000000  1.0  0.4731
  C  C1772  1  0.902800  0.813600  0.000000  1.0  0.1057
  C  C1773  1  0.939900  0.908600  0.000000  1.0  0.6998
  C  C1774  1  0.925500  0.875700  0.000000  1.0  -0.1223
  C  C1775  1  0.194200  0.690600  0.000000  1.0  0.3405
  C  C1776  1  0.142300  0.716800  0.000000  1.0  -0.0434
  C  C1777  1  0.158200  0.684800  0.000000  1.0  -0.142
  C  C1778  1  0.114600  0.781500  0.000000  1.0  0.4763
  C  C1779  1  0.097200  0.813600  0.000000  1.0  0.1041
  C  C1780  1  0.060100  0.908600  0.000000  1.0  0.6998
  C  C1781  1  0.074500  0.875700  0.000000  1.0  -0.1247
  C  C1782  1  0.194200  0.309400  0.000000  1.0  0.3409
  C  C1783  1  0.142300  0.283200  0.000000  1.0  -0.0431
  C  C1784  1  0.158200  0.315200  0.000000  1.0  -0.1422
  C  C1785  1  0.114600  0.218500  0.000000  1.0  0.4759
  C  C1786  1  0.097200  0.186400  0.000000  1.0  0.1039
  C  C1787  1  0.060100  0.091400  0.000000  1.0  0.6991
  C  C1788  1  0.074500  0.124300  0.000000  1.0  -0.1228
  C  C1789  1  0.000000  0.805800  0.309400  1.0  0.3391
  C  C1790  1  0.000000  0.857700  0.283200  1.0  -0.0463
  C  C1791  1  0.000000  0.841800  0.315200  1.0  -0.1421
  C  C1792  1  0.000000  0.885400  0.218500  1.0  0.4745
  C  C1793  1  0.000000  0.902800  0.186400  1.0  0.1054
  C  C1794  1  0.000000  0.939900  0.091400  1.0  0.7001
  C  C1795  1  0.000000  0.925500  0.124300  1.0  -0.1235
  C  C1796  1  0.000000  0.805800  0.690600  1.0  0.3373
  C  C1797  1  0.000000  0.857700  0.716800  1.0  -0.0433
  C  C1798  1  0.000000  0.841800  0.684800  1.0  -0.1419
  C  C1799  1  0.000000  0.885400  0.781500  1.0  0.4738
  C  C1800  1  0.000000  0.902800  0.813600  1.0  0.1033
  C  C1801  1  0.000000  0.939900  0.908600  1.0  0.6991
  C  C1802  1  0.000000  0.925500  0.875700  1.0  -0.1236
  C  C1803  1  0.000000  0.194200  0.690600  1.0  0.3378
  C  C1804  1  0.000000  0.142300  0.716800  1.0  -0.0434
  C  C1805  1  0.000000  0.158200  0.684800  1.0  -0.1419
  C  C1806  1  0.000000  0.114600  0.781500  1.0  0.4739
  C  C1807  1  0.000000  0.097200  0.813600  1.0  0.1024
  C  C1808  1  0.000000  0.060100  0.908600  1.0  0.6988
  C  C1809  1  0.000000  0.074500  0.875700  1.0  -0.124
  C  C1810  1  0.000000  0.194200  0.309400  1.0  0.3391
  C  C1811  1  0.000000  0.142300  0.283200  1.0  -0.0467
  C  C1812  1  0.000000  0.158200  0.315200  1.0  -0.1419
  C  C1813  1  0.000000  0.114600  0.218500  1.0  0.4749
  C  C1814  1  0.000000  0.097200  0.186400  1.0  0.1039
  C  C1815  1  0.000000  0.060100  0.091400  1.0  0.6994
  C  C1816  1  0.000000  0.074500  0.124300  1.0  -0.1236
  C  C1817  1  0.500000  0.809400  0.694200  1.0  0.3404
  C  C1818  1  0.500000  0.783200  0.642300  1.0  -0.0428
  C  C1819  1  0.500000  0.815200  0.658200  1.0  -0.1415
  C  C1820  1  0.500000  0.718500  0.614600  1.0  0.4704
  C  C1821  1  0.500000  0.686400  0.597200  1.0  0.1025
  C  C1822  1  0.500000  0.591400  0.560100  1.0  0.6995
  C  C1823  1  0.500000  0.624300  0.574500  1.0  -0.1238
  C  C1824  1  0.500000  0.190600  0.694200  1.0  0.3404
  C  C1825  1  0.500000  0.216800  0.642300  1.0  -0.0436
  C  C1826  1  0.500000  0.184800  0.658200  1.0  -0.1412
  C  C1827  1  0.500000  0.281500  0.614600  1.0  0.4709
  C  C1828  1  0.500000  0.313600  0.597200  1.0  0.1038
  C  C1829  1  0.500000  0.408600  0.560100  1.0  0.7
  C  C1830  1  0.500000  0.375700  0.574500  1.0  -0.125
  C  C1831  1  0.500000  0.190600  0.305800  1.0  0.3413
  C  C1832  1  0.500000  0.216800  0.357700  1.0  -0.0438
  C  C1833  1  0.500000  0.184800  0.341800  1.0  -0.1412
  C  C1834  1  0.500000  0.281500  0.385400  1.0  0.4731
  C  C1835  1  0.500000  0.313600  0.402800  1.0  0.1077
  C  C1836  1  0.500000  0.408600  0.439900  1.0  0.7006
  C  C1837  1  0.500000  0.375700  0.425500  1.0  -0.1263
  C  C1838  1  0.500000  0.809400  0.305800  1.0  0.3407
  C  C1839  1  0.500000  0.783200  0.357700  1.0  -0.0434
  C  C1840  1  0.500000  0.815200  0.341800  1.0  -0.1414
  C  C1841  1  0.500000  0.718500  0.385400  1.0  0.4724
  C  C1842  1  0.500000  0.686400  0.402800  1.0  0.1068
  C  C1843  1  0.500000  0.591400  0.439900  1.0  0.7001
  C  C1844  1  0.500000  0.624300  0.425500  1.0  -0.1241
  C  C1845  1  0.809400  0.305800  0.500000  1.0  0.3399
  C  C1846  1  0.783200  0.357700  0.500000  1.0  -0.0444
  C  C1847  1  0.815200  0.341800  0.500000  1.0  -0.1414
  C  C1848  1  0.718500  0.385400  0.500000  1.0  0.4753
  C  C1849  1  0.686400  0.402800  0.500000  1.0  0.1036
  C  C1850  1  0.591400  0.439900  0.500000  1.0  0.7009
  C  C1851  1  0.624300  0.425500  0.500000  1.0  -0.1228
  C  C1852  1  0.190600  0.305800  0.500000  1.0  0.3404
  C  C1853  1  0.216800  0.357700  0.500000  1.0  -0.0454
  C  C1854  1  0.184800  0.341800  0.500000  1.0  -0.1421
  C  C1855  1  0.281500  0.385400  0.500000  1.0  0.4743
  C  C1856  1  0.313600  0.402800  0.500000  1.0  0.104
  C  C1857  1  0.408600  0.439900  0.500000  1.0  0.7018
  C  C1858  1  0.375700  0.425500  0.500000  1.0  -0.1221
  C  C1859  1  0.190600  0.694200  0.500000  1.0  0.3401
  C  C1860  1  0.216800  0.642300  0.500000  1.0  -0.0459
  C  C1861  1  0.184800  0.658200  0.500000  1.0  -0.1422
  C  C1862  1  0.281500  0.614600  0.500000  1.0  0.4748
  C  C1863  1  0.313600  0.597200  0.500000  1.0  0.1022
  C  C1864  1  0.408600  0.560100  0.500000  1.0  0.7005
  C  C1865  1  0.375700  0.574500  0.500000  1.0  -0.1226
  C  C1866  1  0.809400  0.694200  0.500000  1.0  0.3409
  C  C1867  1  0.783200  0.642300  0.500000  1.0  -0.0451
  C  C1868  1  0.815200  0.658200  0.500000  1.0  -0.1413
  C  C1869  1  0.718500  0.614600  0.500000  1.0  0.4755
  C  C1870  1  0.686400  0.597200  0.500000  1.0  0.1027
  C  C1871  1  0.591400  0.560100  0.500000  1.0  0.7003
  C  C1872  1  0.624300  0.574500  0.500000  1.0  -0.1212
  C  C1873  1  0.305800  0.500000  0.190600  1.0  0.3404
  C  C1874  1  0.357700  0.500000  0.216800  1.0  -0.0434
  C  C1875  1  0.341800  0.500000  0.184800  1.0  -0.1425
  C  C1876  1  0.385400  0.500000  0.281500  1.0  0.472
  C  C1877  1  0.402800  0.500000  0.313600  1.0  0.1031
  C  C1878  1  0.439900  0.500000  0.408600  1.0  0.6983
  C  C1879  1  0.425500  0.500000  0.375700  1.0  -0.1212
  C  C1880  1  0.305800  0.500000  0.809400  1.0  0.3416
  C  C1881  1  0.357700  0.500000  0.783200  1.0  -0.0465
  C  C1882  1  0.341800  0.500000  0.815200  1.0  -0.1424
  C  C1883  1  0.385400  0.500000  0.718500  1.0  0.4733
  C  C1884  1  0.402800  0.500000  0.686400  1.0  0.1043
  C  C1885  1  0.439900  0.500000  0.591400  1.0  0.6982
  C  C1886  1  0.425500  0.500000  0.624300  1.0  -0.1213
  C  C1887  1  0.694200  0.500000  0.809400  1.0  0.3409
  C  C1888  1  0.642300  0.500000  0.783200  1.0  -0.0463
  C  C1889  1  0.658200  0.500000  0.815200  1.0  -0.1432
  C  C1890  1  0.614600  0.500000  0.718500  1.0  0.4762
  C  C1891  1  0.597200  0.500000  0.686400  1.0  0.1032
  C  C1892  1  0.560100  0.500000  0.591400  1.0  0.6991
  C  C1893  1  0.574500  0.500000  0.624300  1.0  -0.1232
  C  C1894  1  0.694200  0.500000  0.190600  1.0  0.3393
  C  C1895  1  0.642300  0.500000  0.216800  1.0  -0.0429
  C  C1896  1  0.658200  0.500000  0.184800  1.0  -0.1433
  C  C1897  1  0.614600  0.500000  0.281500  1.0  0.4756
  C  C1898  1  0.597200  0.500000  0.313600  1.0  0.1024
  C  C1899  1  0.560100  0.500000  0.408600  1.0  0.698
  C  C1900  1  0.574500  0.500000  0.375700  1.0  -0.1232
  O  O1901  1  0.438730  0.296190  0.060140  1.0  -0.6386
  O  O1902  1  0.472770  0.248000  0.093410  1.0  -0.6611
  O  O1903  1  0.468370  0.164400  0.965920  1.0  -0.6456
  O  O1904  1  0.078700  0.025400  0.944900  1.0  -0.618
  O  O1905  1  0.561270  0.703810  0.060140  1.0  -0.6359
  O  O1906  1  0.527230  0.752000  0.093410  1.0  -0.6612
  O  O1907  1  0.531630  0.835600  0.965920  1.0  -0.6439
  O  O1908  1  0.921300  0.974600  0.944900  1.0  -0.6162
  O  O1909  1  0.561270  0.296190  0.939860  1.0  -0.6368
  O  O1910  1  0.527230  0.248000  0.906590  1.0  -0.6602
  O  O1911  1  0.531630  0.164400  0.034080  1.0  -0.6458
  O  O1912  1  0.921300  0.025400  0.055100  1.0  -0.6184
  O  O1913  1  0.438730  0.703810  0.939860  1.0  -0.6364
  O  O1914  1  0.472770  0.752000  0.906590  1.0  -0.6614
  O  O1915  1  0.468370  0.835600  0.034080  1.0  -0.6448
  O  O1916  1  0.078700  0.974600  0.055100  1.0  -0.6191
  O  O1917  1  0.060140  0.438730  0.296190  1.0  -0.6357
  O  O1918  1  0.093410  0.472770  0.248000  1.0  -0.664
  O  O1919  1  0.965920  0.468370  0.164400  1.0  -0.6415
  O  O1920  1  0.944900  0.078700  0.025400  1.0  -0.6184
  O  O1921  1  0.060140  0.561270  0.703810  1.0  -0.6359
  O  O1922  1  0.093410  0.527230  0.752000  1.0  -0.6645
  O  O1923  1  0.965920  0.531630  0.835600  1.0  -0.6415
  O  O1924  1  0.944900  0.921300  0.974600  1.0  -0.6168
  O  O1925  1  0.939860  0.561270  0.296190  1.0  -0.6376
  O  O1926  1  0.906590  0.527230  0.248000  1.0  -0.6663
  O  O1927  1  0.034080  0.531630  0.164400  1.0  -0.6421
  O  O1928  1  0.055100  0.921300  0.025400  1.0  -0.6173
  O  O1929  1  0.939860  0.438730  0.703810  1.0  -0.6372
  O  O1930  1  0.906590  0.472770  0.752000  1.0  -0.6651
  O  O1931  1  0.034080  0.468370  0.835600  1.0  -0.6421
  O  O1932  1  0.055100  0.078700  0.974600  1.0  -0.6182
  O  O1933  1  0.296190  0.060140  0.438730  1.0  -0.6358
  O  O1934  1  0.248000  0.093410  0.472770  1.0  -0.6602
  O  O1935  1  0.164400  0.965920  0.468370  1.0  -0.6446
  O  O1936  1  0.025400  0.944900  0.078700  1.0  -0.6169
  O  O1937  1  0.703810  0.060140  0.561270  1.0  -0.6365
  O  O1938  1  0.752000  0.093410  0.527230  1.0  -0.6621
  O  O1939  1  0.835600  0.965920  0.531630  1.0  -0.644
  O  O1940  1  0.974600  0.944900  0.921300  1.0  -0.6166
  O  O1941  1  0.296190  0.939860  0.561270  1.0  -0.6358
  O  O1942  1  0.248000  0.906590  0.527230  1.0  -0.6613
  O  O1943  1  0.164400  0.034080  0.531630  1.0  -0.6463
  O  O1944  1  0.025400  0.055100  0.921300  1.0  -0.6166
  O  O1945  1  0.703810  0.939860  0.438730  1.0  -0.6362
  O  O1946  1  0.752000  0.906590  0.472770  1.0  -0.6606
  O  O1947  1  0.835600  0.034080  0.468370  1.0  -0.6445
  O  O1948  1  0.974600  0.055100  0.078700  1.0  -0.617
  O  O1949  1  0.796190  0.938730  0.439860  1.0  -0.6348
  O  O1950  1  0.748000  0.972770  0.406590  1.0  -0.661
  O  O1951  1  0.664400  0.968370  0.534080  1.0  -0.6446
  O  O1952  1  0.525400  0.578700  0.555100  1.0  -0.6172
  O  O1953  1  0.203810  0.061270  0.439860  1.0  -0.6355
  O  O1954  1  0.252000  0.027230  0.406590  1.0  -0.6619
  O  O1955  1  0.335600  0.031630  0.534080  1.0  -0.6433
  O  O1956  1  0.474600  0.421300  0.555100  1.0  -0.615
  O  O1957  1  0.796190  0.061270  0.560140  1.0  -0.635
  O  O1958  1  0.748000  0.027230  0.593410  1.0  -0.6619
  O  O1959  1  0.664400  0.031630  0.465920  1.0  -0.6443
  O  O1960  1  0.525400  0.421300  0.444900  1.0  -0.6151
  O  O1961  1  0.203810  0.938730  0.560140  1.0  -0.6357
  O  O1962  1  0.252000  0.972770  0.593410  1.0  -0.6619
  O  O1963  1  0.335600  0.968370  0.465920  1.0  -0.6431
  O  O1964  1  0.474600  0.578700  0.444900  1.0  -0.6172
  O  O1965  1  0.938730  0.560140  0.203810  1.0  -0.6365
  O  O1966  1  0.972770  0.593410  0.252000  1.0  -0.6618
  O  O1967  1  0.968370  0.465920  0.335600  1.0  -0.6434
  O  O1968  1  0.578700  0.444900  0.474600  1.0  -0.6174
  O  O1969  1  0.061270  0.560140  0.796190  1.0  -0.6356
  O  O1970  1  0.027230  0.593410  0.748000  1.0  -0.6606
  O  O1971  1  0.031630  0.465920  0.664400  1.0  -0.6434
  O  O1972  1  0.421300  0.444900  0.525400  1.0  -0.6158
  O  O1973  1  0.061270  0.439860  0.203810  1.0  -0.6357
  O  O1974  1  0.027230  0.406590  0.252000  1.0  -0.6605
  O  O1975  1  0.031630  0.534080  0.335600  1.0  -0.6443
  O  O1976  1  0.421300  0.555100  0.474600  1.0  -0.6172
  O  O1977  1  0.938730  0.439860  0.796190  1.0  -0.6366
  O  O1978  1  0.972770  0.406590  0.748000  1.0  -0.6606
  O  O1979  1  0.968370  0.534080  0.664400  1.0  -0.6444
  O  O1980  1  0.578700  0.555100  0.525400  1.0  -0.618
  O  O1981  1  0.560140  0.796190  0.061270  1.0  -0.6393
  O  O1982  1  0.593410  0.748000  0.027230  1.0  -0.6639
  O  O1983  1  0.465920  0.664400  0.031630  1.0  -0.6447
  O  O1984  1  0.444900  0.525400  0.421300  1.0  -0.6185
  O  O1985  1  0.560140  0.203810  0.938730  1.0  -0.6372
  O  O1986  1  0.593410  0.252000  0.972770  1.0  -0.662
  O  O1987  1  0.465920  0.335600  0.968370  1.0  -0.6424
  O  O1988  1  0.444900  0.474600  0.578700  1.0  -0.6181
  O  O1989  1  0.439860  0.796190  0.938730  1.0  -0.6409
  O  O1990  1  0.406590  0.748000  0.972770  1.0  -0.6639
  O  O1991  1  0.534080  0.664400  0.968370  1.0  -0.6442
  O  O1992  1  0.555100  0.525400  0.578700  1.0  -0.6185
  O  O1993  1  0.439860  0.203810  0.061270  1.0  -0.6393
  O  O1994  1  0.406590  0.252000  0.027230  1.0  -0.6648
  O  O1995  1  0.534080  0.335600  0.031630  1.0  -0.6436
  O  O1996  1  0.555100  0.474600  0.421300  1.0  -0.6179
  O  O1997  1  0.561270  0.703810  0.939860  1.0  -0.6359
  O  O1998  1  0.527230  0.752000  0.906590  1.0  -0.6605
  O  O1999  1  0.531630  0.835600  0.034080  1.0  -0.6446
  O  O2000  1  0.921300  0.974600  0.055100  1.0  -0.617
  O  O2001  1  0.438730  0.296190  0.939860  1.0  -0.6375
  O  O2002  1  0.472770  0.248000  0.906590  1.0  -0.6612
  O  O2003  1  0.468370  0.164400  0.034080  1.0  -0.6458
  O  O2004  1  0.078700  0.025400  0.055100  1.0  -0.6191
  O  O2005  1  0.438730  0.703810  0.060140  1.0  -0.6368
  O  O2006  1  0.472770  0.752000  0.093410  1.0  -0.6607
  O  O2007  1  0.468370  0.835600  0.965920  1.0  -0.6443
  O  O2008  1  0.078700  0.974600  0.944900  1.0  -0.6181
  O  O2009  1  0.561270  0.296190  0.060140  1.0  -0.6379
  O  O2010  1  0.527230  0.248000  0.093410  1.0  -0.6611
  O  O2011  1  0.531630  0.164400  0.965920  1.0  -0.6453
  O  O2012  1  0.921300  0.025400  0.944900  1.0  -0.6182
  O  O2013  1  0.939860  0.561270  0.703810  1.0  -0.6375
  O  O2014  1  0.906590  0.527230  0.752000  1.0  -0.6668
  O  O2015  1  0.034080  0.531630  0.835600  1.0  -0.6425
  O  O2016  1  0.055100  0.921300  0.974600  1.0  -0.6174
  O  O2017  1  0.939860  0.438730  0.296190  1.0  -0.6378
  O  O2018  1  0.906590  0.472770  0.248000  1.0  -0.6643
  O  O2019  1  0.034080  0.468370  0.164400  1.0  -0.6416
  O  O2020  1  0.055100  0.078700  0.025400  1.0  -0.6181
  O  O2021  1  0.060140  0.438730  0.703810  1.0  -0.6355
  O  O2022  1  0.093410  0.472770  0.752000  1.0  -0.6642
  O  O2023  1  0.965920  0.468370  0.835600  1.0  -0.6413
  O  O2024  1  0.944900  0.078700  0.974600  1.0  -0.6179
  O  O2025  1  0.060140  0.561270  0.296190  1.0  -0.6355
  O  O2026  1  0.093410  0.527230  0.248000  1.0  -0.6646
  O  O2027  1  0.965920  0.531630  0.164400  1.0  -0.6417
  O  O2028  1  0.944900  0.921300  0.025400  1.0  -0.6171
  O  O2029  1  0.703810  0.939860  0.561270  1.0  -0.6364
  O  O2030  1  0.752000  0.906590  0.527230  1.0  -0.662
  O  O2031  1  0.835600  0.034080  0.531630  1.0  -0.6448
  O  O2032  1  0.974600  0.055100  0.921300  1.0  -0.617
  O  O2033  1  0.296190  0.939860  0.438730  1.0  -0.6356
  O  O2034  1  0.248000  0.906590  0.472770  1.0  -0.6598
  O  O2035  1  0.164400  0.034080  0.468370  1.0  -0.6452
  O  O2036  1  0.025400  0.055100  0.078700  1.0  -0.6172
  O  O2037  1  0.703810  0.060140  0.438730  1.0  -0.6362
  O  O2038  1  0.752000  0.093410  0.472770  1.0  -0.6608
  O  O2039  1  0.835600  0.965920  0.468370  1.0  -0.6439
  O  O2040  1  0.974600  0.944900  0.078700  1.0  -0.6165
  O  O2041  1  0.296190  0.060140  0.561270  1.0  -0.6363
  O  O2042  1  0.248000  0.093410  0.527230  1.0  -0.6614
  O  O2043  1  0.164400  0.965920  0.531630  1.0  -0.6457
  O  O2044  1  0.025400  0.944900  0.921300  1.0  -0.6164
  O  O2045  1  0.203810  0.061270  0.560140  1.0  -0.6359
  O  O2046  1  0.252000  0.027230  0.593410  1.0  -0.6627
  O  O2047  1  0.335600  0.031630  0.465920  1.0  -0.6434
  O  O2048  1  0.474600  0.421300  0.444900  1.0  -0.6149
  O  O2049  1  0.796190  0.938730  0.560140  1.0  -0.6351
  O  O2050  1  0.748000  0.972770  0.593410  1.0  -0.6615
  O  O2051  1  0.664400  0.968370  0.465920  1.0  -0.6438
  O  O2052  1  0.525400  0.578700  0.444900  1.0  -0.6165
  O  O2053  1  0.203810  0.938730  0.439860  1.0  -0.6357
  O  O2054  1  0.252000  0.972770  0.406590  1.0  -0.6615
  O  O2055  1  0.335600  0.968370  0.534080  1.0  -0.6433
  O  O2056  1  0.474600  0.578700  0.555100  1.0  -0.6176
  O  O2057  1  0.796190  0.061270  0.439860  1.0  -0.6346
  O  O2058  1  0.748000  0.027230  0.406590  1.0  -0.6614
  O  O2059  1  0.664400  0.031630  0.534080  1.0  -0.6448
  O  O2060  1  0.525400  0.421300  0.555100  1.0  -0.6155
  O  O2061  1  0.061270  0.439860  0.796190  1.0  -0.6359
  O  O2062  1  0.027230  0.406590  0.748000  1.0  -0.6602
  O  O2063  1  0.031630  0.534080  0.664400  1.0  -0.6444
  O  O2064  1  0.421300  0.555100  0.525400  1.0  -0.6165
  O  O2065  1  0.938730  0.439860  0.203810  1.0  -0.6361
  O  O2066  1  0.972770  0.406590  0.252000  1.0  -0.6612
  O  O2067  1  0.968370  0.534080  0.335600  1.0  -0.6442
  O  O2068  1  0.578700  0.555100  0.474600  1.0  -0.6176
  O  O2069  1  0.938730  0.560140  0.796190  1.0  -0.6364
  O  O2070  1  0.972770  0.593410  0.748000  1.0  -0.6616
  O  O2071  1  0.968370  0.465920  0.664400  1.0  -0.6432
  O  O2072  1  0.578700  0.444900  0.525400  1.0  -0.6176
  O  O2073  1  0.061270  0.560140  0.203810  1.0  -0.6358
  O  O2074  1  0.027230  0.593410  0.252000  1.0  -0.6605
  O  O2075  1  0.031630  0.465920  0.335600  1.0  -0.6435
  O  O2076  1  0.421300  0.444900  0.474600  1.0  -0.6164
  O  O2077  1  0.439860  0.203810  0.938730  1.0  -0.6394
  O  O2078  1  0.406590  0.252000  0.972770  1.0  -0.6636
  O  O2079  1  0.534080  0.335600  0.968370  1.0  -0.6428
  O  O2080  1  0.555100  0.474600  0.578700  1.0  -0.6183
  O  O2081  1  0.439860  0.796190  0.061270  1.0  -0.6412
  O  O2082  1  0.406590  0.748000  0.027230  1.0  -0.6649
  O  O2083  1  0.534080  0.664400  0.031630  1.0  -0.645
  O  O2084  1  0.555100  0.525400  0.421300  1.0  -0.6185
  O  O2085  1  0.560140  0.203810  0.061270  1.0  -0.6379
  O  O2086  1  0.593410  0.252000  0.027230  1.0  -0.6639
  O  O2087  1  0.465920  0.335600  0.031630  1.0  -0.6434
  O  O2088  1  0.444900  0.474600  0.421300  1.0  -0.6178
  O  O2089  1  0.560140  0.796190  0.938730  1.0  -0.6382
  O  O2090  1  0.593410  0.748000  0.972770  1.0  -0.6618
  O  O2091  1  0.465920  0.664400  0.968370  1.0  -0.6439
  O  O2092  1  0.444900  0.525400  0.578700  1.0  -0.6185
  O  O2093  1  0.500000  0.283290  0.048030  1.0  -0.9075
  O  O2094  1  0.500000  0.224800  0.034950  1.0  -0.8713
  O  O2095  1  0.500000  0.716710  0.048030  1.0  -0.91
  O  O2096  1  0.500000  0.775200  0.034950  1.0  -0.8709
  O  O2097  1  0.500000  0.283290  0.951970  1.0  -0.9094
  O  O2098  1  0.500000  0.224800  0.965050  1.0  -0.8712
  O  O2099  1  0.500000  0.716710  0.951970  1.0  -0.911
  O  O2100  1  0.500000  0.775200  0.965050  1.0  -0.8705
  O  O2101  1  0.048030  0.500000  0.283290  1.0  -0.9071
  O  O2102  1  0.034950  0.500000  0.224800  1.0  -0.872
  O  O2103  1  0.048030  0.500000  0.716710  1.0  -0.9089
  O  O2104  1  0.034950  0.500000  0.775200  1.0  -0.8716
  O  O2105  1  0.951970  0.500000  0.283290  1.0  -0.9072
  O  O2106  1  0.965050  0.500000  0.224800  1.0  -0.8717
  O  O2107  1  0.951970  0.500000  0.716710  1.0  -0.9083
  O  O2108  1  0.965050  0.500000  0.775200  1.0  -0.8714
  O  O2109  1  0.283290  0.048030  0.500000  1.0  -0.9126
  O  O2110  1  0.224800  0.034950  0.500000  1.0  -0.8721
  O  O2111  1  0.716710  0.048030  0.500000  1.0  -0.9118
  O  O2112  1  0.775200  0.034950  0.500000  1.0  -0.8718
  O  O2113  1  0.283290  0.951970  0.500000  1.0  -0.9127
  O  O2114  1  0.224800  0.965050  0.500000  1.0  -0.8735
  O  O2115  1  0.716710  0.951970  0.500000  1.0  -0.9106
  O  O2116  1  0.775200  0.965050  0.500000  1.0  -0.8729
  O  O2117  1  0.783290  0.000000  0.451970  1.0  -0.9104
  O  O2118  1  0.724800  0.000000  0.465050  1.0  -0.8713
  O  O2119  1  0.216710  0.000000  0.451970  1.0  -0.9092
  O  O2120  1  0.275200  0.000000  0.465050  1.0  -0.8712
  O  O2121  1  0.783290  0.000000  0.548030  1.0  -0.9074
  O  O2122  1  0.724800  0.000000  0.534950  1.0  -0.8719
  O  O2123  1  0.216710  0.000000  0.548030  1.0  -0.9076
  O  O2124  1  0.275200  0.000000  0.534950  1.0  -0.8716
  O  O2125  1  0.000000  0.548030  0.216710  1.0  -0.9104
  O  O2126  1  0.000000  0.534950  0.275200  1.0  -0.8704
  O  O2127  1  0.000000  0.548030  0.783290  1.0  -0.9091
  O  O2128  1  0.000000  0.534950  0.724800  1.0  -0.871
  O  O2129  1  0.000000  0.451970  0.216710  1.0  -0.91
  O  O2130  1  0.000000  0.465050  0.275200  1.0  -0.8715
  O  O2131  1  0.000000  0.451970  0.783290  1.0  -0.9093
  O  O2132  1  0.000000  0.465050  0.724800  1.0  -0.872
  O  O2133  1  0.548030  0.783290  0.000000  1.0  -0.91
  O  O2134  1  0.534950  0.724800  0.000000  1.0  -0.8726
  O  O2135  1  0.548030  0.216710  0.000000  1.0  -0.9119
  O  O2136  1  0.534950  0.275200  0.000000  1.0  -0.8722
  O  O2137  1  0.451970  0.783290  0.000000  1.0  -0.9101
  O  O2138  1  0.465050  0.724800  0.000000  1.0  -0.8726
  O  O2139  1  0.451970  0.216710  0.000000  1.0  -0.911
  O  O2140  1  0.465050  0.275200  0.000000  1.0  -0.8719
  O  O2141  1  0.028200  0.000000  0.949500  1.0  -0.655
  O  O2142  1  0.971800  0.000000  0.949500  1.0  -0.6529
  O  O2143  1  0.971800  0.000000  0.050500  1.0  -0.657
  O  O2144  1  0.028200  0.000000  0.050500  1.0  -0.6584
  O  O2145  1  0.949500  0.028200  0.000000  1.0  -0.6503
  O  O2146  1  0.949500  0.971800  0.000000  1.0  -0.6508
  O  O2147  1  0.050500  0.971800  0.000000  1.0  -0.652
  O  O2148  1  0.050500  0.028200  0.000000  1.0  -0.6526
  O  O2149  1  0.000000  0.949500  0.028200  1.0  -0.6541
  O  O2150  1  0.000000  0.949500  0.971800  1.0  -0.6549
  O  O2151  1  0.000000  0.050500  0.971800  1.0  -0.656
  O  O2152  1  0.000000  0.050500  0.028200  1.0  -0.6562
  O  O2153  1  0.500000  0.528200  0.550500  1.0  -0.6591
  O  O2154  1  0.500000  0.471800  0.550500  1.0  -0.6582
  O  O2155  1  0.500000  0.471800  0.449500  1.0  -0.654
  O  O2156  1  0.500000  0.528200  0.449500  1.0  -0.6549
  O  O2157  1  0.528200  0.449500  0.500000  1.0  -0.655
  O  O2158  1  0.471800  0.449500  0.500000  1.0  -0.6537
  O  O2159  1  0.471800  0.550500  0.500000  1.0  -0.6554
  O  O2160  1  0.528200  0.550500  0.500000  1.0  -0.6563
  O  O2161  1  0.449500  0.500000  0.471800  1.0  -0.6499
  O  O2162  1  0.449500  0.500000  0.528200  1.0  -0.6505
  O  O2163  1  0.550500  0.500000  0.528200  1.0  -0.6526
  O  O2164  1  0.550500  0.500000  0.471800  1.0  -0.6521
