# generated using pymatgen
data_Co2H40C53(N2O7)2
_symmetry_space_group_name_H-M   'P 1'
_cell_length_a   47.02000000
_cell_length_b   10.77000000
_cell_length_c   23.78000000
_cell_angle_alpha   90.00000000
_cell_angle_beta   94.87000000
_cell_angle_gamma   90.00000000
_symmetry_Int_Tables_number   1
_chemical_formula_structural   Co2H40C53(N2O7)2
_chemical_formula_sum   'Co16 H320 C424 N32 O112'
_cell_volume   11998.84623610
_cell_formula_units_Z   8
loop_
 _symmetry_equiv_pos_site_id
 _symmetry_equiv_pos_as_xyz
  1  'x, y, z'
loop_
 _atom_site_type_symbol
 _atom_site_label
 _atom_site_symmetry_multiplicity
 _atom_site_fract_x
 _atom_site_fract_y
 _atom_site_fract_z
 _atom_site_occupancy
 _atom_site_charge
  Co  Co1  1  0.784530  0.347920  0.425150  1.0  0.9093
  Co  Co2  1  0.491620  0.165440  0.430250  1.0  0.9355
  Co  Co3  1  0.284530  0.847920  0.425150  1.0  0.9093
  Co  Co4  1  0.991620  0.665440  0.430250  1.0  0.9355
  Co  Co5  1  0.215470  0.347920  0.074850  1.0  0.9105
  Co  Co6  1  0.508380  0.165440  0.069750  1.0  0.9347
  Co  Co7  1  0.715470  0.847920  0.074850  1.0  0.9105
  Co  Co8  1  0.008380  0.665440  0.069750  1.0  0.9347
  Co  Co9  1  0.215470  0.652080  0.574850  1.0  0.9086
  Co  Co10  1  0.508380  0.834560  0.569750  1.0  0.933
  Co  Co11  1  0.715470  0.152080  0.574850  1.0  0.9086
  Co  Co12  1  0.008380  0.334560  0.569750  1.0  0.933
  Co  Co13  1  0.784530  0.652080  0.925150  1.0  0.9073
  Co  Co14  1  0.491620  0.834560  0.930250  1.0  0.9336
  Co  Co15  1  0.284530  0.152080  0.925150  1.0  0.9073
  Co  Co16  1  0.991620  0.334560  0.930250  1.0  0.9336
  H  H17  1  0.881200  0.259500  0.532500  1.0  0.1277
  H  H18  1  0.818300  0.040400  0.578500  1.0  0.1102
  H  H19  1  0.907200  0.921600  0.469300  1.0  0.1024
  H  H20  1  0.669500  0.966500  0.346800  1.0  0.1101
  H  H21  1  0.662500  0.265500  0.247400  1.0  0.1047
  H  H22  1  0.893500  0.217500  0.368400  1.0  0.1131
  H  H23  1  0.896200  0.653700  0.522000  1.0  0.1287
  H  H24  1  0.824800  0.582400  0.831800  1.0  0.0727
  H  H25  1  0.909500  0.109700  0.690000  1.0  0.0547
  H  H26  1  0.884000  0.096800  0.728600  1.0  0.0682
  H  H27  1  0.710300  0.052000  0.395200  1.0  0.1029
  H  H28  1  0.929200  0.606100  0.458400  1.0  0.0781
  H  H29  1  0.594700  0.934000  0.225200  1.0  0.1047
  H  H30  1  0.921400  0.246200  0.759400  1.0  0.1151
  H  H31  1  0.848800  0.349500  0.467600  1.0  0.0709
  H  H32  1  0.857100  0.916300  0.609000  1.0  0.0749
  H  H33  1  0.847300  0.013300  0.652800  1.0  0.0707
  H  H34  1  0.948200  0.361600  0.825800  1.0  0.0661
  H  H35  1  0.819200  0.828300  0.490900  1.0  0.1091
  H  H36  1  0.850700  0.669800  0.765900  1.0  0.115
  H  H37  1  0.845900  0.990100  0.459600  1.0  0.0954
  H  H38  1  0.943300  0.027500  0.521400  1.0  0.0902
  H  H39  1  0.549900  0.919100  0.259500  1.0  0.1124
  H  H40  1  0.621200  0.157600  0.354300  1.0  0.1116
  H  H41  1  0.576100  0.151500  0.384400  1.0  0.0876
  H  H42  1  0.928300  0.325700  0.422900  1.0  0.0997
  H  H43  1  0.792600  0.901600  0.868600  1.0  0.0754
  H  H44  1  0.865500  0.780500  0.688700  1.0  0.0703
  H  H45  1  0.888900  0.808900  0.738500  1.0  0.0758
  H  H46  1  0.786800  0.143600  0.514800  1.0  0.094
  H  H47  1  0.922800  0.955800  0.630200  1.0  0.0699
  H  H48  1  0.926700  0.854300  0.677700  1.0  0.0781
  H  H49  1  0.952400  0.942100  0.839000  1.0  0.1279
  H  H50  1  0.875200  0.773500  0.342900  1.0  0.1134
  H  H51  1  0.959900  0.837400  0.613100  1.0  0.1296
  H  H52  1  0.817400  0.998700  0.802900  1.0  0.1339
  H  H53  1  0.847900  0.611900  0.370800  1.0  0.0952
  H  H54  1  0.703000  0.348300  0.293800  1.0  0.1005
  H  H55  1  0.989600  0.778800  0.547500  1.0  0.0649
  H  H56  1  0.977700  0.067300  0.903400  1.0  0.0734
  H  H57  1  0.381200  0.759500  0.532500  1.0  0.1277
  H  H58  1  0.318300  0.540400  0.578500  1.0  0.1102
  H  H59  1  0.407200  0.421600  0.469300  1.0  0.1024
  H  H60  1  0.169500  0.466500  0.346800  1.0  0.1101
  H  H61  1  0.162500  0.765500  0.247400  1.0  0.1047
  H  H62  1  0.393500  0.717500  0.368400  1.0  0.1131
  H  H63  1  0.396200  0.153700  0.522000  1.0  0.1287
  H  H64  1  0.324800  0.082400  0.831800  1.0  0.0727
  H  H65  1  0.409500  0.609700  0.690000  1.0  0.0547
  H  H66  1  0.384000  0.596800  0.728600  1.0  0.0682
  H  H67  1  0.210300  0.552000  0.395200  1.0  0.1029
  H  H68  1  0.429200  0.106100  0.458400  1.0  0.0781
  H  H69  1  0.094700  0.434000  0.225200  1.0  0.1047
  H  H70  1  0.421400  0.746200  0.759400  1.0  0.1151
  H  H71  1  0.348800  0.849500  0.467600  1.0  0.0709
  H  H72  1  0.357100  0.416300  0.609000  1.0  0.0749
  H  H73  1  0.347300  0.513300  0.652800  1.0  0.0707
  H  H74  1  0.448200  0.861600  0.825800  1.0  0.0661
  H  H75  1  0.319200  0.328300  0.490900  1.0  0.1091
  H  H76  1  0.350700  0.169800  0.765900  1.0  0.115
  H  H77  1  0.345900  0.490100  0.459600  1.0  0.0954
  H  H78  1  0.443300  0.527500  0.521400  1.0  0.0902
  H  H79  1  0.049900  0.419100  0.259500  1.0  0.1124
  H  H80  1  0.121200  0.657600  0.354300  1.0  0.1116
  H  H81  1  0.076100  0.651500  0.384400  1.0  0.0876
  H  H82  1  0.428300  0.825700  0.422900  1.0  0.0997
  H  H83  1  0.292600  0.401600  0.868600  1.0  0.0754
  H  H84  1  0.365500  0.280500  0.688700  1.0  0.0703
  H  H85  1  0.388900  0.308900  0.738500  1.0  0.0758
  H  H86  1  0.286800  0.643600  0.514800  1.0  0.094
  H  H87  1  0.422800  0.455800  0.630200  1.0  0.0699
  H  H88  1  0.426700  0.354300  0.677700  1.0  0.0781
  H  H89  1  0.452400  0.442100  0.839000  1.0  0.1279
  H  H90  1  0.375200  0.273500  0.342900  1.0  0.1134
  H  H91  1  0.459900  0.337400  0.613100  1.0  0.1296
  H  H92  1  0.317400  0.498700  0.802900  1.0  0.1339
  H  H93  1  0.347900  0.111900  0.370800  1.0  0.0952
  H  H94  1  0.203000  0.848300  0.293800  1.0  0.1005
  H  H95  1  0.489600  0.278800  0.547500  1.0  0.0649
  H  H96  1  0.477700  0.567300  0.903400  1.0  0.0734
  H  H97  1  0.118800  0.259500  0.967500  1.0  0.1273
  H  H98  1  0.181700  0.040400  0.921500  1.0  0.1103
  H  H99  1  0.092800  0.921600  0.030700  1.0  0.1025
  H  H100  1  0.330500  0.966500  0.153200  1.0  0.1098
  H  H101  1  0.337500  0.265500  0.252600  1.0  0.1045
  H  H102  1  0.106500  0.217500  0.131600  1.0  0.1132
  H  H103  1  0.103800  0.653700  0.978000  1.0  0.129
  H  H104  1  0.175200  0.582400  0.668200  1.0  0.0724
  H  H105  1  0.090500  0.109700  0.810000  1.0  0.0544
  H  H106  1  0.116000  0.096800  0.771400  1.0  0.0689
  H  H107  1  0.289700  0.052000  0.104800  1.0  0.1026
  H  H108  1  0.070800  0.606100  0.041600  1.0  0.0783
  H  H109  1  0.405300  0.934000  0.274800  1.0  0.1043
  H  H110  1  0.078600  0.246200  0.740600  1.0  0.1156
  H  H111  1  0.151200  0.349500  0.032400  1.0  0.0704
  H  H112  1  0.142900  0.916300  0.891000  1.0  0.0759
  H  H113  1  0.152700  0.013300  0.847200  1.0  0.0706
  H  H114  1  0.051800  0.361600  0.674200  1.0  0.0661
  H  H115  1  0.180800  0.828300  0.009100  1.0  0.1084
  H  H116  1  0.149300  0.669800  0.734100  1.0  0.1149
  H  H117  1  0.154100  0.990100  0.040400  1.0  0.0954
  H  H118  1  0.056700  0.027500  0.978600  1.0  0.0897
  H  H119  1  0.450100  0.919100  0.240500  1.0  0.1134
  H  H120  1  0.378800  0.157600  0.145700  1.0  0.1111
  H  H121  1  0.423900  0.151500  0.115600  1.0  0.0878
  H  H122  1  0.071700  0.325700  0.077100  1.0  0.0996
  H  H123  1  0.207400  0.901600  0.631400  1.0  0.0759
  H  H124  1  0.134500  0.780500  0.811300  1.0  0.07
  H  H125  1  0.111100  0.808900  0.761500  1.0  0.0755
  H  H126  1  0.213200  0.143600  0.985200  1.0  0.0926
  H  H127  1  0.077200  0.955800  0.869800  1.0  0.0695
  H  H128  1  0.073300  0.854300  0.822300  1.0  0.0784
  H  H129  1  0.047600  0.942100  0.661000  1.0  0.1286
  H  H130  1  0.124800  0.773500  0.157100  1.0  0.1129
  H  H131  1  0.040100  0.837400  0.886900  1.0  0.1289
  H  H132  1  0.182600  0.998700  0.697100  1.0  0.1332
  H  H133  1  0.152100  0.611900  0.129200  1.0  0.0952
  H  H134  1  0.297000  0.348300  0.206200  1.0  0.1002
  H  H135  1  0.010400  0.778800  0.952500  1.0  0.0677
  H  H136  1  0.022300  0.067300  0.596600  1.0  0.0739
  H  H137  1  0.618800  0.759500  0.967500  1.0  0.1273
  H  H138  1  0.681700  0.540400  0.921500  1.0  0.1103
  H  H139  1  0.592800  0.421600  0.030700  1.0  0.1025
  H  H140  1  0.830500  0.466500  0.153200  1.0  0.1098
  H  H141  1  0.837500  0.765500  0.252600  1.0  0.1045
  H  H142  1  0.606500  0.717500  0.131600  1.0  0.1132
  H  H143  1  0.603800  0.153700  0.978000  1.0  0.129
  H  H144  1  0.675200  0.082400  0.668200  1.0  0.0724
  H  H145  1  0.590500  0.609700  0.810000  1.0  0.0544
  H  H146  1  0.616000  0.596800  0.771400  1.0  0.0689
  H  H147  1  0.789700  0.552000  0.104800  1.0  0.1026
  H  H148  1  0.570800  0.106100  0.041600  1.0  0.0783
  H  H149  1  0.905300  0.434000  0.274800  1.0  0.1043
  H  H150  1  0.578600  0.746200  0.740600  1.0  0.1156
  H  H151  1  0.651200  0.849500  0.032400  1.0  0.0704
  H  H152  1  0.642900  0.416300  0.891000  1.0  0.0759
  H  H153  1  0.652700  0.513300  0.847200  1.0  0.0706
  H  H154  1  0.551800  0.861600  0.674200  1.0  0.0661
  H  H155  1  0.680800  0.328300  0.009100  1.0  0.1084
  H  H156  1  0.649300  0.169800  0.734100  1.0  0.1149
  H  H157  1  0.654100  0.490100  0.040400  1.0  0.0954
  H  H158  1  0.556700  0.527500  0.978600  1.0  0.0897
  H  H159  1  0.950100  0.419100  0.240500  1.0  0.1134
  H  H160  1  0.878800  0.657600  0.145700  1.0  0.1111
  H  H161  1  0.923900  0.651500  0.115600  1.0  0.0878
  H  H162  1  0.571700  0.825700  0.077100  1.0  0.0996
  H  H163  1  0.707400  0.401600  0.631400  1.0  0.0759
  H  H164  1  0.634500  0.280500  0.811300  1.0  0.07
  H  H165  1  0.611100  0.308900  0.761500  1.0  0.0755
  H  H166  1  0.713200  0.643600  0.985200  1.0  0.0926
  H  H167  1  0.577200  0.455800  0.869800  1.0  0.0695
  H  H168  1  0.573300  0.354300  0.822300  1.0  0.0784
  H  H169  1  0.547600  0.442100  0.661000  1.0  0.1286
  H  H170  1  0.624800  0.273500  0.157100  1.0  0.1129
  H  H171  1  0.540100  0.337400  0.886900  1.0  0.1289
  H  H172  1  0.682600  0.498700  0.697100  1.0  0.1332
  H  H173  1  0.652100  0.111900  0.129200  1.0  0.0952
  H  H174  1  0.797000  0.848300  0.206200  1.0  0.1002
  H  H175  1  0.510400  0.278800  0.952500  1.0  0.0677
  H  H176  1  0.522300  0.567300  0.596600  1.0  0.0739
  H  H177  1  0.118800  0.740500  0.467500  1.0  0.1271
  H  H178  1  0.181700  0.959600  0.421500  1.0  0.1102
  H  H179  1  0.092800  0.078400  0.530700  1.0  0.1023
  H  H180  1  0.330500  0.033500  0.653200  1.0  0.1101
  H  H181  1  0.337500  0.734500  0.752600  1.0  0.105
  H  H182  1  0.106500  0.782500  0.631600  1.0  0.1135
  H  H183  1  0.103800  0.346300  0.478000  1.0  0.1289
  H  H184  1  0.175200  0.417600  0.168200  1.0  0.0721
  H  H185  1  0.090500  0.890300  0.310000  1.0  0.0554
  H  H186  1  0.116000  0.903200  0.271400  1.0  0.0687
  H  H187  1  0.289700  0.948000  0.604800  1.0  0.1035
  H  H188  1  0.070800  0.393900  0.541600  1.0  0.0779
  H  H189  1  0.405300  0.066000  0.774800  1.0  0.104
  H  H190  1  0.078600  0.753800  0.240600  1.0  0.1159
  H  H191  1  0.151200  0.650500  0.532400  1.0  0.0711
  H  H192  1  0.142900  0.083700  0.391000  1.0  0.0742
  H  H193  1  0.152700  0.986700  0.347200  1.0  0.0712
  H  H194  1  0.051800  0.638400  0.174200  1.0  0.0701
  H  H195  1  0.180800  0.171700  0.509100  1.0  0.1081
  H  H196  1  0.149300  0.330200  0.234100  1.0  0.1152
  H  H197  1  0.154100  0.009900  0.540400  1.0  0.0954
  H  H198  1  0.056700  0.972500  0.478600  1.0  0.0895
  H  H199  1  0.450100  0.080900  0.740500  1.0  0.1131
  H  H200  1  0.378800  0.842400  0.645700  1.0  0.111
  H  H201  1  0.423900  0.848500  0.615600  1.0  0.088
  H  H202  1  0.071700  0.674300  0.577100  1.0  0.1009
  H  H203  1  0.207400  0.098400  0.131400  1.0  0.0752
  H  H204  1  0.134500  0.219500  0.311300  1.0  0.0689
  H  H205  1  0.111100  0.191100  0.261500  1.0  0.0758
  H  H206  1  0.213200  0.856400  0.485200  1.0  0.0928
  H  H207  1  0.077200  0.044200  0.369800  1.0  0.0696
  H  H208  1  0.073300  0.145700  0.322300  1.0  0.0787
  H  H209  1  0.047600  0.057900  0.161000  1.0  0.1283
  H  H210  1  0.124800  0.226500  0.657100  1.0  0.113
  H  H211  1  0.040100  0.162600  0.386900  1.0  0.1289
  H  H212  1  0.182600  0.001300  0.197100  1.0  0.1337
  H  H213  1  0.152100  0.388100  0.629200  1.0  0.0951
  H  H214  1  0.297000  0.651700  0.706200  1.0  0.0999
  H  H215  1  0.010400  0.221200  0.452500  1.0  0.0679
  H  H216  1  0.022300  0.932700  0.096600  1.0  0.0741
  H  H217  1  0.618800  0.240500  0.467500  1.0  0.1271
  H  H218  1  0.681700  0.459600  0.421500  1.0  0.1102
  H  H219  1  0.592800  0.578400  0.530700  1.0  0.1023
  H  H220  1  0.830500  0.533500  0.653200  1.0  0.1101
  H  H221  1  0.837500  0.234500  0.752600  1.0  0.105
  H  H222  1  0.606500  0.282500  0.631600  1.0  0.1135
  H  H223  1  0.603800  0.846300  0.478000  1.0  0.1289
  H  H224  1  0.675200  0.917600  0.168200  1.0  0.0721
  H  H225  1  0.590500  0.390300  0.310000  1.0  0.0554
  H  H226  1  0.616000  0.403200  0.271400  1.0  0.0687
  H  H227  1  0.789700  0.448000  0.604800  1.0  0.1035
  H  H228  1  0.570800  0.893900  0.541600  1.0  0.0779
  H  H229  1  0.905300  0.566000  0.774800  1.0  0.104
  H  H230  1  0.578600  0.253800  0.240600  1.0  0.1159
  H  H231  1  0.651200  0.150500  0.532400  1.0  0.0711
  H  H232  1  0.642900  0.583700  0.391000  1.0  0.0742
  H  H233  1  0.652700  0.486700  0.347200  1.0  0.0712
  H  H234  1  0.551800  0.138400  0.174200  1.0  0.0701
  H  H235  1  0.680800  0.671700  0.509100  1.0  0.1081
  H  H236  1  0.649300  0.830200  0.234100  1.0  0.1152
  H  H237  1  0.654100  0.509900  0.540400  1.0  0.0954
  H  H238  1  0.556700  0.472500  0.478600  1.0  0.0895
  H  H239  1  0.950100  0.580900  0.740500  1.0  0.1131
  H  H240  1  0.878800  0.342400  0.645700  1.0  0.111
  H  H241  1  0.923900  0.348500  0.615600  1.0  0.088
  H  H242  1  0.571700  0.174300  0.577100  1.0  0.1009
  H  H243  1  0.707400  0.598400  0.131400  1.0  0.0752
  H  H244  1  0.634500  0.719500  0.311300  1.0  0.0689
  H  H245  1  0.611100  0.691100  0.261500  1.0  0.0758
  H  H246  1  0.713200  0.356400  0.485200  1.0  0.0928
  H  H247  1  0.577200  0.544200  0.369800  1.0  0.0696
  H  H248  1  0.573300  0.645700  0.322300  1.0  0.0787
  H  H249  1  0.547600  0.557900  0.161000  1.0  0.1283
  H  H250  1  0.624800  0.726500  0.657100  1.0  0.113
  H  H251  1  0.540100  0.662600  0.386900  1.0  0.1289
  H  H252  1  0.682600  0.501300  0.197100  1.0  0.1337
  H  H253  1  0.652100  0.888100  0.629200  1.0  0.0951
  H  H254  1  0.797000  0.151700  0.706200  1.0  0.0999
  H  H255  1  0.510400  0.721200  0.452500  1.0  0.0679
  H  H256  1  0.522300  0.432700  0.096600  1.0  0.0741
  H  H257  1  0.881200  0.740500  0.032500  1.0  0.1274
  H  H258  1  0.818300  0.959600  0.078500  1.0  0.1101
  H  H259  1  0.907200  0.078400  0.969300  1.0  0.1022
  H  H260  1  0.669500  0.033500  0.846800  1.0  0.1106
  H  H261  1  0.662500  0.734500  0.747400  1.0  0.1047
  H  H262  1  0.893500  0.782500  0.868400  1.0  0.113
  H  H263  1  0.896200  0.346300  0.022000  1.0  0.1287
  H  H264  1  0.824800  0.417600  0.331800  1.0  0.0726
  H  H265  1  0.909500  0.890300  0.190000  1.0  0.0538
  H  H266  1  0.884000  0.903200  0.228600  1.0  0.0687
  H  H267  1  0.710300  0.948000  0.895200  1.0  0.1032
  H  H268  1  0.929200  0.393900  0.958400  1.0  0.0781
  H  H269  1  0.594700  0.066000  0.725200  1.0  0.1045
  H  H270  1  0.921400  0.753800  0.259400  1.0  0.1144
  H  H271  1  0.848800  0.650500  0.967600  1.0  0.0711
  H  H272  1  0.857100  0.083700  0.109000  1.0  0.0754
  H  H273  1  0.847300  0.986700  0.152800  1.0  0.0708
  H  H274  1  0.948200  0.638400  0.325800  1.0  0.0703
  H  H275  1  0.819200  0.171700  0.990900  1.0  0.109
  H  H276  1  0.850700  0.330200  0.265900  1.0  0.1156
  H  H277  1  0.845900  0.009900  0.959600  1.0  0.0955
  H  H278  1  0.943300  0.972500  0.021400  1.0  0.0901
  H  H279  1  0.549900  0.080900  0.759500  1.0  0.1125
  H  H280  1  0.621200  0.842400  0.854300  1.0  0.1113
  H  H281  1  0.576100  0.848500  0.884400  1.0  0.0877
  H  H282  1  0.928300  0.674300  0.922900  1.0  0.1008
  H  H283  1  0.792600  0.098400  0.368600  1.0  0.075
  H  H284  1  0.865500  0.219500  0.188700  1.0  0.0714
  H  H285  1  0.888900  0.191100  0.238500  1.0  0.0752
  H  H286  1  0.786800  0.856400  0.014800  1.0  0.0934
  H  H287  1  0.922800  0.044200  0.130200  1.0  0.0696
  H  H288  1  0.926700  0.145700  0.177700  1.0  0.0776
  H  H289  1  0.952400  0.057900  0.339000  1.0  0.1279
  H  H290  1  0.875200  0.226500  0.842900  1.0  0.1135
  H  H291  1  0.959900  0.162600  0.113100  1.0  0.1297
  H  H292  1  0.817400  0.001300  0.302900  1.0  0.1341
  H  H293  1  0.847900  0.388100  0.870800  1.0  0.0954
  H  H294  1  0.703000  0.651700  0.793800  1.0  0.1007
  H  H295  1  0.989600  0.221200  0.047500  1.0  0.0652
  H  H296  1  0.977700  0.932700  0.403400  1.0  0.0733
  H  H297  1  0.381200  0.240500  0.032500  1.0  0.1274
  H  H298  1  0.318300  0.459600  0.078500  1.0  0.1101
  H  H299  1  0.407200  0.578400  0.969300  1.0  0.1022
  H  H300  1  0.169500  0.533500  0.846800  1.0  0.1106
  H  H301  1  0.162500  0.234500  0.747400  1.0  0.1047
  H  H302  1  0.393500  0.282500  0.868400  1.0  0.113
  H  H303  1  0.396200  0.846300  0.022000  1.0  0.1287
  H  H304  1  0.324800  0.917600  0.331800  1.0  0.0726
  H  H305  1  0.409500  0.390300  0.190000  1.0  0.0538
  H  H306  1  0.384000  0.403200  0.228600  1.0  0.0687
  H  H307  1  0.210300  0.448000  0.895200  1.0  0.1032
  H  H308  1  0.429200  0.893900  0.958400  1.0  0.0781
  H  H309  1  0.094700  0.566000  0.725200  1.0  0.1045
  H  H310  1  0.421400  0.253800  0.259400  1.0  0.1144
  H  H311  1  0.348800  0.150500  0.967600  1.0  0.0711
  H  H312  1  0.357100  0.583700  0.109000  1.0  0.0754
  H  H313  1  0.347300  0.486700  0.152800  1.0  0.0708
  H  H314  1  0.448200  0.138400  0.325800  1.0  0.0703
  H  H315  1  0.319200  0.671700  0.990900  1.0  0.109
  H  H316  1  0.350700  0.830200  0.265900  1.0  0.1156
  H  H317  1  0.345900  0.509900  0.959600  1.0  0.0955
  H  H318  1  0.443300  0.472500  0.021400  1.0  0.0901
  H  H319  1  0.049900  0.580900  0.759500  1.0  0.1125
  H  H320  1  0.121200  0.342400  0.854300  1.0  0.1113
  H  H321  1  0.076100  0.348500  0.884400  1.0  0.0877
  H  H322  1  0.428300  0.174300  0.922900  1.0  0.1008
  H  H323  1  0.292600  0.598400  0.368600  1.0  0.075
  H  H324  1  0.365500  0.719500  0.188700  1.0  0.0714
  H  H325  1  0.388900  0.691100  0.238500  1.0  0.0752
  H  H326  1  0.286800  0.356400  0.014800  1.0  0.0934
  H  H327  1  0.422800  0.544200  0.130200  1.0  0.0696
  H  H328  1  0.426700  0.645700  0.177700  1.0  0.0776
  H  H329  1  0.452400  0.557900  0.339000  1.0  0.1279
  H  H330  1  0.375200  0.726500  0.842900  1.0  0.1135
  H  H331  1  0.459900  0.662600  0.113100  1.0  0.1297
  H  H332  1  0.317400  0.501300  0.302900  1.0  0.1341
  H  H333  1  0.347900  0.888100  0.870800  1.0  0.0954
  H  H334  1  0.203000  0.151700  0.793800  1.0  0.1007
  H  H335  1  0.489600  0.721200  0.047500  1.0  0.0652
  H  H336  1  0.477700  0.432700  0.403400  1.0  0.0733
  C  C337  1  0.661820  0.106800  0.292500  1.0  0.2587
  C  C338  1  0.862330  0.232800  0.529300  1.0  -0.209
  C  C339  1  0.824970  0.104100  0.556800  1.0  -0.2401
  C  C340  1  0.911910  0.002000  0.459300  1.0  -0.1988
  C  C341  1  0.676100  0.043700  0.336200  1.0  -0.1585
  C  C342  1  0.887430  0.942500  0.676300  1.0  -0.0462
  C  C343  1  0.528550  0.032200  0.347300  1.0  0.617
  C  C344  1  0.897520  0.059000  0.413300  1.0  0.2989
  C  C345  1  0.672100  0.221700  0.276900  1.0  -0.1538
  C  C346  1  0.903510  0.179400  0.399100  1.0  -0.2257
  C  C347  1  0.914900  0.682800  0.527300  1.0  -0.2205
  C  C348  1  0.823500  0.667800  0.826300  1.0  0.1607
  C  C349  1  0.899410  0.052400  0.712700  1.0  0.0557
  C  C350  1  0.853380  0.135900  0.563300  1.0  0.3
  C  C351  1  0.933610  0.079900  0.793100  1.0  0.3308
  C  C352  1  0.700900  0.094900  0.365200  1.0  -0.0348
  C  C353  1  0.558430  0.035400  0.325700  1.0  -0.1381
  C  C354  1  0.935200  0.653800  0.489800  1.0  0.1737
  C  C355  1  0.591000  0.977000  0.257700  1.0  -0.1351
  C  C356  1  0.932590  0.207400  0.788300  1.0  -0.2873
  C  C357  1  0.965480  0.247400  0.508700  1.0  0.6461
  C  C358  1  0.737650  0.262900  0.379800  1.0  0.6606
  C  C359  1  0.842370  0.287700  0.490700  1.0  0.1589
  C  C360  1  0.863390  0.985000  0.633400  1.0  0.0257
  C  C361  1  0.862800  0.897000  0.398600  1.0  0.2582
  C  C362  1  0.949060  0.275500  0.828700  1.0  0.18
  C  C363  1  0.830100  0.816500  0.460500  1.0  -0.0486
  C  C364  1  0.839250  0.719100  0.786800  1.0  -0.3071
  C  C365  1  0.846400  0.913100  0.442000  1.0  -0.1607
  C  C366  1  0.933540  0.065900  0.490400  1.0  -0.0252
  C  C367  1  0.924190  0.758600  0.573800  1.0  0.2344
  C  C368  1  0.563970  0.968700  0.277900  1.0  -0.0584
  C  C369  1  0.606880  0.112100  0.334500  1.0  -0.2428
  C  C370  1  0.579970  0.106100  0.352700  1.0  -0.0388
  C  C371  1  0.830100  0.700600  0.433300  1.0  -0.0906
  C  C372  1  0.924780  0.243100  0.431400  1.0  -0.0515
  C  C373  1  0.940990  0.186800  0.476100  1.0  -0.0988
  C  C374  1  0.804600  0.854100  0.848000  1.0  0.178
  C  C375  1  0.874410  0.845700  0.712200  1.0  0.0765
  C  C376  1  0.805980  0.166300  0.517800  1.0  0.1527
  C  C377  1  0.612120  0.047900  0.285200  1.0  0.2481
  C  C378  1  0.913200  0.889800  0.648900  1.0  0.0094
  C  C379  1  0.951000  0.028000  0.835700  1.0  -0.2447
  C  C380  1  0.863600  0.784600  0.372300  1.0  -0.2161
  C  C381  1  0.952970  0.791900  0.581700  1.0  -0.3239
  C  C382  1  0.819600  0.913800  0.808800  1.0  -0.2332
  C  C383  1  0.711100  0.207600  0.349100  1.0  -0.1189
  C  C384  1  0.847310  0.687800  0.389300  1.0  -0.0329
  C  C385  1  0.837940  0.845600  0.778500  1.0  0.31
  C  C386  1  0.696360  0.271400  0.304700  1.0  -0.037
  C  C387  1  0.810900  0.598500  0.451000  1.0  0.6956
  C  C388  1  0.970500  0.755600  0.541900  1.0  0.1676
  C  C389  1  0.966400  0.104300  0.874000  1.0  0.1823
  C  C390  1  0.161820  0.606800  0.292500  1.0  0.2587
  C  C391  1  0.362330  0.732800  0.529300  1.0  -0.209
  C  C392  1  0.324970  0.604100  0.556800  1.0  -0.2401
  C  C393  1  0.411910  0.502000  0.459300  1.0  -0.1988
  C  C394  1  0.176100  0.543700  0.336200  1.0  -0.1585
  C  C395  1  0.387430  0.442500  0.676300  1.0  -0.0462
  C  C396  1  0.028550  0.532200  0.347300  1.0  0.617
  C  C397  1  0.397520  0.559000  0.413300  1.0  0.2989
  C  C398  1  0.172100  0.721700  0.276900  1.0  -0.1538
  C  C399  1  0.403510  0.679400  0.399100  1.0  -0.2257
  C  C400  1  0.414900  0.182800  0.527300  1.0  -0.2205
  C  C401  1  0.323500  0.167800  0.826300  1.0  0.1607
  C  C402  1  0.399410  0.552400  0.712700  1.0  0.0557
  C  C403  1  0.353380  0.635900  0.563300  1.0  0.3
  C  C404  1  0.433610  0.579900  0.793100  1.0  0.3308
  C  C405  1  0.200900  0.594900  0.365200  1.0  -0.0348
  C  C406  1  0.058430  0.535400  0.325700  1.0  -0.1381
  C  C407  1  0.435200  0.153800  0.489800  1.0  0.1737
  C  C408  1  0.091000  0.477000  0.257700  1.0  -0.1351
  C  C409  1  0.432590  0.707400  0.788300  1.0  -0.2873
  C  C410  1  0.465480  0.747400  0.508700  1.0  0.6461
  C  C411  1  0.237650  0.762900  0.379800  1.0  0.6606
  C  C412  1  0.342370  0.787700  0.490700  1.0  0.1589
  C  C413  1  0.363390  0.485000  0.633400  1.0  0.0257
  C  C414  1  0.362800  0.397000  0.398600  1.0  0.2582
  C  C415  1  0.449060  0.775500  0.828700  1.0  0.18
  C  C416  1  0.330100  0.316500  0.460500  1.0  -0.0486
  C  C417  1  0.339250  0.219100  0.786800  1.0  -0.3071
  C  C418  1  0.346400  0.413100  0.442000  1.0  -0.1607
  C  C419  1  0.433540  0.565900  0.490400  1.0  -0.0252
  C  C420  1  0.424190  0.258600  0.573800  1.0  0.2344
  C  C421  1  0.063970  0.468700  0.277900  1.0  -0.0584
  C  C422  1  0.106880  0.612100  0.334500  1.0  -0.2428
  C  C423  1  0.079970  0.606100  0.352700  1.0  -0.0388
  C  C424  1  0.330100  0.200600  0.433300  1.0  -0.0906
  C  C425  1  0.424780  0.743100  0.431400  1.0  -0.0515
  C  C426  1  0.440990  0.686800  0.476100  1.0  -0.0988
  C  C427  1  0.304600  0.354100  0.848000  1.0  0.178
  C  C428  1  0.374410  0.345700  0.712200  1.0  0.0765
  C  C429  1  0.305980  0.666300  0.517800  1.0  0.1527
  C  C430  1  0.112120  0.547900  0.285200  1.0  0.2481
  C  C431  1  0.413200  0.389800  0.648900  1.0  0.0094
  C  C432  1  0.451000  0.528000  0.835700  1.0  -0.2447
  C  C433  1  0.363600  0.284600  0.372300  1.0  -0.2161
  C  C434  1  0.452970  0.291900  0.581700  1.0  -0.3239
  C  C435  1  0.319600  0.413800  0.808800  1.0  -0.2332
  C  C436  1  0.211100  0.707600  0.349100  1.0  -0.1189
  C  C437  1  0.347310  0.187800  0.389300  1.0  -0.0329
  C  C438  1  0.337940  0.345600  0.778500  1.0  0.31
  C  C439  1  0.196360  0.771400  0.304700  1.0  -0.037
  C  C440  1  0.310900  0.098500  0.451000  1.0  0.6956
  C  C441  1  0.470500  0.255600  0.541900  1.0  0.1676
  C  C442  1  0.466400  0.604300  0.874000  1.0  0.1823
  C  C443  1  0.338180  0.106800  0.207500  1.0  0.257
  C  C444  1  0.137670  0.232800  0.970700  1.0  -0.2108
  C  C445  1  0.175030  0.104100  0.943200  1.0  -0.2381
  C  C446  1  0.088090  0.002000  0.040700  1.0  -0.1983
  C  C447  1  0.323900  0.043700  0.163800  1.0  -0.1601
  C  C448  1  0.112570  0.942500  0.823700  1.0  -0.0464
  C  C449  1  0.471450  0.032200  0.152700  1.0  0.616
  C  C450  1  0.102480  0.059000  0.086700  1.0  0.2981
  C  C451  1  0.327900  0.221700  0.223100  1.0  -0.1559
  C  C452  1  0.096490  0.179400  0.100900  1.0  -0.2249
  C  C453  1  0.085100  0.682800  0.972700  1.0  -0.2208
  C  C454  1  0.176500  0.667800  0.673700  1.0  0.1618
  C  C455  1  0.100590  0.052400  0.787300  1.0  0.0546
  C  C456  1  0.146620  0.135900  0.936700  1.0  0.2997
  C  C457  1  0.066390  0.079900  0.706900  1.0  0.328
  C  C458  1  0.299100  0.094900  0.134800  1.0  -0.0322
  C  C459  1  0.441570  0.035400  0.174300  1.0  -0.1376
  C  C460  1  0.064800  0.653800  0.010200  1.0  0.174
  C  C461  1  0.409000  0.977000  0.242300  1.0  -0.1358
  C  C462  1  0.067410  0.207400  0.711700  1.0  -0.2867
  C  C463  1  0.034520  0.247400  0.991300  1.0  0.6437
  C  C464  1  0.262350  0.262900  0.120200  1.0  0.66
  C  C465  1  0.157630  0.287700  0.009300  1.0  0.1579
  C  C466  1  0.136610  0.985000  0.866600  1.0  0.0253
  C  C467  1  0.137200  0.897000  0.101400  1.0  0.2578
  C  C468  1  0.050940  0.275500  0.671300  1.0  0.1807
  C  C469  1  0.169900  0.816500  0.039500  1.0  -0.0502
  C  C470  1  0.160750  0.719100  0.713200  1.0  -0.3071
  C  C471  1  0.153600  0.913100  0.058000  1.0  -0.1618
  C  C472  1  0.066460  0.065900  0.009600  1.0  -0.0247
  C  C473  1  0.075810  0.758600  0.926200  1.0  0.236
  C  C474  1  0.436030  0.968700  0.222100  1.0  -0.0585
  C  C475  1  0.393120  0.112100  0.165500  1.0  -0.2431
  C  C476  1  0.420030  0.106100  0.147300  1.0  -0.0393
  C  C477  1  0.169900  0.700600  0.066700  1.0  -0.0889
  C  C478  1  0.075220  0.243100  0.068600  1.0  -0.0522
  C  C479  1  0.059010  0.186800  0.023900  1.0  -0.0999
  C  C480  1  0.195400  0.854100  0.652000  1.0  0.1789
  C  C481  1  0.125590  0.845700  0.787800  1.0  0.0763
  C  C482  1  0.194020  0.166300  0.982200  1.0  0.1519
  C  C483  1  0.387880  0.047900  0.214800  1.0  0.2476
  C  C484  1  0.086800  0.889800  0.851100  1.0  0.0121
  C  C485  1  0.049000  0.028000  0.664300  1.0  -0.2443
  C  C486  1  0.136400  0.784600  0.127700  1.0  -0.2165
  C  C487  1  0.047030  0.791900  0.918300  1.0  -0.3243
  C  C488  1  0.180400  0.913800  0.691200  1.0  -0.2317
  C  C489  1  0.288900  0.207600  0.150900  1.0  -0.118
  C  C490  1  0.152690  0.687800  0.110700  1.0  -0.0332
  C  C491  1  0.162060  0.845600  0.721500  1.0  0.3104
  C  C492  1  0.303640  0.271400  0.195300  1.0  -0.0369
  C  C493  1  0.189100  0.598500  0.049000  1.0  0.6942
  C  C494  1  0.029500  0.755600  0.958100  1.0  0.1657
  C  C495  1  0.033600  0.104300  0.626000  1.0  0.1828
  C  C496  1  0.838180  0.606800  0.207500  1.0  0.257
  C  C497  1  0.637670  0.732800  0.970700  1.0  -0.2108
  C  C498  1  0.675030  0.604100  0.943200  1.0  -0.2381
  C  C499  1  0.588090  0.502000  0.040700  1.0  -0.1983
  C  C500  1  0.823900  0.543700  0.163800  1.0  -0.1601
  C  C501  1  0.612570  0.442500  0.823700  1.0  -0.0464
  C  C502  1  0.971450  0.532200  0.152700  1.0  0.616
  C  C503  1  0.602480  0.559000  0.086700  1.0  0.2981
  C  C504  1  0.827900  0.721700  0.223100  1.0  -0.1559
  C  C505  1  0.596490  0.679400  0.100900  1.0  -0.2249
  C  C506  1  0.585100  0.182800  0.972700  1.0  -0.2208
  C  C507  1  0.676500  0.167800  0.673700  1.0  0.1618
  C  C508  1  0.600590  0.552400  0.787300  1.0  0.0546
  C  C509  1  0.646620  0.635900  0.936700  1.0  0.2997
  C  C510  1  0.566390  0.579900  0.706900  1.0  0.328
  C  C511  1  0.799100  0.594900  0.134800  1.0  -0.0322
  C  C512  1  0.941570  0.535400  0.174300  1.0  -0.1376
  C  C513  1  0.564800  0.153800  0.010200  1.0  0.174
  C  C514  1  0.909000  0.477000  0.242300  1.0  -0.1358
  C  C515  1  0.567410  0.707400  0.711700  1.0  -0.2867
  C  C516  1  0.534520  0.747400  0.991300  1.0  0.6437
  C  C517  1  0.762350  0.762900  0.120200  1.0  0.66
  C  C518  1  0.657630  0.787700  0.009300  1.0  0.1579
  C  C519  1  0.636610  0.485000  0.866600  1.0  0.0253
  C  C520  1  0.637200  0.397000  0.101400  1.0  0.2578
  C  C521  1  0.550940  0.775500  0.671300  1.0  0.1807
  C  C522  1  0.669900  0.316500  0.039500  1.0  -0.0502
  C  C523  1  0.660750  0.219100  0.713200  1.0  -0.3071
  C  C524  1  0.653600  0.413100  0.058000  1.0  -0.1618
  C  C525  1  0.566460  0.565900  0.009600  1.0  -0.0247
  C  C526  1  0.575810  0.258600  0.926200  1.0  0.236
  C  C527  1  0.936030  0.468700  0.222100  1.0  -0.0585
  C  C528  1  0.893120  0.612100  0.165500  1.0  -0.2431
  C  C529  1  0.920030  0.606100  0.147300  1.0  -0.0393
  C  C530  1  0.669900  0.200600  0.066700  1.0  -0.0889
  C  C531  1  0.575220  0.743100  0.068600  1.0  -0.0522
  C  C532  1  0.559010  0.686800  0.023900  1.0  -0.0999
  C  C533  1  0.695400  0.354100  0.652000  1.0  0.1789
  C  C534  1  0.625590  0.345700  0.787800  1.0  0.0763
  C  C535  1  0.694020  0.666300  0.982200  1.0  0.1519
  C  C536  1  0.887880  0.547900  0.214800  1.0  0.2476
  C  C537  1  0.586800  0.389800  0.851100  1.0  0.0121
  C  C538  1  0.549000  0.528000  0.664300  1.0  -0.2443
  C  C539  1  0.636400  0.284600  0.127700  1.0  -0.2165
  C  C540  1  0.547030  0.291900  0.918300  1.0  -0.3243
  C  C541  1  0.680400  0.413800  0.691200  1.0  -0.2317
  C  C542  1  0.788900  0.707600  0.150900  1.0  -0.118
  C  C543  1  0.652690  0.187800  0.110700  1.0  -0.0332
  C  C544  1  0.662060  0.345600  0.721500  1.0  0.3104
  C  C545  1  0.803640  0.771400  0.195300  1.0  -0.0369
  C  C546  1  0.689100  0.098500  0.049000  1.0  0.6942
  C  C547  1  0.529500  0.255600  0.958100  1.0  0.1657
  C  C548  1  0.533600  0.604300  0.626000  1.0  0.1828
  C  C549  1  0.338180  0.893200  0.707500  1.0  0.257
  C  C550  1  0.137670  0.767200  0.470700  1.0  -0.2092
  C  C551  1  0.175030  0.895900  0.443200  1.0  -0.2385
  C  C552  1  0.088090  0.998000  0.540700  1.0  -0.1985
  C  C553  1  0.323900  0.956300  0.663800  1.0  -0.1593
  C  C554  1  0.112570  0.057500  0.323700  1.0  -0.0467
  C  C555  1  0.471450  0.967800  0.652700  1.0  0.6159
  C  C556  1  0.102480  0.941000  0.586700  1.0  0.2978
  C  C557  1  0.327900  0.778300  0.723100  1.0  -0.1563
  C  C558  1  0.096490  0.820600  0.600900  1.0  -0.2245
  C  C559  1  0.085100  0.317200  0.472700  1.0  -0.22
  C  C560  1  0.176500  0.332200  0.173700  1.0  0.1604
  C  C561  1  0.100590  0.947600  0.287300  1.0  0.0534
  C  C562  1  0.146620  0.864100  0.436700  1.0  0.2999
  C  C563  1  0.066390  0.920100  0.206900  1.0  0.3274
  C  C564  1  0.299100  0.905100  0.634800  1.0  -0.0333
  C  C565  1  0.441570  0.964600  0.674300  1.0  -0.1375
  C  C566  1  0.064800  0.346200  0.510200  1.0  0.1741
  C  C567  1  0.409000  0.023000  0.742300  1.0  -0.1357
  C  C568  1  0.067410  0.792600  0.211700  1.0  -0.286
  C  C569  1  0.034520  0.752600  0.491300  1.0  0.6438
  C  C570  1  0.262350  0.737100  0.620200  1.0  0.6595
  C  C571  1  0.157630  0.712300  0.509300  1.0  0.158
  C  C572  1  0.136610  0.015000  0.366600  1.0  0.0247
  C  C573  1  0.137200  0.103000  0.601400  1.0  0.2574
  C  C574  1  0.050940  0.724500  0.171300  1.0  0.1806
  C  C575  1  0.169900  0.183500  0.539500  1.0  -0.0495
  C  C576  1  0.160750  0.280900  0.213200  1.0  -0.3063
  C  C577  1  0.153600  0.086900  0.558000  1.0  -0.1627
  C  C578  1  0.066460  0.934100  0.509600  1.0  -0.0244
  C  C579  1  0.075810  0.241400  0.426200  1.0  0.2365
  C  C580  1  0.436030  0.031300  0.722100  1.0  -0.059
  C  C581  1  0.393120  0.887900  0.665500  1.0  -0.2432
  C  C582  1  0.420030  0.893900  0.647300  1.0  -0.0395
  C  C583  1  0.169900  0.299400  0.566700  1.0  -0.0882
  C  C584  1  0.075220  0.756900  0.568600  1.0  -0.0531
  C  C585  1  0.059010  0.813200  0.523900  1.0  -0.101
  C  C586  1  0.195400  0.145900  0.152000  1.0  0.1787
  C  C587  1  0.125590  0.154300  0.287800  1.0  0.0768
  C  C588  1  0.194020  0.833700  0.482200  1.0  0.152
  C  C589  1  0.387880  0.952100  0.714800  1.0  0.2476
  C  C590  1  0.086800  0.110200  0.351100  1.0  0.0118
  C  C591  1  0.049000  0.972000  0.164300  1.0  -0.2458
  C  C592  1  0.136400  0.215400  0.627700  1.0  -0.2163
  C  C593  1  0.047030  0.208100  0.418300  1.0  -0.3244
  C  C594  1  0.180400  0.086200  0.191200  1.0  -0.2319
  C  C595  1  0.288900  0.792400  0.650900  1.0  -0.1172
  C  C596  1  0.152690  0.312200  0.610700  1.0  -0.0345
  C  C597  1  0.162060  0.154400  0.221500  1.0  0.3106
  C  C598  1  0.303640  0.728600  0.695300  1.0  -0.0363
  C  C599  1  0.189100  0.401500  0.549000  1.0  0.6948
  C  C600  1  0.029500  0.244400  0.458100  1.0  0.1655
  C  C601  1  0.033600  0.895700  0.126000  1.0  0.1827
  C  C602  1  0.838180  0.393200  0.707500  1.0  0.257
  C  C603  1  0.637670  0.267200  0.470700  1.0  -0.2092
  C  C604  1  0.675030  0.395900  0.443200  1.0  -0.2385
  C  C605  1  0.588090  0.498000  0.540700  1.0  -0.1985
  C  C606  1  0.823900  0.456300  0.663800  1.0  -0.1593
  C  C607  1  0.612570  0.557500  0.323700  1.0  -0.0467
  C  C608  1  0.971450  0.467800  0.652700  1.0  0.6159
  C  C609  1  0.602480  0.441000  0.586700  1.0  0.2978
  C  C610  1  0.827900  0.278300  0.723100  1.0  -0.1563
  C  C611  1  0.596490  0.320600  0.600900  1.0  -0.2245
  C  C612  1  0.585100  0.817200  0.472700  1.0  -0.22
  C  C613  1  0.676500  0.832200  0.173700  1.0  0.1604
  C  C614  1  0.600590  0.447600  0.287300  1.0  0.0534
  C  C615  1  0.646620  0.364100  0.436700  1.0  0.2999
  C  C616  1  0.566390  0.420100  0.206900  1.0  0.3274
  C  C617  1  0.799100  0.405100  0.634800  1.0  -0.0333
  C  C618  1  0.941570  0.464600  0.674300  1.0  -0.1375
  C  C619  1  0.564800  0.846200  0.510200  1.0  0.1741
  C  C620  1  0.909000  0.523000  0.742300  1.0  -0.1357
  C  C621  1  0.567410  0.292600  0.211700  1.0  -0.286
  C  C622  1  0.534520  0.252600  0.491300  1.0  0.6438
  C  C623  1  0.762350  0.237100  0.620200  1.0  0.6595
  C  C624  1  0.657630  0.212300  0.509300  1.0  0.158
  C  C625  1  0.636610  0.515000  0.366600  1.0  0.0247
  C  C626  1  0.637200  0.603000  0.601400  1.0  0.2574
  C  C627  1  0.550940  0.224500  0.171300  1.0  0.1806
  C  C628  1  0.669900  0.683500  0.539500  1.0  -0.0495
  C  C629  1  0.660750  0.780900  0.213200  1.0  -0.3063
  C  C630  1  0.653600  0.586900  0.558000  1.0  -0.1627
  C  C631  1  0.566460  0.434100  0.509600  1.0  -0.0244
  C  C632  1  0.575810  0.741400  0.426200  1.0  0.2365
  C  C633  1  0.936030  0.531300  0.722100  1.0  -0.059
  C  C634  1  0.893120  0.387900  0.665500  1.0  -0.2432
  C  C635  1  0.920030  0.393900  0.647300  1.0  -0.0395
  C  C636  1  0.669900  0.799400  0.566700  1.0  -0.0882
  C  C637  1  0.575220  0.256900  0.568600  1.0  -0.0531
  C  C638  1  0.559010  0.313200  0.523900  1.0  -0.101
  C  C639  1  0.695400  0.645900  0.152000  1.0  0.1787
  C  C640  1  0.625590  0.654300  0.287800  1.0  0.0768
  C  C641  1  0.694020  0.333700  0.482200  1.0  0.152
  C  C642  1  0.887880  0.452100  0.714800  1.0  0.2476
  C  C643  1  0.586800  0.610200  0.351100  1.0  0.0118
  C  C644  1  0.549000  0.472000  0.164300  1.0  -0.2458
  C  C645  1  0.636400  0.715400  0.627700  1.0  -0.2163
  C  C646  1  0.547030  0.708100  0.418300  1.0  -0.3244
  C  C647  1  0.680400  0.586200  0.191200  1.0  -0.2319
  C  C648  1  0.788900  0.292400  0.650900  1.0  -0.1172
  C  C649  1  0.652690  0.812200  0.610700  1.0  -0.0345
  C  C650  1  0.662060  0.654400  0.221500  1.0  0.3106
  C  C651  1  0.803640  0.228600  0.695300  1.0  -0.0363
  C  C652  1  0.689100  0.901500  0.549000  1.0  0.6948
  C  C653  1  0.529500  0.744400  0.458100  1.0  0.1655
  C  C654  1  0.533600  0.395700  0.126000  1.0  0.1827
  C  C655  1  0.661820  0.893200  0.792500  1.0  0.2589
  C  C656  1  0.862330  0.767200  0.029300  1.0  -0.2081
  C  C657  1  0.824970  0.895900  0.056800  1.0  -0.2398
  C  C658  1  0.911910  0.998000  0.959300  1.0  -0.1987
  C  C659  1  0.676100  0.956300  0.836200  1.0  -0.1596
  C  C660  1  0.887430  0.057500  0.176300  1.0  -0.0465
  C  C661  1  0.528550  0.967800  0.847300  1.0  0.6173
  C  C662  1  0.897520  0.941000  0.913300  1.0  0.2986
  C  C663  1  0.672100  0.778300  0.776900  1.0  -0.1536
  C  C664  1  0.903510  0.820600  0.899100  1.0  -0.2254
  C  C665  1  0.914900  0.317200  0.027300  1.0  -0.2201
  C  C666  1  0.823500  0.332200  0.326300  1.0  0.1612
  C  C667  1  0.899410  0.947600  0.212700  1.0  0.0558
  C  C668  1  0.853380  0.864100  0.063300  1.0  0.3004
  C  C669  1  0.933610  0.920100  0.293100  1.0  0.3304
  C  C670  1  0.700900  0.905100  0.865200  1.0  -0.0342
  C  C671  1  0.558430  0.964600  0.825700  1.0  -0.1379
  C  C672  1  0.935200  0.346200  0.989800  1.0  0.1739
  C  C673  1  0.591000  0.023000  0.757700  1.0  -0.1349
  C  C674  1  0.932590  0.792600  0.288300  1.0  -0.2865
  C  C675  1  0.965480  0.752600  0.008700  1.0  0.6464
  C  C676  1  0.737650  0.737100  0.879800  1.0  0.6602
  C  C677  1  0.842370  0.712300  0.990700  1.0  0.1587
  C  C678  1  0.863390  0.015000  0.133400  1.0  0.025
  C  C679  1  0.862800  0.103000  0.898600  1.0  0.2577
  C  C680  1  0.949060  0.724500  0.328700  1.0  0.1806
  C  C681  1  0.830100  0.183500  0.960500  1.0  -0.0486
  C  C682  1  0.839250  0.280900  0.286800  1.0  -0.3063
  C  C683  1  0.846400  0.086900  0.942000  1.0  -0.162
  C  C684  1  0.933540  0.934100  0.990400  1.0  -0.0249
  C  C685  1  0.924190  0.241400  0.073800  1.0  0.2351
  C  C686  1  0.563970  0.031300  0.777900  1.0  -0.0579
  C  C687  1  0.606880  0.887900  0.834500  1.0  -0.2433
  C  C688  1  0.579970  0.893900  0.852700  1.0  -0.0393
  C  C689  1  0.830100  0.299400  0.933300  1.0  -0.0897
  C  C690  1  0.924780  0.756900  0.931400  1.0  -0.053
  C  C691  1  0.940990  0.813200  0.976100  1.0  -0.0995
  C  C692  1  0.804600  0.145900  0.348000  1.0  0.1781
  C  C693  1  0.874410  0.154300  0.212200  1.0  0.0769
  C  C694  1  0.805980  0.833700  0.017800  1.0  0.1528
  C  C695  1  0.612120  0.952100  0.785200  1.0  0.2478
  C  C696  1  0.913200  0.110200  0.148900  1.0  0.0102
  C  C697  1  0.951000  0.972000  0.335700  1.0  -0.2465
  C  C698  1  0.863600  0.215400  0.872300  1.0  -0.2156
  C  C699  1  0.952970  0.208100  0.081700  1.0  -0.3242
  C  C700  1  0.819600  0.086200  0.308800  1.0  -0.2323
  C  C701  1  0.711100  0.792400  0.849100  1.0  -0.1189
  C  C702  1  0.847310  0.312200  0.889300  1.0  -0.0339
  C  C703  1  0.837940  0.154400  0.278500  1.0  0.3098
  C  C704  1  0.696360  0.728600  0.804700  1.0  -0.0372
  C  C705  1  0.810900  0.401500  0.951000  1.0  0.6954
  C  C706  1  0.970500  0.244400  0.041900  1.0  0.1672
  C  C707  1  0.966400  0.895700  0.374000  1.0  0.1819
  C  C708  1  0.161820  0.393200  0.792500  1.0  0.2589
  C  C709  1  0.362330  0.267200  0.029300  1.0  -0.2081
  C  C710  1  0.324970  0.395900  0.056800  1.0  -0.2398
  C  C711  1  0.411910  0.498000  0.959300  1.0  -0.1987
  C  C712  1  0.176100  0.456300  0.836200  1.0  -0.1596
  C  C713  1  0.387430  0.557500  0.176300  1.0  -0.0465
  C  C714  1  0.028550  0.467800  0.847300  1.0  0.6173
  C  C715  1  0.397520  0.441000  0.913300  1.0  0.2986
  C  C716  1  0.172100  0.278300  0.776900  1.0  -0.1536
  C  C717  1  0.403510  0.320600  0.899100  1.0  -0.2254
  C  C718  1  0.414900  0.817200  0.027300  1.0  -0.2201
  C  C719  1  0.323500  0.832200  0.326300  1.0  0.1612
  C  C720  1  0.399410  0.447600  0.212700  1.0  0.0558
  C  C721  1  0.353380  0.364100  0.063300  1.0  0.3004
  C  C722  1  0.433610  0.420100  0.293100  1.0  0.3304
  C  C723  1  0.200900  0.405100  0.865200  1.0  -0.0342
  C  C724  1  0.058430  0.464600  0.825700  1.0  -0.1379
  C  C725  1  0.435200  0.846200  0.989800  1.0  0.1739
  C  C726  1  0.091000  0.523000  0.757700  1.0  -0.1349
  C  C727  1  0.432590  0.292600  0.288300  1.0  -0.2865
  C  C728  1  0.465480  0.252600  0.008700  1.0  0.6464
  C  C729  1  0.237650  0.237100  0.879800  1.0  0.6602
  C  C730  1  0.342370  0.212300  0.990700  1.0  0.1587
  C  C731  1  0.363390  0.515000  0.133400  1.0  0.025
  C  C732  1  0.362800  0.603000  0.898600  1.0  0.2577
  C  C733  1  0.449060  0.224500  0.328700  1.0  0.1806
  C  C734  1  0.330100  0.683500  0.960500  1.0  -0.0486
  C  C735  1  0.339250  0.780900  0.286800  1.0  -0.3063
  C  C736  1  0.346400  0.586900  0.942000  1.0  -0.162
  C  C737  1  0.433540  0.434100  0.990400  1.0  -0.0249
  C  C738  1  0.424190  0.741400  0.073800  1.0  0.2351
  C  C739  1  0.063970  0.531300  0.777900  1.0  -0.0579
  C  C740  1  0.106880  0.387900  0.834500  1.0  -0.2433
  C  C741  1  0.079970  0.393900  0.852700  1.0  -0.0393
  C  C742  1  0.330100  0.799400  0.933300  1.0  -0.0897
  C  C743  1  0.424780  0.256900  0.931400  1.0  -0.053
  C  C744  1  0.440990  0.313200  0.976100  1.0  -0.0995
  C  C745  1  0.304600  0.645900  0.348000  1.0  0.1781
  C  C746  1  0.374410  0.654300  0.212200  1.0  0.0769
  C  C747  1  0.305980  0.333700  0.017800  1.0  0.1528
  C  C748  1  0.112120  0.452100  0.785200  1.0  0.2478
  C  C749  1  0.413200  0.610200  0.148900  1.0  0.0102
  C  C750  1  0.451000  0.472000  0.335700  1.0  -0.2465
  C  C751  1  0.363600  0.715400  0.872300  1.0  -0.2156
  C  C752  1  0.452970  0.708100  0.081700  1.0  -0.3242
  C  C753  1  0.319600  0.586200  0.308800  1.0  -0.2323
  C  C754  1  0.211100  0.292400  0.849100  1.0  -0.1189
  C  C755  1  0.347310  0.812200  0.889300  1.0  -0.0339
  C  C756  1  0.337940  0.654400  0.278500  1.0  0.3098
  C  C757  1  0.196360  0.228600  0.804700  1.0  -0.0372
  C  C758  1  0.310900  0.901500  0.951000  1.0  0.6954
  C  C759  1  0.470500  0.744400  0.041900  1.0  0.1672
  C  C760  1  0.466400  0.395700  0.374000  1.0  0.1819
  N  N761  1  0.806060  0.733100  0.858300  1.0  -0.3265
  N  N762  1  0.962590  0.688900  0.495100  1.0  -0.3492
  N  N763  1  0.965970  0.228500  0.871100  1.0  -0.3269
  N  N764  1  0.814580  0.258400  0.484300  1.0  -0.3584
  N  N765  1  0.306060  0.233100  0.858300  1.0  -0.3265
  N  N766  1  0.462590  0.188900  0.495100  1.0  -0.3492
  N  N767  1  0.465970  0.728500  0.871100  1.0  -0.3269
  N  N768  1  0.314580  0.758400  0.484300  1.0  -0.3584
  N  N769  1  0.193940  0.733100  0.641700  1.0  -0.3253
  N  N770  1  0.037410  0.688900  0.004900  1.0  -0.3479
  N  N771  1  0.034030  0.228500  0.628900  1.0  -0.328
  N  N772  1  0.185420  0.258400  0.015700  1.0  -0.3591
  N  N773  1  0.693940  0.233100  0.641700  1.0  -0.3253
  N  N774  1  0.537410  0.188900  0.004900  1.0  -0.3479
  N  N775  1  0.534030  0.728500  0.628900  1.0  -0.328
  N  N776  1  0.685420  0.758400  0.015700  1.0  -0.3591
  N  N777  1  0.193940  0.266900  0.141700  1.0  -0.3258
  N  N778  1  0.037410  0.311100  0.504900  1.0  -0.3479
  N  N779  1  0.034030  0.771500  0.128900  1.0  -0.3303
  N  N780  1  0.185420  0.741600  0.515700  1.0  -0.3584
  N  N781  1  0.693940  0.766900  0.141700  1.0  -0.3258
  N  N782  1  0.537410  0.811100  0.504900  1.0  -0.3479
  N  N783  1  0.534030  0.271500  0.128900  1.0  -0.3303
  N  N784  1  0.685420  0.241600  0.515700  1.0  -0.3584
  N  N785  1  0.806060  0.266900  0.358300  1.0  -0.3256
  N  N786  1  0.962590  0.311100  0.995100  1.0  -0.3471
  N  N787  1  0.965970  0.771500  0.371100  1.0  -0.3278
  N  N788  1  0.814580  0.741600  0.984300  1.0  -0.3597
  N  N789  1  0.306060  0.766900  0.358300  1.0  -0.3256
  N  N790  1  0.462590  0.811100  0.995100  1.0  -0.3471
  N  N791  1  0.465970  0.271500  0.371100  1.0  -0.3278
  N  N792  1  0.314580  0.241600  0.984300  1.0  -0.3597
  O  O793  1  0.751900  0.202100  0.418900  1.0  -0.5742
  O  O794  1  0.981840  0.184900  0.543100  1.0  -0.5951
  O  O795  1  0.522620  0.127400  0.376900  1.0  -0.6462
  O  O796  1  0.918700  0.000400  0.757200  1.0  -0.2771
  O  O797  1  0.512110  0.943900  0.336000  1.0  -0.5246
  O  O798  1  0.903610  0.794500  0.608100  1.0  -0.295
  O  O799  1  0.877410  0.997200  0.377300  1.0  -0.2595
  O  O800  1  0.746680  0.366400  0.364500  1.0  -0.5515
  O  O801  1  0.853240  0.909400  0.742400  1.0  -0.2664
  O  O802  1  0.873790  0.085600  0.599800  1.0  -0.282
  O  O803  1  0.808340  0.505800  0.418200  1.0  -0.6025
  O  O804  1  0.638260  0.056900  0.260600  1.0  -0.2723
  O  O805  1  0.971470  0.360100  0.500200  1.0  -0.5885
  O  O806  1  0.799400  0.609600  0.496200  1.0  -0.5466
  O  O807  1  0.251900  0.702100  0.418900  1.0  -0.5742
  O  O808  1  0.481840  0.684900  0.543100  1.0  -0.5951
  O  O809  1  0.022620  0.627400  0.376900  1.0  -0.6462
  O  O810  1  0.418700  0.500400  0.757200  1.0  -0.2771
  O  O811  1  0.012110  0.443900  0.336000  1.0  -0.5246
  O  O812  1  0.403610  0.294500  0.608100  1.0  -0.295
  O  O813  1  0.377410  0.497200  0.377300  1.0  -0.2595
  O  O814  1  0.246680  0.866400  0.364500  1.0  -0.5515
  O  O815  1  0.353240  0.409400  0.742400  1.0  -0.2664
  O  O816  1  0.373790  0.585600  0.599800  1.0  -0.282
  O  O817  1  0.308340  0.005800  0.418200  1.0  -0.6025
  O  O818  1  0.138260  0.556900  0.260600  1.0  -0.2723
  O  O819  1  0.471470  0.860100  0.500200  1.0  -0.5885
  O  O820  1  0.299400  0.109600  0.496200  1.0  -0.5466
  O  O821  1  0.248100  0.202100  0.081100  1.0  -0.5746
  O  O822  1  0.018160  0.184900  0.956900  1.0  -0.5959
  O  O823  1  0.477380  0.127400  0.123100  1.0  -0.646
  O  O824  1  0.081300  0.000400  0.742800  1.0  -0.2766
  O  O825  1  0.487890  0.943900  0.164000  1.0  -0.5253
  O  O826  1  0.096390  0.794500  0.891900  1.0  -0.2935
  O  O827  1  0.122590  0.997200  0.122700  1.0  -0.2584
  O  O828  1  0.253320  0.366400  0.135500  1.0  -0.5509
  O  O829  1  0.146760  0.909400  0.757600  1.0  -0.2661
  O  O830  1  0.126210  0.085600  0.900200  1.0  -0.2847
  O  O831  1  0.191660  0.505800  0.081800  1.0  -0.6021
  O  O832  1  0.361740  0.056900  0.239400  1.0  -0.2731
  O  O833  1  0.028530  0.360100  0.999800  1.0  -0.5889
  O  O834  1  0.200600  0.609600  0.003800  1.0  -0.5429
  O  O835  1  0.748100  0.702100  0.081100  1.0  -0.5746
  O  O836  1  0.518160  0.684900  0.956900  1.0  -0.5959
  O  O837  1  0.977380  0.627400  0.123100  1.0  -0.646
  O  O838  1  0.581300  0.500400  0.742800  1.0  -0.2766
  O  O839  1  0.987890  0.443900  0.164000  1.0  -0.5253
  O  O840  1  0.596390  0.294500  0.891900  1.0  -0.2935
  O  O841  1  0.622590  0.497200  0.122700  1.0  -0.2584
  O  O842  1  0.753320  0.866400  0.135500  1.0  -0.5509
  O  O843  1  0.646760  0.409400  0.757600  1.0  -0.2661
  O  O844  1  0.626210  0.585600  0.900200  1.0  -0.2847
  O  O845  1  0.691660  0.005800  0.081800  1.0  -0.6021
  O  O846  1  0.861740  0.556900  0.239400  1.0  -0.2731
  O  O847  1  0.528530  0.860100  0.999800  1.0  -0.5889
  O  O848  1  0.700600  0.109600  0.003800  1.0  -0.5429
  O  O849  1  0.248100  0.797900  0.581100  1.0  -0.5734
  O  O850  1  0.018160  0.815100  0.456900  1.0  -0.5959
  O  O851  1  0.477380  0.872600  0.623100  1.0  -0.6444
  O  O852  1  0.081300  0.999600  0.242800  1.0  -0.2765
  O  O853  1  0.487890  0.056100  0.664000  1.0  -0.5258
  O  O854  1  0.096390  0.205500  0.391900  1.0  -0.295
  O  O855  1  0.122590  0.002800  0.622700  1.0  -0.2586
  O  O856  1  0.253320  0.633600  0.635500  1.0  -0.5495
  O  O857  1  0.146760  0.090600  0.257600  1.0  -0.2676
  O  O858  1  0.126210  0.914400  0.400200  1.0  -0.2841
  O  O859  1  0.191660  0.494200  0.581800  1.0  -0.6016
  O  O860  1  0.361740  0.943100  0.739400  1.0  -0.2736
  O  O861  1  0.028530  0.639900  0.499800  1.0  -0.5914
  O  O862  1  0.200600  0.390400  0.503800  1.0  -0.5431
  O  O863  1  0.748100  0.297900  0.581100  1.0  -0.5734
  O  O864  1  0.518160  0.315100  0.456900  1.0  -0.5959
  O  O865  1  0.977380  0.372600  0.623100  1.0  -0.6444
  O  O866  1  0.581300  0.499600  0.242800  1.0  -0.2765
  O  O867  1  0.987890  0.556100  0.664000  1.0  -0.5258
  O  O868  1  0.596390  0.705500  0.391900  1.0  -0.295
  O  O869  1  0.622590  0.502800  0.622700  1.0  -0.2586
  O  O870  1  0.753320  0.133600  0.635500  1.0  -0.5495
  O  O871  1  0.646760  0.590600  0.257600  1.0  -0.2676
  O  O872  1  0.626210  0.414400  0.400200  1.0  -0.2841
  O  O873  1  0.691660  0.994200  0.581800  1.0  -0.6016
  O  O874  1  0.861740  0.443100  0.739400  1.0  -0.2736
  O  O875  1  0.528530  0.139900  0.499800  1.0  -0.5914
  O  O876  1  0.700600  0.890400  0.503800  1.0  -0.5431
  O  O877  1  0.751900  0.797900  0.918900  1.0  -0.5735
  O  O878  1  0.981840  0.815100  0.043100  1.0  -0.5952
  O  O879  1  0.522620  0.872600  0.876900  1.0  -0.6453
  O  O880  1  0.918700  0.999600  0.257200  1.0  -0.2766
  O  O881  1  0.512110  0.056100  0.836000  1.0  -0.5242
  O  O882  1  0.903610  0.205500  0.108100  1.0  -0.2941
  O  O883  1  0.877410  0.002800  0.877300  1.0  -0.2598
  O  O884  1  0.746680  0.633600  0.864500  1.0  -0.5502
  O  O885  1  0.853240  0.090600  0.242400  1.0  -0.2667
  O  O886  1  0.873790  0.914400  0.099800  1.0  -0.2812
  O  O887  1  0.808340  0.494200  0.918200  1.0  -0.6024
  O  O888  1  0.638260  0.943100  0.760600  1.0  -0.2715
  O  O889  1  0.971470  0.639900  0.000200  1.0  -0.5921
  O  O890  1  0.799400  0.390400  0.996200  1.0  -0.5454
  O  O891  1  0.251900  0.297900  0.918900  1.0  -0.5735
  O  O892  1  0.481840  0.315100  0.043100  1.0  -0.5952
  O  O893  1  0.022620  0.372600  0.876900  1.0  -0.6453
  O  O894  1  0.418700  0.499600  0.257200  1.0  -0.2766
  O  O895  1  0.012110  0.556100  0.836000  1.0  -0.5242
  O  O896  1  0.403610  0.705500  0.108100  1.0  -0.2941
  O  O897  1  0.377410  0.502800  0.877300  1.0  -0.2598
  O  O898  1  0.246680  0.133600  0.864500  1.0  -0.5502
  O  O899  1  0.353240  0.590600  0.242400  1.0  -0.2667
  O  O900  1  0.373790  0.414400  0.099800  1.0  -0.2812
  O  O901  1  0.308340  0.994200  0.918200  1.0  -0.6024
  O  O902  1  0.138260  0.443100  0.760600  1.0  -0.2715
  O  O903  1  0.471470  0.139900  0.000200  1.0  -0.5921
  O  O904  1  0.299400  0.890400  0.996200  1.0  -0.5454
