# generated using pymatgen
data_Ce3C10(NO3)4
_symmetry_space_group_name_H-M   'P 1'
_cell_length_a   39.91940000
_cell_length_b   39.91940000
_cell_length_c   39.91940000
_cell_angle_alpha   90.00000000
_cell_angle_beta   90.00000000
_cell_angle_gamma   90.00000000
_symmetry_Int_Tables_number   1
_chemical_formula_structural   Ce3C10(NO3)4
_chemical_formula_sum   'Ce144 C480 N192 O576'
_cell_volume   63613.89903959
_cell_formula_units_Z   48
loop_
 _symmetry_equiv_pos_site_id
 _symmetry_equiv_pos_as_xyz
  1  'x, y, z'
loop_
 _atom_site_type_symbol
 _atom_site_label
 _atom_site_symmetry_multiplicity
 _atom_site_fract_x
 _atom_site_fract_y
 _atom_site_fract_z
 _atom_site_occupancy
 _atom_site_charge
  Ce  Ce1  1  0.216480  0.283520  0.047830  1.0  2.2957
  Ce  Ce2  1  0.216480  0.783520  0.547830  1.0  2.2957
  Ce  Ce3  1  0.783520  0.716480  0.047830  1.0  2.2924
  Ce  Ce4  1  0.783520  0.216480  0.547830  1.0  2.2924
  Ce  Ce5  1  0.283520  0.216480  0.047830  1.0  2.2924
  Ce  Ce6  1  0.783520  0.283520  0.952170  1.0  2.2904
  Ce  Ce7  1  0.783520  0.783520  0.452170  1.0  2.2904
  Ce  Ce8  1  0.283520  0.283520  0.452170  1.0  2.2904
  Ce  Ce9  1  0.216480  0.716480  0.952170  1.0  2.2974
  Ce  Ce10  1  0.216480  0.216480  0.452170  1.0  2.2974
  Ce  Ce11  1  0.047830  0.216480  0.283520  1.0  2.2944
  Ce  Ce12  1  0.547830  0.216480  0.783520  1.0  2.2944
  Ce  Ce13  1  0.047830  0.783520  0.716480  1.0  2.2903
  Ce  Ce14  1  0.047830  0.283520  0.216480  1.0  2.2903
  Ce  Ce15  1  0.547830  0.783520  0.216480  1.0  2.2903
  Ce  Ce16  1  0.952170  0.783520  0.283520  1.0  2.2967
  Ce  Ce17  1  0.452170  0.783520  0.783520  1.0  2.2967
  Ce  Ce18  1  0.452170  0.283520  0.283520  1.0  2.2967
  Ce  Ce19  1  0.952170  0.216480  0.716480  1.0  2.2976
  Ce  Ce20  1  0.452170  0.216480  0.216480  1.0  2.2976
  Ce  Ce21  1  0.283520  0.047830  0.216480  1.0  2.2903
  Ce  Ce22  1  0.283520  0.547830  0.716480  1.0  2.2903
  Ce  Ce23  1  0.716480  0.047830  0.783520  1.0  2.2966
  Ce  Ce24  1  0.716480  0.547830  0.283520  1.0  2.2966
  Ce  Ce25  1  0.216480  0.047830  0.283520  1.0  2.2966
  Ce  Ce26  1  0.283520  0.952170  0.783520  1.0  2.2948
  Ce  Ce27  1  0.283520  0.452170  0.283520  1.0  2.2948
  Ce  Ce28  1  0.716480  0.952170  0.216480  1.0  2.298
  Ce  Ce29  1  0.716480  0.452170  0.716480  1.0  2.298
  Ce  Ce30  1  0.216480  0.452170  0.216480  1.0  2.298
  Ce  Ce31  1  0.283520  0.216480  0.952170  1.0  2.2922
  Ce  Ce32  1  0.283520  0.716480  0.452170  1.0  2.2922
  Ce  Ce33  1  0.716480  0.783520  0.952170  1.0  2.2958
  Ce  Ce34  1  0.716480  0.283520  0.452170  1.0  2.2958
  Ce  Ce35  1  0.216480  0.283520  0.952170  1.0  2.2958
  Ce  Ce36  1  0.283520  0.783520  0.047830  1.0  2.2897
  Ce  Ce37  1  0.283520  0.283520  0.547830  1.0  2.2897
  Ce  Ce38  1  0.716480  0.216480  0.047830  1.0  2.2984
  Ce  Ce39  1  0.716480  0.716480  0.547830  1.0  2.2984
  Ce  Ce40  1  0.216480  0.216480  0.547830  1.0  2.2984
  Ce  Ce41  1  0.216480  0.047830  0.716480  1.0  2.296
  Ce  Ce42  1  0.216480  0.547830  0.216480  1.0  2.296
  Ce  Ce43  1  0.783520  0.047830  0.283520  1.0  2.291
  Ce  Ce44  1  0.783520  0.547830  0.783520  1.0  2.291
  Ce  Ce45  1  0.283520  0.547830  0.283520  1.0  2.291
  Ce  Ce46  1  0.783520  0.952170  0.716480  1.0  2.2927
  Ce  Ce47  1  0.783520  0.452170  0.216480  1.0  2.2927
  Ce  Ce48  1  0.283520  0.952170  0.216480  1.0  2.2927
  Ce  Ce49  1  0.216480  0.952170  0.283520  1.0  2.3002
  Ce  Ce50  1  0.216480  0.452170  0.783520  1.0  2.3002
  Ce  Ce51  1  0.047830  0.283520  0.783520  1.0  2.2912
  Ce  Ce52  1  0.547830  0.283520  0.283520  1.0  2.2912
  Ce  Ce53  1  0.047830  0.716480  0.216480  1.0  2.2921
  Ce  Ce54  1  0.547830  0.716480  0.716480  1.0  2.2921
  Ce  Ce55  1  0.547830  0.216480  0.216480  1.0  2.2921
  Ce  Ce56  1  0.952170  0.283520  0.216480  1.0  2.2962
  Ce  Ce57  1  0.452170  0.283520  0.716480  1.0  2.2962
  Ce  Ce58  1  0.952170  0.716480  0.783520  1.0  2.2997
  Ce  Ce59  1  0.952170  0.216480  0.283520  1.0  2.2997
  Ce  Ce60  1  0.452170  0.716480  0.283520  1.0  2.2997
  Ce  Ce61  1  0.783520  0.716480  0.952170  1.0  2.2922
  Ce  Ce62  1  0.783520  0.216480  0.452170  1.0  2.2922
  Ce  Ce63  1  0.216480  0.783520  0.452170  1.0  2.2958
  Ce  Ce64  1  0.216480  0.716480  0.047830  1.0  2.2984
  Ce  Ce65  1  0.783520  0.283520  0.047830  1.0  2.2897
  Ce  Ce66  1  0.783520  0.783520  0.547830  1.0  2.2897
  Ce  Ce67  1  0.952170  0.783520  0.716480  1.0  2.2962
  Ce  Ce68  1  0.452170  0.783520  0.216480  1.0  2.2962
  Ce  Ce69  1  0.452170  0.216480  0.783520  1.0  2.2997
  Ce  Ce70  1  0.047830  0.216480  0.716480  1.0  2.2921
  Ce  Ce71  1  0.047830  0.783520  0.283520  1.0  2.2912
  Ce  Ce72  1  0.547830  0.783520  0.783520  1.0  2.2912
  Ce  Ce73  1  0.716480  0.952170  0.783520  1.0  2.3002
  Ce  Ce74  1  0.716480  0.452170  0.283520  1.0  2.3002
  Ce  Ce75  1  0.283520  0.452170  0.716480  1.0  2.2927
  Ce  Ce76  1  0.716480  0.047830  0.216480  1.0  2.296
  Ce  Ce77  1  0.716480  0.547830  0.716480  1.0  2.296
  Ce  Ce78  1  0.283520  0.047830  0.783520  1.0  2.291
  Ce  Ce79  1  0.716480  0.783520  0.047830  1.0  2.2957
  Ce  Ce80  1  0.716480  0.283520  0.547830  1.0  2.2957
  Ce  Ce81  1  0.283520  0.716480  0.547830  1.0  2.2924
  Ce  Ce82  1  0.716480  0.216480  0.952170  1.0  2.2974
  Ce  Ce83  1  0.716480  0.716480  0.452170  1.0  2.2974
  Ce  Ce84  1  0.283520  0.783520  0.952170  1.0  2.2904
  Ce  Ce85  1  0.783520  0.952170  0.283520  1.0  2.2948
  Ce  Ce86  1  0.783520  0.452170  0.783520  1.0  2.2948
  Ce  Ce87  1  0.216480  0.952170  0.716480  1.0  2.298
  Ce  Ce88  1  0.216480  0.547830  0.783520  1.0  2.2966
  Ce  Ce89  1  0.783520  0.047830  0.716480  1.0  2.2903
  Ce  Ce90  1  0.783520  0.547830  0.216480  1.0  2.2903
  Ce  Ce91  1  0.952170  0.716480  0.216480  1.0  2.2976
  Ce  Ce92  1  0.452170  0.716480  0.716480  1.0  2.2976
  Ce  Ce93  1  0.952170  0.283520  0.783520  1.0  2.2967
  Ce  Ce94  1  0.047830  0.716480  0.783520  1.0  2.2944
  Ce  Ce95  1  0.547830  0.716480  0.283520  1.0  2.2944
  Ce  Ce96  1  0.547830  0.283520  0.716480  1.0  2.2903
  Ce  Ce97  1  0.201510  0.201510  0.000000  1.0  2.4826
  Ce  Ce98  1  0.201510  0.701510  0.500000  1.0  2.4826
  Ce  Ce99  1  0.701510  0.201510  0.500000  1.0  2.4826
  Ce  Ce100  1  0.701510  0.701510  0.000000  1.0  2.4826
  Ce  Ce101  1  0.798490  0.798490  0.000000  1.0  2.5063
  Ce  Ce102  1  0.798490  0.298490  0.500000  1.0  2.5063
  Ce  Ce103  1  0.298490  0.798490  0.500000  1.0  2.5063
  Ce  Ce104  1  0.298490  0.298490  0.000000  1.0  2.5063
  Ce  Ce105  1  0.798490  0.201510  0.000000  1.0  2.495
  Ce  Ce106  1  0.798490  0.701510  0.500000  1.0  2.495
  Ce  Ce107  1  0.298490  0.201510  0.500000  1.0  2.495
  Ce  Ce108  1  0.298490  0.701510  0.000000  1.0  2.495
  Ce  Ce109  1  0.201510  0.798490  0.000000  1.0  2.4944
  Ce  Ce110  1  0.201510  0.298490  0.500000  1.0  2.4944
  Ce  Ce111  1  0.701510  0.798490  0.500000  1.0  2.4944
  Ce  Ce112  1  0.701510  0.298490  0.000000  1.0  2.4944
  Ce  Ce113  1  0.000000  0.201510  0.201510  1.0  2.4908
  Ce  Ce114  1  0.000000  0.701510  0.701510  1.0  2.4908
  Ce  Ce115  1  0.500000  0.201510  0.701510  1.0  2.4908
  Ce  Ce116  1  0.500000  0.701510  0.201510  1.0  2.4908
  Ce  Ce117  1  0.000000  0.798490  0.798490  1.0  2.4948
  Ce  Ce118  1  0.000000  0.298490  0.298490  1.0  2.4948
  Ce  Ce119  1  0.500000  0.798490  0.298490  1.0  2.4948
  Ce  Ce120  1  0.500000  0.298490  0.798490  1.0  2.4948
  Ce  Ce121  1  0.000000  0.798490  0.201510  1.0  2.4887
  Ce  Ce122  1  0.000000  0.298490  0.701510  1.0  2.4887
  Ce  Ce123  1  0.500000  0.798490  0.701510  1.0  2.4887
  Ce  Ce124  1  0.500000  0.298490  0.201510  1.0  2.4887
  Ce  Ce125  1  0.000000  0.201510  0.798490  1.0  2.4901
  Ce  Ce126  1  0.000000  0.701510  0.298490  1.0  2.4901
  Ce  Ce127  1  0.500000  0.201510  0.298490  1.0  2.4901
  Ce  Ce128  1  0.500000  0.701510  0.798490  1.0  2.4901
  Ce  Ce129  1  0.201510  0.000000  0.201510  1.0  2.4923
  Ce  Ce130  1  0.201510  0.500000  0.701510  1.0  2.4923
  Ce  Ce131  1  0.701510  0.000000  0.701510  1.0  2.4923
  Ce  Ce132  1  0.701510  0.500000  0.201510  1.0  2.4923
  Ce  Ce133  1  0.798490  0.000000  0.798490  1.0  2.5079
  Ce  Ce134  1  0.798490  0.500000  0.298490  1.0  2.5079
  Ce  Ce135  1  0.298490  0.000000  0.298490  1.0  2.5079
  Ce  Ce136  1  0.298490  0.500000  0.798490  1.0  2.5079
  Ce  Ce137  1  0.201510  0.000000  0.798490  1.0  2.4979
  Ce  Ce138  1  0.201510  0.500000  0.298490  1.0  2.4979
  Ce  Ce139  1  0.701510  0.000000  0.298490  1.0  2.4979
  Ce  Ce140  1  0.701510  0.500000  0.798490  1.0  2.4979
  Ce  Ce141  1  0.798490  0.000000  0.201510  1.0  2.5085
  Ce  Ce142  1  0.798490  0.500000  0.701510  1.0  2.5085
  Ce  Ce143  1  0.298490  0.000000  0.701510  1.0  2.5085
  Ce  Ce144  1  0.298490  0.500000  0.201510  1.0  2.5085
  C  C145  1  0.229800  0.154530  0.060100  1.0  0.6094
  C  C146  1  0.219400  0.125900  0.084140  1.0  0.0318
  C  C147  1  0.229800  0.654530  0.560100  1.0  0.6094
  C  C148  1  0.219400  0.625900  0.584140  1.0  0.0318
  C  C149  1  0.729800  0.154530  0.560100  1.0  0.6094
  C  C150  1  0.719400  0.125900  0.584140  1.0  0.0318
  C  C151  1  0.729800  0.654530  0.060100  1.0  0.6094
  C  C152  1  0.719400  0.625900  0.084140  1.0  0.0318
  C  C153  1  0.770200  0.845470  0.060100  1.0  0.609
  C  C154  1  0.780600  0.874100  0.084140  1.0  0.0319
  C  C155  1  0.770200  0.345470  0.560100  1.0  0.609
  C  C156  1  0.780600  0.374100  0.584140  1.0  0.0319
  C  C157  1  0.270200  0.845470  0.560100  1.0  0.609
  C  C158  1  0.280600  0.874100  0.584140  1.0  0.0319
  C  C159  1  0.270200  0.345470  0.060100  1.0  0.609
  C  C160  1  0.280600  0.374100  0.084140  1.0  0.0319
  C  C161  1  0.770200  0.154530  0.939900  1.0  0.6092
  C  C162  1  0.780600  0.125900  0.915860  1.0  0.0319
  C  C163  1  0.770200  0.654530  0.439900  1.0  0.6092
  C  C164  1  0.780600  0.625900  0.415860  1.0  0.0319
  C  C165  1  0.270200  0.154530  0.439900  1.0  0.6092
  C  C166  1  0.280600  0.125900  0.415860  1.0  0.0319
  C  C167  1  0.270200  0.654530  0.939900  1.0  0.6092
  C  C168  1  0.280600  0.625900  0.915860  1.0  0.0319
  C  C169  1  0.229800  0.845470  0.939900  1.0  0.6084
  C  C170  1  0.219400  0.874100  0.915860  1.0  0.0317
  C  C171  1  0.229800  0.345470  0.439900  1.0  0.6084
  C  C172  1  0.219400  0.374100  0.415860  1.0  0.0317
  C  C173  1  0.729800  0.845470  0.439900  1.0  0.6084
  C  C174  1  0.719400  0.874100  0.415860  1.0  0.0317
  C  C175  1  0.729800  0.345470  0.939900  1.0  0.6084
  C  C176  1  0.719400  0.374100  0.915860  1.0  0.0317
  C  C177  1  0.060100  0.229800  0.154530  1.0  0.6088
  C  C178  1  0.084140  0.219400  0.125900  1.0  0.0309
  C  C179  1  0.060100  0.729800  0.654530  1.0  0.6088
  C  C180  1  0.084140  0.719400  0.625900  1.0  0.0309
  C  C181  1  0.560100  0.229800  0.654530  1.0  0.6088
  C  C182  1  0.584140  0.219400  0.625900  1.0  0.0309
  C  C183  1  0.560100  0.729800  0.154530  1.0  0.6088
  C  C184  1  0.584140  0.719400  0.125900  1.0  0.0309
  C  C185  1  0.060100  0.770200  0.845470  1.0  0.6096
  C  C186  1  0.084140  0.780600  0.874100  1.0  0.0305
  C  C187  1  0.060100  0.270200  0.345470  1.0  0.6096
  C  C188  1  0.084140  0.280600  0.374100  1.0  0.0305
  C  C189  1  0.560100  0.770200  0.345470  1.0  0.6096
  C  C190  1  0.584140  0.780600  0.374100  1.0  0.0305
  C  C191  1  0.560100  0.270200  0.845470  1.0  0.6096
  C  C192  1  0.584140  0.280600  0.874100  1.0  0.0305
  C  C193  1  0.939900  0.770200  0.154530  1.0  0.6089
  C  C194  1  0.915860  0.780600  0.125900  1.0  0.0303
  C  C195  1  0.939900  0.270200  0.654530  1.0  0.6089
  C  C196  1  0.915860  0.280600  0.625900  1.0  0.0303
  C  C197  1  0.439900  0.770200  0.654530  1.0  0.6089
  C  C198  1  0.415860  0.780600  0.625900  1.0  0.0303
  C  C199  1  0.439900  0.270200  0.154530  1.0  0.6089
  C  C200  1  0.415860  0.280600  0.125900  1.0  0.0303
  C  C201  1  0.939900  0.229800  0.845470  1.0  0.6082
  C  C202  1  0.915860  0.219400  0.874100  1.0  0.0309
  C  C203  1  0.939900  0.729800  0.345470  1.0  0.6082
  C  C204  1  0.915860  0.719400  0.374100  1.0  0.0309
  C  C205  1  0.439900  0.229800  0.345470  1.0  0.6082
  C  C206  1  0.415860  0.219400  0.374100  1.0  0.0309
  C  C207  1  0.439900  0.729800  0.845470  1.0  0.6082
  C  C208  1  0.415860  0.719400  0.874100  1.0  0.0309
  C  C209  1  0.154530  0.060100  0.229800  1.0  0.6089
  C  C210  1  0.125900  0.084140  0.219400  1.0  0.0309
  C  C211  1  0.154530  0.560100  0.729800  1.0  0.6089
  C  C212  1  0.125900  0.584140  0.719400  1.0  0.0309
  C  C213  1  0.654530  0.060100  0.729800  1.0  0.6089
  C  C214  1  0.625900  0.084140  0.719400  1.0  0.0309
  C  C215  1  0.654530  0.560100  0.229800  1.0  0.6089
  C  C216  1  0.625900  0.584140  0.219400  1.0  0.0309
  C  C217  1  0.845470  0.060100  0.770200  1.0  0.6098
  C  C218  1  0.874100  0.084140  0.780600  1.0  0.0303
  C  C219  1  0.845470  0.560100  0.270200  1.0  0.6098
  C  C220  1  0.874100  0.584140  0.280600  1.0  0.0303
  C  C221  1  0.345470  0.060100  0.270200  1.0  0.6098
  C  C222  1  0.374100  0.084140  0.280600  1.0  0.0303
  C  C223  1  0.345470  0.560100  0.770200  1.0  0.6098
  C  C224  1  0.374100  0.584140  0.780600  1.0  0.0303
  C  C225  1  0.154530  0.939900  0.770200  1.0  0.6099
  C  C226  1  0.125900  0.915860  0.780600  1.0  0.0317
  C  C227  1  0.154530  0.439900  0.270200  1.0  0.6099
  C  C228  1  0.125900  0.415860  0.280600  1.0  0.0317
  C  C229  1  0.654530  0.939900  0.270200  1.0  0.6099
  C  C230  1  0.625900  0.915860  0.280600  1.0  0.0317
  C  C231  1  0.654530  0.439900  0.770200  1.0  0.6099
  C  C232  1  0.625900  0.415860  0.780600  1.0  0.0317
  C  C233  1  0.845470  0.939900  0.229800  1.0  0.6115
  C  C234  1  0.874100  0.915860  0.219400  1.0  0.031
  C  C235  1  0.845470  0.439900  0.729800  1.0  0.6115
  C  C236  1  0.874100  0.415860  0.719400  1.0  0.031
  C  C237  1  0.345470  0.939900  0.729800  1.0  0.6115
  C  C238  1  0.374100  0.915860  0.719400  1.0  0.031
  C  C239  1  0.345470  0.439900  0.229800  1.0  0.6115
  C  C240  1  0.374100  0.415860  0.219400  1.0  0.031
  C  C241  1  0.154530  0.229800  0.939900  1.0  0.6086
  C  C242  1  0.125900  0.219400  0.915860  1.0  0.032
  C  C243  1  0.154530  0.729800  0.439900  1.0  0.6086
  C  C244  1  0.125900  0.719400  0.415860  1.0  0.032
  C  C245  1  0.654530  0.229800  0.439900  1.0  0.6086
  C  C246  1  0.625900  0.219400  0.415860  1.0  0.032
  C  C247  1  0.654530  0.729800  0.939900  1.0  0.6086
  C  C248  1  0.625900  0.719400  0.915860  1.0  0.032
  C  C249  1  0.845470  0.770200  0.939900  1.0  0.6098
  C  C250  1  0.874100  0.780600  0.915860  1.0  0.0306
  C  C251  1  0.845470  0.270200  0.439900  1.0  0.6098
  C  C252  1  0.874100  0.280600  0.415860  1.0  0.0306
  C  C253  1  0.345470  0.770200  0.439900  1.0  0.6098
  C  C254  1  0.374100  0.780600  0.415860  1.0  0.0306
  C  C255  1  0.345470  0.270200  0.939900  1.0  0.6098
  C  C256  1  0.374100  0.280600  0.915860  1.0  0.0306
  C  C257  1  0.154530  0.770200  0.060100  1.0  0.6096
  C  C258  1  0.125900  0.780600  0.084140  1.0  0.0311
  C  C259  1  0.154530  0.270200  0.560100  1.0  0.6096
  C  C260  1  0.125900  0.280600  0.584140  1.0  0.0311
  C  C261  1  0.654530  0.770200  0.560100  1.0  0.6096
  C  C262  1  0.625900  0.780600  0.584140  1.0  0.0311
  C  C263  1  0.654530  0.270200  0.060100  1.0  0.6096
  C  C264  1  0.625900  0.280600  0.084140  1.0  0.0311
  C  C265  1  0.845470  0.229800  0.060100  1.0  0.6103
  C  C266  1  0.874100  0.219400  0.084140  1.0  0.0309
  C  C267  1  0.845470  0.729800  0.560100  1.0  0.6103
  C  C268  1  0.874100  0.719400  0.584140  1.0  0.0309
  C  C269  1  0.345470  0.229800  0.560100  1.0  0.6103
  C  C270  1  0.374100  0.219400  0.584140  1.0  0.0309
  C  C271  1  0.345470  0.729800  0.060100  1.0  0.6103
  C  C272  1  0.374100  0.719400  0.084140  1.0  0.0309
  C  C273  1  0.229800  0.060100  0.845470  1.0  0.6087
  C  C274  1  0.219400  0.084140  0.874100  1.0  0.0298
  C  C275  1  0.229800  0.560100  0.345470  1.0  0.6087
  C  C276  1  0.219400  0.584140  0.374100  1.0  0.0298
  C  C277  1  0.729800  0.060100  0.345470  1.0  0.6087
  C  C278  1  0.719400  0.084140  0.374100  1.0  0.0298
  C  C279  1  0.729800  0.560100  0.845470  1.0  0.6087
  C  C280  1  0.719400  0.584140  0.874100  1.0  0.0298
  C  C281  1  0.770200  0.060100  0.154530  1.0  0.6088
  C  C282  1  0.780600  0.084140  0.125900  1.0  0.0301
  C  C283  1  0.770200  0.560100  0.654530  1.0  0.6088
  C  C284  1  0.780600  0.584140  0.625900  1.0  0.0301
  C  C285  1  0.270200  0.060100  0.654530  1.0  0.6088
  C  C286  1  0.280600  0.084140  0.625900  1.0  0.0301
  C  C287  1  0.270200  0.560100  0.154530  1.0  0.6088
  C  C288  1  0.280600  0.584140  0.125900  1.0  0.0301
  C  C289  1  0.770200  0.939900  0.845470  1.0  0.6097
  C  C290  1  0.780600  0.915860  0.874100  1.0  0.0308
  C  C291  1  0.770200  0.439900  0.345470  1.0  0.6097
  C  C292  1  0.780600  0.415860  0.374100  1.0  0.0308
  C  C293  1  0.270200  0.939900  0.345470  1.0  0.6097
  C  C294  1  0.280600  0.915860  0.374100  1.0  0.0308
  C  C295  1  0.270200  0.439900  0.845470  1.0  0.6097
  C  C296  1  0.280600  0.415860  0.874100  1.0  0.0308
  C  C297  1  0.229800  0.939900  0.154530  1.0  0.6097
  C  C298  1  0.219400  0.915860  0.125900  1.0  0.0302
  C  C299  1  0.229800  0.439900  0.654530  1.0  0.6097
  C  C300  1  0.219400  0.415860  0.625900  1.0  0.0302
  C  C301  1  0.729800  0.939900  0.654530  1.0  0.6097
  C  C302  1  0.719400  0.915860  0.625900  1.0  0.0302
  C  C303  1  0.729800  0.439900  0.154530  1.0  0.6097
  C  C304  1  0.719400  0.415860  0.125900  1.0  0.0302
  C  C305  1  0.060100  0.154530  0.770200  1.0  0.6095
  C  C306  1  0.084140  0.125900  0.780600  1.0  0.0318
  C  C307  1  0.060100  0.654530  0.270200  1.0  0.6095
  C  C308  1  0.084140  0.625900  0.280600  1.0  0.0318
  C  C309  1  0.560100  0.154530  0.270200  1.0  0.6095
  C  C310  1  0.584140  0.125900  0.280600  1.0  0.0318
  C  C311  1  0.560100  0.654530  0.770200  1.0  0.6095
  C  C312  1  0.584140  0.625900  0.780600  1.0  0.0318
  C  C313  1  0.060100  0.845470  0.229800  1.0  0.6094
  C  C314  1  0.084140  0.874100  0.219400  1.0  0.0319
  C  C315  1  0.060100  0.345470  0.729800  1.0  0.6094
  C  C316  1  0.084140  0.374100  0.719400  1.0  0.0319
  C  C317  1  0.560100  0.845470  0.729800  1.0  0.6094
  C  C318  1  0.584140  0.874100  0.719400  1.0  0.0319
  C  C319  1  0.560100  0.345470  0.229800  1.0  0.6094
  C  C320  1  0.584140  0.374100  0.219400  1.0  0.0319
  C  C321  1  0.939900  0.154530  0.229800  1.0  0.6088
  C  C322  1  0.915860  0.125900  0.219400  1.0  0.032
  C  C323  1  0.939900  0.654530  0.729800  1.0  0.6088
  C  C324  1  0.915860  0.625900  0.719400  1.0  0.032
  C  C325  1  0.439900  0.154530  0.729800  1.0  0.6088
  C  C326  1  0.415860  0.125900  0.719400  1.0  0.032
  C  C327  1  0.439900  0.654530  0.229800  1.0  0.6088
  C  C328  1  0.415860  0.625900  0.219400  1.0  0.032
  C  C329  1  0.939900  0.845470  0.770200  1.0  0.6085
  C  C330  1  0.915860  0.874100  0.780600  1.0  0.0321
  C  C331  1  0.939900  0.345470  0.270200  1.0  0.6085
  C  C332  1  0.915860  0.374100  0.280600  1.0  0.0321
  C  C333  1  0.439900  0.845470  0.270200  1.0  0.6085
  C  C334  1  0.415860  0.874100  0.280600  1.0  0.0321
  C  C335  1  0.439900  0.345470  0.770200  1.0  0.6085
  C  C336  1  0.415860  0.374100  0.780600  1.0  0.0321
  C  C337  1  0.770200  0.845470  0.939900  1.0  0.6085
  C  C338  1  0.780600  0.874100  0.915860  1.0  0.032
  C  C339  1  0.770200  0.345470  0.439900  1.0  0.6085
  C  C340  1  0.780600  0.374100  0.415860  1.0  0.032
  C  C341  1  0.270200  0.845470  0.439900  1.0  0.6085
  C  C342  1  0.280600  0.874100  0.415860  1.0  0.032
  C  C343  1  0.270200  0.345470  0.939900  1.0  0.6085
  C  C344  1  0.280600  0.374100  0.915860  1.0  0.032
  C  C345  1  0.229800  0.154530  0.939900  1.0  0.6089
  C  C346  1  0.219400  0.125900  0.915860  1.0  0.0317
  C  C347  1  0.229800  0.654530  0.439900  1.0  0.6089
  C  C348  1  0.219400  0.625900  0.415860  1.0  0.0317
  C  C349  1  0.729800  0.154530  0.439900  1.0  0.6089
  C  C350  1  0.719400  0.125900  0.415860  1.0  0.0317
  C  C351  1  0.729800  0.654530  0.939900  1.0  0.6089
  C  C352  1  0.719400  0.625900  0.915860  1.0  0.0317
  C  C353  1  0.229800  0.845470  0.060100  1.0  0.6088
  C  C354  1  0.219400  0.874100  0.084140  1.0  0.0318
  C  C355  1  0.229800  0.345470  0.560100  1.0  0.6088
  C  C356  1  0.219400  0.374100  0.584140  1.0  0.0318
  C  C357  1  0.729800  0.845470  0.560100  1.0  0.6088
  C  C358  1  0.719400  0.874100  0.584140  1.0  0.0318
  C  C359  1  0.729800  0.345470  0.060100  1.0  0.6088
  C  C360  1  0.719400  0.374100  0.084140  1.0  0.0318
  C  C361  1  0.770200  0.154530  0.060100  1.0  0.6098
  C  C362  1  0.780600  0.125900  0.084140  1.0  0.0319
  C  C363  1  0.770200  0.654530  0.560100  1.0  0.6098
  C  C364  1  0.780600  0.625900  0.584140  1.0  0.0319
  C  C365  1  0.270200  0.154530  0.560100  1.0  0.6098
  C  C366  1  0.280600  0.125900  0.584140  1.0  0.0319
  C  C367  1  0.270200  0.654530  0.060100  1.0  0.6098
  C  C368  1  0.280600  0.625900  0.084140  1.0  0.0319
  C  C369  1  0.939900  0.770200  0.845470  1.0  0.6086
  C  C370  1  0.915860  0.780600  0.874100  1.0  0.0305
  C  C371  1  0.939900  0.270200  0.345470  1.0  0.6086
  C  C372  1  0.915860  0.280600  0.374100  1.0  0.0305
  C  C373  1  0.439900  0.770200  0.345470  1.0  0.6086
  C  C374  1  0.415860  0.780600  0.374100  1.0  0.0305
  C  C375  1  0.439900  0.270200  0.845470  1.0  0.6086
  C  C376  1  0.415860  0.280600  0.874100  1.0  0.0305
  C  C377  1  0.939900  0.229800  0.154530  1.0  0.6087
  C  C378  1  0.915860  0.219400  0.125900  1.0  0.0308
  C  C379  1  0.939900  0.729800  0.654530  1.0  0.6087
  C  C380  1  0.915860  0.719400  0.625900  1.0  0.0308
  C  C381  1  0.439900  0.229800  0.654530  1.0  0.6087
  C  C382  1  0.415860  0.219400  0.625900  1.0  0.0308
  C  C383  1  0.439900  0.729800  0.154530  1.0  0.6087
  C  C384  1  0.415860  0.719400  0.125900  1.0  0.0308
  C  C385  1  0.060100  0.229800  0.845470  1.0  0.6091
  C  C386  1  0.084140  0.219400  0.874100  1.0  0.0311
  C  C387  1  0.060100  0.729800  0.345470  1.0  0.6091
  C  C388  1  0.084140  0.719400  0.374100  1.0  0.0311
  C  C389  1  0.560100  0.229800  0.345470  1.0  0.6091
  C  C390  1  0.584140  0.219400  0.374100  1.0  0.0311
  C  C391  1  0.560100  0.729800  0.845470  1.0  0.6091
  C  C392  1  0.584140  0.719400  0.874100  1.0  0.0311
  C  C393  1  0.060100  0.770200  0.154530  1.0  0.6092
  C  C394  1  0.084140  0.780600  0.125900  1.0  0.0306
  C  C395  1  0.060100  0.270200  0.654530  1.0  0.6092
  C  C396  1  0.084140  0.280600  0.625900  1.0  0.0306
  C  C397  1  0.560100  0.770200  0.654530  1.0  0.6092
  C  C398  1  0.584140  0.780600  0.625900  1.0  0.0306
  C  C399  1  0.560100  0.270200  0.154530  1.0  0.6092
  C  C400  1  0.584140  0.280600  0.125900  1.0  0.0306
  C  C401  1  0.845470  0.939900  0.770200  1.0  0.6111
  C  C402  1  0.874100  0.915860  0.780600  1.0  0.0308
  C  C403  1  0.845470  0.439900  0.270200  1.0  0.6111
  C  C404  1  0.874100  0.415860  0.280600  1.0  0.0308
  C  C405  1  0.345470  0.939900  0.270200  1.0  0.6111
  C  C406  1  0.374100  0.915860  0.280600  1.0  0.0308
  C  C407  1  0.345470  0.439900  0.770200  1.0  0.6111
  C  C408  1  0.374100  0.415860  0.780600  1.0  0.0308
  C  C409  1  0.154530  0.939900  0.229800  1.0  0.61
  C  C410  1  0.125900  0.915860  0.219400  1.0  0.0318
  C  C411  1  0.154530  0.439900  0.729800  1.0  0.61
  C  C412  1  0.125900  0.415860  0.719400  1.0  0.0318
  C  C413  1  0.654530  0.939900  0.729800  1.0  0.61
  C  C414  1  0.625900  0.915860  0.719400  1.0  0.0318
  C  C415  1  0.654530  0.439900  0.229800  1.0  0.61
  C  C416  1  0.625900  0.415860  0.219400  1.0  0.0318
  C  C417  1  0.845470  0.060100  0.229800  1.0  0.6102
  C  C418  1  0.874100  0.084140  0.219400  1.0  0.0303
  C  C419  1  0.845470  0.560100  0.729800  1.0  0.6102
  C  C420  1  0.874100  0.584140  0.719400  1.0  0.0303
  C  C421  1  0.345470  0.060100  0.729800  1.0  0.6102
  C  C422  1  0.374100  0.084140  0.719400  1.0  0.0303
  C  C423  1  0.345470  0.560100  0.229800  1.0  0.6102
  C  C424  1  0.374100  0.584140  0.219400  1.0  0.0303
  C  C425  1  0.154530  0.060100  0.770200  1.0  0.6086
  C  C426  1  0.125900  0.084140  0.780600  1.0  0.0309
  C  C427  1  0.154530  0.560100  0.270200  1.0  0.6086
  C  C428  1  0.125900  0.584140  0.280600  1.0  0.0309
  C  C429  1  0.654530  0.060100  0.270200  1.0  0.6086
  C  C430  1  0.625900  0.084140  0.280600  1.0  0.0309
  C  C431  1  0.654530  0.560100  0.770200  1.0  0.6086
  C  C432  1  0.625900  0.584140  0.780600  1.0  0.0309
  C  C433  1  0.845470  0.770200  0.060100  1.0  0.6106
  C  C434  1  0.874100  0.780600  0.084140  1.0  0.0304
  C  C435  1  0.845470  0.270200  0.560100  1.0  0.6106
  C  C436  1  0.874100  0.280600  0.584140  1.0  0.0304
  C  C437  1  0.345470  0.770200  0.560100  1.0  0.6106
  C  C438  1  0.374100  0.780600  0.584140  1.0  0.0304
  C  C439  1  0.345470  0.270200  0.060100  1.0  0.6106
  C  C440  1  0.374100  0.280600  0.084140  1.0  0.0304
  C  C441  1  0.154530  0.229800  0.060100  1.0  0.6092
  C  C442  1  0.125900  0.219400  0.084140  1.0  0.0318
  C  C443  1  0.154530  0.729800  0.560100  1.0  0.6092
  C  C444  1  0.125900  0.719400  0.584140  1.0  0.0318
  C  C445  1  0.654530  0.229800  0.560100  1.0  0.6092
  C  C446  1  0.625900  0.219400  0.584140  1.0  0.0318
  C  C447  1  0.654530  0.729800  0.060100  1.0  0.6092
  C  C448  1  0.625900  0.719400  0.084140  1.0  0.0318
  C  C449  1  0.845470  0.229800  0.939900  1.0  0.6096
  C  C450  1  0.874100  0.219400  0.915860  1.0  0.0311
  C  C451  1  0.845470  0.729800  0.439900  1.0  0.6096
  C  C452  1  0.874100  0.719400  0.415860  1.0  0.0311
  C  C453  1  0.345470  0.229800  0.439900  1.0  0.6096
  C  C454  1  0.374100  0.219400  0.415860  1.0  0.0311
  C  C455  1  0.345470  0.729800  0.939900  1.0  0.6096
  C  C456  1  0.374100  0.719400  0.915860  1.0  0.0311
  C  C457  1  0.154530  0.770200  0.939900  1.0  0.6088
  C  C458  1  0.125900  0.780600  0.915860  1.0  0.0314
  C  C459  1  0.154530  0.270200  0.439900  1.0  0.6088
  C  C460  1  0.125900  0.280600  0.415860  1.0  0.0314
  C  C461  1  0.654530  0.770200  0.439900  1.0  0.6088
  C  C462  1  0.625900  0.780600  0.415860  1.0  0.0314
  C  C463  1  0.654530  0.270200  0.939900  1.0  0.6088
  C  C464  1  0.625900  0.280600  0.915860  1.0  0.0314
  C  C465  1  0.770200  0.939900  0.154530  1.0  0.6098
  C  C466  1  0.780600  0.915860  0.125900  1.0  0.0305
  C  C467  1  0.770200  0.439900  0.654530  1.0  0.6098
  C  C468  1  0.780600  0.415860  0.625900  1.0  0.0305
  C  C469  1  0.270200  0.939900  0.654530  1.0  0.6098
  C  C470  1  0.280600  0.915860  0.625900  1.0  0.0305
  C  C471  1  0.270200  0.439900  0.154530  1.0  0.6098
  C  C472  1  0.280600  0.415860  0.125900  1.0  0.0305
  C  C473  1  0.229800  0.939900  0.845470  1.0  0.6099
  C  C474  1  0.219400  0.915860  0.874100  1.0  0.0305
  C  C475  1  0.229800  0.439900  0.345470  1.0  0.6099
  C  C476  1  0.219400  0.415860  0.374100  1.0  0.0305
  C  C477  1  0.729800  0.939900  0.345470  1.0  0.6099
  C  C478  1  0.719400  0.915860  0.374100  1.0  0.0305
  C  C479  1  0.729800  0.439900  0.845470  1.0  0.6099
  C  C480  1  0.719400  0.415860  0.874100  1.0  0.0305
  C  C481  1  0.229800  0.060100  0.154530  1.0  0.6086
  C  C482  1  0.219400  0.084140  0.125900  1.0  0.0298
  C  C483  1  0.229800  0.560100  0.654530  1.0  0.6086
  C  C484  1  0.219400  0.584140  0.625900  1.0  0.0298
  C  C485  1  0.729800  0.060100  0.654530  1.0  0.6086
  C  C486  1  0.719400  0.084140  0.625900  1.0  0.0298
  C  C487  1  0.729800  0.560100  0.154530  1.0  0.6086
  C  C488  1  0.719400  0.584140  0.125900  1.0  0.0298
  C  C489  1  0.770200  0.060100  0.845470  1.0  0.6086
  C  C490  1  0.780600  0.084140  0.874100  1.0  0.0301
  C  C491  1  0.770200  0.560100  0.345470  1.0  0.6086
  C  C492  1  0.780600  0.584140  0.374100  1.0  0.0301
  C  C493  1  0.270200  0.060100  0.345470  1.0  0.6086
  C  C494  1  0.280600  0.084140  0.374100  1.0  0.0301
  C  C495  1  0.270200  0.560100  0.845470  1.0  0.6086
  C  C496  1  0.280600  0.584140  0.874100  1.0  0.0301
  C  C497  1  0.939900  0.845470  0.229800  1.0  0.6086
  C  C498  1  0.915860  0.874100  0.219400  1.0  0.0318
  C  C499  1  0.939900  0.345470  0.729800  1.0  0.6086
  C  C500  1  0.915860  0.374100  0.719400  1.0  0.0318
  C  C501  1  0.439900  0.845470  0.729800  1.0  0.6086
  C  C502  1  0.415860  0.874100  0.719400  1.0  0.0318
  C  C503  1  0.439900  0.345470  0.229800  1.0  0.6086
  C  C504  1  0.415860  0.374100  0.219400  1.0  0.0318
  C  C505  1  0.939900  0.154530  0.770200  1.0  0.6089
  C  C506  1  0.915860  0.125900  0.780600  1.0  0.0321
  C  C507  1  0.939900  0.654530  0.270200  1.0  0.6089
  C  C508  1  0.915860  0.625900  0.280600  1.0  0.0321
  C  C509  1  0.439900  0.154530  0.270200  1.0  0.6089
  C  C510  1  0.415860  0.125900  0.280600  1.0  0.0321
  C  C511  1  0.439900  0.654530  0.770200  1.0  0.6089
  C  C512  1  0.415860  0.625900  0.780600  1.0  0.0321
  C  C513  1  0.060100  0.845470  0.770200  1.0  0.609
  C  C514  1  0.084140  0.874100  0.780600  1.0  0.0319
  C  C515  1  0.060100  0.345470  0.270200  1.0  0.609
  C  C516  1  0.084140  0.374100  0.280600  1.0  0.0319
  C  C517  1  0.560100  0.845470  0.270200  1.0  0.609
  C  C518  1  0.584140  0.874100  0.280600  1.0  0.0319
  C  C519  1  0.560100  0.345470  0.770200  1.0  0.609
  C  C520  1  0.584140  0.374100  0.780600  1.0  0.0319
  C  C521  1  0.060100  0.154530  0.229800  1.0  0.6098
  C  C522  1  0.084140  0.125900  0.219400  1.0  0.032
  C  C523  1  0.060100  0.654530  0.729800  1.0  0.6098
  C  C524  1  0.084140  0.625900  0.719400  1.0  0.032
  C  C525  1  0.560100  0.154530  0.729800  1.0  0.6098
  C  C526  1  0.584140  0.125900  0.719400  1.0  0.032
  C  C527  1  0.560100  0.654530  0.229800  1.0  0.6098
  C  C528  1  0.584140  0.625900  0.219400  1.0  0.032
  C  C529  1  0.236900  0.109100  0.109100  1.0  -0.0043
  C  C530  1  0.236900  0.609100  0.609100  1.0  -0.0043
  C  C531  1  0.736900  0.109100  0.609100  1.0  -0.0043
  C  C532  1  0.736900  0.609100  0.109100  1.0  -0.0043
  C  C533  1  0.763100  0.890900  0.109100  1.0  -0.0111
  C  C534  1  0.763100  0.390900  0.609100  1.0  -0.0111
  C  C535  1  0.263100  0.890900  0.609100  1.0  -0.0111
  C  C536  1  0.263100  0.390900  0.109100  1.0  -0.0111
  C  C537  1  0.763100  0.109100  0.890900  1.0  -0.0095
  C  C538  1  0.763100  0.609100  0.390900  1.0  -0.0095
  C  C539  1  0.263100  0.109100  0.390900  1.0  -0.0095
  C  C540  1  0.263100  0.609100  0.890900  1.0  -0.0095
  C  C541  1  0.236900  0.890900  0.890900  1.0  -0.0035
  C  C542  1  0.236900  0.390900  0.390900  1.0  -0.0035
  C  C543  1  0.736900  0.890900  0.390900  1.0  -0.0035
  C  C544  1  0.736900  0.390900  0.890900  1.0  -0.0035
  C  C545  1  0.109100  0.236900  0.109100  1.0  -0.0037
  C  C546  1  0.109100  0.736900  0.609100  1.0  -0.0037
  C  C547  1  0.609100  0.236900  0.609100  1.0  -0.0037
  C  C548  1  0.609100  0.736900  0.109100  1.0  -0.0037
  C  C549  1  0.109100  0.763100  0.890900  1.0  -0.0084
  C  C550  1  0.109100  0.263100  0.390900  1.0  -0.0084
  C  C551  1  0.609100  0.763100  0.390900  1.0  -0.0084
  C  C552  1  0.609100  0.263100  0.890900  1.0  -0.0084
  C  C553  1  0.890900  0.763100  0.109100  1.0  -0.009
  C  C554  1  0.890900  0.263100  0.609100  1.0  -0.009
  C  C555  1  0.390900  0.763100  0.609100  1.0  -0.009
  C  C556  1  0.390900  0.263100  0.109100  1.0  -0.009
  C  C557  1  0.890900  0.236900  0.890900  1.0  -0.0051
  C  C558  1  0.890900  0.736900  0.390900  1.0  -0.0051
  C  C559  1  0.390900  0.236900  0.390900  1.0  -0.0051
  C  C560  1  0.390900  0.736900  0.890900  1.0  -0.0051
  C  C561  1  0.109100  0.109100  0.236900  1.0  -0.0023
  C  C562  1  0.109100  0.609100  0.736900  1.0  -0.0023
  C  C563  1  0.609100  0.109100  0.736900  1.0  -0.0023
  C  C564  1  0.609100  0.609100  0.236900  1.0  -0.0023
  C  C565  1  0.890900  0.109100  0.763100  1.0  -0.0061
  C  C566  1  0.890900  0.609100  0.263100  1.0  -0.0061
  C  C567  1  0.390900  0.109100  0.263100  1.0  -0.0061
  C  C568  1  0.390900  0.609100  0.763100  1.0  -0.0061
  C  C569  1  0.109100  0.890900  0.763100  1.0  -0.0047
  C  C570  1  0.109100  0.390900  0.263100  1.0  -0.0047
  C  C571  1  0.609100  0.890900  0.263100  1.0  -0.0047
  C  C572  1  0.609100  0.390900  0.763100  1.0  -0.0047
  C  C573  1  0.890900  0.890900  0.236900  1.0  -0.0043
  C  C574  1  0.890900  0.390900  0.736900  1.0  -0.0043
  C  C575  1  0.390900  0.890900  0.736900  1.0  -0.0043
  C  C576  1  0.390900  0.390900  0.236900  1.0  -0.0043
  C  C577  1  0.109100  0.236900  0.890900  1.0  -0.0047
  C  C578  1  0.109100  0.736900  0.390900  1.0  -0.0047
  C  C579  1  0.609100  0.236900  0.390900  1.0  -0.0047
  C  C580  1  0.609100  0.736900  0.890900  1.0  -0.0047
  C  C581  1  0.890900  0.763100  0.890900  1.0  -0.0094
  C  C582  1  0.890900  0.263100  0.390900  1.0  -0.0094
  C  C583  1  0.390900  0.763100  0.390900  1.0  -0.0094
  C  C584  1  0.390900  0.263100  0.890900  1.0  -0.0094
  C  C585  1  0.109100  0.763100  0.109100  1.0  -0.0086
  C  C586  1  0.109100  0.263100  0.609100  1.0  -0.0086
  C  C587  1  0.609100  0.763100  0.609100  1.0  -0.0086
  C  C588  1  0.609100  0.263100  0.109100  1.0  -0.0086
  C  C589  1  0.890900  0.236900  0.109100  1.0  -0.005
  C  C590  1  0.890900  0.736900  0.609100  1.0  -0.005
  C  C591  1  0.390900  0.236900  0.609100  1.0  -0.005
  C  C592  1  0.390900  0.736900  0.109100  1.0  -0.005
  C  C593  1  0.236900  0.109100  0.890900  1.0  -0.0048
  C  C594  1  0.236900  0.609100  0.390900  1.0  -0.0048
  C  C595  1  0.736900  0.109100  0.390900  1.0  -0.0048
  C  C596  1  0.736900  0.609100  0.890900  1.0  -0.0048
  C  C597  1  0.763100  0.109100  0.109100  1.0  -0.0106
  C  C598  1  0.763100  0.609100  0.609100  1.0  -0.0106
  C  C599  1  0.263100  0.109100  0.609100  1.0  -0.0106
  C  C600  1  0.263100  0.609100  0.109100  1.0  -0.0106
  C  C601  1  0.763100  0.890900  0.890900  1.0  -0.0109
  C  C602  1  0.763100  0.390900  0.390900  1.0  -0.0109
  C  C603  1  0.263100  0.890900  0.390900  1.0  -0.0109
  C  C604  1  0.263100  0.390900  0.890900  1.0  -0.0109
  C  C605  1  0.236900  0.890900  0.109100  1.0  -0.0052
  C  C606  1  0.236900  0.390900  0.609100  1.0  -0.0052
  C  C607  1  0.736900  0.890900  0.609100  1.0  -0.0052
  C  C608  1  0.736900  0.390900  0.109100  1.0  -0.0052
  C  C609  1  0.109100  0.109100  0.763100  1.0  -0.005
  C  C610  1  0.109100  0.609100  0.263100  1.0  -0.005
  C  C611  1  0.609100  0.109100  0.263100  1.0  -0.005
  C  C612  1  0.609100  0.609100  0.763100  1.0  -0.005
  C  C613  1  0.109100  0.890900  0.236900  1.0  -0.003
  C  C614  1  0.109100  0.390900  0.736900  1.0  -0.003
  C  C615  1  0.609100  0.890900  0.736900  1.0  -0.003
  C  C616  1  0.609100  0.390900  0.236900  1.0  -0.003
  C  C617  1  0.890900  0.109100  0.236900  1.0  -0.0036
  C  C618  1  0.890900  0.609100  0.736900  1.0  -0.0036
  C  C619  1  0.390900  0.109100  0.736900  1.0  -0.0036
  C  C620  1  0.390900  0.609100  0.236900  1.0  -0.0036
  C  C621  1  0.890900  0.890900  0.763100  1.0  -0.006
  C  C622  1  0.890900  0.390900  0.263100  1.0  -0.006
  C  C623  1  0.390900  0.890900  0.263100  1.0  -0.006
  C  C624  1  0.390900  0.390900  0.763100  1.0  -0.006
  N  N625  1  0.189510  0.108800  0.083820  1.0  -0.2182
  N  N626  1  0.189510  0.608800  0.583820  1.0  -0.2182
  N  N627  1  0.689510  0.108800  0.583820  1.0  -0.2182
  N  N628  1  0.689510  0.608800  0.083820  1.0  -0.2182
  N  N629  1  0.810490  0.891200  0.083820  1.0  -0.2248
  N  N630  1  0.810490  0.391200  0.583820  1.0  -0.2248
  N  N631  1  0.310490  0.891200  0.583820  1.0  -0.2248
  N  N632  1  0.310490  0.391200  0.083820  1.0  -0.2248
  N  N633  1  0.810490  0.108800  0.916180  1.0  -0.2234
  N  N634  1  0.810490  0.608800  0.416180  1.0  -0.2234
  N  N635  1  0.310490  0.108800  0.416180  1.0  -0.2234
  N  N636  1  0.310490  0.608800  0.916180  1.0  -0.2234
  N  N637  1  0.189510  0.891200  0.916180  1.0  -0.2195
  N  N638  1  0.189510  0.391200  0.416180  1.0  -0.2195
  N  N639  1  0.689510  0.891200  0.416180  1.0  -0.2195
  N  N640  1  0.689510  0.391200  0.916180  1.0  -0.2195
  N  N641  1  0.083820  0.189510  0.108800  1.0  -0.2202
  N  N642  1  0.083820  0.689510  0.608800  1.0  -0.2202
  N  N643  1  0.583820  0.189510  0.608800  1.0  -0.2202
  N  N644  1  0.583820  0.689510  0.108800  1.0  -0.2202
  N  N645  1  0.083820  0.810490  0.891200  1.0  -0.2217
  N  N646  1  0.083820  0.310490  0.391200  1.0  -0.2217
  N  N647  1  0.583820  0.810490  0.391200  1.0  -0.2217
  N  N648  1  0.583820  0.310490  0.891200  1.0  -0.2217
  N  N649  1  0.916180  0.810490  0.108800  1.0  -0.2217
  N  N650  1  0.916180  0.310490  0.608800  1.0  -0.2217
  N  N651  1  0.416180  0.810490  0.608800  1.0  -0.2217
  N  N652  1  0.416180  0.310490  0.108800  1.0  -0.2217
  N  N653  1  0.916180  0.189510  0.891200  1.0  -0.2205
  N  N654  1  0.916180  0.689510  0.391200  1.0  -0.2205
  N  N655  1  0.416180  0.189510  0.391200  1.0  -0.2205
  N  N656  1  0.416180  0.689510  0.891200  1.0  -0.2205
  N  N657  1  0.108800  0.083820  0.189510  1.0  -0.2198
  N  N658  1  0.108800  0.583820  0.689510  1.0  -0.2198
  N  N659  1  0.608800  0.083820  0.689510  1.0  -0.2198
  N  N660  1  0.608800  0.583820  0.189510  1.0  -0.2198
  N  N661  1  0.891200  0.083820  0.810490  1.0  -0.2159
  N  N662  1  0.891200  0.583820  0.310490  1.0  -0.2159
  N  N663  1  0.391200  0.083820  0.310490  1.0  -0.2159
  N  N664  1  0.391200  0.583820  0.810490  1.0  -0.2159
  N  N665  1  0.108800  0.916180  0.810490  1.0  -0.2198
  N  N666  1  0.108800  0.416180  0.310490  1.0  -0.2198
  N  N667  1  0.608800  0.916180  0.310490  1.0  -0.2198
  N  N668  1  0.608800  0.416180  0.810490  1.0  -0.2198
  N  N669  1  0.891200  0.916180  0.189510  1.0  -0.2217
  N  N670  1  0.891200  0.416180  0.689510  1.0  -0.2217
  N  N671  1  0.391200  0.916180  0.689510  1.0  -0.2217
  N  N672  1  0.391200  0.416180  0.189510  1.0  -0.2217
  N  N673  1  0.108800  0.189510  0.916180  1.0  -0.2216
  N  N674  1  0.108800  0.689510  0.416180  1.0  -0.2216
  N  N675  1  0.608800  0.189510  0.416180  1.0  -0.2216
  N  N676  1  0.608800  0.689510  0.916180  1.0  -0.2216
  N  N677  1  0.891200  0.810490  0.916180  1.0  -0.2204
  N  N678  1  0.891200  0.310490  0.416180  1.0  -0.2204
  N  N679  1  0.391200  0.810490  0.416180  1.0  -0.2204
  N  N680  1  0.391200  0.310490  0.916180  1.0  -0.2204
  N  N681  1  0.108800  0.810490  0.083820  1.0  -0.2224
  N  N682  1  0.108800  0.310490  0.583820  1.0  -0.2224
  N  N683  1  0.608800  0.810490  0.583820  1.0  -0.2224
  N  N684  1  0.608800  0.310490  0.083820  1.0  -0.2224
  N  N685  1  0.891200  0.189510  0.083820  1.0  -0.2207
  N  N686  1  0.891200  0.689510  0.583820  1.0  -0.2207
  N  N687  1  0.391200  0.189510  0.583820  1.0  -0.2207
  N  N688  1  0.391200  0.689510  0.083820  1.0  -0.2207
  N  N689  1  0.189510  0.083820  0.891200  1.0  -0.2181
  N  N690  1  0.189510  0.583820  0.391200  1.0  -0.2181
  N  N691  1  0.689510  0.083820  0.391200  1.0  -0.2181
  N  N692  1  0.689510  0.583820  0.891200  1.0  -0.2181
  N  N693  1  0.810490  0.083820  0.108800  1.0  -0.2232
  N  N694  1  0.810490  0.583820  0.608800  1.0  -0.2232
  N  N695  1  0.310490  0.083820  0.608800  1.0  -0.2232
  N  N696  1  0.310490  0.583820  0.108800  1.0  -0.2232
  N  N697  1  0.810490  0.916180  0.891200  1.0  -0.226
  N  N698  1  0.810490  0.416180  0.391200  1.0  -0.226
  N  N699  1  0.310490  0.916180  0.391200  1.0  -0.226
  N  N700  1  0.310490  0.416180  0.891200  1.0  -0.226
  N  N701  1  0.189510  0.916180  0.108800  1.0  -0.2215
  N  N702  1  0.189510  0.416180  0.608800  1.0  -0.2215
  N  N703  1  0.689510  0.916180  0.608800  1.0  -0.2215
  N  N704  1  0.689510  0.416180  0.108800  1.0  -0.2215
  N  N705  1  0.083820  0.108800  0.810490  1.0  -0.2164
  N  N706  1  0.083820  0.608800  0.310490  1.0  -0.2164
  N  N707  1  0.583820  0.108800  0.310490  1.0  -0.2164
  N  N708  1  0.583820  0.608800  0.810490  1.0  -0.2164
  N  N709  1  0.083820  0.891200  0.189510  1.0  -0.2202
  N  N710  1  0.083820  0.391200  0.689510  1.0  -0.2202
  N  N711  1  0.583820  0.891200  0.689510  1.0  -0.2202
  N  N712  1  0.583820  0.391200  0.189510  1.0  -0.2202
  N  N713  1  0.916180  0.108800  0.189510  1.0  -0.2204
  N  N714  1  0.916180  0.608800  0.689510  1.0  -0.2204
  N  N715  1  0.416180  0.108800  0.689510  1.0  -0.2204
  N  N716  1  0.416180  0.608800  0.189510  1.0  -0.2204
  N  N717  1  0.916180  0.891200  0.810490  1.0  -0.2177
  N  N718  1  0.916180  0.391200  0.310490  1.0  -0.2177
  N  N719  1  0.416180  0.891200  0.310490  1.0  -0.2177
  N  N720  1  0.416180  0.391200  0.810490  1.0  -0.2177
  N  N721  1  0.810490  0.891200  0.916180  1.0  -0.2238
  N  N722  1  0.810490  0.391200  0.416180  1.0  -0.2238
  N  N723  1  0.310490  0.891200  0.416180  1.0  -0.2238
  N  N724  1  0.310490  0.391200  0.916180  1.0  -0.2238
  N  N725  1  0.189510  0.108800  0.916180  1.0  -0.2187
  N  N726  1  0.189510  0.608800  0.416180  1.0  -0.2187
  N  N727  1  0.689510  0.108800  0.416180  1.0  -0.2187
  N  N728  1  0.689510  0.608800  0.916180  1.0  -0.2187
  N  N729  1  0.189510  0.891200  0.083820  1.0  -0.219
  N  N730  1  0.189510  0.391200  0.583820  1.0  -0.219
  N  N731  1  0.689510  0.891200  0.583820  1.0  -0.219
  N  N732  1  0.689510  0.391200  0.083820  1.0  -0.219
  N  N733  1  0.810490  0.108800  0.083820  1.0  -0.2246
  N  N734  1  0.810490  0.608800  0.583820  1.0  -0.2246
  N  N735  1  0.310490  0.108800  0.583820  1.0  -0.2246
  N  N736  1  0.310490  0.608800  0.083820  1.0  -0.2246
  N  N737  1  0.916180  0.810490  0.891200  1.0  -0.2212
  N  N738  1  0.916180  0.310490  0.391200  1.0  -0.2212
  N  N739  1  0.416180  0.810490  0.391200  1.0  -0.2212
  N  N740  1  0.416180  0.310490  0.891200  1.0  -0.2212
  N  N741  1  0.916180  0.189510  0.108800  1.0  -0.2203
  N  N742  1  0.916180  0.689510  0.608800  1.0  -0.2203
  N  N743  1  0.416180  0.189510  0.608800  1.0  -0.2203
  N  N744  1  0.416180  0.689510  0.108800  1.0  -0.2203
  N  N745  1  0.083820  0.189510  0.891200  1.0  -0.2202
  N  N746  1  0.083820  0.689510  0.391200  1.0  -0.2202
  N  N747  1  0.583820  0.189510  0.391200  1.0  -0.2202
  N  N748  1  0.583820  0.689510  0.891200  1.0  -0.2202
  N  N749  1  0.083820  0.810490  0.108800  1.0  -0.2221
  N  N750  1  0.083820  0.310490  0.608800  1.0  -0.2221
  N  N751  1  0.583820  0.810490  0.608800  1.0  -0.2221
  N  N752  1  0.583820  0.310490  0.108800  1.0  -0.2221
  N  N753  1  0.891200  0.916180  0.810490  1.0  -0.2185
  N  N754  1  0.891200  0.416180  0.310490  1.0  -0.2185
  N  N755  1  0.391200  0.916180  0.310490  1.0  -0.2185
  N  N756  1  0.391200  0.416180  0.810490  1.0  -0.2185
  N  N757  1  0.108800  0.916180  0.189510  1.0  -0.2221
  N  N758  1  0.108800  0.416180  0.689510  1.0  -0.2221
  N  N759  1  0.608800  0.916180  0.689510  1.0  -0.2221
  N  N760  1  0.608800  0.416180  0.189510  1.0  -0.2221
  N  N761  1  0.891200  0.083820  0.189510  1.0  -0.2196
  N  N762  1  0.891200  0.583820  0.689510  1.0  -0.2196
  N  N763  1  0.391200  0.083820  0.689510  1.0  -0.2196
  N  N764  1  0.391200  0.583820  0.189510  1.0  -0.2196
  N  N765  1  0.108800  0.083820  0.810490  1.0  -0.2169
  N  N766  1  0.108800  0.583820  0.310490  1.0  -0.2169
  N  N767  1  0.608800  0.083820  0.310490  1.0  -0.2169
  N  N768  1  0.608800  0.583820  0.810490  1.0  -0.2169
  N  N769  1  0.891200  0.810490  0.083820  1.0  -0.2211
  N  N770  1  0.891200  0.310490  0.583820  1.0  -0.2211
  N  N771  1  0.391200  0.810490  0.583820  1.0  -0.2211
  N  N772  1  0.391200  0.310490  0.083820  1.0  -0.2211
  N  N773  1  0.108800  0.189510  0.083820  1.0  -0.2209
  N  N774  1  0.108800  0.689510  0.583820  1.0  -0.2209
  N  N775  1  0.608800  0.189510  0.583820  1.0  -0.2209
  N  N776  1  0.608800  0.689510  0.083820  1.0  -0.2209
  N  N777  1  0.891200  0.189510  0.916180  1.0  -0.2209
  N  N778  1  0.891200  0.689510  0.416180  1.0  -0.2209
  N  N779  1  0.391200  0.189510  0.416180  1.0  -0.2209
  N  N780  1  0.391200  0.689510  0.916180  1.0  -0.2209
  N  N781  1  0.108800  0.810490  0.916180  1.0  -0.2223
  N  N782  1  0.108800  0.310490  0.416180  1.0  -0.2223
  N  N783  1  0.608800  0.810490  0.416180  1.0  -0.2223
  N  N784  1  0.608800  0.310490  0.916180  1.0  -0.2223
  N  N785  1  0.810490  0.916180  0.108800  1.0  -0.2263
  N  N786  1  0.810490  0.416180  0.608800  1.0  -0.2263
  N  N787  1  0.310490  0.916180  0.608800  1.0  -0.2263
  N  N788  1  0.310490  0.416180  0.108800  1.0  -0.2263
  N  N789  1  0.189510  0.916180  0.891200  1.0  -0.221
  N  N790  1  0.189510  0.416180  0.391200  1.0  -0.221
  N  N791  1  0.689510  0.916180  0.391200  1.0  -0.221
  N  N792  1  0.689510  0.416180  0.891200  1.0  -0.221
  N  N793  1  0.189510  0.083820  0.108800  1.0  -0.2183
  N  N794  1  0.189510  0.583820  0.608800  1.0  -0.2183
  N  N795  1  0.689510  0.083820  0.608800  1.0  -0.2183
  N  N796  1  0.689510  0.583820  0.108800  1.0  -0.2183
  N  N797  1  0.810490  0.083820  0.891200  1.0  -0.2231
  N  N798  1  0.810490  0.583820  0.391200  1.0  -0.2231
  N  N799  1  0.310490  0.083820  0.391200  1.0  -0.2231
  N  N800  1  0.310490  0.583820  0.891200  1.0  -0.2231
  N  N801  1  0.916180  0.891200  0.189510  1.0  -0.2213
  N  N802  1  0.916180  0.391200  0.689510  1.0  -0.2213
  N  N803  1  0.416180  0.891200  0.689510  1.0  -0.2213
  N  N804  1  0.416180  0.391200  0.189510  1.0  -0.2213
  N  N805  1  0.916180  0.108800  0.810490  1.0  -0.2168
  N  N806  1  0.916180  0.608800  0.310490  1.0  -0.2168
  N  N807  1  0.416180  0.108800  0.310490  1.0  -0.2168
  N  N808  1  0.416180  0.608800  0.810490  1.0  -0.2168
  N  N809  1  0.083820  0.891200  0.810490  1.0  -0.2171
  N  N810  1  0.083820  0.391200  0.310490  1.0  -0.2171
  N  N811  1  0.583820  0.891200  0.310490  1.0  -0.2171
  N  N812  1  0.583820  0.391200  0.810490  1.0  -0.2171
  N  N813  1  0.083820  0.108800  0.189510  1.0  -0.2193
  N  N814  1  0.083820  0.608800  0.689510  1.0  -0.2193
  N  N815  1  0.583820  0.108800  0.689510  1.0  -0.2193
  N  N816  1  0.583820  0.608800  0.189510  1.0  -0.2193
  O  O817  1  0.209200  0.157730  0.036710  1.0  -0.5894
  O  O818  1  0.257190  0.168820  0.068690  1.0  -0.6578
  O  O819  1  0.209200  0.657730  0.536710  1.0  -0.5894
  O  O820  1  0.257190  0.668820  0.568690  1.0  -0.6578
  O  O821  1  0.709200  0.157730  0.536710  1.0  -0.5894
  O  O822  1  0.757190  0.168820  0.568690  1.0  -0.6578
  O  O823  1  0.709200  0.657730  0.036710  1.0  -0.5894
  O  O824  1  0.757190  0.668820  0.068690  1.0  -0.6578
  O  O825  1  0.790800  0.842270  0.036710  1.0  -0.5908
  O  O826  1  0.742810  0.831180  0.068690  1.0  -0.6564
  O  O827  1  0.790800  0.342270  0.536710  1.0  -0.5908
  O  O828  1  0.742810  0.331180  0.568690  1.0  -0.6564
  O  O829  1  0.290800  0.842270  0.536710  1.0  -0.5908
  O  O830  1  0.242810  0.831180  0.568690  1.0  -0.6564
  O  O831  1  0.290800  0.342270  0.036710  1.0  -0.5908
  O  O832  1  0.242810  0.331180  0.068690  1.0  -0.6564
  O  O833  1  0.790800  0.157730  0.963290  1.0  -0.5914
  O  O834  1  0.742810  0.168820  0.931310  1.0  -0.6573
  O  O835  1  0.790800  0.657730  0.463290  1.0  -0.5914
  O  O836  1  0.742810  0.668820  0.431310  1.0  -0.6573
  O  O837  1  0.290800  0.157730  0.463290  1.0  -0.5914
  O  O838  1  0.242810  0.168820  0.431310  1.0  -0.6573
  O  O839  1  0.290800  0.657730  0.963290  1.0  -0.5914
  O  O840  1  0.242810  0.668820  0.931310  1.0  -0.6573
  O  O841  1  0.209200  0.842270  0.963290  1.0  -0.5923
  O  O842  1  0.257190  0.831180  0.931310  1.0  -0.6571
  O  O843  1  0.209200  0.342270  0.463290  1.0  -0.5923
  O  O844  1  0.257190  0.331180  0.431310  1.0  -0.6571
  O  O845  1  0.709200  0.842270  0.463290  1.0  -0.5923
  O  O846  1  0.757190  0.831180  0.431310  1.0  -0.6571
  O  O847  1  0.709200  0.342270  0.963290  1.0  -0.5923
  O  O848  1  0.757190  0.331180  0.931310  1.0  -0.6571
  O  O849  1  0.036710  0.209200  0.157730  1.0  -0.5891
  O  O850  1  0.068690  0.257190  0.168820  1.0  -0.6566
  O  O851  1  0.036710  0.709200  0.657730  1.0  -0.5891
  O  O852  1  0.068690  0.757190  0.668820  1.0  -0.6566
  O  O853  1  0.536710  0.209200  0.657730  1.0  -0.5891
  O  O854  1  0.568690  0.257190  0.668820  1.0  -0.6566
  O  O855  1  0.536710  0.709200  0.157730  1.0  -0.5891
  O  O856  1  0.568690  0.757190  0.168820  1.0  -0.6566
  O  O857  1  0.036710  0.790800  0.842270  1.0  -0.5903
  O  O858  1  0.068690  0.742810  0.831180  1.0  -0.6544
  O  O859  1  0.036710  0.290800  0.342270  1.0  -0.5903
  O  O860  1  0.068690  0.242810  0.331180  1.0  -0.6544
  O  O861  1  0.536710  0.790800  0.342270  1.0  -0.5903
  O  O862  1  0.568690  0.742810  0.331180  1.0  -0.6544
  O  O863  1  0.536710  0.290800  0.842270  1.0  -0.5903
  O  O864  1  0.568690  0.242810  0.831180  1.0  -0.6544
  O  O865  1  0.963290  0.790800  0.157730  1.0  -0.5896
  O  O866  1  0.931310  0.742810  0.168820  1.0  -0.6572
  O  O867  1  0.963290  0.290800  0.657730  1.0  -0.5896
  O  O868  1  0.931310  0.242810  0.668820  1.0  -0.6572
  O  O869  1  0.463290  0.790800  0.657730  1.0  -0.5896
  O  O870  1  0.431310  0.742810  0.668820  1.0  -0.6572
  O  O871  1  0.463290  0.290800  0.157730  1.0  -0.5896
  O  O872  1  0.431310  0.242810  0.168820  1.0  -0.6572
  O  O873  1  0.963290  0.209200  0.842270  1.0  -0.5894
  O  O874  1  0.931310  0.257190  0.831180  1.0  -0.659
  O  O875  1  0.963290  0.709200  0.342270  1.0  -0.5894
  O  O876  1  0.931310  0.757190  0.331180  1.0  -0.659
  O  O877  1  0.463290  0.209200  0.342270  1.0  -0.5894
  O  O878  1  0.431310  0.257190  0.331180  1.0  -0.659
  O  O879  1  0.463290  0.709200  0.842270  1.0  -0.5894
  O  O880  1  0.431310  0.757190  0.831180  1.0  -0.659
  O  O881  1  0.157730  0.036710  0.209200  1.0  -0.5947
  O  O882  1  0.168820  0.068690  0.257190  1.0  -0.6563
  O  O883  1  0.157730  0.536710  0.709200  1.0  -0.5947
  O  O884  1  0.168820  0.568690  0.757190  1.0  -0.6563
  O  O885  1  0.657730  0.036710  0.709200  1.0  -0.5947
  O  O886  1  0.668820  0.068690  0.757190  1.0  -0.6563
  O  O887  1  0.657730  0.536710  0.209200  1.0  -0.5947
  O  O888  1  0.668820  0.568690  0.257190  1.0  -0.6563
  O  O889  1  0.842270  0.036710  0.790800  1.0  -0.5935
  O  O890  1  0.831180  0.068690  0.742810  1.0  -0.6552
  O  O891  1  0.842270  0.536710  0.290800  1.0  -0.5935
  O  O892  1  0.831180  0.568690  0.242810  1.0  -0.6552
  O  O893  1  0.342270  0.036710  0.290800  1.0  -0.5935
  O  O894  1  0.331180  0.068690  0.242810  1.0  -0.6552
  O  O895  1  0.342270  0.536710  0.790800  1.0  -0.5935
  O  O896  1  0.331180  0.568690  0.742810  1.0  -0.6552
  O  O897  1  0.157730  0.963290  0.790800  1.0  -0.5935
  O  O898  1  0.168820  0.931310  0.742810  1.0  -0.6563
  O  O899  1  0.157730  0.463290  0.290800  1.0  -0.5935
  O  O900  1  0.168820  0.431310  0.242810  1.0  -0.6563
  O  O901  1  0.657730  0.963290  0.290800  1.0  -0.5935
  O  O902  1  0.668820  0.931310  0.242810  1.0  -0.6563
  O  O903  1  0.657730  0.463290  0.790800  1.0  -0.5935
  O  O904  1  0.668820  0.431310  0.742810  1.0  -0.6563
  O  O905  1  0.842270  0.963290  0.209200  1.0  -0.5943
  O  O906  1  0.831180  0.931310  0.257190  1.0  -0.6549
  O  O907  1  0.842270  0.463290  0.709200  1.0  -0.5943
  O  O908  1  0.831180  0.431310  0.757190  1.0  -0.6549
  O  O909  1  0.342270  0.963290  0.709200  1.0  -0.5943
  O  O910  1  0.331180  0.931310  0.757190  1.0  -0.6549
  O  O911  1  0.342270  0.463290  0.209200  1.0  -0.5943
  O  O912  1  0.331180  0.431310  0.257190  1.0  -0.6549
  O  O913  1  0.157730  0.209200  0.963290  1.0  -0.5921
  O  O914  1  0.168820  0.257190  0.931310  1.0  -0.6575
  O  O915  1  0.157730  0.709200  0.463290  1.0  -0.5921
  O  O916  1  0.168820  0.757190  0.431310  1.0  -0.6575
  O  O917  1  0.657730  0.209200  0.463290  1.0  -0.5921
  O  O918  1  0.668820  0.257190  0.431310  1.0  -0.6575
  O  O919  1  0.657730  0.709200  0.963290  1.0  -0.5921
  O  O920  1  0.668820  0.757190  0.931310  1.0  -0.6575
  O  O921  1  0.842270  0.790800  0.963290  1.0  -0.5934
  O  O922  1  0.831180  0.742810  0.931310  1.0  -0.6536
  O  O923  1  0.842270  0.290800  0.463290  1.0  -0.5934
  O  O924  1  0.831180  0.242810  0.431310  1.0  -0.6536
  O  O925  1  0.342270  0.790800  0.463290  1.0  -0.5934
  O  O926  1  0.331180  0.742810  0.431310  1.0  -0.6536
  O  O927  1  0.342270  0.290800  0.963290  1.0  -0.5934
  O  O928  1  0.331180  0.242810  0.931310  1.0  -0.6536
  O  O929  1  0.157730  0.790800  0.036710  1.0  -0.5932
  O  O930  1  0.168820  0.742810  0.068690  1.0  -0.6551
  O  O931  1  0.157730  0.290800  0.536710  1.0  -0.5932
  O  O932  1  0.168820  0.242810  0.568690  1.0  -0.6551
  O  O933  1  0.657730  0.790800  0.536710  1.0  -0.5932
  O  O934  1  0.668820  0.742810  0.568690  1.0  -0.6551
  O  O935  1  0.657730  0.290800  0.036710  1.0  -0.5932
  O  O936  1  0.668820  0.242810  0.068690  1.0  -0.6551
  O  O937  1  0.842270  0.209200  0.036710  1.0  -0.5913
  O  O938  1  0.831180  0.257190  0.068690  1.0  -0.6552
  O  O939  1  0.842270  0.709200  0.536710  1.0  -0.5913
  O  O940  1  0.831180  0.757190  0.568690  1.0  -0.6552
  O  O941  1  0.342270  0.209200  0.536710  1.0  -0.5913
  O  O942  1  0.331180  0.257190  0.568690  1.0  -0.6552
  O  O943  1  0.342270  0.709200  0.036710  1.0  -0.5913
  O  O944  1  0.331180  0.757190  0.068690  1.0  -0.6552
  O  O945  1  0.209200  0.036710  0.842270  1.0  -0.5919
  O  O946  1  0.257190  0.068690  0.831180  1.0  -0.6602
  O  O947  1  0.209200  0.536710  0.342270  1.0  -0.5919
  O  O948  1  0.257190  0.568690  0.331180  1.0  -0.6602
  O  O949  1  0.709200  0.036710  0.342270  1.0  -0.5919
  O  O950  1  0.757190  0.068690  0.331180  1.0  -0.6602
  O  O951  1  0.709200  0.536710  0.842270  1.0  -0.5919
  O  O952  1  0.757190  0.568690  0.831180  1.0  -0.6602
  O  O953  1  0.790800  0.036710  0.157730  1.0  -0.5919
  O  O954  1  0.742810  0.068690  0.168820  1.0  -0.6604
  O  O955  1  0.790800  0.536710  0.657730  1.0  -0.5919
  O  O956  1  0.742810  0.568690  0.668820  1.0  -0.6604
  O  O957  1  0.290800  0.036710  0.657730  1.0  -0.5919
  O  O958  1  0.242810  0.068690  0.668820  1.0  -0.6604
  O  O959  1  0.290800  0.536710  0.157730  1.0  -0.5919
  O  O960  1  0.242810  0.568690  0.168820  1.0  -0.6604
  O  O961  1  0.790800  0.963290  0.842270  1.0  -0.5932
  O  O962  1  0.742810  0.931310  0.831180  1.0  -0.6595
  O  O963  1  0.790800  0.463290  0.342270  1.0  -0.5932
  O  O964  1  0.742810  0.431310  0.331180  1.0  -0.6595
  O  O965  1  0.290800  0.963290  0.342270  1.0  -0.5932
  O  O966  1  0.242810  0.931310  0.331180  1.0  -0.6595
  O  O967  1  0.290800  0.463290  0.842270  1.0  -0.5932
  O  O968  1  0.242810  0.431310  0.831180  1.0  -0.6595
  O  O969  1  0.209200  0.963290  0.157730  1.0  -0.5918
  O  O970  1  0.257190  0.931310  0.168820  1.0  -0.6617
  O  O971  1  0.209200  0.463290  0.657730  1.0  -0.5918
  O  O972  1  0.257190  0.431310  0.668820  1.0  -0.6617
  O  O973  1  0.709200  0.963290  0.657730  1.0  -0.5918
  O  O974  1  0.757190  0.931310  0.668820  1.0  -0.6617
  O  O975  1  0.709200  0.463290  0.157730  1.0  -0.5918
  O  O976  1  0.757190  0.431310  0.168820  1.0  -0.6617
  O  O977  1  0.036710  0.157730  0.790800  1.0  -0.5889
  O  O978  1  0.068690  0.168820  0.742810  1.0  -0.6535
  O  O979  1  0.036710  0.657730  0.290800  1.0  -0.5889
  O  O980  1  0.068690  0.668820  0.242810  1.0  -0.6535
  O  O981  1  0.536710  0.157730  0.290800  1.0  -0.5889
  O  O982  1  0.568690  0.168820  0.242810  1.0  -0.6535
  O  O983  1  0.536710  0.657730  0.790800  1.0  -0.5889
  O  O984  1  0.568690  0.668820  0.742810  1.0  -0.6535
  O  O985  1  0.036710  0.842270  0.209200  1.0  -0.5898
  O  O986  1  0.068690  0.831180  0.257190  1.0  -0.6535
  O  O987  1  0.036710  0.342270  0.709200  1.0  -0.5898
  O  O988  1  0.068690  0.331180  0.757190  1.0  -0.6535
  O  O989  1  0.536710  0.842270  0.709200  1.0  -0.5898
  O  O990  1  0.568690  0.831180  0.757190  1.0  -0.6535
  O  O991  1  0.536710  0.342270  0.209200  1.0  -0.5898
  O  O992  1  0.568690  0.331180  0.257190  1.0  -0.6535
  O  O993  1  0.963290  0.157730  0.209200  1.0  -0.5899
  O  O994  1  0.931310  0.168820  0.257190  1.0  -0.6554
  O  O995  1  0.963290  0.657730  0.709200  1.0  -0.5899
  O  O996  1  0.931310  0.668820  0.757190  1.0  -0.6554
  O  O997  1  0.463290  0.157730  0.709200  1.0  -0.5899
  O  O998  1  0.431310  0.168820  0.757190  1.0  -0.6554
  O  O999  1  0.463290  0.657730  0.209200  1.0  -0.5899
  O  O1000  1  0.431310  0.668820  0.257190  1.0  -0.6554
  O  O1001  1  0.963290  0.842270  0.790800  1.0  -0.5901
  O  O1002  1  0.931310  0.831180  0.742810  1.0  -0.6573
  O  O1003  1  0.963290  0.342270  0.290800  1.0  -0.5901
  O  O1004  1  0.931310  0.331180  0.242810  1.0  -0.6573
  O  O1005  1  0.463290  0.842270  0.290800  1.0  -0.5901
  O  O1006  1  0.431310  0.831180  0.242810  1.0  -0.6573
  O  O1007  1  0.463290  0.342270  0.790800  1.0  -0.5901
  O  O1008  1  0.431310  0.331180  0.742810  1.0  -0.6573
  O  O1009  1  0.790800  0.842270  0.963290  1.0  -0.5926
  O  O1010  1  0.742810  0.831180  0.931310  1.0  -0.656
  O  O1011  1  0.790800  0.342270  0.463290  1.0  -0.5926
  O  O1012  1  0.742810  0.331180  0.431310  1.0  -0.656
  O  O1013  1  0.290800  0.842270  0.463290  1.0  -0.5926
  O  O1014  1  0.242810  0.831180  0.431310  1.0  -0.656
  O  O1015  1  0.290800  0.342270  0.963290  1.0  -0.5926
  O  O1016  1  0.242810  0.331180  0.931310  1.0  -0.656
  O  O1017  1  0.209200  0.157730  0.963290  1.0  -0.5907
  O  O1018  1  0.257190  0.168820  0.931310  1.0  -0.6576
  O  O1019  1  0.209200  0.657730  0.463290  1.0  -0.5907
  O  O1020  1  0.257190  0.668820  0.431310  1.0  -0.6576
  O  O1021  1  0.709200  0.157730  0.463290  1.0  -0.5907
  O  O1022  1  0.757190  0.168820  0.431310  1.0  -0.6576
  O  O1023  1  0.709200  0.657730  0.963290  1.0  -0.5907
  O  O1024  1  0.757190  0.668820  0.931310  1.0  -0.6576
  O  O1025  1  0.209200  0.842270  0.036710  1.0  -0.5906
  O  O1026  1  0.257190  0.831180  0.068690  1.0  -0.6587
  O  O1027  1  0.209200  0.342270  0.536710  1.0  -0.5906
  O  O1028  1  0.257190  0.331180  0.568690  1.0  -0.6587
  O  O1029  1  0.709200  0.842270  0.536710  1.0  -0.5906
  O  O1030  1  0.757190  0.831180  0.568690  1.0  -0.6587
  O  O1031  1  0.709200  0.342270  0.036710  1.0  -0.5906
  O  O1032  1  0.757190  0.331180  0.068690  1.0  -0.6587
  O  O1033  1  0.790800  0.157730  0.036710  1.0  -0.5903
  O  O1034  1  0.742810  0.168820  0.068690  1.0  -0.6554
  O  O1035  1  0.790800  0.657730  0.536710  1.0  -0.5903
  O  O1036  1  0.742810  0.668820  0.568690  1.0  -0.6554
  O  O1037  1  0.290800  0.157730  0.536710  1.0  -0.5903
  O  O1038  1  0.242810  0.168820  0.568690  1.0  -0.6554
  O  O1039  1  0.290800  0.657730  0.036710  1.0  -0.5903
  O  O1040  1  0.242810  0.668820  0.068690  1.0  -0.6554
  O  O1041  1  0.963290  0.790800  0.842270  1.0  -0.5911
  O  O1042  1  0.931310  0.742810  0.831180  1.0  -0.658
  O  O1043  1  0.963290  0.290800  0.342270  1.0  -0.5911
  O  O1044  1  0.931310  0.242810  0.331180  1.0  -0.658
  O  O1045  1  0.463290  0.790800  0.342270  1.0  -0.5911
  O  O1046  1  0.431310  0.742810  0.331180  1.0  -0.658
  O  O1047  1  0.463290  0.290800  0.842270  1.0  -0.5911
  O  O1048  1  0.431310  0.242810  0.831180  1.0  -0.658
  O  O1049  1  0.963290  0.209200  0.157730  1.0  -0.5889
  O  O1050  1  0.931310  0.257190  0.168820  1.0  -0.6584
  O  O1051  1  0.963290  0.709200  0.657730  1.0  -0.5889
  O  O1052  1  0.931310  0.757190  0.668820  1.0  -0.6584
  O  O1053  1  0.463290  0.209200  0.657730  1.0  -0.5889
  O  O1054  1  0.431310  0.257190  0.668820  1.0  -0.6584
  O  O1055  1  0.463290  0.709200  0.157730  1.0  -0.5889
  O  O1056  1  0.431310  0.757190  0.168820  1.0  -0.6584
  O  O1057  1  0.036710  0.209200  0.842270  1.0  -0.589
  O  O1058  1  0.068690  0.257190  0.831180  1.0  -0.6529
  O  O1059  1  0.036710  0.709200  0.342270  1.0  -0.589
  O  O1060  1  0.068690  0.757190  0.331180  1.0  -0.6529
  O  O1061  1  0.536710  0.209200  0.342270  1.0  -0.589
  O  O1062  1  0.568690  0.257190  0.331180  1.0  -0.6529
  O  O1063  1  0.536710  0.709200  0.842270  1.0  -0.589
  O  O1064  1  0.568690  0.757190  0.831180  1.0  -0.6529
  O  O1065  1  0.036710  0.790800  0.157730  1.0  -0.5893
  O  O1066  1  0.068690  0.742810  0.168820  1.0  -0.6565
  O  O1067  1  0.036710  0.290800  0.657730  1.0  -0.5893
  O  O1068  1  0.068690  0.242810  0.668820  1.0  -0.6565
  O  O1069  1  0.536710  0.790800  0.657730  1.0  -0.5893
  O  O1070  1  0.568690  0.742810  0.668820  1.0  -0.6565
  O  O1071  1  0.536710  0.290800  0.157730  1.0  -0.5893
  O  O1072  1  0.568690  0.242810  0.168820  1.0  -0.6565
  O  O1073  1  0.842270  0.963290  0.790800  1.0  -0.5935
  O  O1074  1  0.831180  0.931310  0.742810  1.0  -0.6533
  O  O1075  1  0.842270  0.463290  0.290800  1.0  -0.5935
  O  O1076  1  0.831180  0.431310  0.242810  1.0  -0.6533
  O  O1077  1  0.342270  0.963290  0.290800  1.0  -0.5935
  O  O1078  1  0.331180  0.931310  0.242810  1.0  -0.6533
  O  O1079  1  0.342270  0.463290  0.790800  1.0  -0.5935
  O  O1080  1  0.331180  0.431310  0.742810  1.0  -0.6533
  O  O1081  1  0.157730  0.963290  0.209200  1.0  -0.5946
  O  O1082  1  0.168820  0.931310  0.257190  1.0  -0.6558
  O  O1083  1  0.157730  0.463290  0.709200  1.0  -0.5946
  O  O1084  1  0.168820  0.431310  0.757190  1.0  -0.6558
  O  O1085  1  0.657730  0.963290  0.709200  1.0  -0.5946
  O  O1086  1  0.668820  0.931310  0.757190  1.0  -0.6558
  O  O1087  1  0.657730  0.463290  0.209200  1.0  -0.5946
  O  O1088  1  0.668820  0.431310  0.257190  1.0  -0.6558
  O  O1089  1  0.842270  0.036710  0.209200  1.0  -0.594
  O  O1090  1  0.831180  0.068690  0.257190  1.0  -0.6567
  O  O1091  1  0.842270  0.536710  0.709200  1.0  -0.594
  O  O1092  1  0.831180  0.568690  0.757190  1.0  -0.6567
  O  O1093  1  0.342270  0.036710  0.709200  1.0  -0.594
  O  O1094  1  0.331180  0.068690  0.757190  1.0  -0.6567
  O  O1095  1  0.342270  0.536710  0.209200  1.0  -0.594
  O  O1096  1  0.331180  0.568690  0.257190  1.0  -0.6567
  O  O1097  1  0.157730  0.036710  0.790800  1.0  -0.5935
  O  O1098  1  0.168820  0.068690  0.742810  1.0  -0.6566
  O  O1099  1  0.157730  0.536710  0.290800  1.0  -0.5935
  O  O1100  1  0.168820  0.568690  0.242810  1.0  -0.6566
  O  O1101  1  0.657730  0.036710  0.290800  1.0  -0.5935
  O  O1102  1  0.668820  0.068690  0.242810  1.0  -0.6566
  O  O1103  1  0.657730  0.536710  0.790800  1.0  -0.5935
  O  O1104  1  0.668820  0.568690  0.742810  1.0  -0.6566
  O  O1105  1  0.842270  0.790800  0.036710  1.0  -0.5922
  O  O1106  1  0.831180  0.742810  0.068690  1.0  -0.6545
  O  O1107  1  0.842270  0.290800  0.536710  1.0  -0.5922
  O  O1108  1  0.831180  0.242810  0.568690  1.0  -0.6545
  O  O1109  1  0.342270  0.790800  0.536710  1.0  -0.5922
  O  O1110  1  0.331180  0.742810  0.568690  1.0  -0.6545
  O  O1111  1  0.342270  0.290800  0.036710  1.0  -0.5922
  O  O1112  1  0.331180  0.242810  0.068690  1.0  -0.6545
  O  O1113  1  0.157730  0.209200  0.036710  1.0  -0.5918
  O  O1114  1  0.168820  0.257190  0.068690  1.0  -0.656
  O  O1115  1  0.157730  0.709200  0.536710  1.0  -0.5918
  O  O1116  1  0.168820  0.757190  0.568690  1.0  -0.656
  O  O1117  1  0.657730  0.209200  0.536710  1.0  -0.5918
  O  O1118  1  0.668820  0.257190  0.568690  1.0  -0.656
  O  O1119  1  0.657730  0.709200  0.036710  1.0  -0.5918
  O  O1120  1  0.668820  0.757190  0.068690  1.0  -0.656
  O  O1121  1  0.842270  0.209200  0.963290  1.0  -0.5921
  O  O1122  1  0.831180  0.257190  0.931310  1.0  -0.6549
  O  O1123  1  0.842270  0.709200  0.463290  1.0  -0.5921
  O  O1124  1  0.831180  0.757190  0.431310  1.0  -0.6549
  O  O1125  1  0.342270  0.209200  0.463290  1.0  -0.5921
  O  O1126  1  0.331180  0.257190  0.431310  1.0  -0.6549
  O  O1127  1  0.342270  0.709200  0.963290  1.0  -0.5921
  O  O1128  1  0.331180  0.757190  0.931310  1.0  -0.6549
  O  O1129  1  0.157730  0.790800  0.963290  1.0  -0.5938
  O  O1130  1  0.168820  0.742810  0.931310  1.0  -0.6554
  O  O1131  1  0.157730  0.290800  0.463290  1.0  -0.5938
  O  O1132  1  0.168820  0.242810  0.431310  1.0  -0.6554
  O  O1133  1  0.657730  0.790800  0.463290  1.0  -0.5938
  O  O1134  1  0.668820  0.742810  0.431310  1.0  -0.6554
  O  O1135  1  0.657730  0.290800  0.963290  1.0  -0.5938
  O  O1136  1  0.668820  0.242810  0.931310  1.0  -0.6554
  O  O1137  1  0.790800  0.963290  0.157730  1.0  -0.5927
  O  O1138  1  0.742810  0.931310  0.168820  1.0  -0.6604
  O  O1139  1  0.790800  0.463290  0.657730  1.0  -0.5927
  O  O1140  1  0.742810  0.431310  0.668820  1.0  -0.6604
  O  O1141  1  0.290800  0.963290  0.657730  1.0  -0.5927
  O  O1142  1  0.242810  0.931310  0.668820  1.0  -0.6604
  O  O1143  1  0.290800  0.463290  0.157730  1.0  -0.5927
  O  O1144  1  0.242810  0.431310  0.168820  1.0  -0.6604
  O  O1145  1  0.209200  0.963290  0.842270  1.0  -0.5922
  O  O1146  1  0.257190  0.931310  0.831180  1.0  -0.6615
  O  O1147  1  0.209200  0.463290  0.342270  1.0  -0.5922
  O  O1148  1  0.257190  0.431310  0.331180  1.0  -0.6615
  O  O1149  1  0.709200  0.963290  0.342270  1.0  -0.5922
  O  O1150  1  0.757190  0.931310  0.331180  1.0  -0.6615
  O  O1151  1  0.709200  0.463290  0.842270  1.0  -0.5922
  O  O1152  1  0.757190  0.431310  0.831180  1.0  -0.6615
  O  O1153  1  0.209200  0.036710  0.157730  1.0  -0.5913
  O  O1154  1  0.257190  0.068690  0.168820  1.0  -0.6593
  O  O1155  1  0.209200  0.536710  0.657730  1.0  -0.5913
  O  O1156  1  0.257190  0.568690  0.668820  1.0  -0.6593
  O  O1157  1  0.709200  0.036710  0.657730  1.0  -0.5913
  O  O1158  1  0.757190  0.068690  0.668820  1.0  -0.6593
  O  O1159  1  0.709200  0.536710  0.157730  1.0  -0.5913
  O  O1160  1  0.757190  0.568690  0.168820  1.0  -0.6593
  O  O1161  1  0.790800  0.036710  0.842270  1.0  -0.5928
  O  O1162  1  0.742810  0.068690  0.831180  1.0  -0.6595
  O  O1163  1  0.790800  0.536710  0.342270  1.0  -0.5928
  O  O1164  1  0.742810  0.568690  0.331180  1.0  -0.6595
  O  O1165  1  0.290800  0.036710  0.342270  1.0  -0.5928
  O  O1166  1  0.242810  0.068690  0.331180  1.0  -0.6595
  O  O1167  1  0.290800  0.536710  0.842270  1.0  -0.5928
  O  O1168  1  0.242810  0.568690  0.831180  1.0  -0.6595
  O  O1169  1  0.963290  0.842270  0.209200  1.0  -0.5899
  O  O1170  1  0.931310  0.831180  0.257190  1.0  -0.6574
  O  O1171  1  0.963290  0.342270  0.709200  1.0  -0.5899
  O  O1172  1  0.931310  0.331180  0.757190  1.0  -0.6574
  O  O1173  1  0.463290  0.842270  0.709200  1.0  -0.5899
  O  O1174  1  0.431310  0.831180  0.757190  1.0  -0.6574
  O  O1175  1  0.463290  0.342270  0.209200  1.0  -0.5899
  O  O1176  1  0.431310  0.331180  0.257190  1.0  -0.6574
  O  O1177  1  0.963290  0.157730  0.790800  1.0  -0.5887
  O  O1178  1  0.931310  0.168820  0.742810  1.0  -0.6549
  O  O1179  1  0.963290  0.657730  0.290800  1.0  -0.5887
  O  O1180  1  0.931310  0.668820  0.242810  1.0  -0.6549
  O  O1181  1  0.463290  0.157730  0.290800  1.0  -0.5887
  O  O1182  1  0.431310  0.168820  0.242810  1.0  -0.6549
  O  O1183  1  0.463290  0.657730  0.790800  1.0  -0.5887
  O  O1184  1  0.431310  0.668820  0.742810  1.0  -0.6549
  O  O1185  1  0.036710  0.842270  0.790800  1.0  -0.59
  O  O1186  1  0.068690  0.831180  0.742810  1.0  -0.6526
  O  O1187  1  0.036710  0.342270  0.290800  1.0  -0.59
  O  O1188  1  0.068690  0.331180  0.242810  1.0  -0.6526
  O  O1189  1  0.536710  0.842270  0.290800  1.0  -0.59
  O  O1190  1  0.568690  0.831180  0.242810  1.0  -0.6526
  O  O1191  1  0.536710  0.342270  0.790800  1.0  -0.59
  O  O1192  1  0.568690  0.331180  0.742810  1.0  -0.6526
  O  O1193  1  0.036710  0.157730  0.209200  1.0  -0.5899
  O  O1194  1  0.068690  0.168820  0.257190  1.0  -0.6538
  O  O1195  1  0.036710  0.657730  0.709200  1.0  -0.5899
  O  O1196  1  0.068690  0.668820  0.757190  1.0  -0.6538
  O  O1197  1  0.536710  0.157730  0.709200  1.0  -0.5899
  O  O1198  1  0.568690  0.168820  0.757190  1.0  -0.6538
  O  O1199  1  0.536710  0.657730  0.209200  1.0  -0.5899
  O  O1200  1  0.568690  0.668820  0.257190  1.0  -0.6538
  O  O1201  1  0.226500  0.226500  0.048600  1.0  -0.9668
  O  O1202  1  0.226500  0.726500  0.548600  1.0  -0.9668
  O  O1203  1  0.726500  0.226500  0.548600  1.0  -0.9668
  O  O1204  1  0.726500  0.726500  0.048600  1.0  -0.9668
  O  O1205  1  0.773500  0.773500  0.048600  1.0  -0.9664
  O  O1206  1  0.773500  0.273500  0.548600  1.0  -0.9664
  O  O1207  1  0.273500  0.773500  0.548600  1.0  -0.9664
  O  O1208  1  0.273500  0.273500  0.048600  1.0  -0.9664
  O  O1209  1  0.773500  0.226500  0.951400  1.0  -0.9674
  O  O1210  1  0.773500  0.726500  0.451400  1.0  -0.9674
  O  O1211  1  0.273500  0.226500  0.451400  1.0  -0.9674
  O  O1212  1  0.273500  0.726500  0.951400  1.0  -0.9674
  O  O1213  1  0.226500  0.773500  0.951400  1.0  -0.9677
  O  O1214  1  0.226500  0.273500  0.451400  1.0  -0.9677
  O  O1215  1  0.726500  0.773500  0.451400  1.0  -0.9677
  O  O1216  1  0.726500  0.273500  0.951400  1.0  -0.9677
  O  O1217  1  0.048600  0.226500  0.226500  1.0  -0.9655
  O  O1218  1  0.048600  0.726500  0.726500  1.0  -0.9655
  O  O1219  1  0.548600  0.226500  0.726500  1.0  -0.9655
  O  O1220  1  0.548600  0.726500  0.226500  1.0  -0.9655
  O  O1221  1  0.048600  0.773500  0.773500  1.0  -0.9652
  O  O1222  1  0.048600  0.273500  0.273500  1.0  -0.9652
  O  O1223  1  0.548600  0.773500  0.273500  1.0  -0.9652
  O  O1224  1  0.548600  0.273500  0.773500  1.0  -0.9652
  O  O1225  1  0.951400  0.773500  0.226500  1.0  -0.9677
  O  O1226  1  0.951400  0.273500  0.726500  1.0  -0.9677
  O  O1227  1  0.451400  0.773500  0.726500  1.0  -0.9677
  O  O1228  1  0.451400  0.273500  0.226500  1.0  -0.9677
  O  O1229  1  0.951400  0.226500  0.773500  1.0  -0.9674
  O  O1230  1  0.951400  0.726500  0.273500  1.0  -0.9674
  O  O1231  1  0.451400  0.226500  0.273500  1.0  -0.9674
  O  O1232  1  0.451400  0.726500  0.773500  1.0  -0.9674
  O  O1233  1  0.226500  0.048600  0.226500  1.0  -0.967
  O  O1234  1  0.226500  0.548600  0.726500  1.0  -0.967
  O  O1235  1  0.726500  0.048600  0.726500  1.0  -0.967
  O  O1236  1  0.726500  0.548600  0.226500  1.0  -0.967
  O  O1237  1  0.773500  0.048600  0.773500  1.0  -0.9666
  O  O1238  1  0.773500  0.548600  0.273500  1.0  -0.9666
  O  O1239  1  0.273500  0.048600  0.273500  1.0  -0.9666
  O  O1240  1  0.273500  0.548600  0.773500  1.0  -0.9666
  O  O1241  1  0.226500  0.951400  0.773500  1.0  -0.9638
  O  O1242  1  0.226500  0.451400  0.273500  1.0  -0.9638
  O  O1243  1  0.726500  0.951400  0.273500  1.0  -0.9638
  O  O1244  1  0.726500  0.451400  0.773500  1.0  -0.9638
  O  O1245  1  0.773500  0.951400  0.226500  1.0  -0.9639
  O  O1246  1  0.773500  0.451400  0.726500  1.0  -0.9639
  O  O1247  1  0.273500  0.951400  0.726500  1.0  -0.9639
  O  O1248  1  0.273500  0.451400  0.226500  1.0  -0.9639
  O  O1249  1  0.226500  0.226500  0.951400  1.0  -0.9677
  O  O1250  1  0.226500  0.726500  0.451400  1.0  -0.9677
  O  O1251  1  0.726500  0.226500  0.451400  1.0  -0.9677
  O  O1252  1  0.726500  0.726500  0.951400  1.0  -0.9677
  O  O1253  1  0.773500  0.773500  0.951400  1.0  -0.9674
  O  O1254  1  0.773500  0.273500  0.451400  1.0  -0.9674
  O  O1255  1  0.273500  0.773500  0.451400  1.0  -0.9674
  O  O1256  1  0.273500  0.273500  0.951400  1.0  -0.9674
  O  O1257  1  0.226500  0.773500  0.048600  1.0  -0.9667
  O  O1258  1  0.226500  0.273500  0.548600  1.0  -0.9667
  O  O1259  1  0.726500  0.773500  0.548600  1.0  -0.9667
  O  O1260  1  0.726500  0.273500  0.048600  1.0  -0.9667
  O  O1261  1  0.773500  0.226500  0.048600  1.0  -0.9665
  O  O1262  1  0.773500  0.726500  0.548600  1.0  -0.9665
  O  O1263  1  0.273500  0.226500  0.548600  1.0  -0.9665
  O  O1264  1  0.273500  0.726500  0.048600  1.0  -0.9665
  O  O1265  1  0.226500  0.048600  0.773500  1.0  -0.9665
  O  O1266  1  0.226500  0.548600  0.273500  1.0  -0.9665
  O  O1267  1  0.726500  0.048600  0.273500  1.0  -0.9665
  O  O1268  1  0.726500  0.548600  0.773500  1.0  -0.9665
  O  O1269  1  0.773500  0.048600  0.226500  1.0  -0.967
  O  O1270  1  0.773500  0.548600  0.726500  1.0  -0.967
  O  O1271  1  0.273500  0.048600  0.726500  1.0  -0.967
  O  O1272  1  0.273500  0.548600  0.226500  1.0  -0.967
  O  O1273  1  0.773500  0.951400  0.773500  1.0  -0.9635
  O  O1274  1  0.773500  0.451400  0.273500  1.0  -0.9635
  O  O1275  1  0.273500  0.951400  0.273500  1.0  -0.9635
  O  O1276  1  0.273500  0.451400  0.773500  1.0  -0.9635
  O  O1277  1  0.226500  0.951400  0.226500  1.0  -0.9642
  O  O1278  1  0.226500  0.451400  0.726500  1.0  -0.9642
  O  O1279  1  0.726500  0.951400  0.726500  1.0  -0.9642
  O  O1280  1  0.726500  0.451400  0.226500  1.0  -0.9642
  O  O1281  1  0.048600  0.226500  0.773500  1.0  -0.9652
  O  O1282  1  0.048600  0.726500  0.273500  1.0  -0.9652
  O  O1283  1  0.548600  0.226500  0.273500  1.0  -0.9652
  O  O1284  1  0.548600  0.726500  0.773500  1.0  -0.9652
  O  O1285  1  0.048600  0.773500  0.226500  1.0  -0.9656
  O  O1286  1  0.048600  0.273500  0.726500  1.0  -0.9656
  O  O1287  1  0.548600  0.773500  0.726500  1.0  -0.9656
  O  O1288  1  0.548600  0.273500  0.226500  1.0  -0.9656
  O  O1289  1  0.951400  0.226500  0.226500  1.0  -0.9677
  O  O1290  1  0.951400  0.726500  0.726500  1.0  -0.9677
  O  O1291  1  0.451400  0.226500  0.726500  1.0  -0.9677
  O  O1292  1  0.451400  0.726500  0.226500  1.0  -0.9677
  O  O1293  1  0.951400  0.773500  0.773500  1.0  -0.9675
  O  O1294  1  0.951400  0.273500  0.273500  1.0  -0.9675
  O  O1295  1  0.451400  0.773500  0.273500  1.0  -0.9675
  O  O1296  1  0.451400  0.273500  0.773500  1.0  -0.9675
  O  O1297  1  0.241900  0.302000  0.000000  1.0  -0.9147
  O  O1298  1  0.241900  0.802000  0.500000  1.0  -0.9147
  O  O1299  1  0.741900  0.302000  0.500000  1.0  -0.9147
  O  O1300  1  0.741900  0.802000  0.000000  1.0  -0.9147
  O  O1301  1  0.758100  0.698000  0.000000  1.0  -0.9121
  O  O1302  1  0.758100  0.198000  0.500000  1.0  -0.9121
  O  O1303  1  0.258100  0.698000  0.500000  1.0  -0.9121
  O  O1304  1  0.258100  0.198000  0.000000  1.0  -0.9121
  O  O1305  1  0.758100  0.302000  0.000000  1.0  -0.9138
  O  O1306  1  0.758100  0.802000  0.500000  1.0  -0.9138
  O  O1307  1  0.258100  0.302000  0.500000  1.0  -0.9138
  O  O1308  1  0.258100  0.802000  0.000000  1.0  -0.9138
  O  O1309  1  0.241900  0.698000  0.000000  1.0  -0.9127
  O  O1310  1  0.241900  0.198000  0.500000  1.0  -0.9127
  O  O1311  1  0.741900  0.698000  0.500000  1.0  -0.9127
  O  O1312  1  0.741900  0.198000  0.000000  1.0  -0.9127
  O  O1313  1  0.000000  0.241900  0.302000  1.0  -0.912
  O  O1314  1  0.000000  0.741900  0.802000  1.0  -0.912
  O  O1315  1  0.500000  0.241900  0.802000  1.0  -0.912
  O  O1316  1  0.500000  0.741900  0.302000  1.0  -0.912
  O  O1317  1  0.000000  0.758100  0.698000  1.0  -0.9151
  O  O1318  1  0.000000  0.258100  0.198000  1.0  -0.9151
  O  O1319  1  0.500000  0.758100  0.198000  1.0  -0.9151
  O  O1320  1  0.500000  0.258100  0.698000  1.0  -0.9151
  O  O1321  1  0.000000  0.758100  0.302000  1.0  -0.9141
  O  O1322  1  0.000000  0.258100  0.802000  1.0  -0.9141
  O  O1323  1  0.500000  0.758100  0.802000  1.0  -0.9141
  O  O1324  1  0.500000  0.258100  0.302000  1.0  -0.9141
  O  O1325  1  0.000000  0.241900  0.698000  1.0  -0.9133
  O  O1326  1  0.000000  0.741900  0.198000  1.0  -0.9133
  O  O1327  1  0.500000  0.241900  0.198000  1.0  -0.9133
  O  O1328  1  0.500000  0.741900  0.698000  1.0  -0.9133
  O  O1329  1  0.302000  0.000000  0.241900  1.0  -0.9132
  O  O1330  1  0.302000  0.500000  0.741900  1.0  -0.9132
  O  O1331  1  0.802000  0.000000  0.741900  1.0  -0.9132
  O  O1332  1  0.802000  0.500000  0.241900  1.0  -0.9132
  O  O1333  1  0.698000  0.000000  0.758100  1.0  -0.9126
  O  O1334  1  0.698000  0.500000  0.258100  1.0  -0.9126
  O  O1335  1  0.198000  0.000000  0.258100  1.0  -0.9126
  O  O1336  1  0.198000  0.500000  0.758100  1.0  -0.9126
  O  O1337  1  0.302000  0.000000  0.758100  1.0  -0.912
  O  O1338  1  0.302000  0.500000  0.258100  1.0  -0.912
  O  O1339  1  0.802000  0.000000  0.258100  1.0  -0.912
  O  O1340  1  0.802000  0.500000  0.758100  1.0  -0.912
  O  O1341  1  0.698000  0.000000  0.241900  1.0  -0.9136
  O  O1342  1  0.698000  0.500000  0.741900  1.0  -0.9136
  O  O1343  1  0.198000  0.000000  0.741900  1.0  -0.9136
  O  O1344  1  0.198000  0.500000  0.241900  1.0  -0.9136
  O  O1345  1  0.302000  0.241900  0.000000  1.0  -0.9135
  O  O1346  1  0.302000  0.741900  0.500000  1.0  -0.9135
  O  O1347  1  0.802000  0.241900  0.500000  1.0  -0.9135
  O  O1348  1  0.802000  0.741900  0.000000  1.0  -0.9135
  O  O1349  1  0.698000  0.758100  0.000000  1.0  -0.9156
  O  O1350  1  0.698000  0.258100  0.500000  1.0  -0.9156
  O  O1351  1  0.198000  0.758100  0.500000  1.0  -0.9156
  O  O1352  1  0.198000  0.258100  0.000000  1.0  -0.9156
  O  O1353  1  0.302000  0.758100  0.000000  1.0  -0.9149
  O  O1354  1  0.302000  0.258100  0.500000  1.0  -0.9149
  O  O1355  1  0.802000  0.758100  0.500000  1.0  -0.9149
  O  O1356  1  0.802000  0.258100  0.000000  1.0  -0.9149
  O  O1357  1  0.698000  0.241900  0.000000  1.0  -0.9135
  O  O1358  1  0.698000  0.741900  0.500000  1.0  -0.9135
  O  O1359  1  0.198000  0.241900  0.500000  1.0  -0.9135
  O  O1360  1  0.198000  0.741900  0.000000  1.0  -0.9135
  O  O1361  1  0.241900  0.000000  0.698000  1.0  -0.9144
  O  O1362  1  0.241900  0.500000  0.198000  1.0  -0.9144
  O  O1363  1  0.741900  0.000000  0.198000  1.0  -0.9144
  O  O1364  1  0.741900  0.500000  0.698000  1.0  -0.9144
  O  O1365  1  0.758100  0.000000  0.302000  1.0  -0.912
  O  O1366  1  0.758100  0.500000  0.802000  1.0  -0.912
  O  O1367  1  0.258100  0.000000  0.802000  1.0  -0.912
  O  O1368  1  0.258100  0.500000  0.302000  1.0  -0.912
  O  O1369  1  0.758100  0.000000  0.698000  1.0  -0.9135
  O  O1370  1  0.758100  0.500000  0.198000  1.0  -0.9135
  O  O1371  1  0.258100  0.000000  0.198000  1.0  -0.9135
  O  O1372  1  0.258100  0.500000  0.698000  1.0  -0.9135
  O  O1373  1  0.241900  0.000000  0.302000  1.0  -0.9125
  O  O1374  1  0.241900  0.500000  0.802000  1.0  -0.9125
  O  O1375  1  0.741900  0.000000  0.802000  1.0  -0.9125
  O  O1376  1  0.741900  0.500000  0.302000  1.0  -0.9125
  O  O1377  1  0.000000  0.302000  0.758100  1.0  -0.9133
  O  O1378  1  0.000000  0.802000  0.258100  1.0  -0.9133
  O  O1379  1  0.500000  0.302000  0.258100  1.0  -0.9133
  O  O1380  1  0.500000  0.802000  0.758100  1.0  -0.9133
  O  O1381  1  0.000000  0.698000  0.241900  1.0  -0.9118
  O  O1382  1  0.000000  0.198000  0.741900  1.0  -0.9118
  O  O1383  1  0.500000  0.698000  0.741900  1.0  -0.9118
  O  O1384  1  0.500000  0.198000  0.241900  1.0  -0.9118
  O  O1385  1  0.000000  0.302000  0.241900  1.0  -0.9137
  O  O1386  1  0.000000  0.802000  0.741900  1.0  -0.9137
  O  O1387  1  0.500000  0.302000  0.741900  1.0  -0.9137
  O  O1388  1  0.500000  0.802000  0.241900  1.0  -0.9137
  O  O1389  1  0.000000  0.698000  0.758100  1.0  -0.911
  O  O1390  1  0.000000  0.198000  0.258100  1.0  -0.911
  O  O1391  1  0.500000  0.698000  0.258100  1.0  -0.911
  O  O1392  1  0.500000  0.198000  0.758100  1.0  -0.911
