# generated using pymatgen
data_Ce3C9O10
_symmetry_space_group_name_H-M   'P 1'
_cell_length_a   36.45140000
_cell_length_b   36.45140000
_cell_length_c   36.45140000
_cell_angle_alpha   90.00000000
_cell_angle_beta   90.00000000
_cell_angle_gamma   90.00000000
_symmetry_Int_Tables_number   1
_chemical_formula_structural   Ce3C9O10
_chemical_formula_sum   'Ce96 C288 O320'
_cell_volume   48433.14146983
_cell_formula_units_Z   32
loop_
 _symmetry_equiv_pos_site_id
 _symmetry_equiv_pos_as_xyz
  1  'x, y, z'
loop_
 _atom_site_type_symbol
 _atom_site_label
 _atom_site_symmetry_multiplicity
 _atom_site_fract_x
 _atom_site_fract_y
 _atom_site_fract_z
 _atom_site_occupancy
 _atom_site_charge
  Ce  Ce1  1  0.799700  0.226700  0.450300  1.0  2.0347
  Ce  Ce2  1  0.799700  0.726700  0.950300  1.0  2.0347
  Ce  Ce3  1  0.950300  0.023300  0.950300  1.0  2.0318
  Ce  Ce4  1  0.950300  0.523300  0.450300  1.0  2.0318
  Ce  Ce5  1  0.450300  0.023300  0.450300  1.0  2.0318
  Ce  Ce6  1  0.450300  0.523300  0.950300  1.0  2.0318
  Ce  Ce7  1  0.450300  0.726700  0.299700  1.0  2.0335
  Ce  Ce8  1  0.950300  0.726700  0.799700  1.0  2.0335
  Ce  Ce9  1  0.299700  0.523300  0.799700  1.0  2.0333
  Ce  Ce10  1  0.299700  0.023300  0.299700  1.0  2.0333
  Ce  Ce11  1  0.450300  0.799700  0.226700  1.0  2.0125
  Ce  Ce12  1  0.950300  0.799700  0.726700  1.0  2.0125
  Ce  Ce13  1  0.950300  0.950300  0.023300  1.0  2.0016
  Ce  Ce14  1  0.950300  0.450300  0.523300  1.0  2.0016
  Ce  Ce15  1  0.450300  0.950300  0.523300  1.0  2.0016
  Ce  Ce16  1  0.450300  0.450300  0.023300  1.0  2.0016
  Ce  Ce17  1  0.299700  0.450300  0.726700  1.0  2.0135
  Ce  Ce18  1  0.299700  0.950300  0.226700  1.0  2.0135
  Ce  Ce19  1  0.799700  0.299700  0.523300  1.0  2.0022
  Ce  Ce20  1  0.799700  0.799700  0.023300  1.0  2.0022
  Ce  Ce21  1  0.226700  0.450300  0.799700  1.0  2.0374
  Ce  Ce22  1  0.226700  0.950300  0.299700  1.0  2.0374
  Ce  Ce23  1  0.023300  0.950300  0.950300  1.0  2.0361
  Ce  Ce24  1  0.023300  0.450300  0.450300  1.0  2.0361
  Ce  Ce25  1  0.523300  0.950300  0.450300  1.0  2.0361
  Ce  Ce26  1  0.523300  0.450300  0.950300  1.0  2.0361
  Ce  Ce27  1  0.726700  0.299700  0.450300  1.0  2.0372
  Ce  Ce28  1  0.726700  0.799700  0.950300  1.0  2.0372
  Ce  Ce29  1  0.523300  0.799700  0.299700  1.0  2.0361
  Ce  Ce30  1  0.023300  0.799700  0.799700  1.0  2.0361
  Ce  Ce31  1  0.976700  0.049700  0.049700  1.0  2.0373
  Ce  Ce32  1  0.976700  0.549700  0.549700  1.0  2.0373
  Ce  Ce33  1  0.476700  0.049700  0.549700  1.0  2.0373
  Ce  Ce34  1  0.476700  0.549700  0.049700  1.0  2.0373
  Ce  Ce35  1  0.773300  0.200300  0.549700  1.0  2.036
  Ce  Ce36  1  0.773300  0.700300  0.049700  1.0  2.036
  Ce  Ce37  1  0.476700  0.700300  0.200300  1.0  2.0373
  Ce  Ce38  1  0.976700  0.700300  0.700300  1.0  2.0373
  Ce  Ce39  1  0.273300  0.549700  0.700300  1.0  2.0361
  Ce  Ce40  1  0.273300  0.049700  0.200300  1.0  2.0361
  Ce  Ce41  1  0.549700  0.700300  0.273300  1.0  2.0025
  Ce  Ce42  1  0.049700  0.700300  0.773300  1.0  2.0025
  Ce  Ce43  1  0.700300  0.200300  0.476700  1.0  2.0127
  Ce  Ce44  1  0.700300  0.700300  0.976700  1.0  2.0127
  Ce  Ce45  1  0.200300  0.549700  0.773300  1.0  2.0013
  Ce  Ce46  1  0.200300  0.049700  0.273300  1.0  2.0013
  Ce  Ce47  1  0.049700  0.049700  0.976700  1.0  2.0133
  Ce  Ce48  1  0.049700  0.549700  0.476700  1.0  2.0133
  Ce  Ce49  1  0.549700  0.049700  0.476700  1.0  2.0133
  Ce  Ce50  1  0.549700  0.549700  0.976700  1.0  2.0133
  Ce  Ce51  1  0.200300  0.476700  0.700300  1.0  2.0333
  Ce  Ce52  1  0.200300  0.976700  0.200300  1.0  2.0333
  Ce  Ce53  1  0.700300  0.273300  0.549700  1.0  2.032
  Ce  Ce54  1  0.700300  0.773300  0.049700  1.0  2.032
  Ce  Ce55  1  0.049700  0.976700  0.049700  1.0  2.0346
  Ce  Ce56  1  0.049700  0.476700  0.549700  1.0  2.0346
  Ce  Ce57  1  0.549700  0.976700  0.549700  1.0  2.0346
  Ce  Ce58  1  0.549700  0.476700  0.049700  1.0  2.0346
  Ce  Ce59  1  0.549700  0.773300  0.200300  1.0  2.0333
  Ce  Ce60  1  0.049700  0.773300  0.700300  1.0  2.0333
  Ce  Ce61  1  0.200300  0.773300  0.549700  1.0  2.032
  Ce  Ce62  1  0.200300  0.273300  0.049700  1.0  2.032
  Ce  Ce63  1  0.549700  0.273300  0.700300  1.0  2.0333
  Ce  Ce64  1  0.049700  0.273300  0.200300  1.0  2.0333
  Ce  Ce65  1  0.700300  0.476700  0.200300  1.0  2.0333
  Ce  Ce66  1  0.700300  0.976700  0.700300  1.0  2.0333
  Ce  Ce67  1  0.549700  0.200300  0.773300  1.0  2.0025
  Ce  Ce68  1  0.049700  0.200300  0.273300  1.0  2.0025
  Ce  Ce69  1  0.700300  0.549700  0.273300  1.0  2.0013
  Ce  Ce70  1  0.700300  0.049700  0.773300  1.0  2.0013
  Ce  Ce71  1  0.200300  0.700300  0.476700  1.0  2.0127
  Ce  Ce72  1  0.200300  0.200300  0.976700  1.0  2.0127
  Ce  Ce73  1  0.773300  0.549700  0.200300  1.0  2.0361
  Ce  Ce74  1  0.773300  0.049700  0.700300  1.0  2.0361
  Ce  Ce75  1  0.273300  0.700300  0.549700  1.0  2.036
  Ce  Ce76  1  0.273300  0.200300  0.049700  1.0  2.036
  Ce  Ce77  1  0.476700  0.200300  0.700300  1.0  2.0373
  Ce  Ce78  1  0.976700  0.200300  0.200300  1.0  2.0373
  Ce  Ce79  1  0.226700  0.799700  0.450300  1.0  2.0372
  Ce  Ce80  1  0.226700  0.299700  0.950300  1.0  2.0372
  Ce  Ce81  1  0.523300  0.299700  0.799700  1.0  2.0361
  Ce  Ce82  1  0.023300  0.299700  0.299700  1.0  2.0361
  Ce  Ce83  1  0.726700  0.450300  0.299700  1.0  2.0374
  Ce  Ce84  1  0.726700  0.950300  0.799700  1.0  2.0374
  Ce  Ce85  1  0.450300  0.299700  0.726700  1.0  2.0125
  Ce  Ce86  1  0.950300  0.299700  0.226700  1.0  2.0125
  Ce  Ce87  1  0.299700  0.799700  0.523300  1.0  2.0022
  Ce  Ce88  1  0.299700  0.299700  0.023300  1.0  2.0022
  Ce  Ce89  1  0.799700  0.450300  0.226700  1.0  2.0135
  Ce  Ce90  1  0.799700  0.950300  0.726700  1.0  2.0135
  Ce  Ce91  1  0.799700  0.523300  0.299700  1.0  2.0333
  Ce  Ce92  1  0.799700  0.023300  0.799700  1.0  2.0333
  Ce  Ce93  1  0.299700  0.726700  0.450300  1.0  2.0347
  Ce  Ce94  1  0.299700  0.226700  0.950300  1.0  2.0347
  Ce  Ce95  1  0.450300  0.226700  0.799700  1.0  2.0335
  Ce  Ce96  1  0.950300  0.226700  0.299700  1.0  2.0335
  C  C97  1  0.783070  0.283070  0.376780  1.0  0.5599
  C  C98  1  0.803130  0.303130  0.349380  1.0  0.0387
  C  C99  1  0.783070  0.783070  0.876780  1.0  0.5599
  C  C100  1  0.803130  0.803130  0.849380  1.0  0.0387
  C  C101  1  0.966930  0.966930  0.876780  1.0  0.5576
  C  C102  1  0.946870  0.946870  0.849380  1.0  0.0385
  C  C103  1  0.966930  0.466930  0.376780  1.0  0.558
  C  C104  1  0.946870  0.446870  0.349380  1.0  0.0385
  C  C105  1  0.466930  0.966930  0.376780  1.0  0.558
  C  C106  1  0.446870  0.946870  0.349380  1.0  0.0385
  C  C107  1  0.466930  0.466930  0.876780  1.0  0.5612
  C  C108  1  0.446870  0.446870  0.849380  1.0  0.0385
  C  C109  1  0.466930  0.783070  0.373220  1.0  0.5595
  C  C110  1  0.446870  0.803130  0.400620  1.0  0.0372
  C  C111  1  0.966930  0.783070  0.873220  1.0  0.5554
  C  C112  1  0.946870  0.803130  0.900620  1.0  0.0372
  C  C113  1  0.283070  0.466930  0.873220  1.0  0.5587
  C  C114  1  0.303130  0.446870  0.900620  1.0  0.0381
  C  C115  1  0.283070  0.966930  0.373220  1.0  0.555
  C  C116  1  0.303130  0.946870  0.400620  1.0  0.0381
  C  C117  1  0.376780  0.783070  0.283070  1.0  0.556
  C  C118  1  0.349380  0.803130  0.303130  1.0  0.037
  C  C119  1  0.876780  0.783070  0.783070  1.0  0.556
  C  C120  1  0.849380  0.803130  0.803130  1.0  0.037
  C  C121  1  0.876780  0.966930  0.966930  1.0  0.5523
  C  C122  1  0.849380  0.946870  0.946870  1.0  0.0373
  C  C123  1  0.876780  0.466930  0.466930  1.0  0.5566
  C  C124  1  0.849380  0.446870  0.446870  1.0  0.0376
  C  C125  1  0.376780  0.966930  0.466930  1.0  0.5526
  C  C126  1  0.349380  0.946870  0.446870  1.0  0.0373
  C  C127  1  0.376780  0.466930  0.966930  1.0  0.5526
  C  C128  1  0.349380  0.446870  0.946870  1.0  0.0376
  C  C129  1  0.373220  0.466930  0.783070  1.0  0.5576
  C  C130  1  0.400620  0.446870  0.803130  1.0  0.0377
  C  C131  1  0.373220  0.966930  0.283070  1.0  0.5541
  C  C132  1  0.400620  0.946870  0.303130  1.0  0.0377
  C  C133  1  0.873220  0.283070  0.466930  1.0  0.5586
  C  C134  1  0.900620  0.303130  0.446870  1.0  0.0374
  C  C135  1  0.873220  0.783070  0.966930  1.0  0.554
  C  C136  1  0.900620  0.803130  0.946870  1.0  0.0371
  C  C137  1  0.283070  0.376780  0.783070  1.0  0.5583
  C  C138  1  0.303130  0.349380  0.803130  1.0  0.0376
  C  C139  1  0.283070  0.876780  0.283070  1.0  0.5583
  C  C140  1  0.303130  0.849380  0.303130  1.0  0.0376
  C  C141  1  0.783070  0.876780  0.783070  1.0  0.5583
  C  C142  1  0.803130  0.849380  0.803130  1.0  0.0376
  C  C143  1  0.966930  0.876780  0.966930  1.0  0.5579
  C  C144  1  0.946870  0.849380  0.946870  1.0  0.0377
  C  C145  1  0.966930  0.376780  0.466930  1.0  0.5579
  C  C146  1  0.946870  0.349380  0.446870  1.0  0.0374
  C  C147  1  0.466930  0.876780  0.466930  1.0  0.561
  C  C148  1  0.446870  0.849380  0.446870  1.0  0.0374
  C  C149  1  0.466930  0.376780  0.966930  1.0  0.5579
  C  C150  1  0.446870  0.349380  0.946870  1.0  0.0374
  C  C151  1  0.783070  0.373220  0.466930  1.0  0.5587
  C  C152  1  0.803130  0.400620  0.446870  1.0  0.0384
  C  C153  1  0.783070  0.873220  0.966930  1.0  0.5547
  C  C154  1  0.803130  0.900620  0.946870  1.0  0.0387
  C  C155  1  0.466930  0.873220  0.283070  1.0  0.5592
  C  C156  1  0.446870  0.900620  0.303130  1.0  0.0381
  C  C157  1  0.966930  0.873220  0.783070  1.0  0.5563
  C  C158  1  0.946870  0.900620  0.803130  1.0  0.0378
  C  C159  1  0.033070  0.033070  0.123220  1.0  0.5536
  C  C160  1  0.053130  0.053130  0.150620  1.0  0.0374
  C  C161  1  0.033070  0.533070  0.623220  1.0  0.5544
  C  C162  1  0.053130  0.553130  0.650620  1.0  0.0374
  C  C163  1  0.533070  0.033070  0.623220  1.0  0.5544
  C  C164  1  0.553130  0.053130  0.650620  1.0  0.0374
  C  C165  1  0.533070  0.533070  0.123220  1.0  0.5585
  C  C166  1  0.553130  0.553130  0.150620  1.0  0.0374
  C  C167  1  0.716930  0.216930  0.623220  1.0  0.5595
  C  C168  1  0.696870  0.196870  0.650620  1.0  0.0379
  C  C169  1  0.716930  0.716930  0.123220  1.0  0.5595
  C  C170  1  0.696870  0.696870  0.150620  1.0  0.0379
  C  C171  1  0.533070  0.716930  0.126780  1.0  0.56
  C  C172  1  0.553130  0.696870  0.099380  1.0  0.0392
  C  C173  1  0.033070  0.716930  0.626780  1.0  0.5562
  C  C174  1  0.053130  0.696870  0.599380  1.0  0.0392
  C  C175  1  0.216930  0.533070  0.626780  1.0  0.5613
  C  C176  1  0.196870  0.553130  0.599380  1.0  0.0379
  C  C177  1  0.216930  0.033070  0.126780  1.0  0.557
  C  C178  1  0.196870  0.053130  0.099380  1.0  0.0379
  C  C179  1  0.533070  0.626780  0.216930  1.0  0.5598
  C  C180  1  0.553130  0.599380  0.196870  1.0  0.0375
  C  C181  1  0.033070  0.626780  0.716930  1.0  0.5562
  C  C182  1  0.053130  0.599380  0.696870  1.0  0.0378
  C  C183  1  0.716930  0.126780  0.533070  1.0  0.5591
  C  C184  1  0.696870  0.099380  0.553130  1.0  0.0369
  C  C185  1  0.716930  0.626780  0.033070  1.0  0.5564
  C  C186  1  0.696870  0.599380  0.053130  1.0  0.0372
  C  C187  1  0.216930  0.623220  0.716930  1.0  0.5599
  C  C188  1  0.196870  0.650620  0.696870  1.0  0.0387
  C  C189  1  0.216930  0.123220  0.216930  1.0  0.5599
  C  C190  1  0.196870  0.150620  0.196870  1.0  0.0387
  C  C191  1  0.716930  0.123220  0.716930  1.0  0.5599
  C  C192  1  0.696870  0.150620  0.696870  1.0  0.0387
  C  C193  1  0.033070  0.123220  0.033070  1.0  0.5545
  C  C194  1  0.053130  0.150620  0.053130  1.0  0.0386
  C  C195  1  0.033070  0.623220  0.533070  1.0  0.5547
  C  C196  1  0.053130  0.650620  0.553130  1.0  0.0383
  C  C197  1  0.533070  0.123220  0.533070  1.0  0.5583
  C  C198  1  0.553130  0.150620  0.553130  1.0  0.0386
  C  C199  1  0.533070  0.623220  0.033070  1.0  0.5547
  C  C200  1  0.553130  0.650620  0.053130  1.0  0.0386
  C  C201  1  0.126780  0.533070  0.716930  1.0  0.5575
  C  C202  1  0.099380  0.553130  0.696870  1.0  0.0368
  C  C203  1  0.126780  0.033070  0.216930  1.0  0.5527
  C  C204  1  0.099380  0.053130  0.196870  1.0  0.0368
  C  C205  1  0.626780  0.216930  0.533070  1.0  0.557
  C  C206  1  0.599380  0.196870  0.553130  1.0  0.0374
  C  C207  1  0.626780  0.716930  0.033070  1.0  0.5537
  C  C208  1  0.599380  0.696870  0.053130  1.0  0.0374
  C  C209  1  0.123220  0.033070  0.033070  1.0  0.5521
  C  C210  1  0.150620  0.053130  0.053130  1.0  0.0372
  C  C211  1  0.123220  0.533070  0.533070  1.0  0.5564
  C  C212  1  0.150620  0.553130  0.553130  1.0  0.0369
  C  C213  1  0.623220  0.033070  0.533070  1.0  0.5525
  C  C214  1  0.650620  0.053130  0.553130  1.0  0.0372
  C  C215  1  0.623220  0.533070  0.033070  1.0  0.5525
  C  C216  1  0.650620  0.553130  0.053130  1.0  0.0369
  C  C217  1  0.623220  0.716930  0.216930  1.0  0.5576
  C  C218  1  0.650620  0.696870  0.196870  1.0  0.0378
  C  C219  1  0.123220  0.716930  0.716930  1.0  0.5576
  C  C220  1  0.150620  0.696870  0.696870  1.0  0.0378
  C  C221  1  0.216930  0.716930  0.623220  1.0  0.5595
  C  C222  1  0.196870  0.696870  0.650620  1.0  0.0379
  C  C223  1  0.216930  0.216930  0.123220  1.0  0.5595
  C  C224  1  0.196870  0.196870  0.150620  1.0  0.0379
  C  C225  1  0.533070  0.216930  0.626780  1.0  0.56
  C  C226  1  0.553130  0.196870  0.599380  1.0  0.0392
  C  C227  1  0.033070  0.216930  0.126780  1.0  0.5558
  C  C228  1  0.053130  0.196870  0.099380  1.0  0.0392
  C  C229  1  0.716930  0.533070  0.126780  1.0  0.5613
  C  C230  1  0.696870  0.553130  0.099380  1.0  0.0379
  C  C231  1  0.716930  0.033070  0.626780  1.0  0.5575
  C  C232  1  0.696870  0.053130  0.599380  1.0  0.0379
  C  C233  1  0.623220  0.216930  0.716930  1.0  0.5576
  C  C234  1  0.650620  0.196870  0.696870  1.0  0.0378
  C  C235  1  0.123220  0.216930  0.216930  1.0  0.5576
  C  C236  1  0.150620  0.196870  0.196870  1.0  0.0378
  C  C237  1  0.626780  0.533070  0.216930  1.0  0.5575
  C  C238  1  0.599380  0.553130  0.196870  1.0  0.0371
  C  C239  1  0.626780  0.033070  0.716930  1.0  0.553
  C  C240  1  0.599380  0.053130  0.696870  1.0  0.0371
  C  C241  1  0.126780  0.716930  0.533070  1.0  0.557
  C  C242  1  0.099380  0.696870  0.553130  1.0  0.0377
  C  C243  1  0.126780  0.216930  0.033070  1.0  0.5538
  C  C244  1  0.099380  0.196870  0.053130  1.0  0.0374
  C  C245  1  0.716930  0.623220  0.216930  1.0  0.5599
  C  C246  1  0.696870  0.650620  0.196870  1.0  0.0387
  C  C247  1  0.216930  0.626780  0.533070  1.0  0.5591
  C  C248  1  0.196870  0.599380  0.553130  1.0  0.0372
  C  C249  1  0.216930  0.126780  0.033070  1.0  0.5568
  C  C250  1  0.196870  0.099380  0.053130  1.0  0.0369
  C  C251  1  0.533070  0.126780  0.716930  1.0  0.5598
  C  C252  1  0.553130  0.099380  0.696870  1.0  0.0375
  C  C253  1  0.033070  0.126780  0.216930  1.0  0.5562
  C  C254  1  0.053130  0.099380  0.196870  1.0  0.0378
  C  C255  1  0.283070  0.783070  0.376780  1.0  0.5599
  C  C256  1  0.303130  0.803130  0.349380  1.0  0.0387
  C  C257  1  0.283070  0.283070  0.876780  1.0  0.5599
  C  C258  1  0.303130  0.303130  0.849380  1.0  0.0387
  C  C259  1  0.466930  0.283070  0.873220  1.0  0.5595
  C  C260  1  0.446870  0.303130  0.900620  1.0  0.0372
  C  C261  1  0.966930  0.283070  0.373220  1.0  0.5553
  C  C262  1  0.946870  0.303130  0.400620  1.0  0.0372
  C  C263  1  0.783070  0.466930  0.373220  1.0  0.5587
  C  C264  1  0.803130  0.446870  0.400620  1.0  0.0381
  C  C265  1  0.783070  0.966930  0.873220  1.0  0.5551
  C  C266  1  0.803130  0.946870  0.900620  1.0  0.0381
  C  C267  1  0.466930  0.373220  0.783070  1.0  0.5592
  C  C268  1  0.446870  0.400620  0.803130  1.0  0.0381
  C  C269  1  0.966930  0.373220  0.283070  1.0  0.556
  C  C270  1  0.946870  0.400620  0.303130  1.0  0.0378
  C  C271  1  0.283070  0.873220  0.466930  1.0  0.5587
  C  C272  1  0.303130  0.900620  0.446870  1.0  0.0387
  C  C273  1  0.283070  0.373220  0.966930  1.0  0.5546
  C  C274  1  0.303130  0.400620  0.946870  1.0  0.0384
  C  C275  1  0.783070  0.376780  0.283070  1.0  0.5583
  C  C276  1  0.803130  0.349380  0.303130  1.0  0.0376
  C  C277  1  0.873220  0.466930  0.283070  1.0  0.5576
  C  C278  1  0.900620  0.446870  0.303130  1.0  0.038
  C  C279  1  0.873220  0.966930  0.783070  1.0  0.5543
  C  C280  1  0.900620  0.946870  0.803130  1.0  0.038
  C  C281  1  0.373220  0.783070  0.466930  1.0  0.5586
  C  C282  1  0.400620  0.803130  0.446870  1.0  0.0374
  C  C283  1  0.373220  0.283070  0.966930  1.0  0.5543
  C  C284  1  0.400620  0.303130  0.946870  1.0  0.0374
  C  C285  1  0.376780  0.283070  0.783070  1.0  0.556
  C  C286  1  0.349380  0.303130  0.803130  1.0  0.037
  C  C287  1  0.876780  0.283070  0.283070  1.0  0.556
  C  C288  1  0.849380  0.303130  0.303130  1.0  0.037
  C  C289  1  0.787820  0.333450  0.333450  1.0  -0.0025
  C  C290  1  0.787820  0.833450  0.833450  1.0  -0.0025
  C  C291  1  0.287820  0.333450  0.833450  1.0  -0.0025
  C  C292  1  0.287820  0.833450  0.333450  1.0  -0.0025
  C  C293  1  0.962180  0.916550  0.833450  1.0  0.0075
  C  C294  1  0.962180  0.416550  0.333450  1.0  0.0075
  C  C295  1  0.462180  0.833450  0.416550  1.0  -0.0068
  C  C296  1  0.462180  0.333450  0.916550  1.0  -0.0046
  C  C297  1  0.962180  0.333450  0.416550  1.0  0.0073
  C  C298  1  0.287820  0.416550  0.916550  1.0  -0.0004
  C  C299  1  0.787820  0.416550  0.416550  1.0  -0.0023
  C  C300  1  0.333450  0.787820  0.333450  1.0  -0.0041
  C  C301  1  0.333450  0.287820  0.833450  1.0  -0.0041
  C  C302  1  0.833450  0.787820  0.833450  1.0  -0.0041
  C  C303  1  0.833450  0.287820  0.333450  1.0  -0.0041
  C  C304  1  0.833450  0.962180  0.916550  1.0  0.0121
  C  C305  1  0.333450  0.962180  0.416550  1.0  0.0121
  C  C306  1  0.416550  0.462180  0.833450  1.0  -0.0031
  C  C307  1  0.416550  0.962180  0.333450  1.0  0.0106
  C  C308  1  0.916550  0.287820  0.416550  1.0  -0.0036
  C  C309  1  0.916550  0.787820  0.916550  1.0  0.0072
  C  C310  1  0.416550  0.787820  0.416550  1.0  -0.0058
  C  C311  1  0.333450  0.333450  0.787820  1.0  -0.004
  C  C312  1  0.333450  0.833450  0.287820  1.0  -0.004
  C  C313  1  0.833450  0.333450  0.287820  1.0  -0.004
  C  C314  1  0.833450  0.833450  0.787820  1.0  -0.004
  C  C315  1  0.916550  0.833450  0.962180  1.0  0.0107
  C  C316  1  0.916550  0.333450  0.462180  1.0  -0.0014
  C  C317  1  0.416550  0.333450  0.962180  1.0  0.0107
  C  C318  1  0.833450  0.416550  0.462180  1.0  -0.002
  C  C319  1  0.333450  0.416550  0.962180  1.0  0.0119
  C  C320  1  0.416550  0.916550  0.287820  1.0  -0.0022
  C  C321  1  0.416550  0.416550  0.787820  1.0  -0.0042
  C  C322  1  0.083450  0.037820  0.166550  1.0  0.009
  C  C323  1  0.083450  0.537820  0.666550  1.0  -0.0022
  C  C324  1  0.666550  0.212180  0.666550  1.0  -0.0035
  C  C325  1  0.666550  0.712180  0.166550  1.0  -0.0035
  C  C326  1  0.166550  0.212180  0.166550  1.0  -0.0035
  C  C327  1  0.166550  0.712180  0.666550  1.0  -0.0035
  C  C328  1  0.583450  0.712180  0.083450  1.0  0.0016
  C  C329  1  0.583450  0.212180  0.583450  1.0  -0.0012
  C  C330  1  0.083450  0.212180  0.083450  1.0  0.0128
  C  C331  1  0.166550  0.537820  0.583450  1.0  -0.0054
  C  C332  1  0.666550  0.537820  0.083450  1.0  -0.0035
  C  C333  1  0.537820  0.583450  0.166550  1.0  -0.0028
  C  C334  1  0.537820  0.083450  0.666550  1.0  -0.0005
  C  C335  1  0.712180  0.083450  0.583450  1.0  -0.0028
  C  C336  1  0.212180  0.083450  0.083450  1.0  0.0082
  C  C337  1  0.212180  0.666550  0.666550  1.0  -0.0064
  C  C338  1  0.212180  0.166550  0.166550  1.0  -0.0064
  C  C339  1  0.712180  0.666550  0.166550  1.0  -0.0064
  C  C340  1  0.712180  0.166550  0.666550  1.0  -0.0064
  C  C341  1  0.037820  0.166550  0.083450  1.0  0.0108
  C  C342  1  0.037820  0.666550  0.583450  1.0  0.0108
  C  C343  1  0.537820  0.666550  0.083450  1.0  0.0009
  C  C344  1  0.083450  0.583450  0.712180  1.0  0.0003
  C  C345  1  0.083450  0.083450  0.212180  1.0  0.0124
  C  C346  1  0.583450  0.166550  0.537820  1.0  -0.0035
  C  C347  1  0.583450  0.666550  0.037820  1.0  0.0105
  C  C348  1  0.083450  0.666550  0.537820  1.0  -0.0013
  C  C349  1  0.166550  0.083450  0.037820  1.0  0.0095
  C  C350  1  0.666550  0.083450  0.537820  1.0  -0.0031
  C  C351  1  0.666550  0.666550  0.212180  1.0  -0.003
  C  C352  1  0.666550  0.166550  0.712180  1.0  -0.003
  C  C353  1  0.166550  0.666550  0.712180  1.0  -0.003
  C  C354  1  0.166550  0.166550  0.212180  1.0  -0.003
  C  C355  1  0.037820  0.083450  0.166550  1.0  0.0106
  C  C356  1  0.037820  0.583450  0.666550  1.0  0.0106
  C  C357  1  0.537820  0.166550  0.583450  1.0  -0.0015
  C  C358  1  0.712180  0.583450  0.083450  1.0  -0.0028
  C  C359  1  0.212180  0.583450  0.583450  1.0  -0.0053
  C  C360  1  0.166550  0.037820  0.083450  1.0  0.0074
  C  C361  1  0.666550  0.037820  0.583450  1.0  0.0074
  C  C362  1  0.583450  0.537820  0.166550  1.0  -0.0045
  C  C363  1  0.583450  0.037820  0.666550  1.0  0.009
  C  C364  1  0.083450  0.712180  0.583450  1.0  0.0016
  C  C365  1  0.083450  0.166550  0.037820  1.0  0.0105
  C  C366  1  0.166550  0.583450  0.537820  1.0  -0.0051
  C  C367  1  0.666550  0.583450  0.037820  1.0  0.0095
  C  C368  1  0.583450  0.083450  0.712180  1.0  0.0003
  C  C369  1  0.583450  0.583450  0.212180  1.0  -0.0022
  C  C370  1  0.916550  0.962180  0.833450  1.0  0.0106
  C  C371  1  0.916550  0.462180  0.333450  1.0  -0.0005
  C  C372  1  0.416550  0.287820  0.916550  1.0  -0.0036
  C  C373  1  0.833450  0.462180  0.416550  1.0  -0.0019
  C  C374  1  0.333450  0.462180  0.916550  1.0  0.0004
  C  C375  1  0.462180  0.416550  0.833450  1.0  -0.0052
  C  C376  1  0.462180  0.916550  0.333450  1.0  -0.0028
  C  C377  1  0.287820  0.916550  0.416550  1.0  -0.0004
  C  C378  1  0.787820  0.916550  0.916550  1.0  0.0103
  C  C379  1  0.962180  0.833450  0.916550  1.0  0.0073
  C  C380  1  0.916550  0.416550  0.287820  1.0  -0.0022
  C  C381  1  0.916550  0.916550  0.787820  1.0  0.0094
  C  C382  1  0.416550  0.833450  0.462180  1.0  -0.0038
  C  C383  1  0.833450  0.916550  0.962180  1.0  0.0119
  C  C384  1  0.333450  0.916550  0.462180  1.0  0.0003
  O  O385  1  0.799590  0.256340  0.390180  1.0  -0.7332
  O  O386  1  0.799590  0.756340  0.890180  1.0  -0.7332
  O  O387  1  0.299590  0.256340  0.890180  1.0  -0.7332
  O  O388  1  0.299590  0.756340  0.390180  1.0  -0.7332
  O  O389  1  0.950410  0.993660  0.890180  1.0  -0.738
  O  O390  1  0.950410  0.493660  0.390180  1.0  -0.7416
  O  O391  1  0.450410  0.993660  0.390180  1.0  -0.7352
  O  O392  1  0.450410  0.493660  0.890180  1.0  -0.735
  O  O393  1  0.450410  0.756340  0.359820  1.0  -0.7335
  O  O394  1  0.450410  0.256340  0.859820  1.0  -0.7335
  O  O395  1  0.950410  0.756340  0.859820  1.0  -0.7409
  O  O396  1  0.950410  0.256340  0.359820  1.0  -0.7403
  O  O397  1  0.299590  0.493660  0.859820  1.0  -0.7337
  O  O398  1  0.299590  0.993660  0.359820  1.0  -0.7341
  O  O399  1  0.799590  0.493660  0.359820  1.0  -0.7337
  O  O400  1  0.799590  0.993660  0.859820  1.0  -0.7341
  O  O401  1  0.390180  0.799590  0.256340  1.0  -0.7336
  O  O402  1  0.390180  0.299590  0.756340  1.0  -0.7336
  O  O403  1  0.890180  0.799590  0.756340  1.0  -0.7336
  O  O404  1  0.890180  0.299590  0.256340  1.0  -0.7336
  O  O405  1  0.890180  0.950410  0.993660  1.0  -0.7354
  O  O406  1  0.890180  0.450410  0.493660  1.0  -0.7312
  O  O407  1  0.390180  0.950410  0.493660  1.0  -0.7396
  O  O408  1  0.390180  0.450410  0.993660  1.0  -0.7328
  O  O409  1  0.359820  0.450410  0.756340  1.0  -0.7333
  O  O410  1  0.359820  0.950410  0.256340  1.0  -0.7402
  O  O411  1  0.859820  0.450410  0.256340  1.0  -0.7333
  O  O412  1  0.859820  0.950410  0.756340  1.0  -0.7404
  O  O413  1  0.859820  0.299590  0.493660  1.0  -0.7315
  O  O414  1  0.859820  0.799590  0.993660  1.0  -0.7329
  O  O415  1  0.359820  0.299590  0.993660  1.0  -0.7329
  O  O416  1  0.359820  0.799590  0.493660  1.0  -0.7315
  O  O417  1  0.256340  0.390180  0.799590  1.0  -0.735
  O  O418  1  0.256340  0.890180  0.299590  1.0  -0.735
  O  O419  1  0.756340  0.390180  0.299590  1.0  -0.735
  O  O420  1  0.756340  0.890180  0.799590  1.0  -0.735
  O  O421  1  0.993660  0.890180  0.950410  1.0  -0.7404
  O  O422  1  0.993660  0.390180  0.450410  1.0  -0.7374
  O  O423  1  0.493660  0.890180  0.450410  1.0  -0.7366
  O  O424  1  0.493660  0.390180  0.950410  1.0  -0.7436
  O  O425  1  0.756340  0.359820  0.450410  1.0  -0.7349
  O  O426  1  0.756340  0.859820  0.950410  1.0  -0.7429
  O  O427  1  0.256340  0.359820  0.950410  1.0  -0.7426
  O  O428  1  0.256340  0.859820  0.450410  1.0  -0.7349
  O  O429  1  0.493660  0.859820  0.299590  1.0  -0.7359
  O  O430  1  0.493660  0.359820  0.799590  1.0  -0.7359
  O  O431  1  0.993660  0.859820  0.799590  1.0  -0.7369
  O  O432  1  0.993660  0.359820  0.299590  1.0  -0.7369
  O  O433  1  0.006340  0.049590  0.109820  1.0  -0.7399
  O  O434  1  0.006340  0.549590  0.609820  1.0  -0.7376
  O  O435  1  0.506340  0.049590  0.609820  1.0  -0.7436
  O  O436  1  0.506340  0.549590  0.109820  1.0  -0.7359
  O  O437  1  0.743660  0.200410  0.609820  1.0  -0.7372
  O  O438  1  0.743660  0.700410  0.109820  1.0  -0.7372
  O  O439  1  0.243660  0.200410  0.109820  1.0  -0.7372
  O  O440  1  0.243660  0.700410  0.609820  1.0  -0.7372
  O  O441  1  0.506340  0.700410  0.140180  1.0  -0.7366
  O  O442  1  0.506340  0.200410  0.640180  1.0  -0.7366
  O  O443  1  0.006340  0.700410  0.640180  1.0  -0.7382
  O  O444  1  0.006340  0.200410  0.140180  1.0  -0.7382
  O  O445  1  0.243660  0.549590  0.640180  1.0  -0.7381
  O  O446  1  0.243660  0.049590  0.140180  1.0  -0.7451
  O  O447  1  0.743660  0.549590  0.140180  1.0  -0.7381
  O  O448  1  0.743660  0.049590  0.640180  1.0  -0.7452
  O  O449  1  0.549590  0.640180  0.243660  1.0  -0.7274
  O  O450  1  0.549590  0.140180  0.743660  1.0  -0.7274
  O  O451  1  0.049590  0.640180  0.743660  1.0  -0.7359
  O  O452  1  0.049590  0.140180  0.243660  1.0  -0.7363
  O  O453  1  0.700410  0.140180  0.506340  1.0  -0.7303
  O  O454  1  0.700410  0.640180  0.006340  1.0  -0.7315
  O  O455  1  0.200410  0.140180  0.006340  1.0  -0.7315
  O  O456  1  0.200410  0.640180  0.506340  1.0  -0.7303
  O  O457  1  0.200410  0.609820  0.743660  1.0  -0.7291
  O  O458  1  0.200410  0.109820  0.243660  1.0  -0.7291
  O  O459  1  0.700410  0.609820  0.243660  1.0  -0.7291
  O  O460  1  0.700410  0.109820  0.743660  1.0  -0.7291
  O  O461  1  0.049590  0.109820  0.006340  1.0  -0.733
  O  O462  1  0.049590  0.609820  0.506340  1.0  -0.7362
  O  O463  1  0.549590  0.109820  0.506340  1.0  -0.7288
  O  O464  1  0.549590  0.609820  0.006340  1.0  -0.7301
  O  O465  1  0.140180  0.506340  0.700410  1.0  -0.7369
  O  O466  1  0.140180  0.006340  0.200410  1.0  -0.7381
  O  O467  1  0.640180  0.506340  0.200410  1.0  -0.7369
  O  O468  1  0.640180  0.006340  0.700410  1.0  -0.7381
  O  O469  1  0.640180  0.243660  0.549590  1.0  -0.7376
  O  O470  1  0.640180  0.743660  0.049590  1.0  -0.7442
  O  O471  1  0.140180  0.243660  0.049590  1.0  -0.7438
  O  O472  1  0.140180  0.743660  0.549590  1.0  -0.7376
  O  O473  1  0.109820  0.006340  0.049590  1.0  -0.739
  O  O474  1  0.109820  0.506340  0.549590  1.0  -0.7354
  O  O475  1  0.609820  0.006340  0.549590  1.0  -0.7365
  O  O476  1  0.609820  0.506340  0.049590  1.0  -0.7419
  O  O477  1  0.609820  0.743660  0.200410  1.0  -0.7373
  O  O478  1  0.609820  0.243660  0.700410  1.0  -0.7373
  O  O479  1  0.109820  0.743660  0.700410  1.0  -0.7373
  O  O480  1  0.109820  0.243660  0.200410  1.0  -0.7373
  O  O481  1  0.200410  0.743660  0.609820  1.0  -0.734
  O  O482  1  0.200410  0.243660  0.109820  1.0  -0.734
  O  O483  1  0.700410  0.743660  0.109820  1.0  -0.734
  O  O484  1  0.700410  0.243660  0.609820  1.0  -0.734
  O  O485  1  0.049590  0.006340  0.109820  1.0  -0.7368
  O  O486  1  0.049590  0.506340  0.609820  1.0  -0.7391
  O  O487  1  0.549590  0.006340  0.609820  1.0  -0.734
  O  O488  1  0.549590  0.506340  0.109820  1.0  -0.7324
  O  O489  1  0.549590  0.243660  0.640180  1.0  -0.7344
  O  O490  1  0.549590  0.743660  0.140180  1.0  -0.7344
  O  O491  1  0.049590  0.243660  0.140180  1.0  -0.7407
  O  O492  1  0.049590  0.743660  0.640180  1.0  -0.741
  O  O493  1  0.700410  0.506340  0.140180  1.0  -0.7347
  O  O494  1  0.700410  0.006340  0.640180  1.0  -0.7362
  O  O495  1  0.200410  0.506340  0.640180  1.0  -0.7347
  O  O496  1  0.200410  0.006340  0.140180  1.0  -0.7362
  O  O497  1  0.609820  0.200410  0.743660  1.0  -0.7316
  O  O498  1  0.609820  0.700410  0.243660  1.0  -0.7316
  O  O499  1  0.109820  0.200410  0.243660  1.0  -0.7316
  O  O500  1  0.109820  0.700410  0.743660  1.0  -0.7316
  O  O501  1  0.109820  0.049590  0.006340  1.0  -0.7366
  O  O502  1  0.109820  0.549590  0.506340  1.0  -0.733
  O  O503  1  0.609820  0.049590  0.506340  1.0  -0.7399
  O  O504  1  0.609820  0.549590  0.006340  1.0  -0.7339
  O  O505  1  0.640180  0.549590  0.243660  1.0  -0.7316
  O  O506  1  0.640180  0.049590  0.743660  1.0  -0.7401
  O  O507  1  0.140180  0.549590  0.743660  1.0  -0.7316
  O  O508  1  0.140180  0.049590  0.243660  1.0  -0.7411
  O  O509  1  0.140180  0.700410  0.506340  1.0  -0.7337
  O  O510  1  0.140180  0.200410  0.006340  1.0  -0.735
  O  O511  1  0.640180  0.700410  0.006340  1.0  -0.735
  O  O512  1  0.640180  0.200410  0.506340  1.0  -0.7337
  O  O513  1  0.743660  0.609820  0.200410  1.0  -0.7357
  O  O514  1  0.743660  0.109820  0.700410  1.0  -0.7357
  O  O515  1  0.243660  0.609820  0.700410  1.0  -0.7357
  O  O516  1  0.243660  0.109820  0.200410  1.0  -0.7357
  O  O517  1  0.006340  0.109820  0.049590  1.0  -0.7392
  O  O518  1  0.006340  0.609820  0.549590  1.0  -0.7368
  O  O519  1  0.506340  0.109820  0.549590  1.0  -0.7353
  O  O520  1  0.506340  0.609820  0.049590  1.0  -0.7431
  O  O521  1  0.243660  0.640180  0.549590  1.0  -0.7364
  O  O522  1  0.243660  0.140180  0.049590  1.0  -0.7434
  O  O523  1  0.743660  0.640180  0.049590  1.0  -0.7434
  O  O524  1  0.743660  0.140180  0.549590  1.0  -0.7364
  O  O525  1  0.506340  0.140180  0.700410  1.0  -0.7351
  O  O526  1  0.506340  0.640180  0.200410  1.0  -0.7351
  O  O527  1  0.006340  0.140180  0.200410  1.0  -0.7362
  O  O528  1  0.006340  0.640180  0.700410  1.0  -0.7362
  O  O529  1  0.993660  0.950410  0.890180  1.0  -0.7415
  O  O530  1  0.993660  0.450410  0.390180  1.0  -0.739
  O  O531  1  0.493660  0.950410  0.390180  1.0  -0.745
  O  O532  1  0.493660  0.450410  0.890180  1.0  -0.7379
  O  O533  1  0.256340  0.799590  0.390180  1.0  -0.7366
  O  O534  1  0.256340  0.299590  0.890180  1.0  -0.7366
  O  O535  1  0.756340  0.799590  0.890180  1.0  -0.7366
  O  O536  1  0.756340  0.299590  0.390180  1.0  -0.7366
  O  O537  1  0.493660  0.299590  0.859820  1.0  -0.7371
  O  O538  1  0.493660  0.799590  0.359820  1.0  -0.7371
  O  O539  1  0.993660  0.299590  0.359820  1.0  -0.7385
  O  O540  1  0.993660  0.799590  0.859820  1.0  -0.7385
  O  O541  1  0.756340  0.450410  0.359820  1.0  -0.7361
  O  O542  1  0.756340  0.950410  0.859820  1.0  -0.7443
  O  O543  1  0.256340  0.450410  0.859820  1.0  -0.7361
  O  O544  1  0.256340  0.950410  0.359820  1.0  -0.7435
  O  O545  1  0.450410  0.359820  0.756340  1.0  -0.7298
  O  O546  1  0.450410  0.859820  0.256340  1.0  -0.7298
  O  O547  1  0.950410  0.359820  0.256340  1.0  -0.7373
  O  O548  1  0.950410  0.859820  0.756340  1.0  -0.7371
  O  O549  1  0.299590  0.859820  0.493660  1.0  -0.7283
  O  O550  1  0.299590  0.359820  0.993660  1.0  -0.7299
  O  O551  1  0.799590  0.859820  0.993660  1.0  -0.7299
  O  O552  1  0.799590  0.359820  0.493660  1.0  -0.7283
  O  O553  1  0.799590  0.390180  0.256340  1.0  -0.7293
  O  O554  1  0.799590  0.890180  0.756340  1.0  -0.7293
  O  O555  1  0.299590  0.390180  0.756340  1.0  -0.7293
  O  O556  1  0.299590  0.890180  0.256340  1.0  -0.7293
  O  O557  1  0.950410  0.890180  0.993660  1.0  -0.7326
  O  O558  1  0.950410  0.390180  0.493660  1.0  -0.737
  O  O559  1  0.450410  0.890180  0.493660  1.0  -0.7284
  O  O560  1  0.450410  0.390180  0.993660  1.0  -0.73
  O  O561  1  0.859820  0.493660  0.299590  1.0  -0.7369
  O  O562  1  0.859820  0.993660  0.799590  1.0  -0.7368
  O  O563  1  0.359820  0.493660  0.799590  1.0  -0.7369
  O  O564  1  0.359820  0.993660  0.299590  1.0  -0.7368
  O  O565  1  0.359820  0.756340  0.450410  1.0  -0.7363
  O  O566  1  0.359820  0.256340  0.950410  1.0  -0.7428
  O  O567  1  0.859820  0.756340  0.950410  1.0  -0.7434
  O  O568  1  0.859820  0.256340  0.450410  1.0  -0.7363
  O  O569  1  0.890180  0.993660  0.950410  1.0  -0.741
  O  O570  1  0.890180  0.493660  0.450410  1.0  -0.7381
  O  O571  1  0.390180  0.993660  0.450410  1.0  -0.738
  O  O572  1  0.390180  0.493660  0.950410  1.0  -0.7446
  O  O573  1  0.390180  0.256340  0.799590  1.0  -0.7358
  O  O574  1  0.390180  0.756340  0.299590  1.0  -0.7358
  O  O575  1  0.890180  0.256340  0.299590  1.0  -0.7358
  O  O576  1  0.890180  0.756340  0.799590  1.0  -0.7358
  O  O577  1  0.764300  0.180900  0.485700  1.0  -0.8248
  O  O578  1  0.764300  0.680900  0.985700  1.0  -0.8248
  O  O579  1  0.985700  0.069100  0.985700  1.0  -0.8244
  O  O580  1  0.985700  0.569100  0.485700  1.0  -0.8244
  O  O581  1  0.485700  0.069100  0.485700  1.0  -0.8244
  O  O582  1  0.485700  0.569100  0.985700  1.0  -0.8244
  O  O583  1  0.485700  0.680900  0.264300  1.0  -0.825
  O  O584  1  0.985700  0.680900  0.764300  1.0  -0.825
  O  O585  1  0.264300  0.569100  0.764300  1.0  -0.825
  O  O586  1  0.264300  0.069100  0.264300  1.0  -0.825
  O  O587  1  0.485700  0.764300  0.180900  1.0  -0.8246
  O  O588  1  0.985700  0.764300  0.680900  1.0  -0.8246
  O  O589  1  0.985700  0.985700  0.069100  1.0  -0.8257
  O  O590  1  0.985700  0.485700  0.569100  1.0  -0.8257
  O  O591  1  0.485700  0.985700  0.569100  1.0  -0.8257
  O  O592  1  0.485700  0.485700  0.069100  1.0  -0.8257
  O  O593  1  0.264300  0.485700  0.680900  1.0  -0.8247
  O  O594  1  0.264300  0.985700  0.180900  1.0  -0.8247
  O  O595  1  0.764300  0.264300  0.569100  1.0  -0.8263
  O  O596  1  0.764300  0.764300  0.069100  1.0  -0.8263
  O  O597  1  0.180900  0.485700  0.764300  1.0  -0.8256
  O  O598  1  0.180900  0.985700  0.264300  1.0  -0.8256
  O  O599  1  0.069100  0.985700  0.985700  1.0  -0.825
  O  O600  1  0.069100  0.485700  0.485700  1.0  -0.825
  O  O601  1  0.569100  0.985700  0.485700  1.0  -0.825
  O  O602  1  0.569100  0.485700  0.985700  1.0  -0.825
  O  O603  1  0.680900  0.264300  0.485700  1.0  -0.8258
  O  O604  1  0.680900  0.764300  0.985700  1.0  -0.8258
  O  O605  1  0.569100  0.764300  0.264300  1.0  -0.8257
  O  O606  1  0.069100  0.764300  0.764300  1.0  -0.8257
  O  O607  1  0.930900  0.014300  0.014300  1.0  -0.8262
  O  O608  1  0.930900  0.514300  0.514300  1.0  -0.8262
  O  O609  1  0.430900  0.014300  0.514300  1.0  -0.8262
  O  O610  1  0.430900  0.514300  0.014300  1.0  -0.8262
  O  O611  1  0.819100  0.235700  0.514300  1.0  -0.8248
  O  O612  1  0.819100  0.735700  0.014300  1.0  -0.8248
  O  O613  1  0.430900  0.735700  0.235700  1.0  -0.8255
  O  O614  1  0.930900  0.735700  0.735700  1.0  -0.8255
  O  O615  1  0.319100  0.514300  0.735700  1.0  -0.8257
  O  O616  1  0.319100  0.014300  0.235700  1.0  -0.8257
  O  O617  1  0.514300  0.735700  0.319100  1.0  -0.8258
  O  O618  1  0.014300  0.735700  0.819100  1.0  -0.8258
  O  O619  1  0.735700  0.235700  0.430900  1.0  -0.8246
  O  O620  1  0.735700  0.735700  0.930900  1.0  -0.8246
  O  O621  1  0.235700  0.514300  0.819100  1.0  -0.8259
  O  O622  1  0.235700  0.014300  0.319100  1.0  -0.8259
  O  O623  1  0.014300  0.014300  0.930900  1.0  -0.8255
  O  O624  1  0.014300  0.514300  0.430900  1.0  -0.8255
  O  O625  1  0.514300  0.014300  0.430900  1.0  -0.8255
  O  O626  1  0.514300  0.514300  0.930900  1.0  -0.8255
  O  O627  1  0.235700  0.430900  0.735700  1.0  -0.8246
  O  O628  1  0.235700  0.930900  0.235700  1.0  -0.8246
  O  O629  1  0.735700  0.319100  0.514300  1.0  -0.8247
  O  O630  1  0.735700  0.819100  0.014300  1.0  -0.8247
  O  O631  1  0.014300  0.930900  0.014300  1.0  -0.825
  O  O632  1  0.014300  0.430900  0.514300  1.0  -0.825
  O  O633  1  0.514300  0.930900  0.514300  1.0  -0.825
  O  O634  1  0.514300  0.430900  0.014300  1.0  -0.825
  O  O635  1  0.514300  0.819100  0.235700  1.0  -0.8252
  O  O636  1  0.014300  0.819100  0.735700  1.0  -0.8252
  O  O637  1  0.235700  0.819100  0.514300  1.0  -0.8247
  O  O638  1  0.235700  0.319100  0.014300  1.0  -0.8247
  O  O639  1  0.514300  0.319100  0.735700  1.0  -0.8252
  O  O640  1  0.014300  0.319100  0.235700  1.0  -0.8252
  O  O641  1  0.735700  0.430900  0.235700  1.0  -0.8246
  O  O642  1  0.735700  0.930900  0.735700  1.0  -0.8246
  O  O643  1  0.514300  0.235700  0.819100  1.0  -0.8258
  O  O644  1  0.014300  0.235700  0.319100  1.0  -0.8258
  O  O645  1  0.735700  0.514300  0.319100  1.0  -0.8259
  O  O646  1  0.735700  0.014300  0.819100  1.0  -0.8259
  O  O647  1  0.235700  0.735700  0.430900  1.0  -0.8246
  O  O648  1  0.235700  0.235700  0.930900  1.0  -0.8246
  O  O649  1  0.819100  0.514300  0.235700  1.0  -0.8257
  O  O650  1  0.819100  0.014300  0.735700  1.0  -0.8257
  O  O651  1  0.319100  0.735700  0.514300  1.0  -0.8248
  O  O652  1  0.319100  0.235700  0.014300  1.0  -0.8248
  O  O653  1  0.430900  0.235700  0.735700  1.0  -0.8255
  O  O654  1  0.930900  0.235700  0.235700  1.0  -0.8255
  O  O655  1  0.180900  0.764300  0.485700  1.0  -0.8258
  O  O656  1  0.180900  0.264300  0.985700  1.0  -0.8258
  O  O657  1  0.569100  0.264300  0.764300  1.0  -0.8257
  O  O658  1  0.069100  0.264300  0.264300  1.0  -0.8257
  O  O659  1  0.680900  0.485700  0.264300  1.0  -0.8256
  O  O660  1  0.680900  0.985700  0.764300  1.0  -0.8256
  O  O661  1  0.485700  0.264300  0.680900  1.0  -0.8246
  O  O662  1  0.985700  0.264300  0.180900  1.0  -0.8246
  O  O663  1  0.264300  0.764300  0.569100  1.0  -0.8263
  O  O664  1  0.264300  0.264300  0.069100  1.0  -0.8263
  O  O665  1  0.764300  0.485700  0.180900  1.0  -0.8247
  O  O666  1  0.764300  0.985700  0.680900  1.0  -0.8247
  O  O667  1  0.764300  0.569100  0.264300  1.0  -0.825
  O  O668  1  0.764300  0.069100  0.764300  1.0  -0.825
  O  O669  1  0.264300  0.680900  0.485700  1.0  -0.8248
  O  O670  1  0.264300  0.180900  0.985700  1.0  -0.8248
  O  O671  1  0.485700  0.180900  0.764300  1.0  -0.825
  O  O672  1  0.985700  0.180900  0.264300  1.0  -0.825
  O  O673  1  0.788650  0.288650  0.461350  1.0  -0.9738
  O  O674  1  0.788650  0.788650  0.961350  1.0  -0.9738
  O  O675  1  0.961350  0.961350  0.961350  1.0  -0.9748
  O  O676  1  0.961350  0.461350  0.461350  1.0  -0.9748
  O  O677  1  0.461350  0.961350  0.461350  1.0  -0.9748
  O  O678  1  0.461350  0.461350  0.961350  1.0  -0.9748
  O  O679  1  0.461350  0.788650  0.288650  1.0  -0.9741
  O  O680  1  0.961350  0.788650  0.788650  1.0  -0.9741
  O  O681  1  0.288650  0.461350  0.788650  1.0  -0.974
  O  O682  1  0.288650  0.961350  0.288650  1.0  -0.974
  O  O683  1  0.961350  0.288650  0.288650  1.0  -0.9741
  O  O684  1  0.788650  0.961350  0.788650  1.0  -0.974
  O  O685  1  0.288650  0.288650  0.961350  1.0  -0.9738
  O  O686  1  0.038650  0.038650  0.038650  1.0  -0.9738
  O  O687  1  0.038650  0.538650  0.538650  1.0  -0.9738
  O  O688  1  0.538650  0.038650  0.538650  1.0  -0.9738
  O  O689  1  0.538650  0.538650  0.038650  1.0  -0.9738
  O  O690  1  0.711350  0.211350  0.538650  1.0  -0.9743
  O  O691  1  0.711350  0.711350  0.038650  1.0  -0.9743
  O  O692  1  0.538650  0.711350  0.211350  1.0  -0.974
  O  O693  1  0.038650  0.711350  0.711350  1.0  -0.974
  O  O694  1  0.211350  0.538650  0.711350  1.0  -0.9746
  O  O695  1  0.211350  0.038650  0.211350  1.0  -0.9746
  O  O696  1  0.211350  0.711350  0.538650  1.0  -0.9743
  O  O697  1  0.211350  0.211350  0.038650  1.0  -0.9743
  O  O698  1  0.538650  0.211350  0.711350  1.0  -0.974
  O  O699  1  0.038650  0.211350  0.211350  1.0  -0.974
  O  O700  1  0.711350  0.538650  0.211350  1.0  -0.9746
  O  O701  1  0.711350  0.038650  0.711350  1.0  -0.9746
  O  O702  1  0.288650  0.788650  0.461350  1.0  -0.9738
  O  O703  1  0.461350  0.288650  0.788650  1.0  -0.9741
  O  O704  1  0.788650  0.461350  0.288650  1.0  -0.974
