# generated using pymatgen
data_Zn2H33C50NO7
_symmetry_space_group_name_H-M   'P 1'
_cell_length_a   41.04100000
_cell_length_b   10.12870000
_cell_length_c   40.38220000
_cell_angle_alpha   90.00000000
_cell_angle_beta   90.00000000
_cell_angle_gamma   90.00000000
_symmetry_Int_Tables_number   1
_chemical_formula_structural   Zn2H33C50NO7
_chemical_formula_sum   'Zn16 H264 C400 N8 O56'
_cell_volume   16786.55654149
_cell_formula_units_Z   8
loop_
 _symmetry_equiv_pos_site_id
 _symmetry_equiv_pos_as_xyz
  1  'x, y, z'
loop_
 _atom_site_type_symbol
 _atom_site_label
 _atom_site_symmetry_multiplicity
 _atom_site_fract_x
 _atom_site_fract_y
 _atom_site_fract_z
 _atom_site_occupancy
 _atom_site_charge
  Zn  Zn1  1  0.059300  0.072300  0.793310  1.0  1.0533
  Zn  Zn2  1  0.393540  0.296190  0.290060  1.0  0.851
  Zn  Zn3  1  0.464520  0.236070  0.267000  1.0  0.9367
  Zn  Zn4  1  0.933100  0.435520  0.334670  1.0  0.9983
  Zn  Zn5  1  0.940700  0.927700  0.293310  1.0  1.0536
  Zn  Zn6  1  0.606460  0.703810  0.790060  1.0  0.8502
  Zn  Zn7  1  0.535480  0.763930  0.767000  1.0  0.9351
  Zn  Zn8  1  0.066900  0.564480  0.834670  1.0  0.9984
  Zn  Zn9  1  0.559300  0.427700  0.793310  1.0  1.0527
  Zn  Zn10  1  0.893540  0.203810  0.290060  1.0  0.8508
  Zn  Zn11  1  0.964520  0.263930  0.267000  1.0  0.9326
  Zn  Zn12  1  0.433100  0.064480  0.334670  1.0  0.9985
  Zn  Zn13  1  0.440700  0.572300  0.293310  1.0  1.054
  Zn  Zn14  1  0.106460  0.796190  0.790060  1.0  0.8503
  Zn  Zn15  1  0.035480  0.736070  0.767000  1.0  0.9387
  Zn  Zn16  1  0.566900  0.935520  0.834670  1.0  0.9978
  H  H17  1  0.320900  0.654800  0.899300  1.0  0.1103
  H  H18  1  0.303700  0.450900  0.982600  1.0  0.1018
  H  H19  1  0.376700  0.711700  0.979600  1.0  0.1047
  H  H20  1  0.399400  0.573500  0.016600  1.0  0.109
  H  H21  1  0.414700  0.517200  0.069300  1.0  0.1097
  H  H22  1  0.321400  0.433100  0.090700  1.0  0.1233
  H  H23  1  0.307100  0.492800  0.037600  1.0  0.1098
  H  H24  1  0.428400  0.395800  0.111100  1.0  0.1094
  H  H25  1  0.444100  0.336900  0.164000  1.0  0.1134
  H  H26  1  0.351500  0.380600  0.193900  1.0  0.1017
  H  H27  1  0.336400  0.445200  0.141500  1.0  0.1175
  H  H28  1  0.250500  0.460400  0.960500  1.0  0.1084
  H  H29  1  0.205600  0.362800  0.932400  1.0  0.1256
  H  H30  1  0.260500  0.358300  0.848800  1.0  0.1248
  H  H31  1  0.301700  0.466700  0.876900  1.0  0.1109
  H  H32  1  0.230400  0.165200  0.839200  1.0  0.1095
  H  H33  1  0.188700  0.055300  0.812300  1.0  0.1067
  H  H34  1  0.122700  0.247900  0.867400  1.0  0.1127
  H  H35  1  0.163700  0.357000  0.895400  1.0  0.113
  H  H36  1  0.384000  0.915000  0.956600  1.0  0.1083
  H  H37  1  0.365200  0.721900  0.871700  1.0  0.1154
  H  H38  1  0.110500  0.695600  0.512300  1.0  0.1123
  H  H39  1  0.186000  0.441600  0.516400  1.0  0.1121
  H  H40  1  0.175400  0.680700  0.437900  1.0  0.1111
  H  H41  1  0.084800  0.835700  0.486700  1.0  0.1198
  H  H42  1  0.054100  0.979400  0.457200  1.0  0.1071
  H  H43  1  0.113100  0.938600  0.381000  1.0  0.1084
  H  H44  1  0.145100  0.792300  0.410100  1.0  0.121
  H  H45  1  0.044900  0.185700  0.433500  1.0  0.1124
  H  H46  1  0.010800  0.322000  0.403800  1.0  0.1144
  H  H47  1  0.031900  0.123700  0.320300  1.0  0.1036
  H  H48  1  0.067100  0.982300  0.349900  1.0  0.123
  H  H49  1  0.230300  0.668600  0.437400  1.0  0.1004
  H  H50  1  0.279100  0.589000  0.417300  1.0  0.0916
  H  H51  1  0.256900  0.228600  0.452000  1.0  0.1029
  H  H52  1  0.211500  0.309500  0.476100  1.0  0.1059
  H  H53  1  0.122000  0.690600  0.569500  1.0  0.073
  H  H54  1  0.103000  0.623500  0.620700  1.0  0.103
  H  H55  1  0.130600  0.254600  0.599200  1.0  0.0954
  H  H56  1  0.146100  0.318300  0.547900  1.0  0.1019
  H  H57  1  0.104900  0.565000  0.670900  1.0  0.091
  H  H58  1  0.088400  0.503900  0.723000  1.0  0.1188
  H  H59  1  0.083800  0.130500  0.692300  1.0  0.1007
  H  H60  1  0.097000  0.199000  0.639700  1.0  0.1029
  H  H61  1  0.287400  0.158100  0.408500  1.0  0.0982
  H  H62  1  0.333900  0.075900  0.385100  1.0  0.1012
  H  H63  1  0.372100  0.441500  0.385900  1.0  0.1059
  H  H64  1  0.328100  0.517800  0.412400  1.0  0.1042
  H  H65  1  0.490000  0.186100  0.198200  1.0  0.1063
  H  H66  1  0.508400  0.012300  0.165400  1.0  0.11
  H  H67  1  0.528300  0.819800  0.192800  1.0  0.1109
  H  H68  1  0.512900  0.781600  0.245600  1.0  0.1111
  H  H69  1  0.489600  0.951700  0.276100  1.0  0.0743
  H  H70  1  0.416600  0.061100  0.928600  1.0  0.1063
  H  H71  1  0.398600  0.866400  0.843500  1.0  0.1078
  H  H72  1  0.469700  0.089600  0.898300  1.0  0.1237
  H  H73  1  0.501400  0.226600  0.869900  1.0  0.1021
  H  H74  1  0.403400  0.097300  0.824800  1.0  0.122
  H  H75  1  0.437600  0.236600  0.795400  1.0  0.1056
  H  H76  1  0.369400  0.002900  0.291700  1.0  0.069
  H  H77  1  0.324800  0.331000  0.297600  1.0  0.0741
  H  H78  1  0.322300  0.884900  0.292100  1.0  0.1123
  H  H79  1  0.274000  0.217800  0.304000  1.0  0.1131
  H  H80  1  0.276800  0.987100  0.306800  1.0  0.1037
  H  H81  1  0.425710  0.015150  0.283970  1.0  0.3576
  H  H82  1  0.439920  0.380600  0.320210  1.0  0.2556
  H  H83  1  0.679100  0.345200  0.399300  1.0  0.1099
  H  H84  1  0.696300  0.549100  0.482600  1.0  0.1004
  H  H85  1  0.623300  0.288300  0.479600  1.0  0.1054
  H  H86  1  0.600600  0.426500  0.516600  1.0  0.1077
  H  H87  1  0.585300  0.482800  0.569300  1.0  0.1098
  H  H88  1  0.678600  0.566900  0.590700  1.0  0.1232
  H  H89  1  0.692900  0.507200  0.537600  1.0  0.11
  H  H90  1  0.571600  0.604200  0.611100  1.0  0.1095
  H  H91  1  0.555900  0.663100  0.664000  1.0  0.1128
  H  H92  1  0.648500  0.619400  0.693900  1.0  0.1013
  H  H93  1  0.663600  0.554800  0.641500  1.0  0.1184
  H  H94  1  0.749500  0.539600  0.460500  1.0  0.1074
  H  H95  1  0.794400  0.637200  0.432400  1.0  0.126
  H  H96  1  0.739500  0.641700  0.348800  1.0  0.1235
  H  H97  1  0.698300  0.533300  0.376900  1.0  0.1108
  H  H98  1  0.769600  0.834800  0.339200  1.0  0.1093
  H  H99  1  0.811300  0.944700  0.312300  1.0  0.1059
  H  H100  1  0.877300  0.752100  0.367400  1.0  0.1129
  H  H101  1  0.836300  0.643000  0.395400  1.0  0.113
  H  H102  1  0.616000  0.085000  0.456600  1.0  0.1088
  H  H103  1  0.634800  0.278100  0.371700  1.0  0.1163
  H  H104  1  0.889500  0.304400  0.012300  1.0  0.1126
  H  H105  1  0.814000  0.558400  0.016400  1.0  0.1125
  H  H106  1  0.824600  0.319300  0.937900  1.0  0.1115
  H  H107  1  0.915200  0.164300  0.986700  1.0  0.12
  H  H108  1  0.945900  0.020600  0.957200  1.0  0.1089
  H  H109  1  0.886900  0.061400  0.881000  1.0  0.1088
  H  H110  1  0.854900  0.207700  0.910100  1.0  0.1218
  H  H111  1  0.955100  0.814300  0.933500  1.0  0.1089
  H  H112  1  0.989200  0.678000  0.903800  1.0  0.1135
  H  H113  1  0.968100  0.876300  0.820300  1.0  0.1033
  H  H114  1  0.932900  0.017700  0.849900  1.0  0.1229
  H  H115  1  0.769700  0.331400  0.937400  1.0  0.1
  H  H116  1  0.720900  0.411000  0.917300  1.0  0.0919
  H  H117  1  0.743100  0.771400  0.952000  1.0  0.1024
  H  H118  1  0.788500  0.690500  0.976100  1.0  0.1056
  H  H119  1  0.878000  0.309400  0.069500  1.0  0.0734
  H  H120  1  0.897000  0.376500  0.120700  1.0  0.1036
  H  H121  1  0.869400  0.745400  0.099200  1.0  0.0952
  H  H122  1  0.853900  0.681700  0.047900  1.0  0.1022
  H  H123  1  0.895100  0.435000  0.170900  1.0  0.0915
  H  H124  1  0.911600  0.496100  0.223000  1.0  0.1188
  H  H125  1  0.916200  0.869500  0.192300  1.0  0.1002
  H  H126  1  0.903000  0.801000  0.139700  1.0  0.1031
  H  H127  1  0.712600  0.841900  0.908500  1.0  0.0979
  H  H128  1  0.666100  0.924100  0.885100  1.0  0.1009
  H  H129  1  0.627900  0.558500  0.885900  1.0  0.1061
  H  H130  1  0.671900  0.482200  0.912400  1.0  0.1049
  H  H131  1  0.510000  0.813900  0.698200  1.0  0.1065
  H  H132  1  0.491600  0.987700  0.665400  1.0  0.109
  H  H133  1  0.471700  0.180200  0.692800  1.0  0.1111
  H  H134  1  0.487100  0.218400  0.745600  1.0  0.1124
  H  H135  1  0.510400  0.048300  0.776100  1.0  0.0743
  H  H136  1  0.583400  0.938900  0.428600  1.0  0.1069
  H  H137  1  0.601400  0.133600  0.343500  1.0  0.1088
  H  H138  1  0.530300  0.910400  0.398300  1.0  0.1235
  H  H139  1  0.498600  0.773400  0.369900  1.0  0.1032
  H  H140  1  0.596600  0.902700  0.324800  1.0  0.1224
  H  H141  1  0.562400  0.763400  0.295400  1.0  0.1065
  H  H142  1  0.630600  0.997100  0.791700  1.0  0.0695
  H  H143  1  0.675200  0.669000  0.797600  1.0  0.0737
  H  H144  1  0.677700  0.115100  0.792100  1.0  0.1118
  H  H145  1  0.726000  0.782200  0.804000  1.0  0.1135
  H  H146  1  0.723200  0.012900  0.806800  1.0  0.1047
  H  H147  1  0.574290  0.984850  0.783970  1.0  0.3563
  H  H148  1  0.560080  0.619400  0.820210  1.0  0.2573
  H  H149  1  0.820900  0.845200  0.899300  1.0  0.1101
  H  H150  1  0.803700  0.049100  0.982600  1.0  0.1016
  H  H151  1  0.876700  0.788300  0.979600  1.0  0.1052
  H  H152  1  0.899400  0.926500  0.016600  1.0  0.1098
  H  H153  1  0.914700  0.982800  0.069300  1.0  0.1096
  H  H154  1  0.821400  0.066900  0.090700  1.0  0.1234
  H  H155  1  0.807100  0.007200  0.037600  1.0  0.1097
  H  H156  1  0.928400  0.104200  0.111100  1.0  0.1075
  H  H157  1  0.944100  0.163100  0.164000  1.0  0.1132
  H  H158  1  0.851500  0.119400  0.193900  1.0  0.1017
  H  H159  1  0.836400  0.054800  0.141500  1.0  0.1177
  H  H160  1  0.750500  0.039600  0.960500  1.0  0.109
  H  H161  1  0.705600  0.137200  0.932400  1.0  0.1255
  H  H162  1  0.760500  0.141700  0.848800  1.0  0.125
  H  H163  1  0.801700  0.033300  0.876900  1.0  0.1109
  H  H164  1  0.730400  0.334800  0.839200  1.0  0.1097
  H  H165  1  0.688700  0.444700  0.812300  1.0  0.1062
  H  H166  1  0.622700  0.252100  0.867400  1.0  0.1129
  H  H167  1  0.663700  0.143000  0.895400  1.0  0.1136
  H  H168  1  0.884000  0.585000  0.956600  1.0  0.1084
  H  H169  1  0.865200  0.778100  0.871700  1.0  0.1157
  H  H170  1  0.610500  0.804400  0.512300  1.0  0.1126
  H  H171  1  0.686000  0.058400  0.516400  1.0  0.1113
  H  H172  1  0.675400  0.819300  0.437900  1.0  0.1113
  H  H173  1  0.584800  0.664300  0.486700  1.0  0.1195
  H  H174  1  0.554100  0.520600  0.457200  1.0  0.1073
  H  H175  1  0.613100  0.561400  0.381000  1.0  0.1084
  H  H176  1  0.645100  0.707700  0.410100  1.0  0.1205
  H  H177  1  0.544900  0.314300  0.433500  1.0  0.1126
  H  H178  1  0.510800  0.178000  0.403800  1.0  0.114
  H  H179  1  0.531900  0.376300  0.320300  1.0  0.1038
  H  H180  1  0.567100  0.517700  0.349900  1.0  0.1231
  H  H181  1  0.730300  0.831400  0.437400  1.0  0.1001
  H  H182  1  0.779100  0.911000  0.417300  1.0  0.0919
  H  H183  1  0.756900  0.271400  0.452000  1.0  0.1031
  H  H184  1  0.711500  0.190500  0.476100  1.0  0.1056
  H  H185  1  0.622000  0.809400  0.569500  1.0  0.0735
  H  H186  1  0.603000  0.876500  0.620700  1.0  0.1029
  H  H187  1  0.630600  0.245400  0.599200  1.0  0.095
  H  H188  1  0.646100  0.181700  0.547900  1.0  0.1019
  H  H189  1  0.604900  0.935000  0.670900  1.0  0.092
  H  H190  1  0.588400  0.996100  0.723000  1.0  0.1187
  H  H191  1  0.583800  0.369500  0.692300  1.0  0.1001
  H  H192  1  0.597000  0.301000  0.639700  1.0  0.103
  H  H193  1  0.787400  0.341900  0.408500  1.0  0.0985
  H  H194  1  0.833900  0.424100  0.385100  1.0  0.1012
  H  H195  1  0.872100  0.058500  0.385900  1.0  0.106
  H  H196  1  0.828100  0.982200  0.412400  1.0  0.1049
  H  H197  1  0.990000  0.313900  0.198200  1.0  0.107
  H  H198  1  0.008400  0.487700  0.165400  1.0  0.1092
  H  H199  1  0.028300  0.680200  0.192800  1.0  0.1115
  H  H200  1  0.012900  0.718400  0.245600  1.0  0.1119
  H  H201  1  0.989600  0.548300  0.276100  1.0  0.0744
  H  H202  1  0.916600  0.438900  0.928600  1.0  0.1066
  H  H203  1  0.898600  0.633600  0.843500  1.0  0.108
  H  H204  1  0.969700  0.410400  0.898300  1.0  0.1236
  H  H205  1  0.001400  0.273400  0.869900  1.0  0.1022
  H  H206  1  0.903400  0.402700  0.824800  1.0  0.1222
  H  H207  1  0.937600  0.263400  0.795400  1.0  0.1054
  H  H208  1  0.869400  0.497100  0.291700  1.0  0.0696
  H  H209  1  0.824800  0.169000  0.297600  1.0  0.0735
  H  H210  1  0.822300  0.615100  0.292100  1.0  0.1117
  H  H211  1  0.774000  0.282200  0.304000  1.0  0.1129
  H  H212  1  0.776800  0.512900  0.306800  1.0  0.104
  H  H213  1  0.925710  0.484850  0.283970  1.0  0.3555
  H  H214  1  0.939920  0.119400  0.320210  1.0  0.2566
  H  H215  1  0.179100  0.154800  0.399300  1.0  0.1101
  H  H216  1  0.196300  0.950900  0.482600  1.0  0.1011
  H  H217  1  0.123300  0.211700  0.479600  1.0  0.1046
  H  H218  1  0.100600  0.073500  0.516600  1.0  0.1096
  H  H219  1  0.085300  0.017200  0.569300  1.0  0.1099
  H  H220  1  0.178600  0.933100  0.590700  1.0  0.1231
  H  H221  1  0.192900  0.992800  0.537600  1.0  0.1099
  H  H222  1  0.071600  0.895800  0.611100  1.0  0.1094
  H  H223  1  0.055900  0.836900  0.664000  1.0  0.1132
  H  H224  1  0.148500  0.880600  0.693900  1.0  0.1014
  H  H225  1  0.163600  0.945200  0.641500  1.0  0.1186
  H  H226  1  0.249500  0.960400  0.460500  1.0  0.1083
  H  H227  1  0.294400  0.862800  0.432400  1.0  0.1261
  H  H228  1  0.239500  0.858300  0.348800  1.0  0.1236
  H  H229  1  0.198300  0.966700  0.376900  1.0  0.111
  H  H230  1  0.269600  0.665200  0.339200  1.0  0.1094
  H  H231  1  0.311300  0.555300  0.312300  1.0  0.1049
  H  H232  1  0.377300  0.747900  0.367400  1.0  0.1128
  H  H233  1  0.336300  0.857000  0.395400  1.0  0.1129
  H  H234  1  0.116000  0.415000  0.456600  1.0  0.1087
  H  H235  1  0.134800  0.221900  0.371700  1.0  0.1165
  H  H236  1  0.389500  0.195600  0.012300  1.0  0.1126
  H  H237  1  0.314000  0.941600  0.016400  1.0  0.1132
  H  H238  1  0.324600  0.180700  0.937900  1.0  0.1114
  H  H239  1  0.415200  0.335700  0.986700  1.0  0.1191
  H  H240  1  0.445900  0.479400  0.957200  1.0  0.1078
  H  H241  1  0.386900  0.438600  0.881000  1.0  0.1087
  H  H242  1  0.354900  0.292300  0.910100  1.0  0.1205
  H  H243  1  0.455100  0.685700  0.933500  1.0  0.1091
  H  H244  1  0.489200  0.822000  0.903800  1.0  0.1136
  H  H245  1  0.468100  0.623700  0.820300  1.0  0.1036
  H  H246  1  0.432900  0.482300  0.849900  1.0  0.1225
  H  H247  1  0.269700  0.168600  0.937400  1.0  0.1001
  H  H248  1  0.220900  0.089000  0.917300  1.0  0.0917
  H  H249  1  0.243100  0.728600  0.952000  1.0  0.1051
  H  H250  1  0.288500  0.809500  0.976100  1.0  0.1059
  H  H251  1  0.378000  0.190600  0.069500  1.0  0.0732
  H  H252  1  0.397000  0.123500  0.120700  1.0  0.103
  H  H253  1  0.369400  0.754600  0.099200  1.0  0.0952
  H  H254  1  0.353900  0.818300  0.047900  1.0  0.102
  H  H255  1  0.395100  0.065000  0.170900  1.0  0.0909
  H  H256  1  0.411600  0.003900  0.223000  1.0  0.1192
  H  H257  1  0.416200  0.630500  0.192300  1.0  0.1007
  H  H258  1  0.403000  0.699000  0.139700  1.0  0.103
  H  H259  1  0.212600  0.658100  0.908500  1.0  0.098
  H  H260  1  0.166100  0.575900  0.885100  1.0  0.1008
  H  H261  1  0.127900  0.941500  0.885900  1.0  0.1064
  H  H262  1  0.171900  0.017800  0.912400  1.0  0.1046
  H  H263  1  0.010000  0.686100  0.698200  1.0  0.1079
  H  H264  1  0.991600  0.512300  0.665400  1.0  0.1093
  H  H265  1  0.971700  0.319800  0.692800  1.0  0.1104
  H  H266  1  0.987100  0.281600  0.745600  1.0  0.1117
  H  H267  1  0.010400  0.451700  0.776100  1.0  0.0742
  H  H268  1  0.083400  0.561100  0.428600  1.0  0.1071
  H  H269  1  0.101400  0.366400  0.343500  1.0  0.1087
  H  H270  1  0.030300  0.589600  0.398300  1.0  0.1237
  H  H271  1  0.998600  0.726600  0.369900  1.0  0.1031
  H  H272  1  0.096600  0.597300  0.324800  1.0  0.1221
  H  H273  1  0.062400  0.736600  0.295400  1.0  0.1067
  H  H274  1  0.130600  0.502900  0.791700  1.0  0.0684
  H  H275  1  0.175200  0.831000  0.797600  1.0  0.0742
  H  H276  1  0.177700  0.384900  0.792100  1.0  0.1126
  H  H277  1  0.226000  0.717800  0.804000  1.0  0.1143
  H  H278  1  0.223200  0.487100  0.806800  1.0  0.1046
  H  H279  1  0.074290  0.515150  0.783970  1.0  0.3566
  H  H280  1  0.060080  0.880600  0.820210  1.0  0.2562
  C  C281  1  0.351890  0.702700  0.936730  1.0  -0.0133
  C  C282  1  0.325690  0.636800  0.921640  1.0  -0.106
  C  C283  1  0.306440  0.544700  0.938830  1.0  0.0551
  C  C284  1  0.315460  0.515500  0.970910  1.0  -0.1212
  C  C285  1  0.340920  0.577100  0.986380  1.0  -0.0336
  C  C286  1  0.359050  0.670000  0.969050  1.0  -0.1301
  C  C287  1  0.351460  0.537800  0.021070  1.0  0.0344
  C  C288  1  0.383350  0.544300  0.031550  1.0  -0.112
  C  C289  1  0.392700  0.509500  0.063150  1.0  -0.169
  C  C290  1  0.370710  0.464200  0.085680  1.0  0.0743
  C  C291  1  0.337550  0.460300  0.075710  1.0  -0.1585
  C  C292  1  0.329120  0.496600  0.043830  1.0  -0.0917
  C  C293  1  0.380900  0.426900  0.120770  1.0  0.0075
  C  C294  1  0.412730  0.393800  0.128100  1.0  -0.0889
  C  C295  1  0.422200  0.357800  0.159620  1.0  -0.1086
  C  C296  1  0.398900  0.352500  0.185220  1.0  -0.1057
  C  C297  1  0.367430  0.384600  0.177270  1.0  -0.0269
  C  C298  1  0.358200  0.422400  0.145830  1.0  -0.1729
  C  C299  1  0.279670  0.477000  0.921210  1.0  0.0368
  C  C300  1  0.252080  0.442700  0.937700  1.0  -0.123
  C  C301  1  0.225200  0.380200  0.921160  1.0  -0.156
  C  C302  1  0.228990  0.346300  0.888230  1.0  0.0412
  C  C303  1  0.257910  0.379700  0.871320  1.0  -0.1379
  C  C304  1  0.282500  0.444400  0.888290  1.0  -0.1301
  C  C305  1  0.202190  0.274200  0.870400  1.0  0.0668
  C  C306  1  0.208670  0.182600  0.845170  1.0  -0.1158
  C  C307  1  0.183790  0.117500  0.828850  1.0  -0.0667
  C  C308  1  0.144560  0.232200  0.861830  1.0  -0.0422
  C  C309  1  0.169000  0.297000  0.878520  1.0  -0.1293
  C  C310  1  0.387110  0.904300  0.933650  1.0  -0.122
  C  C311  1  0.372100  0.801300  0.917700  1.0  0.0051
  C  C312  1  0.376000  0.789300  0.883240  1.0  -0.123
  C  C313  1  0.409270  0.316500  0.219450  1.0  0.6907
  C  C314  1  0.138230  0.701400  0.471040  1.0  0.0184
  C  C315  1  0.128990  0.657800  0.502310  1.0  -0.1264
  C  C316  1  0.146320  0.558500  0.519780  1.0  0.0391
  C  C317  1  0.174200  0.507400  0.505190  1.0  -0.1009
  C  C318  1  0.185170  0.551100  0.474240  1.0  0.0133
  C  C319  1  0.167580  0.648300  0.458230  1.0  -0.1288
  C  C320  1  0.118720  0.797800  0.451870  1.0  0.0559
  C  C321  1  0.090970  0.856100  0.464910  1.0  -0.1398
  C  C322  1  0.072530  0.941400  0.447190  1.0  -0.1703
  C  C323  1  0.079810  0.973400  0.415720  1.0  0.0765
  C  C324  1  0.107150  0.917000  0.402770  1.0  -0.1104
  C  C325  1  0.126600  0.829500  0.420120  1.0  -0.1869
  C  C326  1  0.058900  0.067400  0.395730  1.0  0.0098
  C  C327  1  0.042170  0.171100  0.410630  1.0  -0.1194
  C  C328  1  0.021760  0.253100  0.392890  1.0  -0.0531
  C  C329  1  0.017330  0.235600  0.359920  1.0  -0.1357
  C  C330  1  0.034500  0.134400  0.343260  1.0  -0.0429
  C  C331  1  0.055560  0.049400  0.360930  1.0  -0.0951
  C  C332  1  0.214880  0.496900  0.459760  1.0  0.1163
  C  C333  1  0.236020  0.579900  0.441090  1.0  -0.1533
  C  C334  1  0.264870  0.530800  0.428320  1.0  -0.1463
  C  C335  1  0.273860  0.395600  0.431230  1.0  0.0702
  C  C336  1  0.252160  0.318800  0.449330  1.0  -0.1132
  C  C337  1  0.224510  0.366700  0.463440  1.0  -0.1627
  C  C338  1  0.134940  0.516800  0.552390  1.0  0.098
  C  C339  1  0.123140  0.600500  0.575010  1.0  -0.1474
  C  C340  1  0.112400  0.561200  0.606410  1.0  -0.1816
  C  C341  1  0.115620  0.430100  0.616680  1.0  0.0323
  C  C342  1  0.128330  0.344000  0.593350  1.0  -0.1113
  C  C343  1  0.137720  0.381400  0.562650  1.0  -0.1699
  C  C344  1  0.104510  0.389800  0.650240  1.0  0.0451
  C  C345  1  0.100710  0.475300  0.675040  1.0  -0.0978
  C  C346  1  0.091000  0.439700  0.706380  1.0  -0.1403
  C  C347  1  0.085150  0.307900  0.713090  1.0  -0.1302
  C  C348  1  0.087900  0.220400  0.688300  1.0  -0.0653
  C  C349  1  0.096500  0.261200  0.656990  1.0  -0.1333
  C  C350  1  0.303070  0.347000  0.415240  1.0  0.1205
  C  C351  1  0.305240  0.214600  0.405000  1.0  -0.1091
  C  C352  1  0.332610  0.166300  0.390130  1.0  -0.0511
  C  C353  1  0.355310  0.382200  0.391170  1.0  -0.0591
  C  C354  1  0.329050  0.427700  0.406850  1.0  -0.0575
  C  C355  1  0.993130  0.311200  0.339340  1.0  0.6777
  C  C356  1  0.493910  0.102900  0.207720  1.0  0.1655
  C  C357  1  0.506400  0.002600  0.188510  1.0  -0.1066
  C  C358  1  0.516300  0.883700  0.204500  1.0  -0.0877
  C  C359  1  0.508740  0.863700  0.235560  1.0  -0.1149
  C  C360  1  0.494400  0.965700  0.253580  1.0  0.151
  C  C361  1  0.358800  0.249700  0.382320  1.0  -0.0757
  C  C362  1  0.152190  0.143500  0.836730  1.0  -0.1306
  C  C363  1  0.411670  0.980800  0.882670  1.0  0.1053
  C  C364  1  0.406540  0.992000  0.916900  1.0  -0.1374
  C  C365  1  0.432190  0.079200  0.864120  1.0  0.0541
  C  C366  1  0.125030  0.071900  0.818670  1.0  0.6713
  C  C367  1  0.395750  0.876800  0.866430  1.0  -0.1113
  C  C368  1  0.387460  0.199900  0.363640  1.0  0.6912
  C  C369  1  0.075460  0.265300  0.746610  1.0  0.6891
  C  C370  1  0.473450  0.249700  0.829110  1.0  -0.1142
  C  C371  1  0.462890  0.120200  0.877470  1.0  -0.1614
  C  C372  1  0.481460  0.200500  0.860450  1.0  -0.0453
  C  C373  1  0.423450  0.123300  0.834070  1.0  -0.1756
  C  C374  1  0.444000  0.207500  0.816500  1.0  -0.0345
  C  C375  1  0.349560  0.048200  0.294110  1.0  0.1705
  C  C376  1  0.324670  0.238200  0.298200  1.0  0.129
  C  C377  1  0.494720  0.341100  0.809950  1.0  0.6953
  C  C378  1  0.322000  0.976600  0.295600  1.0  -0.0954
  C  C379  1  0.293760  0.172000  0.301900  1.0  -0.1814
  C  C380  1  0.295600  0.036500  0.301900  1.0  -0.0626
  C  C381  1  0.648110  0.297300  0.436730  1.0  -0.0143
  C  C382  1  0.674310  0.363200  0.421640  1.0  -0.1064
  C  C383  1  0.693560  0.455300  0.438830  1.0  0.0554
  C  C384  1  0.684540  0.484500  0.470910  1.0  -0.12
  C  C385  1  0.659080  0.422900  0.486380  1.0  -0.033
  C  C386  1  0.640950  0.330000  0.469050  1.0  -0.1315
  C  C387  1  0.648540  0.462200  0.521070  1.0  0.0341
  C  C388  1  0.616650  0.455700  0.531550  1.0  -0.1101
  C  C389  1  0.607300  0.490500  0.563150  1.0  -0.1696
  C  C390  1  0.629290  0.535800  0.585680  1.0  0.0757
  C  C391  1  0.662450  0.539700  0.575710  1.0  -0.1576
  C  C392  1  0.670880  0.503400  0.543830  1.0  -0.0918
  C  C393  1  0.619100  0.573100  0.620770  1.0  0.0078
  C  C394  1  0.587270  0.606200  0.628100  1.0  -0.0905
  C  C395  1  0.577800  0.642200  0.659620  1.0  -0.1092
  C  C396  1  0.601100  0.647500  0.685220  1.0  -0.1048
  C  C397  1  0.632570  0.615400  0.677270  1.0  -0.0273
  C  C398  1  0.641800  0.577600  0.645830  1.0  -0.1761
  C  C399  1  0.720330  0.523000  0.421210  1.0  0.0374
  C  C400  1  0.747920  0.557300  0.437700  1.0  -0.1227
  C  C401  1  0.774800  0.619800  0.421160  1.0  -0.1572
  C  C402  1  0.771010  0.653700  0.388230  1.0  0.0412
  C  C403  1  0.742090  0.620300  0.371320  1.0  -0.136
  C  C404  1  0.717500  0.555600  0.388290  1.0  -0.1272
  C  C405  1  0.797810  0.725800  0.370400  1.0  0.0667
  C  C406  1  0.791330  0.817400  0.345170  1.0  -0.1168
  C  C407  1  0.816210  0.882500  0.328850  1.0  -0.0649
  C  C408  1  0.855440  0.767800  0.361830  1.0  -0.042
  C  C409  1  0.831000  0.703000  0.378520  1.0  -0.1298
  C  C410  1  0.612890  0.095700  0.433650  1.0  -0.1208
  C  C411  1  0.627900  0.198700  0.417700  1.0  0.0054
  C  C412  1  0.624000  0.210700  0.383240  1.0  -0.1239
  C  C413  1  0.590730  0.683500  0.719450  1.0  0.6914
  C  C414  1  0.861770  0.298600  0.971040  1.0  0.02
  C  C415  1  0.871010  0.342200  0.002310  1.0  -0.1246
  C  C416  1  0.853680  0.441500  0.019780  1.0  0.0388
  C  C417  1  0.825800  0.492600  0.005190  1.0  -0.1023
  C  C418  1  0.814830  0.448900  0.974240  1.0  0.0113
  C  C419  1  0.832420  0.351700  0.958230  1.0  -0.131
  C  C420  1  0.881280  0.202200  0.951870  1.0  0.0562
  C  C421  1  0.909030  0.143900  0.964910  1.0  -0.1392
  C  C422  1  0.927470  0.058600  0.947190  1.0  -0.1704
  C  C423  1  0.920190  0.026600  0.915720  1.0  0.0785
  C  C424  1  0.892850  0.083000  0.902770  1.0  -0.1104
  C  C425  1  0.873400  0.170500  0.920120  1.0  -0.1866
  C  C426  1  0.941100  0.932600  0.895730  1.0  0.0099
  C  C427  1  0.957830  0.828900  0.910630  1.0  -0.1191
  C  C428  1  0.978240  0.746900  0.892890  1.0  -0.0524
  C  C429  1  0.982670  0.764400  0.859920  1.0  -0.1351
  C  C430  1  0.965500  0.865600  0.843260  1.0  -0.0429
  C  C431  1  0.944440  0.950600  0.860930  1.0  -0.095
  C  C432  1  0.785120  0.503100  0.959760  1.0  0.1167
  C  C433  1  0.763980  0.420100  0.941090  1.0  -0.1537
  C  C434  1  0.735130  0.469200  0.928320  1.0  -0.1465
  C  C435  1  0.726140  0.604400  0.931230  1.0  0.0697
  C  C436  1  0.747840  0.681200  0.949330  1.0  -0.1149
  C  C437  1  0.775490  0.633300  0.963440  1.0  -0.1654
  C  C438  1  0.865060  0.483200  0.052390  1.0  0.0977
  C  C439  1  0.876860  0.399500  0.075010  1.0  -0.1482
  C  C440  1  0.887600  0.438800  0.106410  1.0  -0.1816
  C  C441  1  0.884380  0.569900  0.116680  1.0  0.0326
  C  C442  1  0.871670  0.656000  0.093350  1.0  -0.1116
  C  C443  1  0.862280  0.618600  0.062650  1.0  -0.17
  C  C444  1  0.895490  0.610200  0.150240  1.0  0.045
  C  C445  1  0.899290  0.524700  0.175040  1.0  -0.099
  C  C446  1  0.909000  0.560300  0.206380  1.0  -0.1407
  C  C447  1  0.914850  0.692100  0.213090  1.0  -0.1291
  C  C448  1  0.912100  0.779600  0.188300  1.0  -0.0658
  C  C449  1  0.903500  0.738800  0.156990  1.0  -0.1323
  C  C450  1  0.696930  0.653000  0.915240  1.0  0.1261
  C  C451  1  0.694760  0.785400  0.905000  1.0  -0.1099
  C  C452  1  0.667390  0.833700  0.890130  1.0  -0.0519
  C  C453  1  0.644690  0.617800  0.891170  1.0  -0.0656
  C  C454  1  0.670950  0.572300  0.906850  1.0  -0.0596
  C  C455  1  0.006870  0.688800  0.839340  1.0  0.6776
  C  C456  1  0.506090  0.897100  0.707720  1.0  0.1656
  C  C457  1  0.493600  0.997400  0.688510  1.0  -0.1058
  C  C458  1  0.483700  0.116300  0.704500  1.0  -0.0874
  C  C459  1  0.491260  0.136300  0.735560  1.0  -0.1157
  C  C460  1  0.505600  0.034300  0.753580  1.0  0.1517
  C  C461  1  0.641200  0.750300  0.882320  1.0  -0.0762
  C  C462  1  0.847810  0.856500  0.336730  1.0  -0.1291
  C  C463  1  0.588330  0.019200  0.382670  1.0  0.1055
  C  C464  1  0.593460  0.008000  0.416900  1.0  -0.138
  C  C465  1  0.567810  0.920800  0.364120  1.0  0.0554
  C  C466  1  0.874970  0.928100  0.318670  1.0  0.6711
  C  C467  1  0.604250  0.123200  0.366430  1.0  -0.1117
  C  C468  1  0.612540  0.800100  0.863640  1.0  0.6902
  C  C469  1  0.924540  0.734700  0.246610  1.0  0.6879
  C  C470  1  0.526550  0.750300  0.329110  1.0  -0.1142
  C  C471  1  0.537110  0.879800  0.377470  1.0  -0.1597
  C  C472  1  0.518540  0.799500  0.360450  1.0  -0.0465
  C  C473  1  0.576550  0.876700  0.334070  1.0  -0.1759
  C  C474  1  0.556000  0.792500  0.316500  1.0  -0.0368
  C  C475  1  0.650440  0.951800  0.794110  1.0  0.1698
  C  C476  1  0.675330  0.761800  0.798200  1.0  0.1291
  C  C477  1  0.505280  0.658900  0.309950  1.0  0.6954
  C  C478  1  0.678000  0.023400  0.795600  1.0  -0.0966
  C  C479  1  0.706240  0.828000  0.801900  1.0  -0.1814
  C  C480  1  0.704400  0.963500  0.801900  1.0  -0.0626
  C  C481  1  0.851890  0.797300  0.936730  1.0  -0.014
  C  C482  1  0.825690  0.863200  0.921640  1.0  -0.1051
  C  C483  1  0.806440  0.955300  0.938830  1.0  0.055
  C  C484  1  0.815460  0.984500  0.970910  1.0  -0.1212
  C  C485  1  0.840920  0.922900  0.986380  1.0  -0.0331
  C  C486  1  0.859050  0.830000  0.969050  1.0  -0.13
  C  C487  1  0.851460  0.962200  0.021070  1.0  0.0344
  C  C488  1  0.883350  0.955700  0.031550  1.0  -0.1114
  C  C489  1  0.892700  0.990500  0.063150  1.0  -0.1689
  C  C490  1  0.870710  0.035800  0.085680  1.0  0.0748
  C  C491  1  0.837550  0.039700  0.075710  1.0  -0.1589
  C  C492  1  0.829120  0.003400  0.043830  1.0  -0.0917
  C  C493  1  0.880900  0.073100  0.120770  1.0  0.0075
  C  C494  1  0.912730  0.106200  0.128100  1.0  -0.0887
  C  C495  1  0.922200  0.142200  0.159620  1.0  -0.1084
  C  C496  1  0.898900  0.147500  0.185220  1.0  -0.1055
  C  C497  1  0.867430  0.115400  0.177270  1.0  -0.0269
  C  C498  1  0.858200  0.077600  0.145830  1.0  -0.1726
  C  C499  1  0.779670  0.023000  0.921210  1.0  0.0369
  C  C500  1  0.752080  0.057300  0.937700  1.0  -0.1232
  C  C501  1  0.725200  0.119800  0.921160  1.0  -0.156
  C  C502  1  0.728990  0.153700  0.888230  1.0  0.0412
  C  C503  1  0.757910  0.120300  0.871320  1.0  -0.1386
  C  C504  1  0.782500  0.055600  0.888290  1.0  -0.1294
  C  C505  1  0.702190  0.225800  0.870400  1.0  0.0668
  C  C506  1  0.708670  0.317400  0.845170  1.0  -0.1163
  C  C507  1  0.683790  0.382500  0.828850  1.0  -0.0666
  C  C508  1  0.644560  0.267800  0.861830  1.0  -0.0415
  C  C509  1  0.669000  0.203000  0.878520  1.0  -0.1298
  C  C510  1  0.887110  0.595700  0.933650  1.0  -0.1217
  C  C511  1  0.872100  0.698700  0.917700  1.0  0.0054
  C  C512  1  0.876000  0.710700  0.883240  1.0  -0.1221
  C  C513  1  0.909270  0.183500  0.219450  1.0  0.6906
  C  C514  1  0.638230  0.798600  0.471040  1.0  0.0184
  C  C515  1  0.628990  0.842200  0.502310  1.0  -0.1269
  C  C516  1  0.646320  0.941500  0.519780  1.0  0.039
  C  C517  1  0.674200  0.992600  0.505190  1.0  -0.1006
  C  C518  1  0.685170  0.948900  0.474240  1.0  0.0134
  C  C519  1  0.667580  0.851700  0.458230  1.0  -0.1289
  C  C520  1  0.618720  0.702200  0.451870  1.0  0.0561
  C  C521  1  0.590970  0.643900  0.464910  1.0  -0.1403
  C  C522  1  0.572530  0.558600  0.447190  1.0  -0.1701
  C  C523  1  0.579810  0.526600  0.415720  1.0  0.0768
  C  C524  1  0.607150  0.583000  0.402770  1.0  -0.1107
  C  C525  1  0.626600  0.670500  0.420120  1.0  -0.1871
  C  C526  1  0.558900  0.432600  0.395730  1.0  0.0101
  C  C527  1  0.542170  0.328900  0.410630  1.0  -0.1193
  C  C528  1  0.521760  0.246900  0.392890  1.0  -0.0526
  C  C529  1  0.517330  0.264400  0.359920  1.0  -0.1356
  C  C530  1  0.534500  0.365600  0.343260  1.0  -0.0431
  C  C531  1  0.555560  0.450600  0.360930  1.0  -0.0952
  C  C532  1  0.714880  0.003100  0.459760  1.0  0.1164
  C  C533  1  0.736020  0.920100  0.441090  1.0  -0.1532
  C  C534  1  0.764870  0.969200  0.428320  1.0  -0.1458
  C  C535  1  0.773860  0.104400  0.431230  1.0  0.0703
  C  C536  1  0.752160  0.181200  0.449330  1.0  -0.1135
  C  C537  1  0.724510  0.133300  0.463440  1.0  -0.1639
  C  C538  1  0.634940  0.983200  0.552390  1.0  0.0978
  C  C539  1  0.623140  0.899500  0.575010  1.0  -0.1479
  C  C540  1  0.612400  0.938800  0.606410  1.0  -0.1816
  C  C541  1  0.615620  0.069900  0.616680  1.0  0.0325
  C  C542  1  0.628330  0.156000  0.593350  1.0  -0.1114
  C  C543  1  0.637720  0.118600  0.562650  1.0  -0.1701
  C  C544  1  0.604510  0.110200  0.650240  1.0  0.0451
  C  C545  1  0.600710  0.024700  0.675040  1.0  -0.0991
  C  C546  1  0.591000  0.060300  0.706380  1.0  -0.1406
  C  C547  1  0.585150  0.192100  0.713090  1.0  -0.1299
  C  C548  1  0.587900  0.279600  0.688300  1.0  -0.066
  C  C549  1  0.596500  0.238800  0.656990  1.0  -0.1327
  C  C550  1  0.803070  0.153000  0.415240  1.0  0.1203
  C  C551  1  0.805240  0.285400  0.405000  1.0  -0.1093
  C  C552  1  0.832610  0.333700  0.390130  1.0  -0.0511
  C  C553  1  0.855310  0.117800  0.391170  1.0  -0.0607
  C  C554  1  0.829050  0.072300  0.406850  1.0  -0.0592
  C  C555  1  0.493130  0.188800  0.339340  1.0  0.6771
  C  C556  1  0.993910  0.397100  0.207720  1.0  0.1657
  C  C557  1  0.006400  0.497400  0.188510  1.0  -0.1069
  C  C558  1  0.016300  0.616300  0.204500  1.0  -0.0872
  C  C559  1  0.008740  0.636300  0.235560  1.0  -0.1142
  C  C560  1  0.994400  0.534300  0.253580  1.0  0.1513
  C  C561  1  0.858800  0.250300  0.382320  1.0  -0.0765
  C  C562  1  0.652190  0.356500  0.836730  1.0  -0.1306
  C  C563  1  0.911670  0.519200  0.882670  1.0  0.105
  C  C564  1  0.906540  0.508000  0.916900  1.0  -0.1381
  C  C565  1  0.932190  0.420800  0.864120  1.0  0.0542
  C  C566  1  0.625030  0.428100  0.818670  1.0  0.6709
  C  C567  1  0.895750  0.623200  0.866430  1.0  -0.1118
  C  C568  1  0.887460  0.300100  0.363640  1.0  0.6913
  C  C569  1  0.575460  0.234700  0.746610  1.0  0.6889
  C  C570  1  0.973450  0.250300  0.829110  1.0  -0.1144
  C  C571  1  0.962890  0.379800  0.877470  1.0  -0.1613
  C  C572  1  0.981460  0.299500  0.860450  1.0  -0.0452
  C  C573  1  0.923450  0.376700  0.834070  1.0  -0.1759
  C  C574  1  0.944000  0.292500  0.816500  1.0  -0.0345
  C  C575  1  0.849560  0.451800  0.294110  1.0  0.1702
  C  C576  1  0.824670  0.261800  0.298200  1.0  0.1269
  C  C577  1  0.994720  0.158900  0.809950  1.0  0.695
  C  C578  1  0.822000  0.523400  0.295600  1.0  -0.0957
  C  C579  1  0.793760  0.328000  0.301900  1.0  -0.1818
  C  C580  1  0.795600  0.463500  0.301900  1.0  -0.0632
  C  C581  1  0.148110  0.202700  0.436730  1.0  -0.0135
  C  C582  1  0.174310  0.136800  0.421640  1.0  -0.1078
  C  C583  1  0.193560  0.044700  0.438830  1.0  0.0554
  C  C584  1  0.184540  0.015500  0.470910  1.0  -0.1204
  C  C585  1  0.159080  0.077100  0.486380  1.0  -0.0335
  C  C586  1  0.140950  0.170000  0.469050  1.0  -0.1317
  C  C587  1  0.148540  0.037800  0.521070  1.0  0.0339
  C  C588  1  0.116650  0.044300  0.531550  1.0  -0.1108
  C  C589  1  0.107300  0.009500  0.563150  1.0  -0.1694
  C  C590  1  0.129290  0.964200  0.585680  1.0  0.0752
  C  C591  1  0.162450  0.960300  0.575710  1.0  -0.1578
  C  C592  1  0.170880  0.996600  0.543830  1.0  -0.0917
  C  C593  1  0.119100  0.926900  0.620770  1.0  0.0077
  C  C594  1  0.087270  0.893800  0.628100  1.0  -0.0903
  C  C595  1  0.077800  0.857800  0.659620  1.0  -0.1092
  C  C596  1  0.101100  0.852500  0.685220  1.0  -0.105
  C  C597  1  0.132570  0.884600  0.677270  1.0  -0.0273
  C  C598  1  0.141800  0.922400  0.645830  1.0  -0.1759
  C  C599  1  0.220330  0.977000  0.421210  1.0  0.0373
  C  C600  1  0.247920  0.942700  0.437700  1.0  -0.1226
  C  C601  1  0.274800  0.880200  0.421160  1.0  -0.157
  C  C602  1  0.271010  0.846300  0.388230  1.0  0.0411
  C  C603  1  0.242090  0.879700  0.371320  1.0  -0.1349
  C  C604  1  0.217500  0.944400  0.388290  1.0  -0.1277
  C  C605  1  0.297810  0.774200  0.370400  1.0  0.0668
  C  C606  1  0.291330  0.682600  0.345170  1.0  -0.1164
  C  C607  1  0.316210  0.617500  0.328850  1.0  -0.0654
  C  C608  1  0.355440  0.732200  0.361830  1.0  -0.0427
  C  C609  1  0.331000  0.797000  0.378520  1.0  -0.1294
  C  C610  1  0.112890  0.404300  0.433650  1.0  -0.1213
  C  C611  1  0.127900  0.301300  0.417700  1.0  0.0052
  C  C612  1  0.124000  0.289300  0.383240  1.0  -0.1247
  C  C613  1  0.090730  0.816500  0.719450  1.0  0.6913
  C  C614  1  0.361770  0.201400  0.971040  1.0  0.0199
  C  C615  1  0.371010  0.157800  0.002310  1.0  -0.1245
  C  C616  1  0.353680  0.058500  0.019780  1.0  0.0389
  C  C617  1  0.325800  0.007400  0.005190  1.0  -0.1025
  C  C618  1  0.314830  0.051100  0.974240  1.0  0.0113
  C  C619  1  0.332420  0.148300  0.958230  1.0  -0.1308
  C  C620  1  0.381280  0.297800  0.951870  1.0  0.0563
  C  C621  1  0.409030  0.356100  0.964910  1.0  -0.139
  C  C622  1  0.427470  0.441400  0.947190  1.0  -0.1706
  C  C623  1  0.420190  0.473400  0.915720  1.0  0.078
  C  C624  1  0.392850  0.417000  0.902770  1.0  -0.11
  C  C625  1  0.373400  0.329500  0.920120  1.0  -0.1857
  C  C626  1  0.441100  0.567400  0.895730  1.0  0.0099
  C  C627  1  0.457830  0.671100  0.910630  1.0  -0.1194
  C  C628  1  0.478240  0.753100  0.892890  1.0  -0.0506
  C  C629  1  0.482670  0.735600  0.859920  1.0  -0.1354
  C  C630  1  0.465500  0.634400  0.843260  1.0  -0.0426
  C  C631  1  0.444440  0.549400  0.860930  1.0  -0.0948
  C  C632  1  0.285120  0.996900  0.959760  1.0  0.1168
  C  C633  1  0.263980  0.079900  0.941090  1.0  -0.1534
  C  C634  1  0.235130  0.030800  0.928320  1.0  -0.1472
  C  C635  1  0.226140  0.895600  0.931230  1.0  0.0696
  C  C636  1  0.247840  0.818800  0.949330  1.0  -0.1144
  C  C637  1  0.275490  0.866700  0.963440  1.0  -0.1644
  C  C638  1  0.365060  0.016800  0.052390  1.0  0.098
  C  C639  1  0.376860  0.100500  0.075010  1.0  -0.1475
  C  C640  1  0.387600  0.061200  0.106410  1.0  -0.1818
  C  C641  1  0.384380  0.930100  0.116680  1.0  0.0324
  C  C642  1  0.371670  0.844000  0.093350  1.0  -0.1117
  C  C643  1  0.362280  0.881400  0.062650  1.0  -0.1699
  C  C644  1  0.395490  0.889800  0.150240  1.0  0.0449
  C  C645  1  0.399290  0.975300  0.175040  1.0  -0.0975
  C  C646  1  0.409000  0.939700  0.206380  1.0  -0.1399
  C  C647  1  0.414850  0.807900  0.213090  1.0  -0.1295
  C  C648  1  0.412100  0.720400  0.188300  1.0  -0.0652
  C  C649  1  0.403500  0.761200  0.156990  1.0  -0.1328
  C  C650  1  0.196930  0.847000  0.915240  1.0  0.1291
  C  C651  1  0.194760  0.714600  0.905000  1.0  -0.11
  C  C652  1  0.167390  0.666300  0.890130  1.0  -0.0601
  C  C653  1  0.144690  0.882200  0.891170  1.0  -0.0678
  C  C654  1  0.170950  0.927700  0.906850  1.0  -0.0579
  C  C655  1  0.506870  0.811200  0.839340  1.0  0.6784
  C  C656  1  0.006090  0.602900  0.707720  1.0  0.1646
  C  C657  1  0.993600  0.502600  0.688510  1.0  -0.1056
  C  C658  1  0.983700  0.383700  0.704500  1.0  -0.0871
  C  C659  1  0.991260  0.363700  0.735560  1.0  -0.1155
  C  C660  1  0.005600  0.465700  0.753580  1.0  0.1513
  C  C661  1  0.141200  0.749700  0.882320  1.0  -0.0737
  C  C662  1  0.347810  0.643500  0.336730  1.0  -0.129
  C  C663  1  0.088330  0.480800  0.382670  1.0  0.1056
  C  C664  1  0.093460  0.492000  0.416900  1.0  -0.1376
  C  C665  1  0.067810  0.579200  0.364120  1.0  0.0553
  C  C666  1  0.374970  0.571900  0.318670  1.0  0.6713
  C  C667  1  0.104250  0.376800  0.366430  1.0  -0.1117
  C  C668  1  0.112540  0.699900  0.863640  1.0  0.6901
  C  C669  1  0.424540  0.765300  0.246610  1.0  0.6882
  C  C670  1  0.026550  0.749700  0.329110  1.0  -0.1136
  C  C671  1  0.037110  0.620200  0.377470  1.0  -0.1599
  C  C672  1  0.018540  0.700500  0.360450  1.0  -0.0471
  C  C673  1  0.076550  0.623300  0.334070  1.0  -0.1758
  C  C674  1  0.056000  0.707500  0.316500  1.0  -0.0371
  C  C675  1  0.150440  0.548200  0.794110  1.0  0.1704
  C  C676  1  0.175330  0.738200  0.798200  1.0  0.1309
  C  C677  1  0.005280  0.841100  0.309950  1.0  0.6958
  C  C678  1  0.178000  0.476600  0.795600  1.0  -0.0967
  C  C679  1  0.206240  0.672000  0.801900  1.0  -0.1802
  C  C680  1  0.204400  0.536500  0.801900  1.0  -0.0639
  N  N681  1  0.487160  0.083400  0.240060  1.0  -0.3449
  N  N682  1  0.350440  0.181200  0.295820  1.0  -0.2571
  N  N683  1  0.512840  0.916600  0.740060  1.0  -0.345
  N  N684  1  0.649560  0.818800  0.795820  1.0  -0.2591
  N  N685  1  0.987160  0.416600  0.240060  1.0  -0.3454
  N  N686  1  0.850440  0.318800  0.295820  1.0  -0.2572
  N  N687  1  0.012840  0.583400  0.740060  1.0  -0.3446
  N  N688  1  0.149560  0.681200  0.795820  1.0  -0.2581
  O  O689  1  0.438310  0.285700  0.225010  1.0  -0.6118
  O  O690  1  0.387390  0.319700  0.241250  1.0  -0.5936
  O  O691  1  0.060080  0.880600  0.795450  1.0  -0.8486
  O  O692  1  0.077980  0.341700  0.770930  1.0  -0.6205
  O  O693  1  0.994440  0.308100  0.309690  1.0  -0.6212
  O  O694  1  0.972430  0.370900  0.356040  1.0  -0.5945
  O  O695  1  0.425710  0.119800  0.288920  1.0  -0.8235
  O  O696  1  0.132270  0.974200  0.801210  1.0  -0.5844
  O  O697  1  0.394410  0.079700  0.364540  1.0  -0.5864
  O  O698  1  0.095910  0.117400  0.823160  1.0  -0.5838
  O  O699  1  0.403990  0.284100  0.347150  1.0  -0.7101
  O  O700  1  0.066950  0.142400  0.749930  1.0  -0.6025
  O  O701  1  0.484280  0.399400  0.784870  1.0  -0.5581
  O  O702  1  0.524830  0.350100  0.819550  1.0  -0.6008
  O  O703  1  0.561690  0.714300  0.725010  1.0  -0.6124
  O  O704  1  0.612610  0.680300  0.741250  1.0  -0.5938
  O  O705  1  0.939920  0.119400  0.295450  1.0  -0.8479
  O  O706  1  0.922020  0.658300  0.270930  1.0  -0.6204
  O  O707  1  0.005560  0.691900  0.809690  1.0  -0.6205
  O  O708  1  0.027570  0.629100  0.856040  1.0  -0.5927
  O  O709  1  0.574290  0.880200  0.788920  1.0  -0.8219
  O  O710  1  0.867730  0.025800  0.301210  1.0  -0.5838
  O  O711  1  0.605590  0.920300  0.864540  1.0  -0.5845
  O  O712  1  0.904090  0.882600  0.323160  1.0  -0.5839
  O  O713  1  0.596010  0.715900  0.847150  1.0  -0.7082
  O  O714  1  0.933050  0.857600  0.249930  1.0  -0.602
  O  O715  1  0.515720  0.600600  0.284870  1.0  -0.558
  O  O716  1  0.475170  0.649900  0.319550  1.0  -0.6007
  O  O717  1  0.938310  0.214300  0.225010  1.0  -0.6123
  O  O718  1  0.887390  0.180300  0.241250  1.0  -0.5938
  O  O719  1  0.560080  0.619400  0.795450  1.0  -0.849
  O  O720  1  0.577980  0.158300  0.770930  1.0  -0.6206
  O  O721  1  0.494440  0.191900  0.309690  1.0  -0.6209
  O  O722  1  0.472430  0.129100  0.356040  1.0  -0.5941
  O  O723  1  0.925710  0.380200  0.288920  1.0  -0.8219
  O  O724  1  0.632270  0.525800  0.801210  1.0  -0.5843
  O  O725  1  0.894410  0.420300  0.364540  1.0  -0.5838
  O  O726  1  0.595910  0.382600  0.823160  1.0  -0.5841
  O  O727  1  0.903990  0.215900  0.347150  1.0  -0.7084
  O  O728  1  0.566950  0.357600  0.749930  1.0  -0.6021
  O  O729  1  0.984280  0.100600  0.784870  1.0  -0.5581
  O  O730  1  0.024830  0.149900  0.819550  1.0  -0.5996
  O  O731  1  0.061690  0.785700  0.725010  1.0  -0.6119
  O  O732  1  0.112610  0.819700  0.741250  1.0  -0.5938
  O  O733  1  0.439920  0.380600  0.295450  1.0  -0.8479
  O  O734  1  0.422020  0.841700  0.270930  1.0  -0.6204
  O  O735  1  0.505560  0.808100  0.809690  1.0  -0.6209
  O  O736  1  0.527570  0.870900  0.856040  1.0  -0.593
  O  O737  1  0.074290  0.619800  0.788920  1.0  -0.8232
  O  O738  1  0.367730  0.474200  0.301210  1.0  -0.5836
  O  O739  1  0.105590  0.579700  0.864540  1.0  -0.5846
  O  O740  1  0.404090  0.617400  0.323160  1.0  -0.5835
  O  O741  1  0.096010  0.784100  0.847150  1.0  -0.7105
  O  O742  1  0.433050  0.642400  0.249930  1.0  -0.6025
  O  O743  1  0.015720  0.899400  0.284870  1.0  -0.5582
  O  O744  1  0.975170  0.850100  0.319550  1.0  -0.6005
