# generated using pymatgen
data_Zn2H28C45O7
_symmetry_space_group_name_H-M   'P 1'
_cell_length_a   45.92220000
_cell_length_b   15.07630000
_cell_length_c   34.62150000
_cell_angle_alpha   90.00000000
_cell_angle_beta   117.31000000
_cell_angle_gamma   90.00000000
_symmetry_Int_Tables_number   1
_chemical_formula_structural   Zn2H28C45O7
_chemical_formula_sum   'Zn32 H448 C720 O112'
_cell_volume   21298.00558791
_cell_formula_units_Z   16
loop_
 _symmetry_equiv_pos_site_id
 _symmetry_equiv_pos_as_xyz
  1  'x, y, z'
loop_
 _atom_site_type_symbol
 _atom_site_label
 _atom_site_symmetry_multiplicity
 _atom_site_fract_x
 _atom_site_fract_y
 _atom_site_fract_z
 _atom_site_occupancy
 _atom_site_charge
  Zn  Zn1  1  0.207200  0.617490  0.008190  1.0  1.02
  Zn  Zn2  1  0.720200  0.785980  0.350550  1.0  1.0217
  Zn  Zn3  1  0.285830  0.197080  0.394690  1.0  1.0503
  Zn  Zn4  1  0.268780  0.750120  0.050500  1.0  1.0378
  Zn  Zn5  1  0.707200  0.117490  0.008190  1.0  1.02
  Zn  Zn6  1  0.220200  0.285980  0.350550  1.0  1.0218
  Zn  Zn7  1  0.785830  0.697080  0.394690  1.0  1.0503
  Zn  Zn8  1  0.768780  0.250120  0.050500  1.0  1.0378
  Zn  Zn9  1  0.792800  0.617490  0.491810  1.0  1.0199
  Zn  Zn10  1  0.279800  0.785980  0.149450  1.0  1.025
  Zn  Zn11  1  0.714170  0.197080  0.105310  1.0  1.0497
  Zn  Zn12  1  0.731220  0.750120  0.449500  1.0  1.0418
  Zn  Zn13  1  0.292800  0.117490  0.491810  1.0  1.0199
  Zn  Zn14  1  0.779800  0.285980  0.149450  1.0  1.0251
  Zn  Zn15  1  0.214170  0.697080  0.105310  1.0  1.0497
  Zn  Zn16  1  0.231220  0.250120  0.449500  1.0  1.0418
  Zn  Zn17  1  0.792800  0.382510  0.991810  1.0  1.0198
  Zn  Zn18  1  0.279800  0.214020  0.649450  1.0  1.0248
  Zn  Zn19  1  0.714170  0.802920  0.605310  1.0  1.0504
  Zn  Zn20  1  0.731220  0.249880  0.949500  1.0  1.0453
  Zn  Zn21  1  0.292800  0.882510  0.991810  1.0  1.0198
  Zn  Zn22  1  0.779800  0.714020  0.649450  1.0  1.0248
  Zn  Zn23  1  0.214170  0.302920  0.605310  1.0  1.0504
  Zn  Zn24  1  0.231220  0.749880  0.949500  1.0  1.0453
  Zn  Zn25  1  0.207200  0.382510  0.508190  1.0  1.0201
  Zn  Zn26  1  0.720200  0.214020  0.850550  1.0  1.0215
  Zn  Zn27  1  0.285830  0.802920  0.894690  1.0  1.0514
  Zn  Zn28  1  0.268780  0.249880  0.550500  1.0  1.0417
  Zn  Zn29  1  0.707200  0.882510  0.508190  1.0  1.0201
  Zn  Zn30  1  0.220200  0.714020  0.850550  1.0  1.0215
  Zn  Zn31  1  0.785830  0.302920  0.894690  1.0  1.0514
  Zn  Zn32  1  0.768780  0.749880  0.550500  1.0  1.0417
  H  H33  1  0.344800  0.980200  0.256500  1.0  0.1104
  H  H34  1  0.428400  0.843100  0.324800  1.0  0.1199
  H  H35  1  0.404100  0.208000  0.260800  1.0  0.1212
  H  H36  1  0.377500  0.326400  0.214600  1.0  0.1156
  H  H37  1  0.300100  0.167700  0.143100  1.0  0.114
  H  H38  1  0.326900  0.049600  0.188500  1.0  0.1078
  H  H39  1  0.357300  0.400500  0.146800  1.0  0.1245
  H  H40  1  0.328500  0.524500  0.107400  1.0  0.1144
  H  H41  1  0.244400  0.422300  0.099400  1.0  0.107
  H  H42  1  0.273200  0.298700  0.138900  1.0  0.107
  H  H43  1  0.322300  0.841400  0.245300  1.0  0.1129
  H  H44  1  0.295800  0.718400  0.256200  1.0  0.1123
  H  H45  1  0.374600  0.672800  0.371800  1.0  0.1174
  H  H46  1  0.401000  0.794600  0.360800  1.0  0.1103
  H  H47  1  0.269500  0.636800  0.283800  1.0  0.1138
  H  H48  1  0.245500  0.509900  0.295600  1.0  0.1123
  H  H49  1  0.335600  0.407700  0.370000  1.0  0.1162
  H  H50  1  0.359300  0.534800  0.359600  1.0  0.1188
  H  H51  1  0.479300  0.849500  0.358200  1.0  0.1017
  H  H52  1  0.533100  0.820000  0.375000  1.0  0.1175
  H  H53  1  0.532500  0.020400  0.301300  1.0  0.1022
  H  H54  1  0.478200  0.048300  0.283500  1.0  0.1122
  H  H55  1  0.587300  0.839000  0.404900  1.0  0.1096
  H  H56  1  0.639600  0.801000  0.417600  1.0  0.1096
  H  H57  1  0.621300  0.900700  0.300600  1.0  0.0912
  H  H58  1  0.568300  0.936400  0.287600  1.0  0.1021
  H  H59  1  0.431400  0.076900  0.270800  1.0  0.1184
  H  H60  1  0.321200  0.972200  0.858100  1.0  0.1107
  H  H61  1  0.399500  0.114100  0.941100  1.0  0.1161
  H  H62  1  0.410900  0.916400  0.870300  1.0  0.11
  H  H63  1  0.389100  0.771700  0.861900  1.0  0.1202
  H  H64  1  0.367100  0.649800  0.817400  1.0  0.1184
  H  H65  1  0.285300  0.790000  0.743700  1.0  0.1065
  H  H66  1  0.307000  0.911400  0.788400  1.0  0.1089
  H  H67  1  0.351500  0.570000  0.757000  1.0  0.12
  H  H68  1  0.329200  0.443600  0.716700  1.0  0.1221
  H  H69  1  0.238500  0.527700  0.690700  1.0  0.1081
  H  H70  1  0.260900  0.654700  0.731800  1.0  0.1145
  H  H71  1  0.309400  0.153300  0.845300  1.0  0.1227
  H  H72  1  0.278200  0.260600  0.857100  1.0  0.1048
  H  H73  1  0.319700  0.196000  0.984400  1.0  0.1174
  H  H74  1  0.352300  0.092800  0.973100  1.0  0.1081
  H  H75  1  0.267000  0.252300  0.974000  1.0  0.1094
  H  H76  1  0.240100  0.371300  0.986600  1.0  0.113
  H  H77  1  0.254600  0.518600  0.899700  1.0  0.1077
  H  H78  1  0.280800  0.399800  0.886400  1.0  0.1018
  H  H79  1  0.444400  0.169600  0.939700  1.0  0.1152
  H  H80  1  0.500100  0.198600  0.969300  1.0  0.1166
  H  H81  1  0.516800  0.943900  0.951200  1.0  0.1175
  H  H82  1  0.461400  0.913300  0.923000  1.0  0.1265
  H  H83  1  0.554600  0.182800  0.026300  1.0  0.1099
  H  H84  1  0.611200  0.202700  0.055700  1.0  0.1192
  H  H85  1  0.613200  0.030600  0.967500  1.0  0.1083
  H  H86  1  0.557300  0.003900  0.941000  1.0  0.1207
  H  H87  1  0.255150  0.670780  0.909900  1.0  0.2506
  H  H88  1  0.219900  0.200000  0.498920  1.0  0.2308
  H  H89  1  0.844800  0.480200  0.256500  1.0  0.1104
  H  H90  1  0.928400  0.343100  0.324800  1.0  0.1199
  H  H91  1  0.904100  0.708000  0.260800  1.0  0.1212
  H  H92  1  0.877500  0.826400  0.214600  1.0  0.1156
  H  H93  1  0.800100  0.667700  0.143100  1.0  0.114
  H  H94  1  0.826900  0.549600  0.188500  1.0  0.1078
  H  H95  1  0.857300  0.900500  0.146800  1.0  0.1245
  H  H96  1  0.828500  0.024500  0.107400  1.0  0.1144
  H  H97  1  0.744400  0.922300  0.099400  1.0  0.107
  H  H98  1  0.773200  0.798700  0.138900  1.0  0.107
  H  H99  1  0.822300  0.341400  0.245300  1.0  0.1129
  H  H100  1  0.795800  0.218400  0.256200  1.0  0.1123
  H  H101  1  0.874600  0.172800  0.371800  1.0  0.1174
  H  H102  1  0.901000  0.294600  0.360800  1.0  0.1103
  H  H103  1  0.769500  0.136800  0.283800  1.0  0.1138
  H  H104  1  0.745500  0.009900  0.295600  1.0  0.1123
  H  H105  1  0.835600  0.907700  0.370000  1.0  0.1162
  H  H106  1  0.859300  0.034800  0.359600  1.0  0.1188
  H  H107  1  0.979300  0.349500  0.358200  1.0  0.1017
  H  H108  1  0.033100  0.320000  0.375000  1.0  0.1199
  H  H109  1  0.032500  0.520400  0.301300  1.0  0.1022
  H  H110  1  0.978200  0.548300  0.283500  1.0  0.1122
  H  H111  1  0.087300  0.339000  0.404900  1.0  0.1096
  H  H112  1  0.139600  0.301000  0.417600  1.0  0.1096
  H  H113  1  0.121300  0.400700  0.300600  1.0  0.0912
  H  H114  1  0.068300  0.436400  0.287600  1.0  0.1021
  H  H115  1  0.931400  0.576900  0.270800  1.0  0.1184
  H  H116  1  0.821200  0.472200  0.858100  1.0  0.1107
  H  H117  1  0.899500  0.614100  0.941100  1.0  0.1161
  H  H118  1  0.910900  0.416400  0.870300  1.0  0.11
  H  H119  1  0.889100  0.271700  0.861900  1.0  0.1202
  H  H120  1  0.867100  0.149800  0.817400  1.0  0.1184
  H  H121  1  0.785300  0.290000  0.743700  1.0  0.1065
  H  H122  1  0.807000  0.411400  0.788400  1.0  0.1089
  H  H123  1  0.851500  0.070000  0.757000  1.0  0.12
  H  H124  1  0.829200  0.943600  0.716700  1.0  0.1221
  H  H125  1  0.738500  0.027700  0.690700  1.0  0.1081
  H  H126  1  0.760900  0.154700  0.731800  1.0  0.1145
  H  H127  1  0.809400  0.653300  0.845300  1.0  0.1227
  H  H128  1  0.778200  0.760600  0.857100  1.0  0.1048
  H  H129  1  0.819700  0.696000  0.984400  1.0  0.1174
  H  H130  1  0.852300  0.592800  0.973100  1.0  0.1081
  H  H131  1  0.767000  0.752300  0.974000  1.0  0.1094
  H  H132  1  0.740100  0.871300  0.986600  1.0  0.113
  H  H133  1  0.754600  0.018600  0.899700  1.0  0.1077
  H  H134  1  0.780800  0.899800  0.886400  1.0  0.1018
  H  H135  1  0.944400  0.669600  0.939700  1.0  0.1152
  H  H136  1  0.000100  0.698600  0.969300  1.0  0.1162
  H  H137  1  0.016800  0.443900  0.951200  1.0  0.1175
  H  H138  1  0.961400  0.413300  0.923000  1.0  0.1265
  H  H139  1  0.054600  0.682800  0.026300  1.0  0.1099
  H  H140  1  0.111200  0.702700  0.055700  1.0  0.1192
  H  H141  1  0.113200  0.530600  0.967500  1.0  0.1083
  H  H142  1  0.057300  0.503900  0.941000  1.0  0.1207
  H  H143  1  0.755150  0.170780  0.909900  1.0  0.2507
  H  H144  1  0.719900  0.700000  0.498920  1.0  0.2308
  H  H145  1  0.655200  0.980200  0.243500  1.0  0.111
  H  H146  1  0.571600  0.843100  0.175200  1.0  0.1205
  H  H147  1  0.595900  0.208000  0.239200  1.0  0.1216
  H  H148  1  0.622500  0.326400  0.285400  1.0  0.1158
  H  H149  1  0.699900  0.167700  0.356900  1.0  0.1139
  H  H150  1  0.673100  0.049600  0.311500  1.0  0.1083
  H  H151  1  0.642700  0.400500  0.353200  1.0  0.1238
  H  H152  1  0.671500  0.524500  0.392600  1.0  0.1148
  H  H153  1  0.755600  0.422300  0.400600  1.0  0.1071
  H  H154  1  0.726800  0.298700  0.361100  1.0  0.1073
  H  H155  1  0.677700  0.841400  0.254700  1.0  0.1132
  H  H156  1  0.704200  0.718400  0.243800  1.0  0.1126
  H  H157  1  0.625400  0.672800  0.128200  1.0  0.1171
  H  H158  1  0.599000  0.794600  0.139200  1.0  0.1105
  H  H159  1  0.730500  0.636800  0.216200  1.0  0.1138
  H  H160  1  0.754500  0.509900  0.204400  1.0  0.1121
  H  H161  1  0.664400  0.407700  0.130000  1.0  0.1148
  H  H162  1  0.640700  0.534800  0.140400  1.0  0.1191
  H  H163  1  0.520700  0.849500  0.141800  1.0  0.1017
  H  H164  1  0.466900  0.820000  0.125000  1.0  0.117
  H  H165  1  0.467500  0.020400  0.198700  1.0  0.1026
  H  H166  1  0.521800  0.048300  0.216500  1.0  0.1123
  H  H167  1  0.412700  0.839000  0.095100  1.0  0.1096
  H  H168  1  0.360400  0.801000  0.082400  1.0  0.1091
  H  H169  1  0.378700  0.900700  0.199400  1.0  0.0916
  H  H170  1  0.431700  0.936400  0.212400  1.0  0.1021
  H  H171  1  0.568600  0.076900  0.229200  1.0  0.1191
  H  H172  1  0.678800  0.972200  0.641900  1.0  0.1107
  H  H173  1  0.600500  0.114100  0.558900  1.0  0.1168
  H  H174  1  0.589100  0.916400  0.629700  1.0  0.1109
  H  H175  1  0.610900  0.771700  0.638100  1.0  0.1199
  H  H176  1  0.632900  0.649800  0.682600  1.0  0.1181
  H  H177  1  0.714700  0.790000  0.756300  1.0  0.1066
  H  H178  1  0.693000  0.911400  0.711600  1.0  0.1088
  H  H179  1  0.648500  0.570000  0.743000  1.0  0.1203
  H  H180  1  0.670800  0.443600  0.783300  1.0  0.1221
  H  H181  1  0.761500  0.527700  0.809300  1.0  0.1082
  H  H182  1  0.739100  0.654700  0.768200  1.0  0.1143
  H  H183  1  0.690600  0.153300  0.654700  1.0  0.1221
  H  H184  1  0.721800  0.260600  0.642900  1.0  0.1051
  H  H185  1  0.680300  0.196000  0.515600  1.0  0.1171
  H  H186  1  0.647700  0.092800  0.526900  1.0  0.1085
  H  H187  1  0.733000  0.252300  0.526000  1.0  0.1086
  H  H188  1  0.759900  0.371300  0.513400  1.0  0.1126
  H  H189  1  0.745400  0.518600  0.600300  1.0  0.1079
  H  H190  1  0.719200  0.399800  0.613600  1.0  0.1018
  H  H191  1  0.555600  0.169600  0.560300  1.0  0.1159
  H  H192  1  0.499900  0.198600  0.530700  1.0  0.1165
  H  H193  1  0.483200  0.943900  0.548800  1.0  0.118
  H  H194  1  0.538600  0.913300  0.577000  1.0  0.1261
  H  H195  1  0.445400  0.182800  0.473700  1.0  0.1101
  H  H196  1  0.388800  0.202700  0.444300  1.0  0.1196
  H  H197  1  0.386800  0.030600  0.532500  1.0  0.1083
  H  H198  1  0.442700  0.003900  0.559000  1.0  0.1213
  H  H199  1  0.744850  0.670780  0.590100  1.0  0.2516
  H  H200  1  0.780100  0.200000  0.001080  1.0  0.2295
  H  H201  1  0.155200  0.480200  0.243500  1.0  0.111
  H  H202  1  0.071600  0.343100  0.175200  1.0  0.1205
  H  H203  1  0.095900  0.708000  0.239200  1.0  0.1216
  H  H204  1  0.122500  0.826400  0.285400  1.0  0.1158
  H  H205  1  0.199900  0.667700  0.356900  1.0  0.1139
  H  H206  1  0.173100  0.549600  0.311500  1.0  0.1083
  H  H207  1  0.142700  0.900500  0.353200  1.0  0.1238
  H  H208  1  0.171500  0.024500  0.392600  1.0  0.1148
  H  H209  1  0.255600  0.922300  0.400600  1.0  0.1071
  H  H210  1  0.226800  0.798700  0.361100  1.0  0.1073
  H  H211  1  0.177700  0.341400  0.254700  1.0  0.1132
  H  H212  1  0.204200  0.218400  0.243800  1.0  0.1126
  H  H213  1  0.125400  0.172800  0.128200  1.0  0.1171
  H  H214  1  0.099000  0.294600  0.139200  1.0  0.1105
  H  H215  1  0.230500  0.136800  0.216200  1.0  0.1138
  H  H216  1  0.254500  0.009900  0.204400  1.0  0.1121
  H  H217  1  0.164400  0.907700  0.130000  1.0  0.1148
  H  H218  1  0.140700  0.034800  0.140400  1.0  0.1191
  H  H219  1  0.020700  0.349500  0.141800  1.0  0.1017
  H  H220  1  0.966900  0.320000  0.125000  1.0  0.1197
  H  H221  1  0.967500  0.520400  0.198700  1.0  0.1026
  H  H222  1  0.021800  0.548300  0.216500  1.0  0.1123
  H  H223  1  0.912700  0.339000  0.095100  1.0  0.1096
  H  H224  1  0.860400  0.301000  0.082400  1.0  0.1091
  H  H225  1  0.878700  0.400700  0.199400  1.0  0.0916
  H  H226  1  0.931700  0.436400  0.212400  1.0  0.1021
  H  H227  1  0.068600  0.576900  0.229200  1.0  0.1191
  H  H228  1  0.178800  0.472200  0.641900  1.0  0.1107
  H  H229  1  0.100500  0.614100  0.558900  1.0  0.1168
  H  H230  1  0.089100  0.416400  0.629700  1.0  0.1109
  H  H231  1  0.110900  0.271700  0.638100  1.0  0.1199
  H  H232  1  0.132900  0.149800  0.682600  1.0  0.1181
  H  H233  1  0.214700  0.290000  0.756300  1.0  0.1066
  H  H234  1  0.193000  0.411400  0.711600  1.0  0.1088
  H  H235  1  0.148500  0.070000  0.743000  1.0  0.1203
  H  H236  1  0.170800  0.943600  0.783300  1.0  0.1221
  H  H237  1  0.261500  0.027700  0.809300  1.0  0.1082
  H  H238  1  0.239100  0.154700  0.768200  1.0  0.1143
  H  H239  1  0.190600  0.653300  0.654700  1.0  0.1221
  H  H240  1  0.221800  0.760600  0.642900  1.0  0.1051
  H  H241  1  0.180300  0.696000  0.515600  1.0  0.1171
  H  H242  1  0.147700  0.592800  0.526900  1.0  0.1085
  H  H243  1  0.233000  0.752300  0.526000  1.0  0.1086
  H  H244  1  0.259900  0.871300  0.513400  1.0  0.1126
  H  H245  1  0.245400  0.018600  0.600300  1.0  0.1079
  H  H246  1  0.219200  0.899800  0.613600  1.0  0.1018
  H  H247  1  0.055600  0.669600  0.560300  1.0  0.1159
  H  H248  1  0.999900  0.698600  0.530700  1.0  0.1165
  H  H249  1  0.983200  0.443900  0.548800  1.0  0.118
  H  H250  1  0.038600  0.413300  0.577000  1.0  0.1261
  H  H251  1  0.945400  0.682800  0.473700  1.0  0.1101
  H  H252  1  0.888800  0.702700  0.444300  1.0  0.1196
  H  H253  1  0.886800  0.530600  0.532500  1.0  0.1083
  H  H254  1  0.942700  0.503900  0.559000  1.0  0.1213
  H  H255  1  0.244850  0.170780  0.590100  1.0  0.2517
  H  H256  1  0.280100  0.700000  0.001080  1.0  0.2295
  H  H257  1  0.655200  0.019800  0.743500  1.0  0.111
  H  H258  1  0.571600  0.156900  0.675200  1.0  0.1201
  H  H259  1  0.595900  0.792000  0.739200  1.0  0.1215
  H  H260  1  0.622500  0.673600  0.785400  1.0  0.1156
  H  H261  1  0.699900  0.832300  0.856900  1.0  0.1136
  H  H262  1  0.673100  0.950400  0.811500  1.0  0.1078
  H  H263  1  0.642700  0.599500  0.853200  1.0  0.1237
  H  H264  1  0.671500  0.475500  0.892600  1.0  0.115
  H  H265  1  0.755600  0.577700  0.900600  1.0  0.1071
  H  H266  1  0.726800  0.701300  0.861100  1.0  0.1072
  H  H267  1  0.677700  0.158600  0.754700  1.0  0.1133
  H  H268  1  0.704200  0.281600  0.743800  1.0  0.1125
  H  H269  1  0.625400  0.327200  0.628200  1.0  0.1172
  H  H270  1  0.599000  0.205400  0.639200  1.0  0.1108
  H  H271  1  0.730500  0.363200  0.716200  1.0  0.1143
  H  H272  1  0.754500  0.490100  0.704400  1.0  0.1126
  H  H273  1  0.664400  0.592300  0.630000  1.0  0.1152
  H  H274  1  0.640700  0.465200  0.640400  1.0  0.1191
  H  H275  1  0.520700  0.150500  0.641800  1.0  0.1025
  H  H276  1  0.466900  0.180000  0.625000  1.0  0.1178
  H  H277  1  0.467500  0.979600  0.698700  1.0  0.1021
  H  H278  1  0.521800  0.951700  0.716500  1.0  0.1129
  H  H279  1  0.412700  0.161000  0.595100  1.0  0.1094
  H  H280  1  0.360400  0.199000  0.582400  1.0  0.1096
  H  H281  1  0.378700  0.099300  0.699400  1.0  0.0912
  H  H282  1  0.431700  0.063600  0.712400  1.0  0.1025
  H  H283  1  0.568600  0.923100  0.729200  1.0  0.1184
  H  H284  1  0.678800  0.027800  0.141900  1.0  0.1109
  H  H285  1  0.600500  0.885900  0.058900  1.0  0.1164
  H  H286  1  0.589100  0.083600  0.129700  1.0  0.1109
  H  H287  1  0.610900  0.228300  0.138100  1.0  0.1197
  H  H288  1  0.632900  0.350200  0.182600  1.0  0.1185
  H  H289  1  0.714700  0.210000  0.256300  1.0  0.1069
  H  H290  1  0.693000  0.088600  0.211600  1.0  0.1089
  H  H291  1  0.648500  0.430000  0.243000  1.0  0.1206
  H  H292  1  0.670800  0.556400  0.283300  1.0  0.1225
  H  H293  1  0.761500  0.472300  0.309300  1.0  0.1081
  H  H294  1  0.739100  0.345300  0.268200  1.0  0.1141
  H  H295  1  0.690600  0.846700  0.154700  1.0  0.1222
  H  H296  1  0.721800  0.739400  0.142900  1.0  0.1051
  H  H297  1  0.680300  0.804000  0.015600  1.0  0.1173
  H  H298  1  0.647700  0.907200  0.026900  1.0  0.1084
  H  H299  1  0.733000  0.747700  0.026000  1.0  0.1091
  H  H300  1  0.759900  0.628700  0.013400  1.0  0.1126
  H  H301  1  0.745400  0.481400  0.100300  1.0  0.108
  H  H302  1  0.719200  0.600200  0.113600  1.0  0.1019
  H  H303  1  0.555600  0.830400  0.060300  1.0  0.1152
  H  H304  1  0.499900  0.801400  0.030700  1.0  0.1157
  H  H305  1  0.483200  0.056100  0.048800  1.0  0.1175
  H  H306  1  0.538600  0.086700  0.077000  1.0  0.1257
  H  H307  1  0.445400  0.817200  0.973700  1.0  0.1099
  H  H308  1  0.388800  0.797300  0.944300  1.0  0.1186
  H  H309  1  0.386800  0.969400  0.032500  1.0  0.1085
  H  H310  1  0.442700  0.996100  0.059000  1.0  0.1208
  H  H311  1  0.744850  0.329220  0.090100  1.0  0.2506
  H  H312  1  0.780100  0.800000  0.501080  1.0  0.23
  H  H313  1  0.155200  0.519800  0.743500  1.0  0.111
  H  H314  1  0.071600  0.656900  0.675200  1.0  0.1201
  H  H315  1  0.095900  0.292000  0.739200  1.0  0.1215
  H  H316  1  0.122500  0.173600  0.785400  1.0  0.1156
  H  H317  1  0.199900  0.332300  0.856900  1.0  0.1136
  H  H318  1  0.173100  0.450400  0.811500  1.0  0.1078
  H  H319  1  0.142700  0.099500  0.853200  1.0  0.1237
  H  H320  1  0.171500  0.975500  0.892600  1.0  0.115
  H  H321  1  0.255600  0.077700  0.900600  1.0  0.1071
  H  H322  1  0.226800  0.201300  0.861100  1.0  0.1072
  H  H323  1  0.177700  0.658600  0.754700  1.0  0.1133
  H  H324  1  0.204200  0.781600  0.743800  1.0  0.1125
  H  H325  1  0.125400  0.827200  0.628200  1.0  0.1172
  H  H326  1  0.099000  0.705400  0.639200  1.0  0.1108
  H  H327  1  0.230500  0.863200  0.716200  1.0  0.1143
  H  H328  1  0.254500  0.990100  0.704400  1.0  0.1126
  H  H329  1  0.164400  0.092300  0.630000  1.0  0.1152
  H  H330  1  0.140700  0.965200  0.640400  1.0  0.1191
  H  H331  1  0.020700  0.650500  0.641800  1.0  0.1025
  H  H332  1  0.966900  0.680000  0.625000  1.0  0.1206
  H  H333  1  0.967500  0.479600  0.698700  1.0  0.1021
  H  H334  1  0.021800  0.451700  0.716500  1.0  0.1129
  H  H335  1  0.912700  0.661000  0.595100  1.0  0.1094
  H  H336  1  0.860400  0.699000  0.582400  1.0  0.1096
  H  H337  1  0.878700  0.599300  0.699400  1.0  0.0912
  H  H338  1  0.931700  0.563600  0.712400  1.0  0.1025
  H  H339  1  0.068600  0.423100  0.729200  1.0  0.1184
  H  H340  1  0.178800  0.527800  0.141900  1.0  0.1109
  H  H341  1  0.100500  0.385900  0.058900  1.0  0.1164
  H  H342  1  0.089100  0.583600  0.129700  1.0  0.1109
  H  H343  1  0.110900  0.728300  0.138100  1.0  0.1197
  H  H344  1  0.132900  0.850200  0.182600  1.0  0.1185
  H  H345  1  0.214700  0.710000  0.256300  1.0  0.1069
  H  H346  1  0.193000  0.588600  0.211600  1.0  0.1089
  H  H347  1  0.148500  0.930000  0.243000  1.0  0.1206
  H  H348  1  0.170800  0.056400  0.283300  1.0  0.1225
  H  H349  1  0.261500  0.972300  0.309300  1.0  0.1081
  H  H350  1  0.239100  0.845300  0.268200  1.0  0.1141
  H  H351  1  0.190600  0.346700  0.154700  1.0  0.1222
  H  H352  1  0.221800  0.239400  0.142900  1.0  0.1051
  H  H353  1  0.180300  0.304000  0.015600  1.0  0.1173
  H  H354  1  0.147700  0.407200  0.026900  1.0  0.1084
  H  H355  1  0.233000  0.247700  0.026000  1.0  0.1091
  H  H356  1  0.259900  0.128700  0.013400  1.0  0.1126
  H  H357  1  0.245400  0.981400  0.100300  1.0  0.108
  H  H358  1  0.219200  0.100200  0.113600  1.0  0.1019
  H  H359  1  0.055600  0.330400  0.060300  1.0  0.1152
  H  H360  1  0.999900  0.301400  0.030700  1.0  0.1162
  H  H361  1  0.983200  0.556100  0.048800  1.0  0.1175
  H  H362  1  0.038600  0.586700  0.077000  1.0  0.1257
  H  H363  1  0.945400  0.317200  0.973700  1.0  0.1099
  H  H364  1  0.888800  0.297300  0.944300  1.0  0.1186
  H  H365  1  0.886800  0.469400  0.032500  1.0  0.1085
  H  H366  1  0.942700  0.496100  0.059000  1.0  0.1208
  H  H367  1  0.244850  0.829220  0.090100  1.0  0.2508
  H  H368  1  0.280100  0.300000  0.501080  1.0  0.23
  H  H369  1  0.344800  0.019800  0.756500  1.0  0.1104
  H  H370  1  0.428400  0.156900  0.824800  1.0  0.1192
  H  H371  1  0.404100  0.792000  0.760800  1.0  0.1213
  H  H372  1  0.377500  0.673600  0.714600  1.0  0.1165
  H  H373  1  0.300100  0.832300  0.643100  1.0  0.1145
  H  H374  1  0.326900  0.950400  0.688500  1.0  0.1082
  H  H375  1  0.357300  0.599500  0.646800  1.0  0.1244
  H  H376  1  0.328500  0.475500  0.607400  1.0  0.1144
  H  H377  1  0.244400  0.577700  0.599400  1.0  0.1067
  H  H378  1  0.273200  0.701300  0.638900  1.0  0.1069
  H  H379  1  0.322300  0.158600  0.745300  1.0  0.1129
  H  H380  1  0.295800  0.281600  0.756200  1.0  0.1121
  H  H381  1  0.374600  0.327200  0.871800  1.0  0.1173
  H  H382  1  0.401000  0.205400  0.860800  1.0  0.1123
  H  H383  1  0.269500  0.363200  0.783800  1.0  0.1135
  H  H384  1  0.245500  0.490100  0.795600  1.0  0.1119
  H  H385  1  0.335600  0.592300  0.870000  1.0  0.1159
  H  H386  1  0.359300  0.465200  0.859600  1.0  0.1184
  H  H387  1  0.479300  0.150500  0.858200  1.0  0.1015
  H  H388  1  0.533100  0.180000  0.875000  1.0  0.117
  H  H389  1  0.532500  0.979600  0.801300  1.0  0.1019
  H  H390  1  0.478200  0.951700  0.783500  1.0  0.1114
  H  H391  1  0.587300  0.161000  0.904900  1.0  0.1096
  H  H392  1  0.639600  0.199000  0.917600  1.0  0.1092
  H  H393  1  0.621300  0.099300  0.800600  1.0  0.0913
  H  H394  1  0.568300  0.063600  0.787600  1.0  0.1022
  H  H395  1  0.431400  0.923100  0.770800  1.0  0.118
  H  H396  1  0.321200  0.027800  0.358100  1.0  0.1107
  H  H397  1  0.399500  0.885900  0.441100  1.0  0.1164
  H  H398  1  0.410900  0.083600  0.370300  1.0  0.1109
  H  H399  1  0.389100  0.228300  0.361900  1.0  0.12
  H  H400  1  0.367100  0.350200  0.317400  1.0  0.1183
  H  H401  1  0.285300  0.210000  0.243700  1.0  0.1063
  H  H402  1  0.307000  0.088600  0.288400  1.0  0.1089
  H  H403  1  0.351500  0.430000  0.257000  1.0  0.12
  H  H404  1  0.329200  0.556400  0.216700  1.0  0.1219
  H  H405  1  0.238500  0.472300  0.190700  1.0  0.108
  H  H406  1  0.260900  0.345300  0.231800  1.0  0.1143
  H  H407  1  0.309400  0.846700  0.345300  1.0  0.1228
  H  H408  1  0.278200  0.739400  0.357100  1.0  0.1043
  H  H409  1  0.319700  0.804000  0.484400  1.0  0.1177
  H  H410  1  0.352300  0.907200  0.473100  1.0  0.1083
  H  H411  1  0.267000  0.747700  0.474000  1.0  0.1093
  H  H412  1  0.240100  0.628700  0.486600  1.0  0.1129
  H  H413  1  0.254600  0.481400  0.399700  1.0  0.1075
  H  H414  1  0.280800  0.600200  0.386400  1.0  0.1018
  H  H415  1  0.444400  0.830400  0.439700  1.0  0.1147
  H  H416  1  0.500100  0.801400  0.469300  1.0  0.1162
  H  H417  1  0.516800  0.056100  0.451200  1.0  0.1174
  H  H418  1  0.461400  0.086700  0.423000  1.0  0.1263
  H  H419  1  0.554600  0.817200  0.526300  1.0  0.1104
  H  H420  1  0.611200  0.797300  0.555700  1.0  0.1194
  H  H421  1  0.613200  0.969400  0.467500  1.0  0.1085
  H  H422  1  0.557300  0.996100  0.441000  1.0  0.121
  H  H423  1  0.255150  0.329220  0.409900  1.0  0.2496
  H  H424  1  0.219900  0.800000  0.998920  1.0  0.2298
  H  H425  1  0.844800  0.519800  0.756500  1.0  0.1104
  H  H426  1  0.928400  0.656900  0.824800  1.0  0.1192
  H  H427  1  0.904100  0.292000  0.760800  1.0  0.1213
  H  H428  1  0.877500  0.173600  0.714600  1.0  0.1165
  H  H429  1  0.800100  0.332300  0.643100  1.0  0.1145
  H  H430  1  0.826900  0.450400  0.688500  1.0  0.1082
  H  H431  1  0.857300  0.099500  0.646800  1.0  0.1244
  H  H432  1  0.828500  0.975500  0.607400  1.0  0.1144
  H  H433  1  0.744400  0.077700  0.599400  1.0  0.1067
  H  H434  1  0.773200  0.201300  0.638900  1.0  0.1069
  H  H435  1  0.822300  0.658600  0.745300  1.0  0.1129
  H  H436  1  0.795800  0.781600  0.756200  1.0  0.1121
  H  H437  1  0.874600  0.827200  0.871800  1.0  0.1173
  H  H438  1  0.901000  0.705400  0.860800  1.0  0.1123
  H  H439  1  0.769500  0.863200  0.783800  1.0  0.1135
  H  H440  1  0.745500  0.990100  0.795600  1.0  0.1119
  H  H441  1  0.835600  0.092300  0.870000  1.0  0.1159
  H  H442  1  0.859300  0.965200  0.859600  1.0  0.1184
  H  H443  1  0.979300  0.650500  0.858200  1.0  0.1015
  H  H444  1  0.033100  0.680000  0.875000  1.0  0.1198
  H  H445  1  0.032500  0.479600  0.801300  1.0  0.1019
  H  H446  1  0.978200  0.451700  0.783500  1.0  0.1114
  H  H447  1  0.087300  0.661000  0.904900  1.0  0.1096
  H  H448  1  0.139600  0.699000  0.917600  1.0  0.1092
  H  H449  1  0.121300  0.599300  0.800600  1.0  0.0913
  H  H450  1  0.068300  0.563600  0.787600  1.0  0.1022
  H  H451  1  0.931400  0.423100  0.770800  1.0  0.118
  H  H452  1  0.821200  0.527800  0.358100  1.0  0.1107
  H  H453  1  0.899500  0.385900  0.441100  1.0  0.1164
  H  H454  1  0.910900  0.583600  0.370300  1.0  0.1109
  H  H455  1  0.889100  0.728300  0.361900  1.0  0.12
  H  H456  1  0.867100  0.850200  0.317400  1.0  0.1183
  H  H457  1  0.785300  0.710000  0.243700  1.0  0.1063
  H  H458  1  0.807000  0.588600  0.288400  1.0  0.1089
  H  H459  1  0.851500  0.930000  0.257000  1.0  0.12
  H  H460  1  0.829200  0.056400  0.216700  1.0  0.1219
  H  H461  1  0.738500  0.972300  0.190700  1.0  0.108
  H  H462  1  0.760900  0.845300  0.231800  1.0  0.1143
  H  H463  1  0.809400  0.346700  0.345300  1.0  0.1228
  H  H464  1  0.778200  0.239400  0.357100  1.0  0.1043
  H  H465  1  0.819700  0.304000  0.484400  1.0  0.1177
  H  H466  1  0.852300  0.407200  0.473100  1.0  0.1083
  H  H467  1  0.767000  0.247700  0.474000  1.0  0.1093
  H  H468  1  0.740100  0.128700  0.486600  1.0  0.1129
  H  H469  1  0.754600  0.981400  0.399700  1.0  0.1075
  H  H470  1  0.780800  0.100200  0.386400  1.0  0.1018
  H  H471  1  0.944400  0.330400  0.439700  1.0  0.1147
  H  H472  1  0.000100  0.301400  0.469300  1.0  0.1162
  H  H473  1  0.016800  0.556100  0.451200  1.0  0.1174
  H  H474  1  0.961400  0.586700  0.423000  1.0  0.1263
  H  H475  1  0.054600  0.317200  0.526300  1.0  0.1104
  H  H476  1  0.111200  0.297300  0.555700  1.0  0.1194
  H  H477  1  0.113200  0.469400  0.467500  1.0  0.1085
  H  H478  1  0.057300  0.496100  0.441000  1.0  0.121
  H  H479  1  0.755150  0.829220  0.409900  1.0  0.2496
  H  H480  1  0.719900  0.300000  0.998920  1.0  0.2298
  C  C481  1  0.385300  0.040100  0.258480  1.0  0.0389
  C  C482  1  0.367800  0.974400  0.267570  1.0  -0.1012
  C  C483  1  0.383490  0.901200  0.292420  1.0  -0.008
  C  C484  1  0.417440  0.893800  0.308170  1.0  -0.136
  C  C485  1  0.368120  0.116100  0.230040  1.0  0.0575
  C  C486  1  0.382940  0.199400  0.237020  1.0  -0.1375
  C  C487  1  0.367010  0.270300  0.209430  1.0  -0.1224
  C  C488  1  0.336040  0.260000  0.174460  1.0  0.0418
  C  C489  1  0.321150  0.176300  0.166910  1.0  -0.1591
  C  C490  1  0.337140  0.106100  0.194180  1.0  -0.1132
  C  C491  1  0.318180  0.337400  0.147310  1.0  0.0302
  C  C492  1  0.334390  0.404800  0.137350  1.0  -0.1356
  C  C493  1  0.317210  0.478300  0.113690  1.0  -0.0465
  C  C494  1  0.283600  0.484900  0.099070  1.0  -0.1321
  C  C495  1  0.267300  0.417900  0.108920  1.0  -0.058
  C  C496  1  0.284530  0.344600  0.132600  1.0  -0.1123
  C  C497  1  0.264860  0.563300  0.073820  1.0  0.6713
  C  C498  1  0.365030  0.828700  0.301360  1.0  0.0382
  C  C499  1  0.333240  0.806500  0.270750  1.0  -0.0951
  C  C500  1  0.317400  0.732800  0.277480  1.0  -0.1099
  C  C501  1  0.332480  0.681000  0.314180  1.0  0.0308
  C  C502  1  0.363950  0.706100  0.345630  1.0  -0.1423
  C  C503  1  0.379700  0.778800  0.338990  1.0  -0.1527
  C  C504  1  0.316840  0.599800  0.321090  1.0  0.0447
  C  C505  1  0.283020  0.590700  0.301790  1.0  -0.1027
  C  C506  1  0.268660  0.514800  0.308510  1.0  -0.0968
  C  C507  1  0.288380  0.445900  0.334330  1.0  -0.1528
  C  C508  1  0.321990  0.454600  0.352750  1.0  -0.044
  C  C509  1  0.336130  0.530000  0.346510  1.0  -0.1424
  C  C510  1  0.273620  0.363800  0.342600  1.0  0.7066
  C  C511  1  0.471610  0.945400  0.315160  1.0  0.0654
  C  C512  1  0.489360  0.882800  0.344270  1.0  -0.1772
  C  C513  1  0.521730  0.865400  0.354630  1.0  -0.1734
  C  C514  1  0.537790  0.912300  0.336100  1.0  0.0908
  C  C515  1  0.521500  0.981400  0.311770  1.0  -0.1786
  C  C516  1  0.488750  0.998400  0.301050  1.0  -0.1727
  C  C517  1  0.572130  0.889700  0.344910  1.0  0.0566
  C  C518  1  0.593940  0.850600  0.383160  1.0  -0.1275
  C  C519  1  0.625080  0.828000  0.390800  1.0  -0.0706
  C  C520  1  0.635550  0.844300  0.359620  1.0  -0.1429
  C  C521  1  0.614270  0.886500  0.321710  1.0  -0.0397
  C  C522  1  0.582790  0.908300  0.314140  1.0  -0.1183
  C  C523  1  0.668980  0.815100  0.367500  1.0  0.6876
  C  C524  1  0.435530  0.958400  0.300140  1.0  -0.0378
  C  C525  1  0.419230  0.031500  0.275830  1.0  -0.1446
  C  C526  1  0.364070  0.931400  0.860100  1.0  0.0026
  C  C527  1  0.344060  0.984000  0.870950  1.0  -0.1301
  C  C528  1  0.356860  0.053400  0.900150  1.0  -0.0076
  C  C529  1  0.390440  0.068900  0.919770  1.0  -0.0804
  C  C530  1  0.411090  0.018800  0.908570  1.0  0.0306
  C  C531  1  0.397220  0.950600  0.878460  1.0  -0.1409
  C  C532  1  0.350030  0.854200  0.830180  1.0  0.0607
  C  C533  1  0.367720  0.775400  0.838000  1.0  -0.1289
  C  C534  1  0.354620  0.702900  0.811550  1.0  -0.1096
  C  C535  1  0.323270  0.705700  0.776190  1.0  0.0453
  C  C536  1  0.306290  0.785500  0.768040  1.0  -0.1183
  C  C537  1  0.319310  0.857900  0.794590  1.0  -0.1222
  C  C538  1  0.308720  0.625900  0.749040  1.0  0.0418
  C  C539  1  0.328450  0.561600  0.743710  1.0  -0.1008
  C  C540  1  0.315280  0.486700  0.719690  1.0  -0.0574
  C  C541  1  0.281500  0.473200  0.699490  1.0  -0.1419
  C  C542  1  0.261600  0.536300  0.704310  1.0  -0.0414
  C  C543  1  0.274900  0.611900  0.728780  1.0  -0.1071
  C  C544  1  0.267410  0.392200  0.672650  1.0  0.6753
  C  C545  1  0.334840  0.114200  0.908680  1.0  0.0617
  C  C546  1  0.312040  0.163400  0.873830  1.0  -0.1548
  C  C547  1  0.293400  0.226700  0.880930  1.0  -0.1046
  C  C548  1  0.296290  0.242100  0.922170  1.0  0.0829
  C  C549  1  0.318050  0.189200  0.956160  1.0  -0.1122
  C  C550  1  0.337240  0.127100  0.949350  1.0  -0.1314
  C  C551  1  0.277370  0.314700  0.929290  1.0  0.0326
  C  C552  1  0.264700  0.306700  0.959000  1.0  -0.1444
  C  C553  1  0.248770  0.377500  0.966570  1.0  -0.0289
  C  C554  1  0.245450  0.457000  0.945240  1.0  -0.1295
  C  C555  1  0.257290  0.464600  0.915090  1.0  -0.0704
  C  C556  1  0.272930  0.393800  0.907310  1.0  -0.0996
  C  C557  1  0.230990  0.535600  0.956190  1.0  0.7044
  C  C558  1  0.446620  0.039400  0.927460  1.0  0.0305
  C  C559  1  0.459010  0.122900  0.941840  1.0  -0.1465
  C  C560  1  0.492280  0.140400  0.959300  1.0  -0.126
  C  C561  1  0.514310  0.075200  0.962570  1.0  0.0607
  C  C562  1  0.502070  0.990300  0.948840  1.0  -0.1402
  C  C563  1  0.469010  0.972000  0.931790  1.0  -0.146
  C  C564  1  0.550050  0.093000  0.980580  1.0  0.0471
  C  C565  1  0.566500  0.150900  0.014460  1.0  -0.1235
  C  C566  1  0.600200  0.163900  0.031710  1.0  -0.0229
  C  C567  1  0.617480  0.119900  0.013730  1.0  -0.1569
  C  C568  1  0.601340  0.061000  0.979810  1.0  -0.0166
  C  C569  1  0.567990  0.046000  0.963560  1.0  -0.1595
  C  C570  1  0.653170  0.134500  0.029630  1.0  0.6983
  C  C571  1  0.885300  0.540100  0.258480  1.0  0.0389
  C  C572  1  0.867800  0.474400  0.267570  1.0  -0.1012
  C  C573  1  0.883490  0.401200  0.292420  1.0  -0.008
  C  C574  1  0.917440  0.393800  0.308170  1.0  -0.136
  C  C575  1  0.868120  0.616100  0.230040  1.0  0.0575
  C  C576  1  0.882940  0.699400  0.237020  1.0  -0.1375
  C  C577  1  0.867010  0.770300  0.209430  1.0  -0.1224
  C  C578  1  0.836040  0.760000  0.174460  1.0  0.0418
  C  C579  1  0.821150  0.676300  0.166910  1.0  -0.1591
  C  C580  1  0.837140  0.606100  0.194180  1.0  -0.1132
  C  C581  1  0.818180  0.837400  0.147310  1.0  0.0302
  C  C582  1  0.834390  0.904800  0.137350  1.0  -0.1356
  C  C583  1  0.817210  0.978300  0.113690  1.0  -0.0465
  C  C584  1  0.783600  0.984900  0.099070  1.0  -0.1321
  C  C585  1  0.767300  0.917900  0.108920  1.0  -0.058
  C  C586  1  0.784530  0.844600  0.132600  1.0  -0.1123
  C  C587  1  0.764860  0.063300  0.073820  1.0  0.6713
  C  C588  1  0.865030  0.328700  0.301360  1.0  0.0382
  C  C589  1  0.833240  0.306500  0.270750  1.0  -0.0951
  C  C590  1  0.817400  0.232800  0.277480  1.0  -0.1099
  C  C591  1  0.832480  0.181000  0.314180  1.0  0.0308
  C  C592  1  0.863950  0.206100  0.345630  1.0  -0.1423
  C  C593  1  0.879700  0.278800  0.338990  1.0  -0.1527
  C  C594  1  0.816840  0.099800  0.321090  1.0  0.0447
  C  C595  1  0.783020  0.090700  0.301790  1.0  -0.1027
  C  C596  1  0.768660  0.014800  0.308510  1.0  -0.0968
  C  C597  1  0.788380  0.945900  0.334330  1.0  -0.1528
  C  C598  1  0.821990  0.954600  0.352750  1.0  -0.044
  C  C599  1  0.836130  0.030000  0.346510  1.0  -0.1424
  C  C600  1  0.773620  0.863800  0.342600  1.0  0.7066
  C  C601  1  0.971610  0.445400  0.315160  1.0  0.0654
  C  C602  1  0.989360  0.382800  0.344270  1.0  -0.1772
  C  C603  1  0.021730  0.365400  0.354630  1.0  -0.1734
  C  C604  1  0.037790  0.412300  0.336100  1.0  0.0908
  C  C605  1  0.021500  0.481400  0.311770  1.0  -0.1786
  C  C606  1  0.988750  0.498400  0.301050  1.0  -0.1727
  C  C607  1  0.072130  0.389700  0.344910  1.0  0.0566
  C  C608  1  0.093940  0.350600  0.383160  1.0  -0.1275
  C  C609  1  0.125080  0.328000  0.390800  1.0  -0.0706
  C  C610  1  0.135550  0.344300  0.359620  1.0  -0.1429
  C  C611  1  0.114270  0.386500  0.321710  1.0  -0.0397
  C  C612  1  0.082790  0.408300  0.314140  1.0  -0.1183
  C  C613  1  0.168980  0.315100  0.367500  1.0  0.6876
  C  C614  1  0.935530  0.458400  0.300140  1.0  -0.0378
  C  C615  1  0.919230  0.531500  0.275830  1.0  -0.1446
  C  C616  1  0.864070  0.431400  0.860100  1.0  0.0026
  C  C617  1  0.844060  0.484000  0.870950  1.0  -0.1301
  C  C618  1  0.856860  0.553400  0.900150  1.0  -0.0076
  C  C619  1  0.890440  0.568900  0.919770  1.0  -0.0804
  C  C620  1  0.911090  0.518800  0.908570  1.0  0.0306
  C  C621  1  0.897220  0.450600  0.878460  1.0  -0.1409
  C  C622  1  0.850030  0.354200  0.830180  1.0  0.0607
  C  C623  1  0.867720  0.275400  0.838000  1.0  -0.1289
  C  C624  1  0.854620  0.202900  0.811550  1.0  -0.1096
  C  C625  1  0.823270  0.205700  0.776190  1.0  0.0453
  C  C626  1  0.806290  0.285500  0.768040  1.0  -0.1183
  C  C627  1  0.819310  0.357900  0.794590  1.0  -0.1222
  C  C628  1  0.808720  0.125900  0.749040  1.0  0.0418
  C  C629  1  0.828450  0.061600  0.743710  1.0  -0.1008
  C  C630  1  0.815280  0.986700  0.719690  1.0  -0.0574
  C  C631  1  0.781500  0.973200  0.699490  1.0  -0.1419
  C  C632  1  0.761600  0.036300  0.704310  1.0  -0.0414
  C  C633  1  0.774900  0.111900  0.728780  1.0  -0.1071
  C  C634  1  0.767410  0.892200  0.672650  1.0  0.6753
  C  C635  1  0.834840  0.614200  0.908680  1.0  0.0617
  C  C636  1  0.812040  0.663400  0.873830  1.0  -0.1548
  C  C637  1  0.793400  0.726700  0.880930  1.0  -0.1046
  C  C638  1  0.796290  0.742100  0.922170  1.0  0.0829
  C  C639  1  0.818050  0.689200  0.956160  1.0  -0.1122
  C  C640  1  0.837240  0.627100  0.949350  1.0  -0.1314
  C  C641  1  0.777370  0.814700  0.929290  1.0  0.0326
  C  C642  1  0.764700  0.806700  0.959000  1.0  -0.1444
  C  C643  1  0.748770  0.877500  0.966570  1.0  -0.0289
  C  C644  1  0.745450  0.957000  0.945240  1.0  -0.1295
  C  C645  1  0.757290  0.964600  0.915090  1.0  -0.0704
  C  C646  1  0.772930  0.893800  0.907310  1.0  -0.0996
  C  C647  1  0.730990  0.035600  0.956190  1.0  0.7044
  C  C648  1  0.946620  0.539400  0.927460  1.0  0.0305
  C  C649  1  0.959010  0.622900  0.941840  1.0  -0.1465
  C  C650  1  0.992280  0.640400  0.959300  1.0  -0.126
  C  C651  1  0.014310  0.575200  0.962570  1.0  0.0607
  C  C652  1  0.002070  0.490300  0.948840  1.0  -0.1402
  C  C653  1  0.969010  0.472000  0.931790  1.0  -0.146
  C  C654  1  0.050050  0.593000  0.980580  1.0  0.0471
  C  C655  1  0.066500  0.650900  0.014460  1.0  -0.1235
  C  C656  1  0.100200  0.663900  0.031710  1.0  -0.0229
  C  C657  1  0.117480  0.619900  0.013730  1.0  -0.1569
  C  C658  1  0.101340  0.561000  0.979810  1.0  -0.0166
  C  C659  1  0.067990  0.546000  0.963560  1.0  -0.1595
  C  C660  1  0.153170  0.634500  0.029630  1.0  0.6983
  C  C661  1  0.614700  0.040100  0.241520  1.0  0.0385
  C  C662  1  0.632200  0.974400  0.232430  1.0  -0.1004
  C  C663  1  0.616510  0.901200  0.207580  1.0  -0.007
  C  C664  1  0.582560  0.893800  0.191830  1.0  -0.1366
  C  C665  1  0.631880  0.116100  0.269960  1.0  0.0567
  C  C666  1  0.617060  0.199400  0.262980  1.0  -0.1382
  C  C667  1  0.632990  0.270300  0.290570  1.0  -0.1239
  C  C668  1  0.663960  0.260000  0.325540  1.0  0.042
  C  C669  1  0.678850  0.176300  0.333090  1.0  -0.1596
  C  C670  1  0.662860  0.106100  0.305820  1.0  -0.1135
  C  C671  1  0.681820  0.337400  0.352690  1.0  0.0312
  C  C672  1  0.665610  0.404800  0.362650  1.0  -0.1377
  C  C673  1  0.682790  0.478300  0.386310  1.0  -0.0457
  C  C674  1  0.716400  0.484900  0.400930  1.0  -0.1339
  C  C675  1  0.732700  0.417900  0.391080  1.0  -0.0578
  C  C676  1  0.715470  0.344600  0.367400  1.0  -0.113
  C  C677  1  0.735140  0.563300  0.426180  1.0  0.6711
  C  C678  1  0.634970  0.828700  0.198640  1.0  0.0385
  C  C679  1  0.666760  0.806500  0.229250  1.0  -0.0956
  C  C680  1  0.682600  0.732800  0.222520  1.0  -0.1126
  C  C681  1  0.667520  0.681000  0.185820  1.0  0.0305
  C  C682  1  0.636050  0.706100  0.154370  1.0  -0.1411
  C  C683  1  0.620300  0.778800  0.161010  1.0  -0.1516
  C  C684  1  0.683160  0.599800  0.178910  1.0  0.0444
  C  C685  1  0.716980  0.590700  0.198210  1.0  -0.1032
  C  C686  1  0.731340  0.514800  0.191490  1.0  -0.098
  C  C687  1  0.711620  0.445900  0.165670  1.0  -0.1538
  C  C688  1  0.678010  0.454600  0.147250  1.0  -0.0454
  C  C689  1  0.663870  0.530000  0.153490  1.0  -0.1393
  C  C690  1  0.726380  0.363800  0.157400  1.0  0.7052
  C  C691  1  0.528390  0.945400  0.184840  1.0  0.0682
  C  C692  1  0.510640  0.882800  0.155730  1.0  -0.1769
  C  C693  1  0.478270  0.865400  0.145370  1.0  -0.1737
  C  C694  1  0.462210  0.912300  0.163900  1.0  0.09
  C  C695  1  0.478500  0.981400  0.188230  1.0  -0.1803
  C  C696  1  0.511250  0.998400  0.198950  1.0  -0.1724
  C  C697  1  0.427870  0.889700  0.155090  1.0  0.0567
  C  C698  1  0.406060  0.850600  0.116840  1.0  -0.1264
  C  C699  1  0.374920  0.828000  0.109200  1.0  -0.0713
  C  C700  1  0.364450  0.844300  0.140380  1.0  -0.1442
  C  C701  1  0.385730  0.886500  0.178290  1.0  -0.0401
  C  C702  1  0.417210  0.908300  0.185860  1.0  -0.1185
  C  C703  1  0.331020  0.815100  0.132500  1.0  0.6886
  C  C704  1  0.564470  0.958400  0.199860  1.0  -0.0398
  C  C705  1  0.580770  0.031500  0.224170  1.0  -0.1452
  C  C706  1  0.635930  0.931400  0.639900  1.0  0.0028
  C  C707  1  0.655940  0.984000  0.629050  1.0  -0.1305
  C  C708  1  0.643140  0.053400  0.599850  1.0  -0.0075
  C  C709  1  0.609560  0.068900  0.580230  1.0  -0.0822
  C  C710  1  0.588910  0.018800  0.591430  1.0  0.0307
  C  C711  1  0.602780  0.950600  0.621540  1.0  -0.1424
  C  C712  1  0.649970  0.854200  0.669820  1.0  0.0611
  C  C713  1  0.632280  0.775400  0.662000  1.0  -0.1284
  C  C714  1  0.645380  0.702900  0.688450  1.0  -0.1103
  C  C715  1  0.676730  0.705700  0.723810  1.0  0.0443
  C  C716  1  0.693710  0.785500  0.731960  1.0  -0.1184
  C  C717  1  0.680690  0.857900  0.705410  1.0  -0.1238
  C  C718  1  0.691280  0.625900  0.750960  1.0  0.041
  C  C719  1  0.671550  0.561600  0.756290  1.0  -0.0991
  C  C720  1  0.684720  0.486700  0.780310  1.0  -0.057
  C  C721  1  0.718500  0.473200  0.800510  1.0  -0.1411
  C  C722  1  0.738400  0.536300  0.795690  1.0  -0.0421
  C  C723  1  0.725100  0.611900  0.771220  1.0  -0.1078
  C  C724  1  0.732590  0.392200  0.827350  1.0  0.6758
  C  C725  1  0.665160  0.114200  0.591320  1.0  0.0604
  C  C726  1  0.687960  0.163400  0.626170  1.0  -0.1541
  C  C727  1  0.706600  0.226700  0.619070  1.0  -0.1062
  C  C728  1  0.703710  0.242100  0.577830  1.0  0.0835
  C  C729  1  0.681950  0.189200  0.543840  1.0  -0.1136
  C  C730  1  0.662760  0.127100  0.550650  1.0  -0.1303
  C  C731  1  0.722630  0.314700  0.570710  1.0  0.0317
  C  C732  1  0.735300  0.306700  0.541000  1.0  -0.1442
  C  C733  1  0.751230  0.377500  0.533430  1.0  -0.0297
  C  C734  1  0.754550  0.457000  0.554760  1.0  -0.1292
  C  C735  1  0.742710  0.464600  0.584910  1.0  -0.071
  C  C736  1  0.727070  0.393800  0.592690  1.0  -0.1006
  C  C737  1  0.769010  0.535600  0.543810  1.0  0.7039
  C  C738  1  0.553380  0.039400  0.572540  1.0  0.0315
  C  C739  1  0.540990  0.122900  0.558160  1.0  -0.147
  C  C740  1  0.507720  0.140400  0.540700  1.0  -0.1277
  C  C741  1  0.485690  0.075200  0.537430  1.0  0.0604
  C  C742  1  0.497930  0.990300  0.551160  1.0  -0.1392
  C  C743  1  0.530990  0.972000  0.568210  1.0  -0.1459
  C  C744  1  0.449950  0.093000  0.519420  1.0  0.0459
  C  C745  1  0.433500  0.150900  0.485540  1.0  -0.1241
  C  C746  1  0.399800  0.163900  0.468290  1.0  -0.0228
  C  C747  1  0.382520  0.119900  0.486270  1.0  -0.156
  C  C748  1  0.398660  0.061000  0.520190  1.0  -0.0154
  C  C749  1  0.432010  0.046000  0.536440  1.0  -0.1589
  C  C750  1  0.346830  0.134500  0.470370  1.0  0.6979
  C  C751  1  0.114700  0.540100  0.241520  1.0  0.0385
  C  C752  1  0.132200  0.474400  0.232430  1.0  -0.1004
  C  C753  1  0.116510  0.401200  0.207580  1.0  -0.007
  C  C754  1  0.082560  0.393800  0.191830  1.0  -0.1366
  C  C755  1  0.131880  0.616100  0.269960  1.0  0.0567
  C  C756  1  0.117060  0.699400  0.262980  1.0  -0.1382
  C  C757  1  0.132990  0.770300  0.290570  1.0  -0.1239
  C  C758  1  0.163960  0.760000  0.325540  1.0  0.042
  C  C759  1  0.178850  0.676300  0.333090  1.0  -0.1596
  C  C760  1  0.162860  0.606100  0.305820  1.0  -0.1135
  C  C761  1  0.181820  0.837400  0.352690  1.0  0.0312
  C  C762  1  0.165610  0.904800  0.362650  1.0  -0.1377
  C  C763  1  0.182790  0.978300  0.386310  1.0  -0.0457
  C  C764  1  0.216400  0.984900  0.400930  1.0  -0.1339
  C  C765  1  0.232700  0.917900  0.391080  1.0  -0.0578
  C  C766  1  0.215470  0.844600  0.367400  1.0  -0.113
  C  C767  1  0.235140  0.063300  0.426180  1.0  0.6711
  C  C768  1  0.134970  0.328700  0.198640  1.0  0.0385
  C  C769  1  0.166760  0.306500  0.229250  1.0  -0.0956
  C  C770  1  0.182600  0.232800  0.222520  1.0  -0.1126
  C  C771  1  0.167520  0.181000  0.185820  1.0  0.0305
  C  C772  1  0.136050  0.206100  0.154370  1.0  -0.1411
  C  C773  1  0.120300  0.278800  0.161010  1.0  -0.1516
  C  C774  1  0.183160  0.099800  0.178910  1.0  0.0444
  C  C775  1  0.216980  0.090700  0.198210  1.0  -0.1032
  C  C776  1  0.231340  0.014800  0.191490  1.0  -0.098
  C  C777  1  0.211620  0.945900  0.165670  1.0  -0.1538
  C  C778  1  0.178010  0.954600  0.147250  1.0  -0.0454
  C  C779  1  0.163870  0.030000  0.153490  1.0  -0.1393
  C  C780  1  0.226380  0.863800  0.157400  1.0  0.7052
  C  C781  1  0.028390  0.445400  0.184840  1.0  0.0682
  C  C782  1  0.010640  0.382800  0.155730  1.0  -0.1769
  C  C783  1  0.978270  0.365400  0.145370  1.0  -0.1737
  C  C784  1  0.962210  0.412300  0.163900  1.0  0.09
  C  C785  1  0.978500  0.481400  0.188230  1.0  -0.1803
  C  C786  1  0.011250  0.498400  0.198950  1.0  -0.1724
  C  C787  1  0.927870  0.389700  0.155090  1.0  0.0567
  C  C788  1  0.906060  0.350600  0.116840  1.0  -0.1264
  C  C789  1  0.874920  0.328000  0.109200  1.0  -0.0713
  C  C790  1  0.864450  0.344300  0.140380  1.0  -0.1442
  C  C791  1  0.885730  0.386500  0.178290  1.0  -0.0401
  C  C792  1  0.917210  0.408300  0.185860  1.0  -0.1185
  C  C793  1  0.831020  0.315100  0.132500  1.0  0.6886
  C  C794  1  0.064470  0.458400  0.199860  1.0  -0.0398
  C  C795  1  0.080770  0.531500  0.224170  1.0  -0.1452
  C  C796  1  0.135930  0.431400  0.639900  1.0  0.0028
  C  C797  1  0.155940  0.484000  0.629050  1.0  -0.1305
  C  C798  1  0.143140  0.553400  0.599850  1.0  -0.0075
  C  C799  1  0.109560  0.568900  0.580230  1.0  -0.0822
  C  C800  1  0.088910  0.518800  0.591430  1.0  0.0307
  C  C801  1  0.102780  0.450600  0.621540  1.0  -0.1424
  C  C802  1  0.149970  0.354200  0.669820  1.0  0.0611
  C  C803  1  0.132280  0.275400  0.662000  1.0  -0.1284
  C  C804  1  0.145380  0.202900  0.688450  1.0  -0.1103
  C  C805  1  0.176730  0.205700  0.723810  1.0  0.0443
  C  C806  1  0.193710  0.285500  0.731960  1.0  -0.1184
  C  C807  1  0.180690  0.357900  0.705410  1.0  -0.1238
  C  C808  1  0.191280  0.125900  0.750960  1.0  0.041
  C  C809  1  0.171550  0.061600  0.756290  1.0  -0.0991
  C  C810  1  0.184720  0.986700  0.780310  1.0  -0.057
  C  C811  1  0.218500  0.973200  0.800510  1.0  -0.1411
  C  C812  1  0.238400  0.036300  0.795690  1.0  -0.0421
  C  C813  1  0.225100  0.111900  0.771220  1.0  -0.1078
  C  C814  1  0.232590  0.892200  0.827350  1.0  0.6758
  C  C815  1  0.165160  0.614200  0.591320  1.0  0.0604
  C  C816  1  0.187960  0.663400  0.626170  1.0  -0.1541
  C  C817  1  0.206600  0.726700  0.619070  1.0  -0.1062
  C  C818  1  0.203710  0.742100  0.577830  1.0  0.0835
  C  C819  1  0.181950  0.689200  0.543840  1.0  -0.1136
  C  C820  1  0.162760  0.627100  0.550650  1.0  -0.1303
  C  C821  1  0.222630  0.814700  0.570710  1.0  0.0317
  C  C822  1  0.235300  0.806700  0.541000  1.0  -0.1442
  C  C823  1  0.251230  0.877500  0.533430  1.0  -0.0297
  C  C824  1  0.254550  0.957000  0.554760  1.0  -0.1292
  C  C825  1  0.242710  0.964600  0.584910  1.0  -0.071
  C  C826  1  0.227070  0.893800  0.592690  1.0  -0.1006
  C  C827  1  0.269010  0.035600  0.543810  1.0  0.7039
  C  C828  1  0.053380  0.539400  0.572540  1.0  0.0315
  C  C829  1  0.040990  0.622900  0.558160  1.0  -0.147
  C  C830  1  0.007720  0.640400  0.540700  1.0  -0.1277
  C  C831  1  0.985690  0.575200  0.537430  1.0  0.0604
  C  C832  1  0.997930  0.490300  0.551160  1.0  -0.1392
  C  C833  1  0.030990  0.472000  0.568210  1.0  -0.1459
  C  C834  1  0.949950  0.593000  0.519420  1.0  0.0459
  C  C835  1  0.933500  0.650900  0.485540  1.0  -0.1241
  C  C836  1  0.899800  0.663900  0.468290  1.0  -0.0228
  C  C837  1  0.882520  0.619900  0.486270  1.0  -0.156
  C  C838  1  0.898660  0.561000  0.520190  1.0  -0.0154
  C  C839  1  0.932010  0.546000  0.536440  1.0  -0.1589
  C  C840  1  0.846830  0.634500  0.470370  1.0  0.6979
  C  C841  1  0.614700  0.959900  0.741520  1.0  0.0377
  C  C842  1  0.632200  0.025600  0.732430  1.0  -0.1004
  C  C843  1  0.616510  0.098800  0.707580  1.0  -0.0072
  C  C844  1  0.582560  0.106200  0.691830  1.0  -0.136
  C  C845  1  0.631880  0.883900  0.769960  1.0  0.0565
  C  C846  1  0.617060  0.800600  0.762980  1.0  -0.1381
  C  C847  1  0.632990  0.729700  0.790570  1.0  -0.123
  C  C848  1  0.663960  0.740000  0.825540  1.0  0.0427
  C  C849  1  0.678850  0.823700  0.833090  1.0  -0.1601
  C  C850  1  0.662860  0.893900  0.805820  1.0  -0.1129
  C  C851  1  0.681820  0.662600  0.852690  1.0  0.0303
  C  C852  1  0.665610  0.595200  0.862650  1.0  -0.1374
  C  C853  1  0.682790  0.521700  0.886310  1.0  -0.0448
  C  C854  1  0.716400  0.515100  0.900930  1.0  -0.1323
  C  C855  1  0.732700  0.582100  0.891080  1.0  -0.0576
  C  C856  1  0.715470  0.655400  0.867400  1.0  -0.1122
  C  C857  1  0.735140  0.436700  0.926180  1.0  0.6714
  C  C858  1  0.634970  0.171300  0.698640  1.0  0.0385
  C  C859  1  0.666760  0.193500  0.729250  1.0  -0.0959
  C  C860  1  0.682600  0.267200  0.722520  1.0  -0.1129
  C  C861  1  0.667520  0.319000  0.685820  1.0  0.0308
  C  C862  1  0.636050  0.293900  0.654370  1.0  -0.1409
  C  C863  1  0.620300  0.221200  0.661010  1.0  -0.1523
  C  C864  1  0.683160  0.400200  0.678910  1.0  0.0441
  C  C865  1  0.716980  0.409300  0.698210  1.0  -0.1033
  C  C866  1  0.731340  0.485200  0.691490  1.0  -0.098
  C  C867  1  0.711620  0.554100  0.665670  1.0  -0.153
  C  C868  1  0.678010  0.545400  0.647250  1.0  -0.0458
  C  C869  1  0.663870  0.470000  0.653490  1.0  -0.1394
  C  C870  1  0.726380  0.636200  0.657400  1.0  0.705
  C  C871  1  0.528390  0.054600  0.684840  1.0  0.0681
  C  C872  1  0.510640  0.117200  0.655730  1.0  -0.1757
  C  C873  1  0.478270  0.134600  0.645370  1.0  -0.1738
  C  C874  1  0.462210  0.087700  0.663900  1.0  0.09
  C  C875  1  0.478500  0.018600  0.688230  1.0  -0.1807
  C  C876  1  0.511250  0.001600  0.698950  1.0  -0.1722
  C  C877  1  0.427870  0.110300  0.655090  1.0  0.0568
  C  C878  1  0.406060  0.149400  0.616840  1.0  -0.1264
  C  C879  1  0.374920  0.172000  0.609200  1.0  -0.0705
  C  C880  1  0.364450  0.155700  0.640380  1.0  -0.1427
  C  C881  1  0.385730  0.113500  0.678290  1.0  -0.0404
  C  C882  1  0.417210  0.091700  0.685860  1.0  -0.1182
  C  C883  1  0.331020  0.184900  0.632500  1.0  0.689
  C  C884  1  0.564470  0.041600  0.699860  1.0  -0.04
  C  C885  1  0.580770  0.968500  0.724170  1.0  -0.1439
  C  C886  1  0.635930  0.068600  0.139900  1.0  0.0029
  C  C887  1  0.655940  0.016000  0.129050  1.0  -0.1304
  C  C888  1  0.643140  0.946600  0.099850  1.0  -0.0071
  C  C889  1  0.609560  0.931100  0.080230  1.0  -0.0821
  C  C890  1  0.588910  0.981200  0.091430  1.0  0.0306
  C  C891  1  0.602780  0.049400  0.121540  1.0  -0.143
  C  C892  1  0.649970  0.145800  0.169820  1.0  0.0611
  C  C893  1  0.632280  0.224600  0.162000  1.0  -0.1278
  C  C894  1  0.645380  0.297100  0.188450  1.0  -0.111
  C  C895  1  0.676730  0.294300  0.223810  1.0  0.0444
  C  C896  1  0.693710  0.214500  0.231960  1.0  -0.1184
  C  C897  1  0.680690  0.142100  0.205410  1.0  -0.1235
  C  C898  1  0.691280  0.374100  0.250960  1.0  0.0405
  C  C899  1  0.671550  0.438400  0.256290  1.0  -0.0993
  C  C900  1  0.684720  0.513300  0.280310  1.0  -0.0598
  C  C901  1  0.718500  0.526800  0.300510  1.0  -0.1409
  C  C902  1  0.738400  0.463700  0.295690  1.0  -0.042
  C  C903  1  0.725100  0.388100  0.271220  1.0  -0.1076
  C  C904  1  0.732590  0.607800  0.327350  1.0  0.6747
  C  C905  1  0.665160  0.885800  0.091320  1.0  0.061
  C  C906  1  0.687960  0.836600  0.126170  1.0  -0.1542
  C  C907  1  0.706600  0.773300  0.119070  1.0  -0.1061
  C  C908  1  0.703710  0.757900  0.077830  1.0  0.0832
  C  C909  1  0.681950  0.810800  0.043840  1.0  -0.1132
  C  C910  1  0.662760  0.872900  0.050650  1.0  -0.1293
  C  C911  1  0.722630  0.685300  0.070710  1.0  0.032
  C  C912  1  0.735300  0.693300  0.041000  1.0  -0.1456
  C  C913  1  0.751230  0.622500  0.033430  1.0  -0.0296
  C  C914  1  0.754550  0.543000  0.054760  1.0  -0.1292
  C  C915  1  0.742710  0.535400  0.084910  1.0  -0.0708
  C  C916  1  0.727070  0.606200  0.092690  1.0  -0.1011
  C  C917  1  0.769010  0.464400  0.043810  1.0  0.704
  C  C918  1  0.553380  0.960600  0.072540  1.0  0.0316
  C  C919  1  0.540990  0.877100  0.058160  1.0  -0.1462
  C  C920  1  0.507720  0.859600  0.040700  1.0  -0.1288
  C  C921  1  0.485690  0.924800  0.037430  1.0  0.0596
  C  C922  1  0.497930  0.009700  0.051160  1.0  -0.139
  C  C923  1  0.530990  0.028000  0.068210  1.0  -0.1437
  C  C924  1  0.449950  0.907000  0.019420  1.0  0.0456
  C  C925  1  0.433500  0.849100  0.985540  1.0  -0.1283
  C  C926  1  0.399800  0.836100  0.968290  1.0  -0.0244
  C  C927  1  0.382520  0.880100  0.986270  1.0  -0.1565
  C  C928  1  0.398660  0.939000  0.020190  1.0  -0.0164
  C  C929  1  0.432010  0.954000  0.036440  1.0  -0.1604
  C  C930  1  0.346830  0.865500  0.970370  1.0  0.6979
  C  C931  1  0.114700  0.459900  0.741520  1.0  0.0377
  C  C932  1  0.132200  0.525600  0.732430  1.0  -0.1004
  C  C933  1  0.116510  0.598800  0.707580  1.0  -0.0072
  C  C934  1  0.082560  0.606200  0.691830  1.0  -0.136
  C  C935  1  0.131880  0.383900  0.769960  1.0  0.0565
  C  C936  1  0.117060  0.300600  0.762980  1.0  -0.1381
  C  C937  1  0.132990  0.229700  0.790570  1.0  -0.123
  C  C938  1  0.163960  0.240000  0.825540  1.0  0.0427
  C  C939  1  0.178850  0.323700  0.833090  1.0  -0.1601
  C  C940  1  0.162860  0.393900  0.805820  1.0  -0.1129
  C  C941  1  0.181820  0.162600  0.852690  1.0  0.0303
  C  C942  1  0.165610  0.095200  0.862650  1.0  -0.1374
  C  C943  1  0.182790  0.021700  0.886310  1.0  -0.0448
  C  C944  1  0.216400  0.015100  0.900930  1.0  -0.1323
  C  C945  1  0.232700  0.082100  0.891080  1.0  -0.0576
  C  C946  1  0.215470  0.155400  0.867400  1.0  -0.1122
  C  C947  1  0.235140  0.936700  0.926180  1.0  0.6714
  C  C948  1  0.134970  0.671300  0.698640  1.0  0.0385
  C  C949  1  0.166760  0.693500  0.729250  1.0  -0.0959
  C  C950  1  0.182600  0.767200  0.722520  1.0  -0.1129
  C  C951  1  0.167520  0.819000  0.685820  1.0  0.0308
  C  C952  1  0.136050  0.793900  0.654370  1.0  -0.1409
  C  C953  1  0.120300  0.721200  0.661010  1.0  -0.1523
  C  C954  1  0.183160  0.900200  0.678910  1.0  0.0441
  C  C955  1  0.216980  0.909300  0.698210  1.0  -0.1033
  C  C956  1  0.231340  0.985200  0.691490  1.0  -0.098
  C  C957  1  0.211620  0.054100  0.665670  1.0  -0.153
  C  C958  1  0.178010  0.045400  0.647250  1.0  -0.0458
  C  C959  1  0.163870  0.970000  0.653490  1.0  -0.1394
  C  C960  1  0.226380  0.136200  0.657400  1.0  0.705
  C  C961  1  0.028390  0.554600  0.684840  1.0  0.0681
  C  C962  1  0.010640  0.617200  0.655730  1.0  -0.1757
  C  C963  1  0.978270  0.634600  0.645370  1.0  -0.1738
  C  C964  1  0.962210  0.587700  0.663900  1.0  0.09
  C  C965  1  0.978500  0.518600  0.688230  1.0  -0.1807
  C  C966  1  0.011250  0.501600  0.698950  1.0  -0.1722
  C  C967  1  0.927870  0.610300  0.655090  1.0  0.0568
  C  C968  1  0.906060  0.649400  0.616840  1.0  -0.1264
  C  C969  1  0.874920  0.672000  0.609200  1.0  -0.0705
  C  C970  1  0.864450  0.655700  0.640380  1.0  -0.1427
  C  C971  1  0.885730  0.613500  0.678290  1.0  -0.0404
  C  C972  1  0.917210  0.591700  0.685860  1.0  -0.1182
  C  C973  1  0.831020  0.684900  0.632500  1.0  0.689
  C  C974  1  0.064470  0.541600  0.699860  1.0  -0.04
  C  C975  1  0.080770  0.468500  0.724170  1.0  -0.1439
  C  C976  1  0.135930  0.568600  0.139900  1.0  0.0029
  C  C977  1  0.155940  0.516000  0.129050  1.0  -0.1304
  C  C978  1  0.143140  0.446600  0.099850  1.0  -0.0071
  C  C979  1  0.109560  0.431100  0.080230  1.0  -0.0821
  C  C980  1  0.088910  0.481200  0.091430  1.0  0.0306
  C  C981  1  0.102780  0.549400  0.121540  1.0  -0.143
  C  C982  1  0.149970  0.645800  0.169820  1.0  0.0611
  C  C983  1  0.132280  0.724600  0.162000  1.0  -0.1278
  C  C984  1  0.145380  0.797100  0.188450  1.0  -0.111
  C  C985  1  0.176730  0.794300  0.223810  1.0  0.0444
  C  C986  1  0.193710  0.714500  0.231960  1.0  -0.1184
  C  C987  1  0.180690  0.642100  0.205410  1.0  -0.1235
  C  C988  1  0.191280  0.874100  0.250960  1.0  0.0405
  C  C989  1  0.171550  0.938400  0.256290  1.0  -0.0993
  C  C990  1  0.184720  0.013300  0.280310  1.0  -0.0598
  C  C991  1  0.218500  0.026800  0.300510  1.0  -0.1409
  C  C992  1  0.238400  0.963700  0.295690  1.0  -0.042
  C  C993  1  0.225100  0.888100  0.271220  1.0  -0.1076
  C  C994  1  0.232590  0.107800  0.327350  1.0  0.6747
  C  C995  1  0.165160  0.385800  0.091320  1.0  0.061
  C  C996  1  0.187960  0.336600  0.126170  1.0  -0.1542
  C  C997  1  0.206600  0.273300  0.119070  1.0  -0.1061
  C  C998  1  0.203710  0.257900  0.077830  1.0  0.0832
  C  C999  1  0.181950  0.310800  0.043840  1.0  -0.1132
  C  C1000  1  0.162760  0.372900  0.050650  1.0  -0.1293
  C  C1001  1  0.222630  0.185300  0.070710  1.0  0.032
  C  C1002  1  0.235300  0.193300  0.041000  1.0  -0.1456
  C  C1003  1  0.251230  0.122500  0.033430  1.0  -0.0296
  C  C1004  1  0.254550  0.043000  0.054760  1.0  -0.1292
  C  C1005  1  0.242710  0.035400  0.084910  1.0  -0.0708
  C  C1006  1  0.227070  0.106200  0.092690  1.0  -0.1011
  C  C1007  1  0.269010  0.964400  0.043810  1.0  0.704
  C  C1008  1  0.053380  0.460600  0.072540  1.0  0.0316
  C  C1009  1  0.040990  0.377100  0.058160  1.0  -0.1462
  C  C1010  1  0.007720  0.359600  0.040700  1.0  -0.1288
  C  C1011  1  0.985690  0.424800  0.037430  1.0  0.0596
  C  C1012  1  0.997930  0.509700  0.051160  1.0  -0.139
  C  C1013  1  0.030990  0.528000  0.068210  1.0  -0.1437
  C  C1014  1  0.949950  0.407000  0.019420  1.0  0.0456
  C  C1015  1  0.933500  0.349100  0.985540  1.0  -0.1283
  C  C1016  1  0.899800  0.336100  0.968290  1.0  -0.0244
  C  C1017  1  0.882520  0.380100  0.986270  1.0  -0.1565
  C  C1018  1  0.898660  0.439000  0.020190  1.0  -0.0164
  C  C1019  1  0.932010  0.454000  0.036440  1.0  -0.1604
  C  C1020  1  0.846830  0.365500  0.970370  1.0  0.6979
  C  C1021  1  0.385300  0.959900  0.758480  1.0  0.038
  C  C1022  1  0.367800  0.025600  0.767570  1.0  -0.1014
  C  C1023  1  0.383490  0.098800  0.792420  1.0  -0.0079
  C  C1024  1  0.417440  0.106200  0.808170  1.0  -0.1353
  C  C1025  1  0.368120  0.883900  0.730040  1.0  0.0578
  C  C1026  1  0.382940  0.800600  0.737020  1.0  -0.1383
  C  C1027  1  0.367010  0.729700  0.709430  1.0  -0.1227
  C  C1028  1  0.336040  0.740000  0.674460  1.0  0.0415
  C  C1029  1  0.321150  0.823700  0.666910  1.0  -0.1593
  C  C1030  1  0.337140  0.893900  0.694180  1.0  -0.1117
  C  C1031  1  0.318180  0.662600  0.647310  1.0  0.0308
  C  C1032  1  0.334390  0.595200  0.637350  1.0  -0.1349
  C  C1033  1  0.317210  0.521700  0.613690  1.0  -0.0466
  C  C1034  1  0.283600  0.515100  0.599070  1.0  -0.1333
  C  C1035  1  0.267300  0.582100  0.608920  1.0  -0.0578
  C  C1036  1  0.284530  0.655400  0.632600  1.0  -0.1118
  C  C1037  1  0.264860  0.436700  0.573820  1.0  0.6713
  C  C1038  1  0.365030  0.171300  0.801360  1.0  0.0386
  C  C1039  1  0.333240  0.193500  0.770750  1.0  -0.0954
  C  C1040  1  0.317400  0.267200  0.777480  1.0  -0.1099
  C  C1041  1  0.332480  0.319000  0.814180  1.0  0.0308
  C  C1042  1  0.363950  0.293900  0.845630  1.0  -0.1427
  C  C1043  1  0.379700  0.221200  0.838990  1.0  -0.1529
  C  C1044  1  0.316840  0.400200  0.821090  1.0  0.0442
  C  C1045  1  0.283020  0.409300  0.801790  1.0  -0.1027
  C  C1046  1  0.268660  0.485200  0.808510  1.0  -0.0966
  C  C1047  1  0.288380  0.554100  0.834330  1.0  -0.1527
  C  C1048  1  0.321990  0.545400  0.852750  1.0  -0.0441
  C  C1049  1  0.336130  0.470000  0.846510  1.0  -0.1423
  C  C1050  1  0.273620  0.636200  0.842600  1.0  0.7061
  C  C1051  1  0.471610  0.054600  0.815160  1.0  0.0655
  C  C1052  1  0.489360  0.117200  0.844270  1.0  -0.1765
  C  C1053  1  0.521730  0.134600  0.854630  1.0  -0.1725
  C  C1054  1  0.537790  0.087700  0.836100  1.0  0.0906
  C  C1055  1  0.521500  0.018600  0.811770  1.0  -0.1796
  C  C1056  1  0.488750  0.001600  0.801050  1.0  -0.1725
  C  C1057  1  0.572130  0.110300  0.844910  1.0  0.0569
  C  C1058  1  0.593940  0.149400  0.883160  1.0  -0.1275
  C  C1059  1  0.625080  0.172000  0.890800  1.0  -0.0702
  C  C1060  1  0.635550  0.155700  0.859620  1.0  -0.1428
  C  C1061  1  0.614270  0.113500  0.821710  1.0  -0.0401
  C  C1062  1  0.582790  0.091700  0.814140  1.0  -0.1184
  C  C1063  1  0.668980  0.184900  0.867500  1.0  0.6881
  C  C1064  1  0.435530  0.041600  0.800140  1.0  -0.0379
  C  C1065  1  0.419230  0.968500  0.775830  1.0  -0.1438
  C  C1066  1  0.364070  0.068600  0.360100  1.0  0.0027
  C  C1067  1  0.344060  0.016000  0.370950  1.0  -0.1301
  C  C1068  1  0.356860  0.946600  0.400150  1.0  -0.0072
  C  C1069  1  0.390440  0.931100  0.419770  1.0  -0.0809
  C  C1070  1  0.411090  0.981200  0.408570  1.0  0.0305
  C  C1071  1  0.397220  0.049400  0.378460  1.0  -0.1415
  C  C1072  1  0.350030  0.145800  0.330180  1.0  0.0609
  C  C1073  1  0.367720  0.224600  0.338000  1.0  -0.129
  C  C1074  1  0.354620  0.297100  0.311550  1.0  -0.1098
  C  C1075  1  0.323270  0.294300  0.276190  1.0  0.0453
  C  C1076  1  0.306290  0.214500  0.268040  1.0  -0.1182
  C  C1077  1  0.319310  0.142100  0.294590  1.0  -0.1225
  C  C1078  1  0.308720  0.374100  0.249040  1.0  0.0417
  C  C1079  1  0.328450  0.438400  0.243710  1.0  -0.1005
  C  C1080  1  0.315280  0.513300  0.219690  1.0  -0.0583
  C  C1081  1  0.281500  0.526800  0.199490  1.0  -0.1412
  C  C1082  1  0.261600  0.463700  0.204310  1.0  -0.0417
  C  C1083  1  0.274900  0.388100  0.228780  1.0  -0.1069
  C  C1084  1  0.267410  0.607800  0.172650  1.0  0.6743
  C  C1085  1  0.334840  0.885800  0.408680  1.0  0.0619
  C  C1086  1  0.312040  0.836600  0.373830  1.0  -0.1547
  C  C1087  1  0.293400  0.773300  0.380930  1.0  -0.104
  C  C1088  1  0.296290  0.757900  0.422170  1.0  0.0836
  C  C1089  1  0.318050  0.810800  0.456160  1.0  -0.1124
  C  C1090  1  0.337240  0.872900  0.449350  1.0  -0.1307
  C  C1091  1  0.277370  0.685300  0.429290  1.0  0.0323
  C  C1092  1  0.264700  0.693300  0.459000  1.0  -0.1445
  C  C1093  1  0.248770  0.622500  0.466570  1.0  -0.0288
  C  C1094  1  0.245450  0.543000  0.445240  1.0  -0.1293
  C  C1095  1  0.257290  0.535400  0.415090  1.0  -0.0709
  C  C1096  1  0.272930  0.606200  0.407310  1.0  -0.0997
  C  C1097  1  0.230990  0.464400  0.456190  1.0  0.7045
  C  C1098  1  0.446620  0.960600  0.427460  1.0  0.0305
  C  C1099  1  0.459010  0.877100  0.441840  1.0  -0.1448
  C  C1100  1  0.492280  0.859600  0.459300  1.0  -0.1289
  C  C1101  1  0.514310  0.924800  0.462570  1.0  0.0603
  C  C1102  1  0.502070  0.009700  0.448840  1.0  -0.1397
  C  C1103  1  0.469010  0.028000  0.431790  1.0  -0.1452
  C  C1104  1  0.550050  0.907000  0.480580  1.0  0.0466
  C  C1105  1  0.566500  0.849100  0.514460  1.0  -0.126
  C  C1106  1  0.600200  0.836100  0.531710  1.0  -0.0251
  C  C1107  1  0.617480  0.880100  0.513730  1.0  -0.1571
  C  C1108  1  0.601340  0.939000  0.479810  1.0  -0.017
  C  C1109  1  0.567990  0.954000  0.463560  1.0  -0.1598
  C  C1110  1  0.653170  0.865500  0.529630  1.0  0.6979
  C  C1111  1  0.885300  0.459900  0.758480  1.0  0.038
  C  C1112  1  0.867800  0.525600  0.767570  1.0  -0.1014
  C  C1113  1  0.883490  0.598800  0.792420  1.0  -0.0079
  C  C1114  1  0.917440  0.606200  0.808170  1.0  -0.1353
  C  C1115  1  0.868120  0.383900  0.730040  1.0  0.0578
  C  C1116  1  0.882940  0.300600  0.737020  1.0  -0.1383
  C  C1117  1  0.867010  0.229700  0.709430  1.0  -0.1227
  C  C1118  1  0.836040  0.240000  0.674460  1.0  0.0415
  C  C1119  1  0.821150  0.323700  0.666910  1.0  -0.1593
  C  C1120  1  0.837140  0.393900  0.694180  1.0  -0.1117
  C  C1121  1  0.818180  0.162600  0.647310  1.0  0.0308
  C  C1122  1  0.834390  0.095200  0.637350  1.0  -0.1349
  C  C1123  1  0.817210  0.021700  0.613690  1.0  -0.0466
  C  C1124  1  0.783600  0.015100  0.599070  1.0  -0.1333
  C  C1125  1  0.767300  0.082100  0.608920  1.0  -0.0578
  C  C1126  1  0.784530  0.155400  0.632600  1.0  -0.1118
  C  C1127  1  0.764860  0.936700  0.573820  1.0  0.6713
  C  C1128  1  0.865030  0.671300  0.801360  1.0  0.0386
  C  C1129  1  0.833240  0.693500  0.770750  1.0  -0.0954
  C  C1130  1  0.817400  0.767200  0.777480  1.0  -0.1099
  C  C1131  1  0.832480  0.819000  0.814180  1.0  0.0308
  C  C1132  1  0.863950  0.793900  0.845630  1.0  -0.1427
  C  C1133  1  0.879700  0.721200  0.838990  1.0  -0.1529
  C  C1134  1  0.816840  0.900200  0.821090  1.0  0.0442
  C  C1135  1  0.783020  0.909300  0.801790  1.0  -0.1027
  C  C1136  1  0.768660  0.985200  0.808510  1.0  -0.0966
  C  C1137  1  0.788380  0.054100  0.834330  1.0  -0.1527
  C  C1138  1  0.821990  0.045400  0.852750  1.0  -0.0441
  C  C1139  1  0.836130  0.970000  0.846510  1.0  -0.1423
  C  C1140  1  0.773620  0.136200  0.842600  1.0  0.7061
  C  C1141  1  0.971610  0.554600  0.815160  1.0  0.0655
  C  C1142  1  0.989360  0.617200  0.844270  1.0  -0.1765
  C  C1143  1  0.021730  0.634600  0.854630  1.0  -0.1725
  C  C1144  1  0.037790  0.587700  0.836100  1.0  0.0906
  C  C1145  1  0.021500  0.518600  0.811770  1.0  -0.1796
  C  C1146  1  0.988750  0.501600  0.801050  1.0  -0.1725
  C  C1147  1  0.072130  0.610300  0.844910  1.0  0.0569
  C  C1148  1  0.093940  0.649400  0.883160  1.0  -0.1275
  C  C1149  1  0.125080  0.672000  0.890800  1.0  -0.0702
  C  C1150  1  0.135550  0.655700  0.859620  1.0  -0.1428
  C  C1151  1  0.114270  0.613500  0.821710  1.0  -0.0401
  C  C1152  1  0.082790  0.591700  0.814140  1.0  -0.1184
  C  C1153  1  0.168980  0.684900  0.867500  1.0  0.6881
  C  C1154  1  0.935530  0.541600  0.800140  1.0  -0.0379
  C  C1155  1  0.919230  0.468500  0.775830  1.0  -0.1438
  C  C1156  1  0.864070  0.568600  0.360100  1.0  0.0027
  C  C1157  1  0.844060  0.516000  0.370950  1.0  -0.1301
  C  C1158  1  0.856860  0.446600  0.400150  1.0  -0.0072
  C  C1159  1  0.890440  0.431100  0.419770  1.0  -0.0809
  C  C1160  1  0.911090  0.481200  0.408570  1.0  0.0305
  C  C1161  1  0.897220  0.549400  0.378460  1.0  -0.1415
  C  C1162  1  0.850030  0.645800  0.330180  1.0  0.0609
  C  C1163  1  0.867720  0.724600  0.338000  1.0  -0.129
  C  C1164  1  0.854620  0.797100  0.311550  1.0  -0.1098
  C  C1165  1  0.823270  0.794300  0.276190  1.0  0.0453
  C  C1166  1  0.806290  0.714500  0.268040  1.0  -0.1182
  C  C1167  1  0.819310  0.642100  0.294590  1.0  -0.1225
  C  C1168  1  0.808720  0.874100  0.249040  1.0  0.0417
  C  C1169  1  0.828450  0.938400  0.243710  1.0  -0.1005
  C  C1170  1  0.815280  0.013300  0.219690  1.0  -0.0583
  C  C1171  1  0.781500  0.026800  0.199490  1.0  -0.1412
  C  C1172  1  0.761600  0.963700  0.204310  1.0  -0.0417
  C  C1173  1  0.774900  0.888100  0.228780  1.0  -0.1069
  C  C1174  1  0.767410  0.107800  0.172650  1.0  0.6743
  C  C1175  1  0.834840  0.385800  0.408680  1.0  0.0619
  C  C1176  1  0.812040  0.336600  0.373830  1.0  -0.1547
  C  C1177  1  0.793400  0.273300  0.380930  1.0  -0.104
  C  C1178  1  0.796290  0.257900  0.422170  1.0  0.0836
  C  C1179  1  0.818050  0.310800  0.456160  1.0  -0.1124
  C  C1180  1  0.837240  0.372900  0.449350  1.0  -0.1307
  C  C1181  1  0.777370  0.185300  0.429290  1.0  0.0323
  C  C1182  1  0.764700  0.193300  0.459000  1.0  -0.1445
  C  C1183  1  0.748770  0.122500  0.466570  1.0  -0.0288
  C  C1184  1  0.745450  0.043000  0.445240  1.0  -0.1293
  C  C1185  1  0.757290  0.035400  0.415090  1.0  -0.0709
  C  C1186  1  0.772930  0.106200  0.407310  1.0  -0.0997
  C  C1187  1  0.730990  0.964400  0.456190  1.0  0.7045
  C  C1188  1  0.946620  0.460600  0.427460  1.0  0.0305
  C  C1189  1  0.959010  0.377100  0.441840  1.0  -0.1448
  C  C1190  1  0.992280  0.359600  0.459300  1.0  -0.1289
  C  C1191  1  0.014310  0.424800  0.462570  1.0  0.0603
  C  C1192  1  0.002070  0.509700  0.448840  1.0  -0.1397
  C  C1193  1  0.969010  0.528000  0.431790  1.0  -0.1452
  C  C1194  1  0.050050  0.407000  0.480580  1.0  0.0466
  C  C1195  1  0.066500  0.349100  0.514460  1.0  -0.126
  C  C1196  1  0.100200  0.336100  0.531710  1.0  -0.0251
  C  C1197  1  0.117480  0.380100  0.513730  1.0  -0.1571
  C  C1198  1  0.101340  0.439000  0.479810  1.0  -0.017
  C  C1199  1  0.067990  0.454000  0.463560  1.0  -0.1598
  C  C1200  1  0.153170  0.365500  0.529630  1.0  0.6979
  O  O1201  1  0.219900  0.733670  0.998920  1.0  -0.8106
  O  O1202  1  0.684380  0.764850  0.398860  1.0  -0.617
  O  O1203  1  0.679120  0.839850  0.340590  1.0  -0.6058
  O  O1204  1  0.278900  0.615850  0.059560  1.0  -0.5798
  O  O1205  1  0.235460  0.572450  0.067380  1.0  -0.6196
  O  O1206  1  0.242720  0.362810  0.327270  1.0  -0.5779
  O  O1207  1  0.293200  0.304710  0.365430  1.0  -0.5929
  O  O1208  1  0.755150  0.762890  0.409900  1.0  -0.8587
  O  O1209  1  0.287520  0.334500  0.672890  1.0  -0.6013
  O  O1210  1  0.236900  0.386010  0.652940  1.0  -0.5852
  O  O1211  1  0.213800  0.521560  0.975510  1.0  -0.5863
  O  O1212  1  0.237440  0.609970  0.946630  1.0  -0.5795
  O  O1213  1  0.669340  0.168520  0.066430  1.0  -0.6269
  O  O1214  1  0.664110  0.109760  0.003900  1.0  -0.609
  O  O1215  1  0.719900  0.233670  0.998920  1.0  -0.8106
  O  O1216  1  0.184380  0.264850  0.398860  1.0  -0.617
  O  O1217  1  0.179120  0.339850  0.340590  1.0  -0.6058
  O  O1218  1  0.778900  0.115850  0.059560  1.0  -0.5798
  O  O1219  1  0.735460  0.072450  0.067380  1.0  -0.6196
  O  O1220  1  0.742720  0.862810  0.327270  1.0  -0.5779
  O  O1221  1  0.793200  0.804710  0.365430  1.0  -0.5929
  O  O1222  1  0.255150  0.262890  0.409900  1.0  -0.8587
  O  O1223  1  0.787520  0.834500  0.672890  1.0  -0.6013
  O  O1224  1  0.736900  0.886010  0.652940  1.0  -0.5852
  O  O1225  1  0.713800  0.021560  0.975510  1.0  -0.5863
  O  O1226  1  0.737440  0.109970  0.946630  1.0  -0.5795
  O  O1227  1  0.169340  0.668520  0.066430  1.0  -0.6269
  O  O1228  1  0.164110  0.609760  0.003900  1.0  -0.6089
  O  O1229  1  0.780100  0.733670  0.501080  1.0  -0.8111
  O  O1230  1  0.315620  0.764850  0.101140  1.0  -0.6177
  O  O1231  1  0.320880  0.839850  0.159410  1.0  -0.6065
  O  O1232  1  0.721100  0.615850  0.440440  1.0  -0.5781
  O  O1233  1  0.764540  0.572450  0.432620  1.0  -0.6193
  O  O1234  1  0.757280  0.362810  0.172730  1.0  -0.578
  O  O1235  1  0.706800  0.304710  0.134570  1.0  -0.5931
  O  O1236  1  0.244850  0.762890  0.090100  1.0  -0.8594
  O  O1237  1  0.712480  0.334500  0.827110  1.0  -0.6007
  O  O1238  1  0.763100  0.386010  0.847060  1.0  -0.5871
  O  O1239  1  0.786200  0.521560  0.524490  1.0  -0.5872
  O  O1240  1  0.762560  0.609970  0.553370  1.0  -0.5809
  O  O1241  1  0.330660  0.168520  0.433570  1.0  -0.6266
  O  O1242  1  0.335890  0.109760  0.496100  1.0  -0.6069
  O  O1243  1  0.280100  0.233670  0.501080  1.0  -0.8111
  O  O1244  1  0.815620  0.264850  0.101140  1.0  -0.6177
  O  O1245  1  0.820880  0.339850  0.159410  1.0  -0.6065
  O  O1246  1  0.221100  0.115850  0.440440  1.0  -0.5781
  O  O1247  1  0.264540  0.072450  0.432620  1.0  -0.6193
  O  O1248  1  0.257280  0.862810  0.172730  1.0  -0.578
  O  O1249  1  0.206800  0.804710  0.134570  1.0  -0.5931
  O  O1250  1  0.744850  0.262890  0.090100  1.0  -0.8594
  O  O1251  1  0.212480  0.834500  0.827110  1.0  -0.6007
  O  O1252  1  0.263100  0.886010  0.847060  1.0  -0.5871
  O  O1253  1  0.286200  0.021560  0.524490  1.0  -0.5872
  O  O1254  1  0.262560  0.109970  0.553370  1.0  -0.5809
  O  O1255  1  0.830660  0.668520  0.433570  1.0  -0.6266
  O  O1256  1  0.835890  0.609760  0.496100  1.0  -0.6068
  O  O1257  1  0.780100  0.266330  0.001080  1.0  -0.812
  O  O1258  1  0.315620  0.235150  0.601140  1.0  -0.6179
  O  O1259  1  0.320880  0.160150  0.659410  1.0  -0.6061
  O  O1260  1  0.721100  0.384150  0.940440  1.0  -0.5789
  O  O1261  1  0.764540  0.427550  0.932620  1.0  -0.6194
  O  O1262  1  0.757280  0.637190  0.672730  1.0  -0.578
  O  O1263  1  0.706800  0.695290  0.634570  1.0  -0.5937
  O  O1264  1  0.244850  0.237110  0.590100  1.0  -0.8586
  O  O1265  1  0.712480  0.665500  0.327110  1.0  -0.6006
  O  O1266  1  0.763100  0.613990  0.347060  1.0  -0.5849
  O  O1267  1  0.786200  0.478440  0.024490  1.0  -0.5871
  O  O1268  1  0.762560  0.390030  0.053370  1.0  -0.58
  O  O1269  1  0.330660  0.831480  0.933570  1.0  -0.626
  O  O1270  1  0.335890  0.890240  0.996100  1.0  -0.6057
  O  O1271  1  0.280100  0.766330  0.001080  1.0  -0.812
  O  O1272  1  0.815620  0.735150  0.601140  1.0  -0.6179
  O  O1273  1  0.820880  0.660150  0.659410  1.0  -0.6061
  O  O1274  1  0.221100  0.884150  0.940440  1.0  -0.5789
  O  O1275  1  0.264540  0.927550  0.932620  1.0  -0.6194
  O  O1276  1  0.257280  0.137190  0.672730  1.0  -0.578
  O  O1277  1  0.206800  0.195290  0.634570  1.0  -0.5937
  O  O1278  1  0.744850  0.737110  0.590100  1.0  -0.8586
  O  O1279  1  0.212480  0.165500  0.327110  1.0  -0.6006
  O  O1280  1  0.263100  0.113990  0.347060  1.0  -0.5849
  O  O1281  1  0.286200  0.978440  0.024490  1.0  -0.5871
  O  O1282  1  0.262560  0.890030  0.053370  1.0  -0.58
  O  O1283  1  0.830660  0.331480  0.933570  1.0  -0.626
  O  O1284  1  0.835890  0.390240  0.996100  1.0  -0.6057
  O  O1285  1  0.219900  0.266330  0.498920  1.0  -0.8107
  O  O1286  1  0.684380  0.235150  0.898860  1.0  -0.6182
  O  O1287  1  0.679120  0.160150  0.840590  1.0  -0.6057
  O  O1288  1  0.278900  0.384150  0.559560  1.0  -0.5799
  O  O1289  1  0.235460  0.427550  0.567380  1.0  -0.6196
  O  O1290  1  0.242720  0.637190  0.827270  1.0  -0.5779
  O  O1291  1  0.293200  0.695290  0.865430  1.0  -0.5933
  O  O1292  1  0.755150  0.237110  0.909900  1.0  -0.8587
  O  O1293  1  0.287520  0.665500  0.172890  1.0  -0.6014
  O  O1294  1  0.236900  0.613990  0.152940  1.0  -0.585
  O  O1295  1  0.213800  0.478440  0.475510  1.0  -0.5873
  O  O1296  1  0.237440  0.390030  0.446630  1.0  -0.5803
  O  O1297  1  0.669340  0.831480  0.566430  1.0  -0.6272
  O  O1298  1  0.664110  0.890240  0.503900  1.0  -0.6079
  O  O1299  1  0.719900  0.766330  0.498920  1.0  -0.8107
  O  O1300  1  0.184380  0.735150  0.898860  1.0  -0.6182
  O  O1301  1  0.179120  0.660150  0.840590  1.0  -0.6057
  O  O1302  1  0.778900  0.884150  0.559560  1.0  -0.5799
  O  O1303  1  0.735460  0.927550  0.567380  1.0  -0.6196
  O  O1304  1  0.742720  0.137190  0.827270  1.0  -0.5779
  O  O1305  1  0.793200  0.195290  0.865430  1.0  -0.5933
  O  O1306  1  0.255150  0.737110  0.909900  1.0  -0.8587
  O  O1307  1  0.787520  0.165500  0.172890  1.0  -0.6014
  O  O1308  1  0.736900  0.113990  0.152940  1.0  -0.585
  O  O1309  1  0.713800  0.978440  0.475510  1.0  -0.5873
  O  O1310  1  0.737440  0.890030  0.446630  1.0  -0.5803
  O  O1311  1  0.169340  0.331480  0.566430  1.0  -0.6272
  O  O1312  1  0.164110  0.390240  0.503900  1.0  -0.6079
