# generated using pymatgen
data_ZnCu4H16C40(NO)18
_symmetry_space_group_name_H-M   'P 1'
_cell_length_a   30.92200000
_cell_length_b   30.92200000
_cell_length_c   30.92200000
_cell_angle_alpha   90.00000000
_cell_angle_beta   90.00000000
_cell_angle_gamma   90.00000000
_symmetry_Int_Tables_number   1
_chemical_formula_structural   ZnCu4H16C40(NO)18
_chemical_formula_sum   'Zn8 Cu32 H128 C320 N144 O144'
_cell_volume   29566.69133745
_cell_formula_units_Z   8
loop_
 _symmetry_equiv_pos_site_id
 _symmetry_equiv_pos_as_xyz
  1  'x, y, z'
loop_
 _atom_site_type_symbol
 _atom_site_label
 _atom_site_symmetry_multiplicity
 _atom_site_fract_x
 _atom_site_fract_y
 _atom_site_fract_z
 _atom_site_occupancy
 _atom_site_charge
  Zn  Zn1  1  0.250000  0.250000  0.250000  1.0  0.9075
  Zn  Zn2  1  0.750000  0.750000  0.250000  1.0  0.9072
  Zn  Zn3  1  0.750000  0.250000  0.750000  1.0  0.9072
  Zn  Zn4  1  0.250000  0.750000  0.750000  1.0  0.907
  Zn  Zn5  1  0.250000  0.250000  0.750000  1.0  0.9072
  Zn  Zn6  1  0.750000  0.750000  0.750000  1.0  0.907
  Zn  Zn7  1  0.750000  0.250000  0.250000  1.0  0.9075
  Zn  Zn8  1  0.250000  0.750000  0.250000  1.0  0.9072
  Cu  Cu9  1  0.314600  0.314600  0.185400  1.0  1.0252
  Cu  Cu10  1  0.685400  0.685400  0.185400  1.0  1.0293
  Cu  Cu11  1  0.185400  0.185400  0.185400  1.0  1.0293
  Cu  Cu12  1  0.685400  0.314600  0.814600  1.0  1.0275
  Cu  Cu13  1  0.185400  0.314600  0.314600  1.0  1.0275
  Cu  Cu14  1  0.314600  0.685400  0.814600  1.0  1.0283
  Cu  Cu15  1  0.314600  0.185400  0.314600  1.0  1.0283
  Cu  Cu16  1  0.185400  0.814600  0.814600  1.0  1.0275
  Cu  Cu17  1  0.185400  0.685400  0.685400  1.0  1.0293
  Cu  Cu18  1  0.814600  0.685400  0.314600  1.0  1.0283
  Cu  Cu19  1  0.814600  0.185400  0.814600  1.0  1.0283
  Cu  Cu20  1  0.814600  0.314600  0.685400  1.0  1.0252
  Cu  Cu21  1  0.814600  0.814600  0.185400  1.0  1.0252
  Cu  Cu22  1  0.685400  0.185400  0.685400  1.0  1.0293
  Cu  Cu23  1  0.314600  0.814600  0.685400  1.0  1.0252
  Cu  Cu24  1  0.685400  0.814600  0.314600  1.0  1.0275
  Cu  Cu25  1  0.314600  0.314600  0.814600  1.0  1.026
  Cu  Cu26  1  0.685400  0.685400  0.814600  1.0  1.0298
  Cu  Cu27  1  0.685400  0.185400  0.314600  1.0  1.0298
  Cu  Cu28  1  0.185400  0.685400  0.314600  1.0  1.0298
  Cu  Cu29  1  0.314600  0.685400  0.185400  1.0  1.0278
  Cu  Cu30  1  0.685400  0.314600  0.185400  1.0  1.0267
  Cu  Cu31  1  0.185400  0.814600  0.185400  1.0  1.0267
  Cu  Cu32  1  0.314600  0.185400  0.685400  1.0  1.0278
  Cu  Cu33  1  0.185400  0.185400  0.814600  1.0  1.0298
  Cu  Cu34  1  0.685400  0.814600  0.685400  1.0  1.0267
  Cu  Cu35  1  0.185400  0.314600  0.685400  1.0  1.0267
  Cu  Cu36  1  0.314600  0.814600  0.314600  1.0  1.026
  Cu  Cu37  1  0.814600  0.314600  0.314600  1.0  1.026
  Cu  Cu38  1  0.814600  0.814600  0.814600  1.0  1.026
  Cu  Cu39  1  0.814600  0.685400  0.685400  1.0  1.0278
  Cu  Cu40  1  0.814600  0.185400  0.185400  1.0  1.0278
  H  H41  1  0.420450  0.302170  0.197830  1.0  0.1221
  H  H42  1  0.920450  0.302170  0.697830  1.0  0.1221
  H  H43  1  0.579550  0.697830  0.197830  1.0  0.1226
  H  H44  1  0.079550  0.697830  0.697830  1.0  0.1226
  H  H45  1  0.079550  0.197830  0.197830  1.0  0.1226
  H  H46  1  0.579550  0.302170  0.802170  1.0  0.1229
  H  H47  1  0.079550  0.302170  0.302170  1.0  0.1229
  H  H48  1  0.420450  0.697830  0.802170  1.0  0.1235
  H  H49  1  0.420450  0.197830  0.302170  1.0  0.1235
  H  H50  1  0.920450  0.697830  0.302170  1.0  0.1235
  H  H51  1  0.197830  0.420450  0.302170  1.0  0.1235
  H  H52  1  0.197830  0.920450  0.802170  1.0  0.1235
  H  H53  1  0.197830  0.579550  0.697830  1.0  0.123
  H  H54  1  0.197830  0.079550  0.197830  1.0  0.123
  H  H55  1  0.802170  0.579550  0.302170  1.0  0.1237
  H  H56  1  0.802170  0.079550  0.802170  1.0  0.1237
  H  H57  1  0.302170  0.079550  0.302170  1.0  0.1237
  H  H58  1  0.802170  0.420450  0.697830  1.0  0.1226
  H  H59  1  0.802170  0.920450  0.197830  1.0  0.1226
  H  H60  1  0.302170  0.420450  0.197830  1.0  0.1226
  H  H61  1  0.302170  0.197830  0.420450  1.0  0.1248
  H  H62  1  0.302170  0.697830  0.920450  1.0  0.1248
  H  H63  1  0.697830  0.197830  0.579550  1.0  0.1238
  H  H64  1  0.697830  0.697830  0.079550  1.0  0.1238
  H  H65  1  0.197830  0.197830  0.079550  1.0  0.1238
  H  H66  1  0.302170  0.802170  0.579550  1.0  0.123
  H  H67  1  0.302170  0.302170  0.079550  1.0  0.123
  H  H68  1  0.697830  0.802170  0.420450  1.0  0.1243
  H  H69  1  0.697830  0.302170  0.920450  1.0  0.1243
  H  H70  1  0.197830  0.302170  0.420450  1.0  0.1243
  H  H71  1  0.302170  0.420450  0.802170  1.0  0.1225
  H  H72  1  0.302170  0.920450  0.302170  1.0  0.1225
  H  H73  1  0.697830  0.579550  0.802170  1.0  0.1241
  H  H74  1  0.697830  0.079550  0.302170  1.0  0.1241
  H  H75  1  0.197830  0.579550  0.302170  1.0  0.1241
  H  H76  1  0.302170  0.579550  0.197830  1.0  0.1232
  H  H77  1  0.302170  0.079550  0.697830  1.0  0.1232
  H  H78  1  0.697830  0.420450  0.197830  1.0  0.1231
  H  H79  1  0.697830  0.920450  0.697830  1.0  0.1231
  H  H80  1  0.197830  0.920450  0.197830  1.0  0.1231
  H  H81  1  0.420450  0.197830  0.697830  1.0  0.1232
  H  H82  1  0.920450  0.197830  0.197830  1.0  0.1232
  H  H83  1  0.579550  0.197830  0.302170  1.0  0.124
  H  H84  1  0.079550  0.197830  0.802170  1.0  0.124
  H  H85  1  0.579550  0.802170  0.697830  1.0  0.1222
  H  H86  1  0.579550  0.302170  0.197830  1.0  0.1222
  H  H87  1  0.079550  0.802170  0.197830  1.0  0.1222
  H  H88  1  0.420450  0.802170  0.302170  1.0  0.1217
  H  H89  1  0.920450  0.802170  0.802170  1.0  0.1217
  H  H90  1  0.920450  0.302170  0.302170  1.0  0.1217
  H  H91  1  0.197830  0.302170  0.579550  1.0  0.1234
  H  H92  1  0.197830  0.802170  0.079550  1.0  0.1234
  H  H93  1  0.197830  0.697830  0.420450  1.0  0.125
  H  H94  1  0.197830  0.197830  0.920450  1.0  0.125
  H  H95  1  0.802170  0.302170  0.420450  1.0  0.1233
  H  H96  1  0.802170  0.802170  0.920450  1.0  0.1233
  H  H97  1  0.302170  0.302170  0.920450  1.0  0.1233
  H  H98  1  0.802170  0.697830  0.579550  1.0  0.1241
  H  H99  1  0.802170  0.197830  0.079550  1.0  0.1241
  H  H100  1  0.302170  0.197830  0.579550  1.0  0.1241
  H  H101  1  0.579550  0.697830  0.802170  1.0  0.124
  H  H102  1  0.079550  0.697830  0.302170  1.0  0.124
  H  H103  1  0.420450  0.302170  0.802170  1.0  0.1217
  H  H104  1  0.420450  0.697830  0.197830  1.0  0.1232
  H  H105  1  0.920450  0.697830  0.697830  1.0  0.1232
  H  H106  1  0.079550  0.302170  0.697830  1.0  0.1222
  H  H107  1  0.802170  0.579550  0.697830  1.0  0.1232
  H  H108  1  0.802170  0.079550  0.197830  1.0  0.1232
  H  H109  1  0.802170  0.420450  0.302170  1.0  0.1225
  H  H110  1  0.802170  0.920450  0.802170  1.0  0.1225
  H  H111  1  0.197830  0.420450  0.697830  1.0  0.1231
  H  H112  1  0.197830  0.079550  0.802170  1.0  0.1241
  H  H113  1  0.697830  0.802170  0.579550  1.0  0.1234
  H  H114  1  0.697830  0.302170  0.079550  1.0  0.1234
  H  H115  1  0.302170  0.802170  0.420450  1.0  0.1233
  H  H116  1  0.697830  0.197830  0.420450  1.0  0.125
  H  H117  1  0.697830  0.697830  0.920450  1.0  0.125
  H  H118  1  0.302170  0.697830  0.079550  1.0  0.1241
  H  H119  1  0.697830  0.579550  0.197830  1.0  0.123
  H  H120  1  0.697830  0.079550  0.697830  1.0  0.123
  H  H121  1  0.302170  0.920450  0.697830  1.0  0.1226
  H  H122  1  0.697830  0.420450  0.802170  1.0  0.1235
  H  H123  1  0.697830  0.920450  0.302170  1.0  0.1235
  H  H124  1  0.302170  0.579550  0.802170  1.0  0.1237
  H  H125  1  0.579550  0.802170  0.302170  1.0  0.1229
  H  H126  1  0.079550  0.802170  0.802170  1.0  0.1229
  H  H127  1  0.420450  0.802170  0.697830  1.0  0.1221
  H  H128  1  0.920450  0.802170  0.197830  1.0  0.1221
  H  H129  1  0.920450  0.197830  0.802170  1.0  0.1235
  H  H130  1  0.579550  0.197830  0.697830  1.0  0.1226
  H  H131  1  0.802170  0.697830  0.420450  1.0  0.1248
  H  H132  1  0.802170  0.197830  0.920450  1.0  0.1248
  H  H133  1  0.802170  0.302170  0.579550  1.0  0.123
  H  H134  1  0.802170  0.802170  0.079550  1.0  0.123
  H  H135  1  0.197830  0.697830  0.579550  1.0  0.1238
  H  H136  1  0.197830  0.802170  0.920450  1.0  0.1243
  H  H137  1  0.374910  0.374910  0.125090  1.0  0.377
  H  H138  1  0.625090  0.625090  0.125090  1.0  0.3791
  H  H139  1  0.125090  0.125090  0.125090  1.0  0.3791
  H  H140  1  0.625090  0.374910  0.874910  1.0  0.38
  H  H141  1  0.125090  0.374910  0.374910  1.0  0.38
  H  H142  1  0.374910  0.625090  0.874910  1.0  0.3788
  H  H143  1  0.374910  0.125090  0.374910  1.0  0.3788
  H  H144  1  0.125090  0.874910  0.874910  1.0  0.38
  H  H145  1  0.125090  0.625090  0.625090  1.0  0.3791
  H  H146  1  0.874910  0.625090  0.374910  1.0  0.3788
  H  H147  1  0.874910  0.125090  0.874910  1.0  0.3788
  H  H148  1  0.874910  0.374910  0.625090  1.0  0.377
  H  H149  1  0.874910  0.874910  0.125090  1.0  0.377
  H  H150  1  0.625090  0.125090  0.625090  1.0  0.3791
  H  H151  1  0.374910  0.874910  0.625090  1.0  0.377
  H  H152  1  0.625090  0.874910  0.374910  1.0  0.38
  H  H153  1  0.374910  0.374910  0.874910  1.0  0.3777
  H  H154  1  0.625090  0.625090  0.874910  1.0  0.3805
  H  H155  1  0.625090  0.125090  0.374910  1.0  0.3805
  H  H156  1  0.125090  0.625090  0.374910  1.0  0.3805
  H  H157  1  0.374910  0.625090  0.125090  1.0  0.3788
  H  H158  1  0.625090  0.374910  0.125090  1.0  0.3789
  H  H159  1  0.125090  0.874910  0.125090  1.0  0.3789
  H  H160  1  0.374910  0.125090  0.625090  1.0  0.3788
  H  H161  1  0.125090  0.125090  0.874910  1.0  0.3805
  H  H162  1  0.625090  0.874910  0.625090  1.0  0.3789
  H  H163  1  0.125090  0.374910  0.625090  1.0  0.3789
  H  H164  1  0.374910  0.874910  0.374910  1.0  0.3777
  H  H165  1  0.874910  0.374910  0.374910  1.0  0.3777
  H  H166  1  0.874910  0.874910  0.874910  1.0  0.3777
  H  H167  1  0.874910  0.625090  0.625090  1.0  0.3788
  H  H168  1  0.874910  0.125090  0.125090  1.0  0.3788
  C  C169  1  0.382000  0.266210  0.233790  1.0  0.1553
  C  C170  1  0.420700  0.280900  0.219100  1.0  -0.0547
  C  C171  1  0.461400  0.266100  0.233900  1.0  0.2229
  C  C172  1  0.882000  0.266210  0.733800  1.0  0.1704
  C  C173  1  0.920700  0.280900  0.719100  1.0  -0.0498
  C  C174  1  0.961400  0.266100  0.733900  1.0  0.2229
  C  C175  1  0.618000  0.733800  0.233790  1.0  0.1711
  C  C176  1  0.579300  0.719100  0.219100  1.0  -0.0493
  C  C177  1  0.538600  0.733900  0.233900  1.0  0.2228
  C  C178  1  0.118000  0.733800  0.733800  1.0  0.1699
  C  C179  1  0.079300  0.719100  0.719100  1.0  -0.0533
  C  C180  1  0.038600  0.733900  0.733900  1.0  0.2226
  C  C181  1  0.118000  0.233790  0.233790  1.0  0.1539
  C  C182  1  0.079300  0.219100  0.219100  1.0  -0.0534
  C  C183  1  0.038600  0.233900  0.233900  1.0  0.2226
  C  C184  1  0.618000  0.266210  0.766210  1.0  0.1681
  C  C185  1  0.579300  0.280900  0.780900  1.0  -0.0497
  C  C186  1  0.538600  0.266100  0.766100  1.0  0.2224
  C  C187  1  0.118000  0.266210  0.266210  1.0  0.1548
  C  C188  1  0.079300  0.280900  0.280900  1.0  -0.0524
  C  C189  1  0.038600  0.266100  0.266100  1.0  0.2224
  C  C190  1  0.382000  0.733800  0.766210  1.0  0.1554
  C  C191  1  0.420700  0.719100  0.780900  1.0  -0.0528
  C  C192  1  0.461400  0.733900  0.766100  1.0  0.2216
  C  C193  1  0.382000  0.233790  0.266210  1.0  0.1554
  C  C194  1  0.420700  0.219100  0.280900  1.0  -0.0524
  C  C195  1  0.461400  0.233900  0.266100  1.0  0.2216
  C  C196  1  0.882000  0.733800  0.266210  1.0  0.1699
  C  C197  1  0.920700  0.719100  0.280900  1.0  -0.0487
  C  C198  1  0.961400  0.733900  0.266100  1.0  0.2216
  C  C199  1  0.233790  0.382000  0.266210  1.0  0.1543
  C  C200  1  0.219100  0.420700  0.280900  1.0  -0.0561
  C  C201  1  0.233900  0.461400  0.266100  1.0  0.2219
  C  C202  1  0.233790  0.882000  0.766210  1.0  0.1709
  C  C203  1  0.219100  0.920700  0.780900  1.0  -0.0521
  C  C204  1  0.233900  0.961400  0.766100  1.0  0.2219
  C  C205  1  0.233790  0.618000  0.733800  1.0  0.1729
  C  C206  1  0.219100  0.579300  0.719100  1.0  -0.0512
  C  C207  1  0.233900  0.538600  0.733900  1.0  0.2225
  C  C208  1  0.233790  0.118000  0.233790  1.0  0.1552
  C  C209  1  0.219100  0.079300  0.219100  1.0  -0.0548
  C  C210  1  0.233900  0.038600  0.233900  1.0  0.2226
  C  C211  1  0.766210  0.618000  0.266210  1.0  0.1673
  C  C212  1  0.780900  0.579300  0.280900  1.0  -0.051
  C  C213  1  0.766100  0.538600  0.266100  1.0  0.2242
  C  C214  1  0.766210  0.118000  0.766210  1.0  0.1679
  C  C215  1  0.780900  0.079300  0.780900  1.0  -0.0497
  C  C216  1  0.766100  0.038600  0.766100  1.0  0.2242
  C  C217  1  0.266210  0.118000  0.266210  1.0  0.154
  C  C218  1  0.280900  0.079300  0.280900  1.0  -0.0529
  C  C219  1  0.266100  0.038600  0.266100  1.0  0.2242
  C  C220  1  0.766210  0.382000  0.733800  1.0  0.152
  C  C221  1  0.780900  0.420700  0.719100  1.0  -0.055
  C  C222  1  0.766100  0.461400  0.733900  1.0  0.2243
  C  C223  1  0.766210  0.882000  0.233790  1.0  0.1689
  C  C224  1  0.780900  0.920700  0.219100  1.0  -0.0525
  C  C225  1  0.766100  0.961400  0.233900  1.0  0.2243
  C  C226  1  0.266210  0.382000  0.233790  1.0  0.1519
  C  C227  1  0.280900  0.420700  0.219100  1.0  -0.0548
  C  C228  1  0.266100  0.461400  0.233900  1.0  0.2246
  C  C229  1  0.266210  0.233790  0.382000  1.0  0.1531
  C  C230  1  0.280900  0.219100  0.420700  1.0  -0.0543
  C  C231  1  0.266100  0.233900  0.461400  1.0  0.226
  C  C232  1  0.266210  0.733800  0.882000  1.0  0.1692
  C  C233  1  0.280900  0.719100  0.920700  1.0  -0.0502
  C  C234  1  0.266100  0.733900  0.961400  1.0  0.226
  C  C235  1  0.733800  0.233790  0.618000  1.0  0.175
  C  C236  1  0.719100  0.219100  0.579300  1.0  -0.0502
  C  C237  1  0.733900  0.233900  0.538600  1.0  0.223
  C  C238  1  0.733800  0.733800  0.118000  1.0  0.1736
  C  C239  1  0.719100  0.719100  0.079300  1.0  -0.0544
  C  C240  1  0.733900  0.733900  0.038600  1.0  0.223
  C  C241  1  0.233790  0.233790  0.118000  1.0  0.156
  C  C242  1  0.219100  0.219100  0.079300  1.0  -0.0545
  C  C243  1  0.233900  0.233900  0.038600  1.0  0.2231
  C  C244  1  0.266210  0.766210  0.618000  1.0  0.1698
  C  C245  1  0.280900  0.780900  0.579300  1.0  -0.0513
  C  C246  1  0.266100  0.766100  0.538600  1.0  0.2252
  C  C247  1  0.266210  0.266210  0.118000  1.0  0.1547
  C  C248  1  0.280900  0.280900  0.079300  1.0  -0.0542
  C  C249  1  0.266100  0.266100  0.038600  1.0  0.2252
  C  C250  1  0.733800  0.766210  0.382000  1.0  0.1558
  C  C251  1  0.719100  0.780900  0.420700  1.0  -0.0564
  C  C252  1  0.733900  0.766100  0.461400  1.0  0.2242
  C  C253  1  0.733800  0.266210  0.882000  1.0  0.1716
  C  C254  1  0.719100  0.280900  0.920700  1.0  -0.0508
  C  C255  1  0.733900  0.266100  0.961400  1.0  0.2242
  C  C256  1  0.233790  0.266210  0.382000  1.0  0.1557
  C  C257  1  0.219100  0.280900  0.420700  1.0  -0.0568
  C  C258  1  0.233900  0.266100  0.461400  1.0  0.2242
  C  C259  1  0.266210  0.382000  0.766210  1.0  0.1674
  C  C260  1  0.280900  0.420700  0.780900  1.0  -0.051
  C  C261  1  0.266100  0.461400  0.766100  1.0  0.2237
  C  C262  1  0.266210  0.882000  0.266210  1.0  0.1719
  C  C263  1  0.280900  0.920700  0.280900  1.0  -0.0539
  C  C264  1  0.266100  0.961400  0.266100  1.0  0.2234
  C  C265  1  0.733800  0.618000  0.766210  1.0  0.17
  C  C266  1  0.719100  0.579300  0.780900  1.0  -0.0538
  C  C267  1  0.733900  0.538600  0.766100  1.0  0.2222
  C  C268  1  0.733800  0.118000  0.266210  1.0  0.1663
  C  C269  1  0.719100  0.079300  0.280900  1.0  -0.0505
  C  C270  1  0.733900  0.038600  0.266100  1.0  0.2222
  C  C271  1  0.233790  0.618000  0.266210  1.0  0.1697
  C  C272  1  0.219100  0.579300  0.280900  1.0  -0.0538
  C  C273  1  0.233900  0.538600  0.266100  1.0  0.2222
  C  C274  1  0.266210  0.618000  0.233790  1.0  0.1675
  C  C275  1  0.280900  0.579300  0.219100  1.0  -0.0544
  C  C276  1  0.266100  0.538600  0.233900  1.0  0.2247
  C  C277  1  0.266210  0.118000  0.733800  1.0  0.1645
  C  C278  1  0.280900  0.079300  0.719100  1.0  -0.0511
  C  C279  1  0.266100  0.038600  0.733900  1.0  0.2247
  C  C280  1  0.733800  0.382000  0.233790  1.0  0.1659
  C  C281  1  0.719100  0.420700  0.219100  1.0  -0.0518
  C  C282  1  0.733900  0.461400  0.233900  1.0  0.222
  C  C283  1  0.733800  0.882000  0.733800  1.0  0.1695
  C  C284  1  0.719100  0.920700  0.719100  1.0  -0.0564
  C  C285  1  0.733900  0.961400  0.733900  1.0  0.222
  C  C286  1  0.233790  0.882000  0.233790  1.0  0.1743
  C  C287  1  0.219100  0.920700  0.219100  1.0  -0.0568
  C  C288  1  0.233900  0.961400  0.233900  1.0  0.222
  C  C289  1  0.382000  0.233790  0.733800  1.0  0.1655
  C  C290  1  0.420700  0.219100  0.719100  1.0  -0.0499
  C  C291  1  0.461400  0.233900  0.733900  1.0  0.2217
  C  C292  1  0.882000  0.233790  0.233790  1.0  0.1746
  C  C293  1  0.920700  0.219100  0.219100  1.0  -0.0546
  C  C294  1  0.961400  0.233900  0.233900  1.0  0.2217
  C  C295  1  0.618000  0.233790  0.266210  1.0  0.1682
  C  C296  1  0.579300  0.219100  0.280900  1.0  -0.0519
  C  C297  1  0.538600  0.233900  0.266100  1.0  0.2224
  C  C298  1  0.118000  0.233790  0.766210  1.0  0.1687
  C  C299  1  0.079300  0.219100  0.780900  1.0  -0.0496
  C  C300  1  0.038600  0.233900  0.766100  1.0  0.2222
  C  C301  1  0.618000  0.766210  0.733800  1.0  0.169
  C  C302  1  0.579300  0.780900  0.719100  1.0  -0.0529
  C  C303  1  0.538600  0.766100  0.733900  1.0  0.2232
  C  C304  1  0.618000  0.266210  0.233790  1.0  0.1688
  C  C305  1  0.579300  0.280900  0.219100  1.0  -0.0525
  C  C306  1  0.538600  0.266100  0.233900  1.0  0.2232
  C  C307  1  0.118000  0.766210  0.233790  1.0  0.1688
  C  C308  1  0.079300  0.780900  0.219100  1.0  -0.0501
  C  C309  1  0.038600  0.766100  0.233900  1.0  0.2232
  C  C310  1  0.382000  0.766210  0.266210  1.0  0.1698
  C  C311  1  0.420700  0.780900  0.280900  1.0  -0.0498
  C  C312  1  0.461400  0.766100  0.266100  1.0  0.222
  C  C313  1  0.882000  0.766210  0.766210  1.0  0.1687
  C  C314  1  0.920700  0.780900  0.780900  1.0  -0.0498
  C  C315  1  0.961400  0.766100  0.766100  1.0  0.222
  C  C316  1  0.882000  0.266210  0.266210  1.0  0.1742
  C  C317  1  0.920700  0.280900  0.280900  1.0  -0.053
  C  C318  1  0.961400  0.266100  0.266100  1.0  0.222
  C  C319  1  0.233790  0.266210  0.618000  1.0  0.172
  C  C320  1  0.219100  0.280900  0.579300  1.0  -0.0549
  C  C321  1  0.233900  0.266100  0.538600  1.0  0.2231
  C  C322  1  0.233790  0.766210  0.118000  1.0  0.172
  C  C323  1  0.219100  0.780900  0.079300  1.0  -0.052
  C  C324  1  0.233900  0.766100  0.038600  1.0  0.2231
  C  C325  1  0.233790  0.733800  0.382000  1.0  0.1666
  C  C326  1  0.219100  0.719100  0.420700  1.0  -0.0506
  C  C327  1  0.233900  0.733900  0.461400  1.0  0.2238
  C  C328  1  0.233790  0.233790  0.882000  1.0  0.176
  C  C329  1  0.219100  0.219100  0.920700  1.0  -0.0553
  C  C330  1  0.233900  0.233900  0.961400  1.0  0.2238
  C  C331  1  0.766210  0.266210  0.382000  1.0  0.168
  C  C332  1  0.780900  0.280900  0.420700  1.0  -0.0516
  C  C333  1  0.766100  0.266100  0.461400  1.0  0.2257
  C  C334  1  0.766210  0.766210  0.882000  1.0  0.1682
  C  C335  1  0.780900  0.780900  0.920700  1.0  -0.0506
  C  C336  1  0.766100  0.766100  0.961400  1.0  0.2257
  C  C337  1  0.266210  0.266210  0.882000  1.0  0.1737
  C  C338  1  0.280900  0.280900  0.920700  1.0  -0.0551
  C  C339  1  0.266100  0.266100  0.961400  1.0  0.2257
  C  C340  1  0.766210  0.733800  0.618000  1.0  0.1698
  C  C341  1  0.780900  0.719100  0.579300  1.0  -0.0537
  C  C342  1  0.766100  0.733900  0.538600  1.0  0.2255
  C  C343  1  0.766210  0.233790  0.118000  1.0  0.1699
  C  C344  1  0.780900  0.219100  0.079300  1.0  -0.0509
  C  C345  1  0.766100  0.233900  0.038600  1.0  0.2255
  C  C346  1  0.266210  0.233790  0.618000  1.0  0.1696
  C  C347  1  0.280900  0.219100  0.579300  1.0  -0.0536
  C  C348  1  0.266100  0.233900  0.538600  1.0  0.2255
  C  C349  1  0.618000  0.733800  0.766210  1.0  0.1686
  C  C350  1  0.579300  0.719100  0.780900  1.0  -0.0519
  C  C351  1  0.538600  0.733900  0.766100  1.0  0.2224
  C  C352  1  0.118000  0.733800  0.266210  1.0  0.1649
  C  C353  1  0.079300  0.719100  0.280900  1.0  -0.0486
  C  C354  1  0.038600  0.733900  0.266100  1.0  0.2222
  C  C355  1  0.382000  0.266210  0.766210  1.0  0.1696
  C  C356  1  0.420700  0.280900  0.780900  1.0  -0.0495
  C  C357  1  0.461400  0.266100  0.766100  1.0  0.222
  C  C358  1  0.382000  0.733800  0.233790  1.0  0.1655
  C  C359  1  0.420700  0.719100  0.219100  1.0  -0.0496
  C  C360  1  0.461400  0.733900  0.233900  1.0  0.2222
  C  C361  1  0.882000  0.733800  0.733800  1.0  0.17
  C  C362  1  0.920700  0.719100  0.719100  1.0  -0.0535
  C  C363  1  0.961400  0.733900  0.733900  1.0  0.2217
  C  C364  1  0.118000  0.266210  0.733800  1.0  0.1654
  C  C365  1  0.079300  0.280900  0.719100  1.0  -0.0483
  C  C366  1  0.038600  0.266100  0.733900  1.0  0.2232
  C  C367  1  0.766210  0.618000  0.733800  1.0  0.168
  C  C368  1  0.780900  0.579300  0.719100  1.0  -0.0544
  C  C369  1  0.766100  0.538600  0.733900  1.0  0.2247
  C  C370  1  0.766210  0.118000  0.233790  1.0  0.1685
  C  C371  1  0.780900  0.079300  0.219100  1.0  -0.0522
  C  C372  1  0.766100  0.038600  0.233900  1.0  0.2247
  C  C373  1  0.766210  0.382000  0.266210  1.0  0.1674
  C  C374  1  0.780900  0.420700  0.280900  1.0  -0.0509
  C  C375  1  0.766100  0.461400  0.266100  1.0  0.2234
  C  C376  1  0.766210  0.882000  0.766210  1.0  0.1657
  C  C377  1  0.780900  0.920700  0.780900  1.0  -0.0496
  C  C378  1  0.766100  0.961400  0.766100  1.0  0.2234
  C  C379  1  0.233790  0.382000  0.733800  1.0  0.1659
  C  C380  1  0.219100  0.420700  0.719100  1.0  -0.0521
  C  C381  1  0.233900  0.461400  0.733900  1.0  0.2225
  C  C382  1  0.233790  0.118000  0.766210  1.0  0.1701
  C  C383  1  0.219100  0.079300  0.780900  1.0  -0.0515
  C  C384  1  0.233900  0.038600  0.766100  1.0  0.2223
  C  C385  1  0.733800  0.766210  0.618000  1.0  0.172
  C  C386  1  0.719100  0.780900  0.579300  1.0  -0.0549
  C  C387  1  0.733900  0.766100  0.538600  1.0  0.2231
  C  C388  1  0.733800  0.266210  0.118000  1.0  0.1684
  C  C389  1  0.719100  0.280900  0.079300  1.0  -0.0509
  C  C390  1  0.733900  0.266100  0.038600  1.0  0.2231
  C  C391  1  0.266210  0.766210  0.382000  1.0  0.168
  C  C392  1  0.280900  0.780900  0.420700  1.0  -0.0515
  C  C393  1  0.266100  0.766100  0.461400  1.0  0.2257
  C  C394  1  0.733800  0.233790  0.382000  1.0  0.1666
  C  C395  1  0.719100  0.219100  0.420700  1.0  -0.0509
  C  C396  1  0.733900  0.233900  0.461400  1.0  0.2244
  C  C397  1  0.733800  0.733800  0.882000  1.0  0.1714
  C  C398  1  0.719100  0.719100  0.920700  1.0  -0.0558
  C  C399  1  0.733900  0.733900  0.961400  1.0  0.2238
  C  C400  1  0.266210  0.733800  0.118000  1.0  0.1663
  C  C401  1  0.280900  0.719100  0.079300  1.0  -0.0493
  C  C402  1  0.266100  0.733900  0.038600  1.0  0.2255
  C  C403  1  0.733800  0.618000  0.233790  1.0  0.1729
  C  C404  1  0.719100  0.579300  0.219100  1.0  -0.0513
  C  C405  1  0.733900  0.538600  0.233900  1.0  0.2225
  C  C406  1  0.733800  0.118000  0.733800  1.0  0.1713
  C  C407  1  0.719100  0.079300  0.719100  1.0  -0.0548
  C  C408  1  0.733900  0.038600  0.733900  1.0  0.2225
  C  C409  1  0.266210  0.882000  0.733800  1.0  0.1676
  C  C410  1  0.280900  0.920700  0.719100  1.0  -0.051
  C  C411  1  0.266100  0.961400  0.733900  1.0  0.2243
  C  C412  1  0.733800  0.382000  0.766210  1.0  0.1543
  C  C413  1  0.719100  0.420700  0.780900  1.0  -0.0565
  C  C414  1  0.733900  0.461400  0.766100  1.0  0.2219
  C  C415  1  0.733800  0.882000  0.266210  1.0  0.1704
  C  C416  1  0.719100  0.920700  0.280900  1.0  -0.0516
  C  C417  1  0.733900  0.961400  0.266100  1.0  0.2219
  C  C418  1  0.266210  0.618000  0.766210  1.0  0.1673
  C  C419  1  0.280900  0.579300  0.780900  1.0  -0.0506
  C  C420  1  0.266100  0.538600  0.766100  1.0  0.2242
  C  C421  1  0.618000  0.766210  0.266210  1.0  0.1685
  C  C422  1  0.579300  0.780900  0.280900  1.0  -0.0492
  C  C423  1  0.538600  0.766100  0.266100  1.0  0.2224
  C  C424  1  0.118000  0.766210  0.766210  1.0  0.1687
  C  C425  1  0.079300  0.780900  0.780900  1.0  -0.048
  C  C426  1  0.038600  0.766100  0.766100  1.0  0.2224
  C  C427  1  0.382000  0.766210  0.733800  1.0  0.1553
  C  C428  1  0.420700  0.780900  0.719100  1.0  -0.0536
  C  C429  1  0.461400  0.766100  0.733900  1.0  0.2229
  C  C430  1  0.882000  0.766210  0.233790  1.0  0.1708
  C  C431  1  0.920700  0.780900  0.219100  1.0  -0.0505
  C  C432  1  0.961400  0.766100  0.233900  1.0  0.2229
  C  C433  1  0.882000  0.233790  0.766210  1.0  0.1704
  C  C434  1  0.920700  0.219100  0.780900  1.0  -0.0492
  C  C435  1  0.961400  0.233900  0.766100  1.0  0.2216
  C  C436  1  0.618000  0.233790  0.733800  1.0  0.171
  C  C437  1  0.579300  0.219100  0.719100  1.0  -0.0492
  C  C438  1  0.538600  0.233900  0.733900  1.0  0.2228
  C  C439  1  0.766210  0.733800  0.382000  1.0  0.1532
  C  C440  1  0.780900  0.719100  0.420700  1.0  -0.0541
  C  C441  1  0.766100  0.733900  0.461400  1.0  0.226
  C  C442  1  0.766210  0.233790  0.882000  1.0  0.1692
  C  C443  1  0.780900  0.219100  0.920700  1.0  -0.0515
  C  C444  1  0.766100  0.233900  0.961400  1.0  0.226
  C  C445  1  0.766210  0.266210  0.618000  1.0  0.1698
  C  C446  1  0.780900  0.280900  0.579300  1.0  -0.0509
  C  C447  1  0.766100  0.266100  0.538600  1.0  0.2252
  C  C448  1  0.766210  0.766210  0.118000  1.0  0.1693
  C  C449  1  0.780900  0.780900  0.079300  1.0  -0.05
  C  C450  1  0.766100  0.766100  0.038600  1.0  0.2252
  C  C451  1  0.233790  0.733800  0.618000  1.0  0.175
  C  C452  1  0.219100  0.719100  0.579300  1.0  -0.0502
  C  C453  1  0.233900  0.733900  0.538600  1.0  0.223
  C  C454  1  0.233790  0.766210  0.882000  1.0  0.1719
  C  C455  1  0.219100  0.780900  0.920700  1.0  -0.0522
  C  C456  1  0.233900  0.766100  0.961400  1.0  0.2242
  C  C457  1  0.356600  0.356600  0.143400  1.0  0.1256
  C  C458  1  0.643400  0.643400  0.143400  1.0  0.1234
  C  C459  1  0.143400  0.143400  0.143400  1.0  0.1234
  C  C460  1  0.643400  0.356600  0.856600  1.0  0.1207
  C  C461  1  0.143400  0.356600  0.356600  1.0  0.1207
  C  C462  1  0.356600  0.643400  0.856600  1.0  0.1243
  C  C463  1  0.356600  0.143400  0.356600  1.0  0.1242
  C  C464  1  0.143400  0.856600  0.856600  1.0  0.1203
  C  C465  1  0.143400  0.643400  0.643400  1.0  0.1234
  C  C466  1  0.856600  0.643400  0.356600  1.0  0.1243
  C  C467  1  0.856600  0.143400  0.856600  1.0  0.1243
  C  C468  1  0.856600  0.356600  0.643400  1.0  0.1256
  C  C469  1  0.856600  0.856600  0.143400  1.0  0.1256
  C  C470  1  0.643400  0.143400  0.643400  1.0  0.1234
  C  C471  1  0.356600  0.856600  0.643400  1.0  0.1256
  C  C472  1  0.643400  0.856600  0.356600  1.0  0.1207
  C  C473  1  0.356600  0.356600  0.856600  1.0  0.1244
  C  C474  1  0.643400  0.643400  0.856600  1.0  0.1243
  C  C475  1  0.643400  0.143400  0.356600  1.0  0.1243
  C  C476  1  0.143400  0.643400  0.356600  1.0  0.1243
  C  C477  1  0.356600  0.643400  0.143400  1.0  0.1242
  C  C478  1  0.643400  0.356600  0.143400  1.0  0.1249
  C  C479  1  0.143400  0.856600  0.143400  1.0  0.1247
  C  C480  1  0.356600  0.143400  0.643400  1.0  0.1242
  C  C481  1  0.143400  0.143400  0.856600  1.0  0.1243
  C  C482  1  0.643400  0.856600  0.643400  1.0  0.1249
  C  C483  1  0.143400  0.356600  0.643400  1.0  0.1249
  C  C484  1  0.356600  0.856600  0.356600  1.0  0.1244
  C  C485  1  0.856600  0.356600  0.356600  1.0  0.1244
  C  C486  1  0.856600  0.856600  0.856600  1.0  0.1244
  C  C487  1  0.856600  0.643400  0.643400  1.0  0.1242
  C  C488  1  0.856600  0.143400  0.143400  1.0  0.1242
  N  N489  1  0.339300  0.274600  0.225400  1.0  -0.1404
  N  N490  1  0.839300  0.274600  0.725400  1.0  -0.1549
  N  N491  1  0.660700  0.725400  0.225400  1.0  -0.138
  N  N492  1  0.160700  0.725400  0.725400  1.0  -0.1554
  N  N493  1  0.160700  0.225400  0.225400  1.0  -0.1397
  N  N494  1  0.660700  0.274600  0.774600  1.0  -0.1379
  N  N495  1  0.160700  0.274600  0.274600  1.0  -0.1401
  N  N496  1  0.339300  0.725400  0.774600  1.0  -0.1569
  N  N497  1  0.339300  0.225400  0.274600  1.0  -0.1407
  N  N498  1  0.839300  0.725400  0.274600  1.0  -0.1551
  N  N499  1  0.225400  0.339300  0.274600  1.0  -0.1414
  N  N500  1  0.225400  0.839300  0.774600  1.0  -0.1492
  N  N501  1  0.225400  0.660700  0.725400  1.0  -0.1395
  N  N502  1  0.225400  0.160700  0.225400  1.0  -0.1411
  N  N503  1  0.774600  0.660700  0.274600  1.0  -0.1388
  N  N504  1  0.774600  0.160700  0.774600  1.0  -0.1597
  N  N505  1  0.274600  0.160700  0.274600  1.0  -0.1398
  N  N506  1  0.774600  0.339300  0.725400  1.0  -0.1583
  N  N507  1  0.774600  0.839300  0.225400  1.0  -0.151
  N  N508  1  0.274600  0.339300  0.225400  1.0  -0.1407
  N  N509  1  0.274600  0.225400  0.339300  1.0  -0.1387
  N  N510  1  0.274600  0.725400  0.839300  1.0  -0.1531
  N  N511  1  0.725400  0.225400  0.660700  1.0  -0.1372
  N  N512  1  0.725400  0.725400  0.160700  1.0  -0.155
  N  N513  1  0.225400  0.225400  0.160700  1.0  -0.1392
  N  N514  1  0.274600  0.774600  0.660700  1.0  -0.1368
  N  N515  1  0.274600  0.274600  0.160700  1.0  -0.1386
  N  N516  1  0.725400  0.774600  0.339300  1.0  -0.1558
  N  N517  1  0.725400  0.274600  0.839300  1.0  -0.1515
  N  N518  1  0.225400  0.274600  0.339300  1.0  -0.139
  N  N519  1  0.274600  0.339300  0.774600  1.0  -0.1392
  N  N520  1  0.274600  0.839300  0.274600  1.0  -0.1584
  N  N521  1  0.725400  0.660700  0.774600  1.0  -0.1411
  N  N522  1  0.725400  0.160700  0.274600  1.0  -0.1554
  N  N523  1  0.225400  0.660700  0.274600  1.0  -0.1411
  N  N524  1  0.274600  0.660700  0.225400  1.0  -0.1398
  N  N525  1  0.274600  0.160700  0.725400  1.0  -0.155
  N  N526  1  0.725400  0.339300  0.225400  1.0  -0.1553
  N  N527  1  0.725400  0.839300  0.725400  1.0  -0.1572
  N  N528  1  0.225400  0.839300  0.225400  1.0  -0.1562
  N  N529  1  0.339300  0.225400  0.725400  1.0  -0.1541
  N  N530  1  0.839300  0.225400  0.225400  1.0  -0.1564
  N  N531  1  0.660700  0.225400  0.274600  1.0  -0.1395
  N  N532  1  0.160700  0.225400  0.774600  1.0  -0.1383
  N  N533  1  0.660700  0.774600  0.725400  1.0  -0.1397
  N  N534  1  0.660700  0.274600  0.225400  1.0  -0.1396
  N  N535  1  0.160700  0.774600  0.225400  1.0  -0.1378
  N  N536  1  0.339300  0.774600  0.274600  1.0  -0.1387
  N  N537  1  0.839300  0.774600  0.774600  1.0  -0.1593
  N  N538  1  0.839300  0.274600  0.274600  1.0  -0.1573
  N  N539  1  0.225400  0.274600  0.660700  1.0  -0.1391
  N  N540  1  0.225400  0.774600  0.160700  1.0  -0.1369
  N  N541  1  0.225400  0.725400  0.339300  1.0  -0.153
  N  N542  1  0.225400  0.225400  0.839300  1.0  -0.1534
  N  N543  1  0.774600  0.274600  0.339300  1.0  -0.1366
  N  N544  1  0.774600  0.774600  0.839300  1.0  -0.1572
  N  N545  1  0.274600  0.274600  0.839300  1.0  -0.1555
  N  N546  1  0.774600  0.725400  0.660700  1.0  -0.1386
  N  N547  1  0.774600  0.225400  0.160700  1.0  -0.1373
  N  N548  1  0.274600  0.225400  0.660700  1.0  -0.1386
  N  N549  1  0.660700  0.725400  0.774600  1.0  -0.1395
  N  N550  1  0.160700  0.725400  0.274600  1.0  -0.154
  N  N551  1  0.339300  0.274600  0.774600  1.0  -0.1387
  N  N552  1  0.339300  0.725400  0.225400  1.0  -0.1541
  N  N553  1  0.839300  0.725400  0.725400  1.0  -0.156
  N  N554  1  0.160700  0.274600  0.725400  1.0  -0.1535
  N  N555  1  0.774600  0.660700  0.725400  1.0  -0.1399
  N  N556  1  0.774600  0.160700  0.225400  1.0  -0.1391
  N  N557  1  0.774600  0.339300  0.274600  1.0  -0.1392
  N  N558  1  0.774600  0.839300  0.774600  1.0  -0.1605
  N  N559  1  0.225400  0.339300  0.725400  1.0  -0.1553
  N  N560  1  0.225400  0.160700  0.774600  1.0  -0.1398
  N  N561  1  0.725400  0.774600  0.660700  1.0  -0.1391
  N  N562  1  0.725400  0.274600  0.160700  1.0  -0.1523
  N  N563  1  0.274600  0.774600  0.339300  1.0  -0.1366
  N  N564  1  0.725400  0.225400  0.339300  1.0  -0.153
  N  N565  1  0.725400  0.725400  0.839300  1.0  -0.1551
  N  N566  1  0.274600  0.725400  0.160700  1.0  -0.153
  N  N567  1  0.725400  0.660700  0.225400  1.0  -0.1395
  N  N568  1  0.725400  0.160700  0.725400  1.0  -0.1573
  N  N569  1  0.274600  0.839300  0.725400  1.0  -0.1562
  N  N570  1  0.725400  0.339300  0.774600  1.0  -0.1585
  N  N571  1  0.725400  0.839300  0.274600  1.0  -0.1547
  N  N572  1  0.274600  0.660700  0.774600  1.0  -0.1388
  N  N573  1  0.660700  0.774600  0.274600  1.0  -0.1379
  N  N574  1  0.160700  0.774600  0.774600  1.0  -0.1587
  N  N575  1  0.339300  0.774600  0.725400  1.0  -0.1564
  N  N576  1  0.839300  0.774600  0.225400  1.0  -0.1495
  N  N577  1  0.839300  0.225400  0.774600  1.0  -0.15
  N  N578  1  0.660700  0.225400  0.725400  1.0  -0.138
  N  N579  1  0.774600  0.725400  0.339300  1.0  -0.1562
  N  N580  1  0.774600  0.225400  0.839300  1.0  -0.1484
  N  N581  1  0.774600  0.274600  0.660700  1.0  -0.1368
  N  N582  1  0.774600  0.774600  0.160700  1.0  -0.1579
  N  N583  1  0.225400  0.725400  0.660700  1.0  -0.1372
  N  N584  1  0.225400  0.774600  0.839300  1.0  -0.1458
  N  N585  1  0.314100  0.250000  0.250000  1.0  -0.0915
  N  N586  1  0.814100  0.250000  0.750000  1.0  -0.0915
  N  N587  1  0.685900  0.750000  0.250000  1.0  -0.0907
  N  N588  1  0.185900  0.750000  0.750000  1.0  -0.0908
  N  N589  1  0.185900  0.250000  0.250000  1.0  -0.0908
  N  N590  1  0.685900  0.250000  0.750000  1.0  -0.0908
  N  N591  1  0.314100  0.750000  0.750000  1.0  -0.0915
  N  N592  1  0.814100  0.750000  0.250000  1.0  -0.0915
  N  N593  1  0.250000  0.314100  0.250000  1.0  -0.0917
  N  N594  1  0.250000  0.814100  0.750000  1.0  -0.0917
  N  N595  1  0.250000  0.685900  0.750000  1.0  -0.0933
  N  N596  1  0.250000  0.185900  0.250000  1.0  -0.0933
  N  N597  1  0.750000  0.685900  0.250000  1.0  -0.0933
  N  N598  1  0.750000  0.185900  0.750000  1.0  -0.0933
  N  N599  1  0.750000  0.314100  0.750000  1.0  -0.0917
  N  N600  1  0.750000  0.814100  0.250000  1.0  -0.0917
  N  N601  1  0.250000  0.250000  0.314100  1.0  -0.0919
  N  N602  1  0.250000  0.750000  0.814100  1.0  -0.0919
  N  N603  1  0.750000  0.250000  0.685900  1.0  -0.093
  N  N604  1  0.750000  0.750000  0.185900  1.0  -0.093
  N  N605  1  0.250000  0.250000  0.185900  1.0  -0.093
  N  N606  1  0.250000  0.750000  0.685900  1.0  -0.093
  N  N607  1  0.750000  0.750000  0.314100  1.0  -0.0919
  N  N608  1  0.750000  0.250000  0.814100  1.0  -0.0919
  N  N609  1  0.250000  0.314100  0.750000  1.0  -0.0917
  N  N610  1  0.250000  0.814100  0.250000  1.0  -0.0917
  N  N611  1  0.750000  0.685900  0.750000  1.0  -0.0933
  N  N612  1  0.750000  0.185900  0.250000  1.0  -0.0933
  N  N613  1  0.250000  0.685900  0.250000  1.0  -0.0933
  N  N614  1  0.250000  0.185900  0.750000  1.0  -0.0933
  N  N615  1  0.750000  0.314100  0.250000  1.0  -0.0917
  N  N616  1  0.750000  0.814100  0.750000  1.0  -0.0917
  N  N617  1  0.314100  0.250000  0.750000  1.0  -0.0915
  N  N618  1  0.814100  0.250000  0.250000  1.0  -0.0915
  N  N619  1  0.685900  0.250000  0.250000  1.0  -0.0908
  N  N620  1  0.185900  0.250000  0.750000  1.0  -0.0908
  N  N621  1  0.685900  0.750000  0.750000  1.0  -0.0908
  N  N622  1  0.185900  0.750000  0.250000  1.0  -0.0908
  N  N623  1  0.314100  0.750000  0.250000  1.0  -0.0914
  N  N624  1  0.814100  0.750000  0.750000  1.0  -0.0915
  N  N625  1  0.250000  0.250000  0.685900  1.0  -0.093
  N  N626  1  0.250000  0.750000  0.185900  1.0  -0.093
  N  N627  1  0.250000  0.750000  0.314100  1.0  -0.0919
  N  N628  1  0.250000  0.250000  0.814100  1.0  -0.0919
  N  N629  1  0.750000  0.250000  0.314100  1.0  -0.0919
  N  N630  1  0.750000  0.750000  0.814100  1.0  -0.0919
  N  N631  1  0.750000  0.750000  0.685900  1.0  -0.093
  N  N632  1  0.750000  0.250000  0.185900  1.0  -0.093
  O  O633  1  0.303300  0.356600  0.143400  1.0  -0.7429
  O  O634  1  0.803300  0.356600  0.643400  1.0  -0.7513
  O  O635  1  0.696700  0.643400  0.143400  1.0  -0.7484
  O  O636  1  0.196700  0.643400  0.643400  1.0  -0.7416
  O  O637  1  0.196700  0.143400  0.143400  1.0  -0.7399
  O  O638  1  0.696700  0.356600  0.856600  1.0  -0.7406
  O  O639  1  0.196700  0.356600  0.356600  1.0  -0.7406
  O  O640  1  0.303300  0.643400  0.856600  1.0  -0.7582
  O  O641  1  0.303300  0.143400  0.356600  1.0  -0.7461
  O  O642  1  0.803300  0.643400  0.356600  1.0  -0.7541
  O  O643  1  0.143400  0.303300  0.356600  1.0  -0.742
  O  O644  1  0.143400  0.803300  0.856600  1.0  -0.7488
  O  O645  1  0.143400  0.696700  0.643400  1.0  -0.7506
  O  O646  1  0.143400  0.196700  0.143400  1.0  -0.7425
  O  O647  1  0.856600  0.696700  0.356600  1.0  -0.7456
  O  O648  1  0.856600  0.196700  0.856600  1.0  -0.7471
  O  O649  1  0.356600  0.196700  0.356600  1.0  -0.7456
  O  O650  1  0.856600  0.303300  0.643400  1.0  -0.7557
  O  O651  1  0.856600  0.803300  0.143400  1.0  -0.7512
  O  O652  1  0.356600  0.303300  0.143400  1.0  -0.7437
  O  O653  1  0.356600  0.143400  0.303300  1.0  -0.7443
  O  O654  1  0.356600  0.643400  0.803300  1.0  -0.7526
  O  O655  1  0.643400  0.143400  0.696700  1.0  -0.754
  O  O656  1  0.643400  0.643400  0.196700  1.0  -0.747
  O  O657  1  0.143400  0.143400  0.196700  1.0  -0.7454
  O  O658  1  0.356600  0.856600  0.696700  1.0  -0.7466
  O  O659  1  0.356600  0.356600  0.196700  1.0  -0.7466
  O  O660  1  0.643400  0.856600  0.303300  1.0  -0.7578
  O  O661  1  0.643400  0.356600  0.803300  1.0  -0.7519
  O  O662  1  0.143400  0.356600  0.303300  1.0  -0.7437
  O  O663  1  0.356600  0.303300  0.856600  1.0  -0.7524
  O  O664  1  0.356600  0.803300  0.356600  1.0  -0.7459
  O  O665  1  0.643400  0.696700  0.856600  1.0  -0.7512
  O  O666  1  0.643400  0.196700  0.356600  1.0  -0.7453
  O  O667  1  0.143400  0.696700  0.356600  1.0  -0.7435
  O  O668  1  0.356600  0.696700  0.143400  1.0  -0.7441
  O  O669  1  0.356600  0.196700  0.643400  1.0  -0.7461
  O  O670  1  0.643400  0.303300  0.143400  1.0  -0.7433
  O  O671  1  0.643400  0.803300  0.643400  1.0  -0.7411
  O  O672  1  0.143400  0.803300  0.143400  1.0  -0.7411
  O  O673  1  0.303300  0.143400  0.643400  1.0  -0.7446
  O  O674  1  0.803300  0.143400  0.143400  1.0  -0.7414
  O  O675  1  0.696700  0.143400  0.356600  1.0  -0.7445
  O  O676  1  0.196700  0.143400  0.856600  1.0  -0.7509
  O  O677  1  0.696700  0.856600  0.643400  1.0  -0.7512
  O  O678  1  0.696700  0.356600  0.143400  1.0  -0.7424
  O  O679  1  0.196700  0.856600  0.143400  1.0  -0.75
  O  O680  1  0.303300  0.856600  0.356600  1.0  -0.7492
  O  O681  1  0.803300  0.856600  0.856600  1.0  -0.746
  O  O682  1  0.803300  0.356600  0.356600  1.0  -0.7425
  O  O683  1  0.143400  0.356600  0.696700  1.0  -0.7449
  O  O684  1  0.143400  0.856600  0.196700  1.0  -0.7519
  O  O685  1  0.143400  0.643400  0.303300  1.0  -0.7456
  O  O686  1  0.143400  0.143400  0.803300  1.0  -0.7424
  O  O687  1  0.856600  0.356600  0.303300  1.0  -0.7527
  O  O688  1  0.856600  0.856600  0.803300  1.0  -0.7501
  O  O689  1  0.356600  0.356600  0.803300  1.0  -0.7446
  O  O690  1  0.856600  0.643400  0.696700  1.0  -0.7556
  O  O691  1  0.856600  0.143400  0.196700  1.0  -0.7543
  O  O692  1  0.356600  0.143400  0.696700  1.0  -0.7472
  O  O693  1  0.696700  0.643400  0.856600  1.0  -0.7526
  O  O694  1  0.196700  0.643400  0.356600  1.0  -0.7468
  O  O695  1  0.303300  0.356600  0.856600  1.0  -0.7492
  O  O696  1  0.303300  0.643400  0.143400  1.0  -0.7446
  O  O697  1  0.803300  0.643400  0.643400  1.0  -0.7414
  O  O698  1  0.196700  0.356600  0.643400  1.0  -0.7455
  O  O699  1  0.856600  0.696700  0.643400  1.0  -0.7518
  O  O700  1  0.856600  0.196700  0.143400  1.0  -0.7507
  O  O701  1  0.856600  0.303300  0.356600  1.0  -0.7524
  O  O702  1  0.856600  0.803300  0.856600  1.0  -0.7486
  O  O703  1  0.143400  0.303300  0.643400  1.0  -0.7433
  O  O704  1  0.143400  0.196700  0.856600  1.0  -0.7497
  O  O705  1  0.643400  0.856600  0.696700  1.0  -0.7531
  O  O706  1  0.643400  0.356600  0.196700  1.0  -0.7478
  O  O707  1  0.356600  0.856600  0.303300  1.0  -0.7527
  O  O708  1  0.643400  0.143400  0.303300  1.0  -0.7456
  O  O709  1  0.643400  0.643400  0.803300  1.0  -0.7424
  O  O710  1  0.356600  0.643400  0.196700  1.0  -0.7506
  O  O711  1  0.643400  0.696700  0.143400  1.0  -0.7506
  O  O712  1  0.643400  0.196700  0.643400  1.0  -0.7438
  O  O713  1  0.356600  0.803300  0.643400  1.0  -0.7518
  O  O714  1  0.643400  0.303300  0.856600  1.0  -0.7539
  O  O715  1  0.643400  0.803300  0.356600  1.0  -0.7497
  O  O716  1  0.356600  0.696700  0.856600  1.0  -0.7456
  O  O717  1  0.696700  0.856600  0.356600  1.0  -0.7406
  O  O718  1  0.196700  0.856600  0.856600  1.0  -0.7426
  O  O719  1  0.303300  0.856600  0.643400  1.0  -0.7559
  O  O720  1  0.803300  0.856600  0.143400  1.0  -0.751
  O  O721  1  0.803300  0.143400  0.856600  1.0  -0.7523
  O  O722  1  0.696700  0.143400  0.643400  1.0  -0.7484
  O  O723  1  0.856600  0.643400  0.303300  1.0  -0.7576
  O  O724  1  0.856600  0.143400  0.803300  1.0  -0.7528
  O  O725  1  0.856600  0.356600  0.696700  1.0  -0.7466
  O  O726  1  0.856600  0.856600  0.196700  1.0  -0.7483
  O  O727  1  0.143400  0.643400  0.696700  1.0  -0.754
  O  O728  1  0.143400  0.856600  0.803300  1.0  -0.7533
  O  O729  1  0.500000  0.281980  0.218020  1.0  -0.2125
  O  O730  1  0.000000  0.281980  0.718020  1.0  -0.2125
  O  O731  1  0.500000  0.718020  0.218020  1.0  -0.2136
  O  O732  1  0.000000  0.718020  0.718020  1.0  -0.2136
  O  O733  1  0.500000  0.281980  0.781980  1.0  -0.2127
  O  O734  1  0.000000  0.281980  0.281980  1.0  -0.2127
  O  O735  1  0.500000  0.718020  0.781980  1.0  -0.214
  O  O736  1  0.000000  0.718020  0.281980  1.0  -0.214
  O  O737  1  0.218020  0.500000  0.281980  1.0  -0.2111
  O  O738  1  0.218020  0.000000  0.781980  1.0  -0.2109
  O  O739  1  0.218020  0.500000  0.718020  1.0  -0.2113
  O  O740  1  0.218020  0.000000  0.218020  1.0  -0.2113
  O  O741  1  0.781980  0.500000  0.281980  1.0  -0.2126
  O  O742  1  0.781980  0.000000  0.781980  1.0  -0.2126
  O  O743  1  0.781980  0.500000  0.718020  1.0  -0.2125
  O  O744  1  0.781980  0.000000  0.218020  1.0  -0.2125
  O  O745  1  0.281980  0.218020  0.500000  1.0  -0.2129
  O  O746  1  0.281980  0.718020  0.000000  1.0  -0.2129
  O  O747  1  0.718020  0.218020  0.500000  1.0  -0.2117
  O  O748  1  0.718020  0.718020  0.000000  1.0  -0.2117
  O  O749  1  0.281980  0.781980  0.500000  1.0  -0.212
  O  O750  1  0.281980  0.281980  0.000000  1.0  -0.2117
  O  O751  1  0.718020  0.781980  0.500000  1.0  -0.2103
  O  O752  1  0.718020  0.281980  0.000000  1.0  -0.2103
  O  O753  1  0.281980  0.500000  0.781980  1.0  -0.2126
  O  O754  1  0.281980  0.000000  0.281980  1.0  -0.2126
  O  O755  1  0.718020  0.500000  0.781980  1.0  -0.2109
  O  O756  1  0.718020  0.000000  0.281980  1.0  -0.2109
  O  O757  1  0.281980  0.500000  0.218020  1.0  -0.2124
  O  O758  1  0.281980  0.000000  0.718020  1.0  -0.2125
  O  O759  1  0.718020  0.500000  0.218020  1.0  -0.2113
  O  O760  1  0.718020  0.000000  0.718020  1.0  -0.2113
  O  O761  1  0.500000  0.218020  0.718020  1.0  -0.2136
  O  O762  1  0.000000  0.218020  0.218020  1.0  -0.2134
  O  O763  1  0.500000  0.218020  0.281980  1.0  -0.214
  O  O764  1  0.000000  0.218020  0.781980  1.0  -0.214
  O  O765  1  0.500000  0.781980  0.718020  1.0  -0.2125
  O  O766  1  0.000000  0.781980  0.218020  1.0  -0.2125
  O  O767  1  0.500000  0.781980  0.281980  1.0  -0.2127
  O  O768  1  0.000000  0.781980  0.781980  1.0  -0.2127
  O  O769  1  0.218020  0.281980  0.500000  1.0  -0.2103
  O  O770  1  0.218020  0.781980  0.000000  1.0  -0.2103
  O  O771  1  0.218020  0.718020  0.500000  1.0  -0.2117
  O  O772  1  0.218020  0.218020  0.000000  1.0  -0.2124
  O  O773  1  0.781980  0.281980  0.500000  1.0  -0.212
  O  O774  1  0.781980  0.781980  0.000000  1.0  -0.212
  O  O775  1  0.781980  0.718020  0.500000  1.0  -0.2129
  O  O776  1  0.781980  0.218020  0.000000  1.0  -0.2129
