# generated using pymatgen
data_ZrP6C48(NO3)6
_symmetry_space_group_name_H-M   'P 1'
_cell_length_a   60.67410000
_cell_length_b   60.67410000
_cell_length_c   5.12770000
_cell_angle_alpha   90.00000000
_cell_angle_beta   90.00000000
_cell_angle_gamma   120.00000000
_symmetry_Int_Tables_number   1
_chemical_formula_structural   ZrP6C48(NO3)6
_chemical_formula_sum   'Zr9 P54 C432 N54 O162'
_cell_volume   16347.82297513
_cell_formula_units_Z   9
loop_
 _symmetry_equiv_pos_site_id
 _symmetry_equiv_pos_as_xyz
  1  'x, y, z'
loop_
 _atom_site_type_symbol
 _atom_site_label
 _atom_site_symmetry_multiplicity
 _atom_site_fract_x
 _atom_site_fract_y
 _atom_site_fract_z
 _atom_site_occupancy
 _atom_site_charge
  Zr  Zr1  1  0.000000  0.500000  0.500000  1.0  2.0712
  Zr  Zr2  1  0.666667  0.833330  0.833330  1.0  2.0707
  Zr  Zr3  1  0.333333  0.166670  0.166670  1.0  2.0709
  Zr  Zr4  1  0.500000  0.500000  0.500000  1.0  2.0702
  Zr  Zr5  1  0.166670  0.833330  0.833330  1.0  2.0694
  Zr  Zr6  1  0.833330  0.166670  0.166670  1.0  2.0701
  Zr  Zr7  1  0.500000  0.000000  0.500000  1.0  2.0702
  Zr  Zr8  1  0.166670  0.333333  0.833330  1.0  2.0714
  Zr  Zr9  1  0.833330  0.666667  0.166670  1.0  2.0717
  P  P10  1  0.023450  0.546720  0.028300  1.0  1.296
  P  P11  1  0.242850  0.584270  0.461000  1.0  1.448
  P  P12  1  0.153320  0.768750  0.937000  1.0  1.2996
  P  P13  1  0.690120  0.880050  0.361630  1.0  1.296
  P  P14  1  0.909520  0.917600  0.794330  1.0  1.448
  P  P15  1  0.819990  0.102080  0.270330  1.0  1.2996
  P  P16  1  0.356780  0.213390  0.694970  1.0  1.296
  P  P17  1  0.576180  0.250940  0.127670  1.0  1.448
  P  P18  1  0.486650  0.435420  0.603670  1.0  1.2996
  P  P19  1  0.453280  0.476730  0.028300  1.0  1.307
  P  P20  1  0.415730  0.658580  0.461000  1.0  1.4491
  P  P21  1  0.231250  0.384570  0.937000  1.0  1.2972
  P  P22  1  0.119950  0.810060  0.361630  1.0  1.307
  P  P23  1  0.082400  0.991910  0.794330  1.0  1.4491
  P  P24  1  0.897920  0.717900  0.270330  1.0  1.2972
  P  P25  1  0.786610  0.143400  0.694970  1.0  1.307
  P  P26  1  0.749060  0.325250  0.127670  1.0  1.4491
  P  P27  1  0.564580  0.051240  0.603670  1.0  1.2972
  P  P28  1  0.523270  0.976550  0.028300  1.0  1.3017
  P  P29  1  0.341420  0.757150  0.461000  1.0  1.4507
  P  P30  1  0.615430  0.846680  0.937000  1.0  1.2993
  P  P31  1  0.189940  0.309880  0.361630  1.0  1.3017
  P  P32  1  0.008090  0.090480  0.794330  1.0  1.4507
  P  P33  1  0.282100  0.180010  0.270330  1.0  1.2993
  P  P34  1  0.856600  0.643220  0.694970  1.0  1.3017
  P  P35  1  0.674750  0.423820  0.127670  1.0  1.4507
  P  P36  1  0.948760  0.513350  0.603670  1.0  1.3003
  P  P37  1  0.976550  0.453280  0.971700  1.0  1.3063
  P  P38  1  0.757150  0.415730  0.539000  1.0  1.4424
  P  P39  1  0.846680  0.231250  0.063000  1.0  1.2976
  P  P40  1  0.643220  0.786610  0.305030  1.0  1.3063
  P  P41  1  0.423820  0.749060  0.872330  1.0  1.4424
  P  P42  1  0.513350  0.564580  0.396330  1.0  1.2976
  P  P43  1  0.309880  0.119950  0.638370  1.0  1.3063
  P  P44  1  0.090480  0.082400  0.205670  1.0  1.4424
  P  P45  1  0.180010  0.897920  0.729670  1.0  1.2967
  P  P46  1  0.546720  0.523270  0.971700  1.0  1.3014
  P  P47  1  0.584270  0.341420  0.539000  1.0  1.4502
  P  P48  1  0.768750  0.615430  0.063000  1.0  1.294
  P  P49  1  0.213390  0.856600  0.305030  1.0  1.3014
  P  P50  1  0.250940  0.674750  0.872330  1.0  1.4502
  P  P51  1  0.435420  0.948760  0.396330  1.0  1.2927
  P  P52  1  0.880050  0.189940  0.638370  1.0  1.3014
  P  P53  1  0.917600  0.008090  0.205670  1.0  1.4502
  P  P54  1  0.102080  0.282100  0.729670  1.0  1.2929
  P  P55  1  0.476730  0.023450  0.971700  1.0  1.3093
  P  P56  1  0.658580  0.242850  0.539000  1.0  1.4505
  P  P57  1  0.384570  0.153320  0.063000  1.0  1.2962
  P  P58  1  0.143400  0.356780  0.305030  1.0  1.3093
  P  P59  1  0.325250  0.576180  0.872330  1.0  1.4505
  P  P60  1  0.051240  0.486650  0.396330  1.0  1.2962
  P  P61  1  0.810060  0.690120  0.638370  1.0  1.3093
  P  P62  1  0.991910  0.909520  0.205670  1.0  1.4505
  P  P63  1  0.717900  0.819990  0.729670  1.0  1.2961
  C  C64  1  0.106100  0.586600  0.542000  1.0  0.1238
  C  C65  1  0.090300  0.574800  0.751000  1.0  0.0354
  C  C66  1  0.076100  0.584700  0.861000  1.0  0.0203
  C  C67  1  0.083400  0.609500  0.807000  1.0  -0.0032
  C  C68  1  0.102600  0.622800  0.615000  1.0  0.0673
  C  C69  1  0.114800  0.611200  0.492000  1.0  0.0448
  C  C70  1  0.133900  0.625700  0.261000  1.0  0.3608
  C  C71  1  0.058700  0.571500  0.100000  1.0  -0.0811
  C  C72  1  0.155400  0.662600  0.054000  1.0  0.5506
  C  C73  1  0.163800  0.630600  0.928000  1.0  0.4032
  C  C74  1  0.161300  0.688000  0.072000  1.0  0.1249
  C  C75  1  0.147900  0.692500  0.255000  1.0  0.0693
  C  C76  1  0.151900  0.716700  0.307000  1.0  0.0554
  C  C77  1  0.166800  0.735900  0.148000  1.0  0.0434
  C  C78  1  0.177700  0.731100  0.932000  1.0  0.0477
  C  C79  1  0.176700  0.706700  0.905000  1.0  0.0178
  C  C80  1  0.180300  0.619800  0.775000  1.0  -0.0088
  C  C81  1  0.187200  0.624200  0.508000  1.0  0.041
  C  C82  1  0.179800  0.598700  0.874000  1.0  0.029
  C  C83  1  0.197100  0.590500  0.772000  1.0  0.0372
  C  C84  1  0.205300  0.595000  0.518000  1.0  -0.0005
  C  C85  1  0.204100  0.614800  0.390000  1.0  -0.0285
  C  C86  1  0.212700  0.578200  0.386000  1.0  -0.0818
  C  C87  1  0.168200  0.761500  0.193000  1.0  -0.054
  C  C88  1  0.772770  0.919930  0.875330  1.0  0.1239
  C  C89  1  0.756970  0.908130  0.084330  1.0  0.0354
  C  C90  1  0.742770  0.918030  0.194330  1.0  0.0203
  C  C91  1  0.750070  0.942830  0.140330  1.0  -0.0032
  C  C92  1  0.769270  0.956130  0.948330  1.0  0.0673
  C  C93  1  0.781470  0.944530  0.825330  1.0  0.0448
  C  C94  1  0.800570  0.959030  0.594330  1.0  0.3606
  C  C95  1  0.725370  0.904830  0.433330  1.0  -0.0812
  C  C96  1  0.822070  0.995930  0.387330  1.0  0.5506
  C  C97  1  0.830470  0.963930  0.261330  1.0  0.403
  C  C98  1  0.827970  0.021330  0.405330  1.0  0.1248
  C  C99  1  0.814570  0.025830  0.588330  1.0  0.0695
  C  C100  1  0.818570  0.050030  0.640330  1.0  0.0554
  C  C101  1  0.833470  0.069230  0.481330  1.0  0.0433
  C  C102  1  0.844370  0.064430  0.265330  1.0  0.0473
  C  C103  1  0.843370  0.040030  0.238330  1.0  0.0178
  C  C104  1  0.846970  0.953130  0.108330  1.0  -0.0087
  C  C105  1  0.853870  0.957530  0.841330  1.0  0.041
  C  C106  1  0.846470  0.932030  0.207330  1.0  0.0293
  C  C107  1  0.863770  0.923830  0.105330  1.0  0.0375
  C  C108  1  0.871970  0.928330  0.851330  1.0  -0.0005
  C  C109  1  0.870770  0.948130  0.723330  1.0  -0.0285
  C  C110  1  0.879370  0.911530  0.719330  1.0  -0.0818
  C  C111  1  0.834870  0.094830  0.526330  1.0  -0.054
  C  C112  1  0.439430  0.253270  0.208670  1.0  0.1238
  C  C113  1  0.423630  0.241470  0.417670  1.0  0.0354
  C  C114  1  0.409430  0.251370  0.527670  1.0  0.0203
  C  C115  1  0.416730  0.276170  0.473670  1.0  -0.0032
  C  C116  1  0.435930  0.289470  0.281670  1.0  0.0673
  C  C117  1  0.448130  0.277870  0.158670  1.0  0.0448
  C  C118  1  0.467230  0.292370  0.927670  1.0  0.3606
  C  C119  1  0.392030  0.238170  0.766670  1.0  -0.0811
  C  C120  1  0.488730  0.329270  0.720670  1.0  0.5506
  C  C121  1  0.497130  0.297270  0.594670  1.0  0.4032
  C  C122  1  0.494630  0.354670  0.738670  1.0  0.1249
  C  C123  1  0.481230  0.359170  0.921670  1.0  0.0706
  C  C124  1  0.485230  0.383370  0.973670  1.0  0.0554
  C  C125  1  0.500130  0.402570  0.814670  1.0  0.0433
  C  C126  1  0.511030  0.397770  0.598670  1.0  0.0477
  C  C127  1  0.510030  0.373370  0.571670  1.0  0.0178
  C  C128  1  0.513630  0.286470  0.441670  1.0  -0.0088
  C  C129  1  0.520530  0.290870  0.174670  1.0  0.041
  C  C130  1  0.513130  0.265370  0.540670  1.0  0.029
  C  C131  1  0.530430  0.257170  0.438670  1.0  0.0372
  C  C132  1  0.538630  0.261670  0.184670  1.0  -0.0005
  C  C133  1  0.537430  0.281470  0.056670  1.0  -0.0285
  C  C134  1  0.546030  0.244870  0.052670  1.0  -0.0818
  C  C135  1  0.501530  0.428170  0.859670  1.0  -0.054
  C  C136  1  0.413400  0.519500  0.542000  1.0  0.1228
  C  C137  1  0.425200  0.515500  0.751000  1.0  0.0307
  C  C138  1  0.415300  0.491400  0.861000  1.0  0.0193
  C  C139  1  0.390500  0.473900  0.807000  1.0  -0.0011
  C  C140  1  0.377200  0.479800  0.615000  1.0  0.0739
  C  C141  1  0.388800  0.503600  0.492000  1.0  0.0427
  C  C142  1  0.374300  0.508200  0.261000  1.0  0.3615
  C  C143  1  0.428500  0.487200  0.100000  1.0  -0.0807
  C  C144  1  0.337400  0.492800  0.054000  1.0  0.5524
  C  C145  1  0.369400  0.533200  0.928000  1.0  0.4044
  C  C146  1  0.312000  0.473300  0.072000  1.0  0.1241
  C  C147  1  0.307500  0.455400  0.255000  1.0  0.0678
  C  C148  1  0.283300  0.435200  0.307000  1.0  0.056
  C  C149  1  0.264100  0.430900  0.148000  1.0  0.0439
  C  C150  1  0.268900  0.446600  0.932000  1.0  0.0494
  C  C151  1  0.293300  0.470000  0.905000  1.0  0.0201
  C  C152  1  0.380200  0.560500  0.775000  1.0  -0.0095
  C  C153  1  0.375800  0.563000  0.508000  1.0  0.0404
  C  C154  1  0.401300  0.581100  0.874000  1.0  0.0244
  C  C155  1  0.409500  0.606600  0.772000  1.0  0.0372
  C  C156  1  0.405000  0.610300  0.518000  1.0  0.0004
  C  C157  1  0.385200  0.589300  0.390000  1.0  -0.0287
  C  C158  1  0.421800  0.634500  0.386000  1.0  -0.0788
  C  C159  1  0.238500  0.406700  0.193000  1.0  -0.0546
  C  C160  1  0.080070  0.852830  0.875330  1.0  0.1229
  C  C161  1  0.091870  0.848830  0.084330  1.0  0.0307
  C  C162  1  0.081970  0.824730  0.194330  1.0  0.0193
  C  C163  1  0.057170  0.807230  0.140330  1.0  -0.0011
  C  C164  1  0.043870  0.813130  0.948330  1.0  0.0739
  C  C165  1  0.055470  0.836930  0.825330  1.0  0.0428
  C  C166  1  0.040970  0.841530  0.594330  1.0  0.3615
  C  C167  1  0.095170  0.820530  0.433330  1.0  -0.0826
  C  C168  1  0.004070  0.826130  0.387330  1.0  0.5524
  C  C169  1  0.036070  0.866530  0.261330  1.0  0.4044
  C  C170  1  0.978670  0.806630  0.405330  1.0  0.1244
  C  C171  1  0.974170  0.788730  0.588330  1.0  0.0678
  C  C172  1  0.949970  0.768530  0.640330  1.0  0.056
  C  C173  1  0.930770  0.764230  0.481330  1.0  0.0436
  C  C174  1  0.935570  0.779930  0.265330  1.0  0.0492
  C  C175  1  0.959970  0.803330  0.238330  1.0  0.0201
  C  C176  1  0.046870  0.893830  0.108330  1.0  -0.0096
  C  C177  1  0.042470  0.896330  0.841330  1.0  0.0405
  C  C178  1  0.067970  0.914430  0.207330  1.0  0.0262
  C  C179  1  0.076170  0.939930  0.105330  1.0  0.037
  C  C180  1  0.071670  0.943630  0.851330  1.0  0.0005
  C  C181  1  0.051870  0.922630  0.723330  1.0  -0.0288
  C  C182  1  0.088470  0.967830  0.719330  1.0  -0.079
  C  C183  1  0.905170  0.740030  0.526330  1.0  -0.0545
  C  C184  1  0.746730  0.186170  0.208670  1.0  0.1228
  C  C185  1  0.758530  0.182170  0.417670  1.0  0.0307
  C  C186  1  0.748630  0.158070  0.527670  1.0  0.0193
  C  C187  1  0.723830  0.140570  0.473670  1.0  -0.0011
  C  C188  1  0.710530  0.146470  0.281670  1.0  0.074
  C  C189  1  0.722130  0.170270  0.158670  1.0  0.0427
  C  C190  1  0.707630  0.174870  0.927670  1.0  0.3615
  C  C191  1  0.761830  0.153870  0.766670  1.0  -0.0827
  C  C192  1  0.670730  0.159470  0.720670  1.0  0.5524
  C  C193  1  0.702730  0.199870  0.594670  1.0  0.4044
  C  C194  1  0.645330  0.139970  0.738670  1.0  0.1244
  C  C195  1  0.640830  0.122070  0.921670  1.0  0.0678
  C  C196  1  0.616630  0.101870  0.973670  1.0  0.056
  C  C197  1  0.597430  0.097570  0.814670  1.0  0.0436
  C  C198  1  0.602230  0.113270  0.598670  1.0  0.0494
  C  C199  1  0.626630  0.136670  0.571670  1.0  0.0201
  C  C200  1  0.713530  0.227170  0.441670  1.0  -0.0095
  C  C201  1  0.709130  0.229670  0.174670  1.0  0.0404
  C  C202  1  0.734630  0.247770  0.540670  1.0  0.0244
  C  C203  1  0.742830  0.273270  0.438670  1.0  0.0372
  C  C204  1  0.738330  0.276970  0.184670  1.0  0.0004
  C  C205  1  0.718530  0.255970  0.056670  1.0  -0.0287
  C  C206  1  0.755130  0.301170  0.052670  1.0  -0.0788
  C  C207  1  0.571830  0.073370  0.859670  1.0  -0.0546
  C  C208  1  0.480500  0.893900  0.542000  1.0  0.1205
  C  C209  1  0.484500  0.909700  0.751000  1.0  0.0309
  C  C210  1  0.508600  0.923900  0.861000  1.0  0.0199
  C  C211  1  0.526100  0.916600  0.807000  1.0  -1e-04
  C  C212  1  0.520200  0.897400  0.615000  1.0  0.0708
  C  C213  1  0.496400  0.885200  0.492000  1.0  0.0434
  C  C214  1  0.491800  0.866100  0.261000  1.0  0.3614
  C  C215  1  0.512800  0.941300  0.100000  1.0  -0.0812
  C  C216  1  0.507200  0.844600  0.054000  1.0  0.553
  C  C217  1  0.466800  0.836200  0.928000  1.0  0.4022
  C  C218  1  0.526700  0.838700  0.072000  1.0  0.1251
  C  C219  1  0.544600  0.852100  0.255000  1.0  0.0672
  C  C220  1  0.564800  0.848100  0.307000  1.0  0.0547
  C  C221  1  0.569100  0.833200  0.148000  1.0  0.0409
  C  C222  1  0.553400  0.822300  0.932000  1.0  0.0491
  C  C223  1  0.530000  0.823300  0.905000  1.0  0.0175
  C  C224  1  0.439500  0.819700  0.775000  1.0  -0.0098
  C  C225  1  0.437000  0.812800  0.508000  1.0  0.0415
  C  C226  1  0.418900  0.820200  0.874000  1.0  0.0268
  C  C227  1  0.393400  0.802900  0.772000  1.0  0.0389
  C  C228  1  0.389700  0.794700  0.518000  1.0  -0.0004
  C  C229  1  0.410700  0.795900  0.390000  1.0  -0.0291
  C  C230  1  0.365500  0.787300  0.386000  1.0  -0.0808
  C  C231  1  0.593300  0.831800  0.193000  1.0  -0.0486
  C  C232  1  0.147170  0.227230  0.875330  1.0  0.1203
  C  C233  1  0.151170  0.243030  0.084330  1.0  0.0309
  C  C234  1  0.175270  0.257230  0.194330  1.0  0.0199
  C  C235  1  0.192770  0.249930  0.140330  1.0  -1e-04
  C  C236  1  0.186870  0.230730  0.948330  1.0  0.0708
  C  C237  1  0.163070  0.218530  0.825330  1.0  0.0434
  C  C238  1  0.158470  0.199430  0.594330  1.0  0.3612
  C  C239  1  0.179470  0.274630  0.433330  1.0  -0.0815
  C  C240  1  0.173870  0.177930  0.387330  1.0  0.553
  C  C241  1  0.133470  0.169530  0.261330  1.0  0.4021
  C  C242  1  0.193370  0.172030  0.405330  1.0  0.1251
  C  C243  1  0.211270  0.185430  0.588330  1.0  0.0674
  C  C244  1  0.231470  0.181430  0.640330  1.0  0.0547
  C  C245  1  0.235770  0.166530  0.481330  1.0  0.0408
  C  C246  1  0.220070  0.155630  0.265330  1.0  0.0495
  C  C247  1  0.196670  0.156630  0.238330  1.0  0.0175
  C  C248  1  0.106170  0.153030  0.108330  1.0  -0.0097
  C  C249  1  0.103670  0.146130  0.841330  1.0  0.0413
  C  C250  1  0.085570  0.153530  0.207330  1.0  0.0267
  C  C251  1  0.060070  0.136230  0.105330  1.0  0.0387
  C  C252  1  0.056370  0.128030  0.851330  1.0  -0.0005
  C  C253  1  0.077370  0.129230  0.723330  1.0  -0.0293
  C  C254  1  0.032170  0.120630  0.719330  1.0  -0.0807
  C  C255  1  0.259970  0.165130  0.526330  1.0  -0.0486
  C  C256  1  0.813830  0.560570  0.208670  1.0  0.121
  C  C257  1  0.817830  0.576370  0.417670  1.0  0.0309
  C  C258  1  0.841930  0.590570  0.527670  1.0  0.0199
  C  C259  1  0.859430  0.583270  0.473670  1.0  -1e-04
  C  C260  1  0.853530  0.564070  0.281670  1.0  0.0696
  C  C261  1  0.829730  0.551870  0.158670  1.0  0.0434
  C  C262  1  0.825130  0.532770  0.927670  1.0  0.3612
  C  C263  1  0.846130  0.607970  0.766670  1.0  -0.0813
  C  C264  1  0.840530  0.511270  0.720670  1.0  0.553
  C  C265  1  0.800130  0.502870  0.594670  1.0  0.4022
  C  C266  1  0.860030  0.505370  0.738670  1.0  0.1251
  C  C267  1  0.877930  0.518770  0.921670  1.0  0.0674
  C  C268  1  0.898130  0.514770  0.973670  1.0  0.0547
  C  C269  1  0.902430  0.499870  0.814670  1.0  0.0409
  C  C270  1  0.886730  0.488970  0.598670  1.0  0.0491
  C  C271  1  0.863330  0.489970  0.571670  1.0  0.0175
  C  C272  1  0.772830  0.486370  0.441670  1.0  -0.0098
  C  C273  1  0.770330  0.479470  0.174670  1.0  0.0415
  C  C274  1  0.752230  0.486870  0.540670  1.0  0.0268
  C  C275  1  0.726730  0.469570  0.438670  1.0  0.0389
  C  C276  1  0.723030  0.461370  0.184670  1.0  -0.0004
  C  C277  1  0.744030  0.462570  0.056670  1.0  -0.0291
  C  C278  1  0.698830  0.453970  0.052670  1.0  -0.0808
  C  C279  1  0.926630  0.498470  0.859670  1.0  -0.0486
  C  C280  1  0.893900  0.413400  0.458000  1.0  0.126
  C  C281  1  0.909700  0.425200  0.249000  1.0  0.0332
  C  C282  1  0.923900  0.415300  0.139000  1.0  0.0202
  C  C283  1  0.916600  0.390500  0.193000  1.0  -0.0018
  C  C284  1  0.897400  0.377200  0.385000  1.0  0.0721
  C  C285  1  0.885200  0.388800  0.508000  1.0  0.0433
  C  C286  1  0.866100  0.374300  0.739000  1.0  0.3597
  C  C287  1  0.941300  0.428500  0.900000  1.0  -0.0813
  C  C288  1  0.844600  0.337400  0.946000  1.0  0.5511
  C  C289  1  0.836200  0.369400  0.072000  1.0  0.4024
  C  C290  1  0.838700  0.312000  0.928000  1.0  0.1242
  C  C291  1  0.852100  0.307500  0.745000  1.0  0.0687
  C  C292  1  0.848100  0.283300  0.693000  1.0  0.0584
  C  C293  1  0.833200  0.264100  0.852000  1.0  0.0395
  C  C294  1  0.822300  0.268900  0.068000  1.0  0.0458
  C  C295  1  0.823300  0.293300  0.095000  1.0  0.0186
  C  C296  1  0.819700  0.380200  0.225000  1.0  -0.0096
  C  C297  1  0.812800  0.375800  0.492000  1.0  0.039
  C  C298  1  0.820200  0.401300  0.126000  1.0  0.0291
  C  C299  1  0.802900  0.409500  0.228000  1.0  0.0347
  C  C300  1  0.794700  0.405000  0.482000  1.0  -0.0007
  C  C301  1  0.795900  0.385200  0.610000  1.0  -0.0325
  C  C302  1  0.787300  0.421800  0.614000  1.0  -0.0847
  C  C303  1  0.831800  0.238500  0.807000  1.0  -0.0502
  C  C304  1  0.560570  0.746730  0.791330  1.0  0.126
  C  C305  1  0.576370  0.758530  0.582330  1.0  0.0332
  C  C306  1  0.590570  0.748630  0.472330  1.0  0.0202
  C  C307  1  0.583270  0.723830  0.526330  1.0  -0.0018
  C  C308  1  0.564070  0.710530  0.718330  1.0  0.0721
  C  C309  1  0.551870  0.722130  0.841330  1.0  0.0433
  C  C310  1  0.532770  0.707630  0.072330  1.0  0.3597
  C  C311  1  0.607970  0.761830  0.233330  1.0  -0.0812
  C  C312  1  0.511270  0.670730  0.279330  1.0  0.5511
  C  C313  1  0.502870  0.702730  0.405330  1.0  0.4024
  C  C314  1  0.505370  0.645330  0.261330  1.0  0.1242
  C  C315  1  0.518770  0.640830  0.078330  1.0  0.0687
  C  C316  1  0.514770  0.616630  0.026330  1.0  0.0584
  C  C317  1  0.499870  0.597430  0.185330  1.0  0.0395
  C  C318  1  0.488970  0.602230  0.401330  1.0  0.048
  C  C319  1  0.489970  0.626630  0.428330  1.0  0.0186
  C  C320  1  0.486370  0.713530  0.558330  1.0  -0.0096
  C  C321  1  0.479470  0.709130  0.825330  1.0  0.039
  C  C322  1  0.486870  0.734630  0.459330  1.0  0.0294
  C  C323  1  0.469570  0.742830  0.561330  1.0  0.0347
  C  C324  1  0.461370  0.738330  0.815330  1.0  -0.0007
  C  C325  1  0.462570  0.718530  0.943330  1.0  -0.0325
  C  C326  1  0.453970  0.755130  0.947330  1.0  -0.0847
  C  C327  1  0.498470  0.571830  0.140330  1.0  -0.0502
  C  C328  1  0.227230  0.080070  0.124670  1.0  0.126
  C  C329  1  0.243030  0.091870  0.915670  1.0  0.0333
  C  C330  1  0.257230  0.081970  0.805670  1.0  0.0202
  C  C331  1  0.249930  0.057170  0.859670  1.0  -0.0018
  C  C332  1  0.230730  0.043870  0.051670  1.0  0.0721
  C  C333  1  0.218530  0.055470  0.174670  1.0  0.0433
  C  C334  1  0.199430  0.040970  0.405670  1.0  0.3597
  C  C335  1  0.274630  0.095170  0.566670  1.0  -0.0814
  C  C336  1  0.177930  0.004070  0.612670  1.0  0.5511
  C  C337  1  0.169530  0.036070  0.738670  1.0  0.4025
  C  C338  1  0.172030  0.978670  0.594670  1.0  0.1241
  C  C339  1  0.185430  0.974170  0.411670  1.0  0.0687
  C  C340  1  0.181430  0.949970  0.359670  1.0  0.0584
  C  C341  1  0.166530  0.930770  0.518670  1.0  0.0395
  C  C342  1  0.155630  0.935570  0.734670  1.0  0.0476
  C  C343  1  0.156630  0.959970  0.761670  1.0  0.0185
  C  C344  1  0.153030  0.046870  0.891670  1.0  -0.0095
  C  C345  1  0.146130  0.042470  0.158670  1.0  0.039
  C  C346  1  0.153530  0.067970  0.792670  1.0  0.0294
  C  C347  1  0.136230  0.076170  0.894670  1.0  0.0349
  C  C348  1  0.128030  0.071670  0.148670  1.0  -0.0007
  C  C349  1  0.129230  0.051870  0.276670  1.0  -0.0325
  C  C350  1  0.120630  0.088470  0.280670  1.0  -0.0847
  C  C351  1  0.165130  0.905170  0.473670  1.0  -0.0502
  C  C352  1  0.586600  0.480500  0.458000  1.0  0.1202
  C  C353  1  0.574800  0.484500  0.249000  1.0  0.0342
  C  C354  1  0.584700  0.508600  0.139000  1.0  0.0199
  C  C355  1  0.609500  0.526100  0.193000  1.0  -0.0004
  C  C356  1  0.622800  0.520200  0.385000  1.0  0.069
  C  C357  1  0.611200  0.496400  0.508000  1.0  0.0434
  C  C358  1  0.625700  0.491800  0.739000  1.0  0.361
  C  C359  1  0.571500  0.512800  0.900000  1.0  -0.078
  C  C360  1  0.662600  0.507200  0.946000  1.0  0.551
  C  C361  1  0.630600  0.466800  0.072000  1.0  0.4057
  C  C362  1  0.688000  0.526700  0.928000  1.0  0.1233
  C  C363  1  0.692500  0.544600  0.745000  1.0  0.0697
  C  C364  1  0.716700  0.564800  0.693000  1.0  0.0566
  C  C365  1  0.735900  0.569100  0.852000  1.0  0.0449
  C  C366  1  0.731100  0.553400  0.068000  1.0  0.0472
  C  C367  1  0.706700  0.530000  0.095000  1.0  0.0163
  C  C368  1  0.619800  0.439500  0.225000  1.0  -0.0085
  C  C369  1  0.624200  0.437000  0.492000  1.0  0.0386
  C  C370  1  0.598700  0.418900  0.126000  1.0  0.0274
  C  C371  1  0.590500  0.393400  0.228000  1.0  0.0374
  C  C372  1  0.595000  0.389700  0.482000  1.0  -0.0
  C  C373  1  0.614800  0.410700  0.610000  1.0  -0.0322
  C  C374  1  0.578200  0.365500  0.614000  1.0  -0.0845
  C  C375  1  0.761500  0.593300  0.807000  1.0  -0.0466
  C  C376  1  0.253270  0.813830  0.791330  1.0  0.1202
  C  C377  1  0.241470  0.817830  0.582330  1.0  0.0342
  C  C378  1  0.251370  0.841930  0.472330  1.0  0.0199
  C  C379  1  0.276170  0.859430  0.526330  1.0  -0.0004
  C  C380  1  0.289470  0.853530  0.718330  1.0  0.069
  C  C381  1  0.277870  0.829730  0.841330  1.0  0.0434
  C  C382  1  0.292370  0.825130  0.072330  1.0  0.3609
  C  C383  1  0.238170  0.846130  0.233330  1.0  -0.078
  C  C384  1  0.329270  0.840530  0.279330  1.0  0.551
  C  C385  1  0.297270  0.800130  0.405330  1.0  0.4057
  C  C386  1  0.354670  0.860030  0.261330  1.0  0.1233
  C  C387  1  0.359170  0.877930  0.078330  1.0  0.0697
  C  C388  1  0.383370  0.898130  0.026330  1.0  0.0566
  C  C389  1  0.402570  0.902430  0.185330  1.0  0.0449
  C  C390  1  0.397770  0.886730  0.401330  1.0  0.0472
  C  C391  1  0.373370  0.863330  0.428330  1.0  0.0163
  C  C392  1  0.286470  0.772830  0.558330  1.0  -0.0085
  C  C393  1  0.290870  0.770330  0.825330  1.0  0.0386
  C  C394  1  0.265370  0.752230  0.459330  1.0  0.0274
  C  C395  1  0.257170  0.726730  0.561330  1.0  0.0374
  C  C396  1  0.261670  0.723030  0.815330  1.0  -0.0
  C  C397  1  0.281470  0.744030  0.943330  1.0  -0.0322
  C  C398  1  0.244870  0.698830  0.947330  1.0  -0.0845
  C  C399  1  0.428170  0.926630  0.140330  1.0  -0.0466
  C  C400  1  0.919930  0.147170  0.124670  1.0  0.1202
  C  C401  1  0.908130  0.151170  0.915670  1.0  0.0342
  C  C402  1  0.918030  0.175270  0.805670  1.0  0.0199
  C  C403  1  0.942830  0.192770  0.859670  1.0  -0.0004
  C  C404  1  0.956130  0.186870  0.051670  1.0  0.069
  C  C405  1  0.944530  0.163070  0.174670  1.0  0.0434
  C  C406  1  0.959030  0.158470  0.405670  1.0  0.3609
  C  C407  1  0.904830  0.179470  0.566670  1.0  -0.078
  C  C408  1  0.995930  0.173870  0.612670  1.0  0.551
  C  C409  1  0.963930  0.133470  0.738670  1.0  0.4057
  C  C410  1  0.021330  0.193370  0.594670  1.0  0.1234
  C  C411  1  0.025830  0.211270  0.411670  1.0  0.0697
  C  C412  1  0.050030  0.231470  0.359670  1.0  0.0566
  C  C413  1  0.069230  0.235770  0.518670  1.0  0.0449
  C  C414  1  0.064430  0.220070  0.734670  1.0  0.0471
  C  C415  1  0.040030  0.196670  0.761670  1.0  0.0163
  C  C416  1  0.953130  0.106170  0.891670  1.0  -0.0087
  C  C417  1  0.957530  0.103670  0.158670  1.0  0.0387
  C  C418  1  0.932030  0.085570  0.792670  1.0  0.0274
  C  C419  1  0.923830  0.060070  0.894670  1.0  0.0373
  C  C420  1  0.928330  0.056370  0.148670  1.0  -0.0
  C  C421  1  0.948130  0.077370  0.276670  1.0  -0.0322
  C  C422  1  0.911530  0.032170  0.280670  1.0  -0.0845
  C  C423  1  0.094830  0.259970  0.473670  1.0  -0.0465
  C  C424  1  0.519500  0.106100  0.458000  1.0  0.1223
  C  C425  1  0.515500  0.090300  0.249000  1.0  0.0315
  C  C426  1  0.491400  0.076100  0.139000  1.0  0.0186
  C  C427  1  0.473900  0.083400  0.193000  1.0  -0.0027
  C  C428  1  0.479800  0.102600  0.385000  1.0  0.0685
  C  C429  1  0.503600  0.114800  0.508000  1.0  0.0441
  C  C430  1  0.508200  0.133900  0.739000  1.0  0.3607
  C  C431  1  0.487200  0.058700  0.900000  1.0  -0.0781
  C  C432  1  0.492800  0.155400  0.946000  1.0  0.5524
  C  C433  1  0.533200  0.163800  0.072000  1.0  0.4022
  C  C434  1  0.473300  0.161300  0.928000  1.0  0.1243
  C  C435  1  0.455400  0.147900  0.745000  1.0  0.0685
  C  C436  1  0.435200  0.151900  0.693000  1.0  0.0558
  C  C437  1  0.430900  0.166800  0.852000  1.0  0.0468
  C  C438  1  0.446600  0.177700  0.068000  1.0  0.0485
  C  C439  1  0.470000  0.176700  0.095000  1.0  0.0159
  C  C440  1  0.560500  0.180300  0.225000  1.0  -0.009
  C  C441  1  0.563000  0.187200  0.492000  1.0  0.0409
  C  C442  1  0.581100  0.179800  0.126000  1.0  0.0292
  C  C443  1  0.606600  0.197100  0.228000  1.0  0.0399
  C  C444  1  0.610300  0.205300  0.482000  1.0  -0.0047
  C  C445  1  0.589300  0.204100  0.610000  1.0  -0.0323
  C  C446  1  0.634500  0.212700  0.614000  1.0  -0.0834
  C  C447  1  0.406700  0.168200  0.807000  1.0  -0.05
  C  C448  1  0.186170  0.439430  0.791330  1.0  0.1223
  C  C449  1  0.182170  0.423630  0.582330  1.0  0.0315
  C  C450  1  0.158070  0.409430  0.472330  1.0  0.0186
  C  C451  1  0.140570  0.416730  0.526330  1.0  -0.0027
  C  C452  1  0.146470  0.435930  0.718330  1.0  0.0685
  C  C453  1  0.170270  0.448130  0.841330  1.0  0.0441
  C  C454  1  0.174870  0.467230  0.072330  1.0  0.3608
  C  C455  1  0.153870  0.392030  0.233330  1.0  -0.0782
  C  C456  1  0.159470  0.488730  0.279330  1.0  0.5524
  C  C457  1  0.199870  0.497130  0.405330  1.0  0.4022
  C  C458  1  0.139970  0.494630  0.261330  1.0  0.1243
  C  C459  1  0.122070  0.481230  0.078330  1.0  0.0685
  C  C460  1  0.101870  0.485230  0.026330  1.0  0.0558
  C  C461  1  0.097570  0.500130  0.185330  1.0  0.0468
  C  C462  1  0.113270  0.511030  0.401330  1.0  0.048
  C  C463  1  0.136670  0.510030  0.428330  1.0  0.0159
  C  C464  1  0.227170  0.513630  0.558330  1.0  -0.009
  C  C465  1  0.229670  0.520530  0.825330  1.0  0.0409
  C  C466  1  0.247770  0.513130  0.459330  1.0  0.0292
  C  C467  1  0.273270  0.530430  0.561330  1.0  0.0399
  C  C468  1  0.276970  0.538630  0.815330  1.0  -0.0047
  C  C469  1  0.255970  0.537430  0.943330  1.0  -0.0323
  C  C470  1  0.301170  0.546030  0.947330  1.0  -0.0834
  C  C471  1  0.073370  0.501530  0.140330  1.0  -0.05
  C  C472  1  0.852830  0.772770  0.124670  1.0  0.1223
  C  C473  1  0.848830  0.756970  0.915670  1.0  0.0315
  C  C474  1  0.824730  0.742770  0.805670  1.0  0.0186
  C  C475  1  0.807230  0.750070  0.859670  1.0  -0.0027
  C  C476  1  0.813130  0.769270  0.051670  1.0  0.0685
  C  C477  1  0.836930  0.781470  0.174670  1.0  0.0439
  C  C478  1  0.841530  0.800570  0.405670  1.0  0.3608
  C  C479  1  0.820530  0.725370  0.566670  1.0  -0.0782
  C  C480  1  0.826130  0.822070  0.612670  1.0  0.5524
  C  C481  1  0.866530  0.830470  0.738670  1.0  0.4022
  C  C482  1  0.806630  0.827970  0.594670  1.0  0.1243
  C  C483  1  0.788730  0.814570  0.411670  1.0  0.0685
  C  C484  1  0.768530  0.818570  0.359670  1.0  0.0558
  C  C485  1  0.764230  0.833470  0.518670  1.0  0.0468
  C  C486  1  0.779930  0.844370  0.734670  1.0  0.0484
  C  C487  1  0.803330  0.843370  0.761670  1.0  0.0159
  C  C488  1  0.893830  0.846970  0.891670  1.0  -0.0089
  C  C489  1  0.896330  0.853870  0.158670  1.0  0.0407
  C  C490  1  0.914430  0.846470  0.792670  1.0  0.0291
  C  C491  1  0.939930  0.863770  0.894670  1.0  0.0398
  C  C492  1  0.943630  0.871970  0.148670  1.0  -0.0048
  C  C493  1  0.922630  0.870770  0.276670  1.0  -0.0325
  C  C494  1  0.967830  0.879370  0.280670  1.0  -0.0833
  C  C495  1  0.740030  0.834870  0.473670  1.0  -0.05
  N  N496  1  0.149500  0.617600  0.131000  1.0  -0.3569
  N  N497  1  0.143500  0.649900  0.260000  1.0  -0.2953
  N  N498  1  0.168600  0.655000  0.903000  1.0  -0.3622
  N  N499  1  0.816170  0.950930  0.464330  1.0  -0.3569
  N  N500  1  0.810170  0.983230  0.593330  1.0  -0.2954
  N  N501  1  0.835270  0.988330  0.236330  1.0  -0.3623
  N  N502  1  0.482830  0.284270  0.797670  1.0  -0.3569
  N  N503  1  0.476830  0.316570  0.926670  1.0  -0.2954
  N  N504  1  0.501930  0.321670  0.569670  1.0  -0.3623
  N  N505  1  0.382400  0.531900  0.131000  1.0  -0.3575
  N  N506  1  0.350100  0.493600  0.260000  1.0  -0.2974
  N  N507  1  0.345000  0.513600  0.903000  1.0  -0.366
  N  N508  1  0.049070  0.865230  0.464330  1.0  -0.3576
  N  N509  1  0.016770  0.826930  0.593330  1.0  -0.2975
  N  N510  1  0.011670  0.846930  0.236330  1.0  -0.3647
  N  N511  1  0.715730  0.198570  0.797670  1.0  -0.3575
  N  N512  1  0.683430  0.160270  0.926670  1.0  -0.2974
  N  N513  1  0.678330  0.180270  0.569670  1.0  -0.3647
  N  N514  1  0.468100  0.850500  0.131000  1.0  -0.3572
  N  N515  1  0.506400  0.856500  0.260000  1.0  -0.2954
  N  N516  1  0.486400  0.831400  0.903000  1.0  -0.3644
  N  N517  1  0.134770  0.183830  0.464330  1.0  -0.3571
  N  N518  1  0.173070  0.189830  0.593330  1.0  -0.2954
  N  N519  1  0.153070  0.164730  0.236330  1.0  -0.3676
  N  N520  1  0.801430  0.517170  0.797670  1.0  -0.3572
  N  N521  1  0.839730  0.523170  0.926670  1.0  -0.2954
  N  N522  1  0.819730  0.498070  0.569670  1.0  -0.3676
  N  N523  1  0.850500  0.382400  0.869000  1.0  -0.3582
  N  N524  1  0.856500  0.350100  0.740000  1.0  -0.2967
  N  N525  1  0.831400  0.345000  0.097000  1.0  -0.3786
  N  N526  1  0.517170  0.715730  0.202330  1.0  -0.3582
  N  N527  1  0.523170  0.683430  0.073330  1.0  -0.2967
  N  N528  1  0.498070  0.678330  0.430330  1.0  -0.3786
  N  N529  1  0.183830  0.049070  0.535670  1.0  -0.3582
  N  N530  1  0.189830  0.016770  0.406670  1.0  -0.2967
  N  N531  1  0.164730  0.011670  0.763670  1.0  -0.3781
  N  N532  1  0.617600  0.468100  0.869000  1.0  -0.3557
  N  N533  1  0.649900  0.506400  0.740000  1.0  -0.2977
  N  N534  1  0.655000  0.486400  0.097000  1.0  -0.3627
  N  N535  1  0.284270  0.801430  0.202330  1.0  -0.3557
  N  N536  1  0.316570  0.839730  0.073330  1.0  -0.2977
  N  N537  1  0.321670  0.819730  0.430330  1.0  -0.3628
  N  N538  1  0.950930  0.134770  0.535670  1.0  -0.3558
  N  N539  1  0.983230  0.173070  0.406670  1.0  -0.2977
  N  N540  1  0.988330  0.153070  0.763670  1.0  -0.3628
  N  N541  1  0.531900  0.149500  0.869000  1.0  -0.3597
  N  N542  1  0.493600  0.143500  0.740000  1.0  -0.2955
  N  N543  1  0.513600  0.168600  0.097000  1.0  -0.3653
  N  N544  1  0.198570  0.482830  0.202330  1.0  -0.3597
  N  N545  1  0.160270  0.476830  0.073330  1.0  -0.2961
  N  N546  1  0.180270  0.501930  0.430330  1.0  -0.3612
  N  N547  1  0.865230  0.816170  0.535670  1.0  -0.3597
  N  N548  1  0.826930  0.810170  0.406670  1.0  -0.2961
  N  N549  1  0.846930  0.835270  0.763670  1.0  -0.3612
  O  O550  1  0.017800  0.527800  0.788000  1.0  -0.8706
  O  O551  1  0.011600  0.529400  0.248000  1.0  -0.7441
  O  O552  1  0.009300  0.561900  0.969000  1.0  -0.5249
  O  O553  1  0.156300  0.755700  0.706000  1.0  -0.5651
  O  O554  1  0.165200  0.799570  0.891000  1.0  -0.8173
  O  O555  1  0.122900  0.755900  0.996000  1.0  -0.5149
  O  O556  1  0.253600  0.581100  0.217000  1.0  -0.6262
  O  O557  1  0.258600  0.609100  0.575000  1.0  -0.6076
  O  O558  1  0.243700  0.567200  0.656000  1.0  -0.6035
  O  O559  1  0.684470  0.861130  0.121330  1.0  -0.8706
  O  O560  1  0.678270  0.862730  0.581330  1.0  -0.7456
  O  O561  1  0.675970  0.895230  0.302330  1.0  -0.5214
  O  O562  1  0.822970  0.089030  0.039330  1.0  -0.5661
  O  O563  1  0.831870  0.132900  0.224330  1.0  -0.8152
  O  O564  1  0.789570  0.089230  0.329330  1.0  -0.521
  O  O565  1  0.920270  0.914430  0.550330  1.0  -0.627
  O  O566  1  0.925270  0.942430  0.908330  1.0  -0.6076
  O  O567  1  0.910370  0.900530  0.989330  1.0  -0.6036
  O  O568  1  0.351130  0.194470  0.454670  1.0  -0.8705
  O  O569  1  0.344930  0.196070  0.914670  1.0  -0.744
  O  O570  1  0.342630  0.228570  0.635670  1.0  -0.5214
  O  O571  1  0.489630  0.422370  0.372670  1.0  -0.5662
  O  O572  1  0.498530  0.466240  0.557670  1.0  -0.8173
  O  O573  1  0.456230  0.422570  0.662670  1.0  -0.5144
  O  O574  1  0.586930  0.247770  0.883670  1.0  -0.6262
  O  O575  1  0.591930  0.275770  0.241670  1.0  -0.6076
  O  O576  1  0.577030  0.233870  0.322670  1.0  -0.6035
  O  O577  1  0.472200  0.490000  0.788000  1.0  -0.8681
  O  O578  1  0.470600  0.482200  0.248000  1.0  -0.7448
  O  O579  1  0.438100  0.447400  0.969000  1.0  -0.5223
  O  O580  1  0.244300  0.400600  0.706000  1.0  -0.5671
  O  O581  1  0.200430  0.365630  0.891000  1.0  -0.8177
  O  O582  1  0.244100  0.367000  0.996000  1.0  -0.5118
  O  O583  1  0.418900  0.672500  0.217000  1.0  -0.6282
  O  O584  1  0.390900  0.649500  0.575000  1.0  -0.5959
  O  O585  1  0.432800  0.676500  0.656000  1.0  -0.6012
  O  O586  1  0.138870  0.823330  0.121330  1.0  -0.8681
  O  O587  1  0.137270  0.815530  0.581330  1.0  -0.7448
  O  O588  1  0.104770  0.780730  0.302330  1.0  -0.5223
  O  O589  1  0.910970  0.733930  0.039330  1.0  -0.565
  O  O590  1  0.867100  0.698960  0.224330  1.0  -0.8178
  O  O591  1  0.910770  0.700330  0.329330  1.0  -0.5214
  O  O592  1  0.085570  0.005830  0.550330  1.0  -0.6282
  O  O593  1  0.057570  0.982830  0.908330  1.0  -0.6042
  O  O594  1  0.099470  0.009830  0.989330  1.0  -0.6013
  O  O595  1  0.805530  0.156670  0.454670  1.0  -0.868
  O  O596  1  0.803930  0.148870  0.914670  1.0  -0.7448
  O  O597  1  0.771430  0.114070  0.635670  1.0  -0.526
  O  O598  1  0.577630  0.067270  0.372670  1.0  -0.5651
  O  O599  1  0.533760  0.032300  0.557670  1.0  -0.8177
  O  O600  1  0.577430  0.033670  0.662670  1.0  -0.5193
  O  O601  1  0.752230  0.339170  0.883670  1.0  -0.6282
  O  O602  1  0.724230  0.316170  0.241670  1.0  -0.5959
  O  O603  1  0.766130  0.343170  0.322670  1.0  -0.6014
  O  O604  1  0.510000  0.982200  0.788000  1.0  -0.8694
  O  O605  1  0.517800  0.988400  0.248000  1.0  -0.7469
  O  O606  1  0.552600  0.990700  0.969000  1.0  -0.5239
  O  O607  1  0.599400  0.843700  0.706000  1.0  -0.5631
  O  O608  1  0.634370  0.834800  0.891000  1.0  -0.8181
  O  O609  1  0.633000  0.877100  0.996000  1.0  -0.5154
  O  O610  1  0.327500  0.746400  0.217000  1.0  -0.6267
  O  O611  1  0.350500  0.741400  0.575000  1.0  -0.608
  O  O612  1  0.323500  0.756300  0.656000  1.0  -0.6049
  O  O613  1  0.176670  0.315530  0.121330  1.0  -0.8693
  O  O614  1  0.184470  0.321730  0.581330  1.0  -0.7462
  O  O615  1  0.219270  0.324030  0.302330  1.0  -0.5201
  O  O616  1  0.266070  0.177030  0.039330  1.0  -0.5631
  O  O617  1  0.301040  0.168130  0.224330  1.0  -0.818
  O  O618  1  0.299670  0.210430  0.329330  1.0  -0.5131
  O  O619  1  0.994170  0.079730  0.550330  1.0  -0.6271
  O  O620  1  0.017170  0.074730  0.908330  1.0  -0.5987
  O  O621  1  0.990170  0.089630  0.989330  1.0  -0.6049
  O  O622  1  0.843330  0.648870  0.454670  1.0  -0.8694
  O  O623  1  0.851130  0.655070  0.914670  1.0  -0.7469
  O  O624  1  0.885930  0.657370  0.635670  1.0  -0.5239
  O  O625  1  0.932730  0.510370  0.372670  1.0  -0.5631
  O  O626  1  0.967700  0.501470  0.557670  1.0  -0.818
  O  O627  1  0.966330  0.543770  0.662670  1.0  -0.52
  O  O628  1  0.660830  0.413070  0.883670  1.0  -0.6267
  O  O629  1  0.683830  0.408070  0.241670  1.0  -0.608
  O  O630  1  0.656830  0.422970  0.322670  1.0  -0.6049
  O  O631  1  0.982200  0.472200  0.212000  1.0  -0.8704
  O  O632  1  0.988400  0.470600  0.752000  1.0  -0.7453
  O  O633  1  0.990700  0.438100  0.031000  1.0  -0.5269
  O  O634  1  0.843700  0.244300  0.294000  1.0  -0.5683
  O  O635  1  0.834800  0.200430  0.109000  1.0  -0.8178
  O  O636  1  0.877100  0.244100  0.004000  1.0  -0.5151
  O  O637  1  0.746400  0.418900  0.783000  1.0  -0.6289
  O  O638  1  0.741400  0.390900  0.425000  1.0  -0.6083
  O  O639  1  0.756300  0.432800  0.344000  1.0  -0.6035
  O  O640  1  0.648870  0.805530  0.545330  1.0  -0.8703
  O  O641  1  0.655070  0.803930  0.085330  1.0  -0.7452
  O  O642  1  0.657370  0.771430  0.364330  1.0  -0.5232
  O  O643  1  0.510370  0.577630  0.627330  1.0  -0.5683
  O  O644  1  0.501470  0.533760  0.442330  1.0  -0.8178
  O  O645  1  0.543770  0.577430  0.337330  1.0  -0.5146
  O  O646  1  0.413070  0.752230  0.116330  1.0  -0.6289
  O  O647  1  0.408070  0.724230  0.758330  1.0  -0.6083
  O  O648  1  0.422970  0.766130  0.677330  1.0  -0.6035
  O  O649  1  0.315530  0.138870  0.878670  1.0  -0.8704
  O  O650  1  0.321730  0.137270  0.418670  1.0  -0.7451
  O  O651  1  0.324030  0.104770  0.697670  1.0  -0.5232
  O  O652  1  0.177030  0.910970  0.960670  1.0  -0.5682
  O  O653  1  0.168130  0.867100  0.775670  1.0  -0.8157
  O  O654  1  0.210430  0.910770  0.670670  1.0  -0.522
  O  O655  1  0.079730  0.085570  0.449670  1.0  -0.6296
  O  O656  1  0.074730  0.057570  0.091670  1.0  -0.6083
  O  O657  1  0.089630  0.099470  0.010670  1.0  -0.6035
  O  O658  1  0.527800  0.510000  0.212000  1.0  -0.8691
  O  O659  1  0.529400  0.517800  0.752000  1.0  -0.7474
  O  O660  1  0.561900  0.552600  0.031000  1.0  -0.5226
  O  O661  1  0.755700  0.599400  0.294000  1.0  -0.5685
  O  O662  1  0.799570  0.634370  0.109000  1.0  -0.817
  O  O663  1  0.755900  0.633000  0.004000  1.0  -0.5127
  O  O664  1  0.581100  0.327500  0.783000  1.0  -0.6325
  O  O665  1  0.609100  0.350500  0.425000  1.0  -0.5995
  O  O666  1  0.567200  0.323500  0.344000  1.0  -0.6045
  O  O667  1  0.194470  0.843330  0.545330  1.0  -0.8691
  O  O668  1  0.196070  0.851130  0.085330  1.0  -0.7475
  O  O669  1  0.228570  0.885930  0.364330  1.0  -0.5262
  O  O670  1  0.422370  0.932730  0.627330  1.0  -0.5685
  O  O671  1  0.466240  0.967700  0.442330  1.0  -0.817
  O  O672  1  0.422570  0.966330  0.337330  1.0  -0.5191
  O  O673  1  0.247770  0.660830  0.116330  1.0  -0.6325
  O  O674  1  0.275770  0.683830  0.758330  1.0  -0.5995
  O  O675  1  0.233870  0.656830  0.677330  1.0  -0.6033
  O  O676  1  0.861130  0.176670  0.878670  1.0  -0.8691
  O  O677  1  0.862730  0.184470  0.418670  1.0  -0.7475
  O  O678  1  0.895230  0.219270  0.697670  1.0  -0.5221
  O  O679  1  0.089030  0.266070  0.960670  1.0  -0.5684
  O  O680  1  0.132900  0.301040  0.775670  1.0  -0.817
  O  O681  1  0.089230  0.299670  0.670670  1.0  -0.5212
  O  O682  1  0.914430  0.994170  0.449670  1.0  -0.6326
  O  O683  1  0.942430  0.017170  0.091670  1.0  -0.6068
  O  O684  1  0.900530  0.990170  0.010670  1.0  -0.603
  O  O685  1  0.490000  0.017800  0.212000  1.0  -0.8707
  O  O686  1  0.482200  0.011600  0.752000  1.0  -0.7463
  O  O687  1  0.447400  0.009300  0.031000  1.0  -0.5261
  O  O688  1  0.400600  0.156300  0.294000  1.0  -0.5682
  O  O689  1  0.365630  0.165200  0.109000  1.0  -0.8198
  O  O690  1  0.367000  0.122900  0.004000  1.0  -0.5162
  O  O691  1  0.672500  0.253600  0.783000  1.0  -0.632
  O  O692  1  0.649500  0.258600  0.425000  1.0  -0.6073
  O  O693  1  0.676500  0.243700  0.344000  1.0  -0.6032
  O  O694  1  0.156670  0.351130  0.545330  1.0  -0.8707
  O  O695  1  0.148870  0.344930  0.085330  1.0  -0.7463
  O  O696  1  0.114070  0.342630  0.364330  1.0  -0.5262
  O  O697  1  0.067270  0.489630  0.627330  1.0  -0.5684
  O  O698  1  0.032300  0.498530  0.442330  1.0  -0.8198
  O  O699  1  0.033670  0.456230  0.337330  1.0  -0.5206
  O  O700  1  0.339170  0.586930  0.116330  1.0  -0.632
  O  O701  1  0.316170  0.591930  0.758330  1.0  -0.6073
  O  O702  1  0.343170  0.577030  0.677330  1.0  -0.6019
  O  O703  1  0.823330  0.684470  0.878670  1.0  -0.8707
  O  O704  1  0.815530  0.678270  0.418670  1.0  -0.7463
  O  O705  1  0.780730  0.675970  0.697670  1.0  -0.5221
  O  O706  1  0.733930  0.822970  0.960670  1.0  -0.5685
  O  O707  1  0.698960  0.831870  0.775670  1.0  -0.8197
  O  O708  1  0.700330  0.789570  0.670670  1.0  -0.514
  O  O709  1  0.005830  0.920270  0.449670  1.0  -0.6323
  O  O710  1  0.982830  0.925270  0.091670  1.0  -0.598
  O  O711  1  0.009830  0.910370  0.010670  1.0  -0.6018
