# generated using pymatgen
data_CuH4(C2N3)2
_symmetry_space_group_name_H-M   'P 1'
_cell_length_a   47.00720000
_cell_length_b   47.00720000
_cell_length_c   47.00720000
_cell_angle_alpha   90.00000000
_cell_angle_beta   90.00000000
_cell_angle_gamma   90.00000000
_symmetry_Int_Tables_number   1
_chemical_formula_structural   CuH4(C2N3)2
_chemical_formula_sum   'Cu384 H1536 C1536 N2304'
_cell_volume   103870.72170981
_cell_formula_units_Z   384
loop_
 _symmetry_equiv_pos_site_id
 _symmetry_equiv_pos_as_xyz
  1  'x, y, z'
loop_
 _atom_site_type_symbol
 _atom_site_label
 _atom_site_symmetry_multiplicity
 _atom_site_fract_x
 _atom_site_fract_y
 _atom_site_fract_z
 _atom_site_occupancy
 _atom_site_charge
  Cu  Cu1  1  0.376690  0.412800  0.529510  1.0  0.353
  Cu  Cu2  1  0.350040  0.475430  0.557950  1.0  0.401
  Cu  Cu3  1  0.376690  0.912800  0.029510  1.0  0.353
  Cu  Cu4  1  0.350040  0.975430  0.057950  1.0  0.401
  Cu  Cu5  1  0.876690  0.412800  0.029510  1.0  0.353
  Cu  Cu6  1  0.850040  0.475430  0.057950  1.0  0.401
  Cu  Cu7  1  0.876690  0.912800  0.529510  1.0  0.353
  Cu  Cu8  1  0.850040  0.975430  0.557950  1.0  0.401
  Cu  Cu9  1  0.873310  0.337200  0.029510  1.0  0.3523
  Cu  Cu10  1  0.899960  0.274570  0.057950  1.0  0.4013
  Cu  Cu11  1  0.873310  0.837200  0.529510  1.0  0.3523
  Cu  Cu12  1  0.899960  0.774570  0.557950  1.0  0.4013
  Cu  Cu13  1  0.373310  0.337200  0.529510  1.0  0.3523
  Cu  Cu14  1  0.399960  0.274570  0.557950  1.0  0.4013
  Cu  Cu15  1  0.373310  0.837200  0.029510  1.0  0.3523
  Cu  Cu16  1  0.399960  0.774570  0.057950  1.0  0.4013
  Cu  Cu17  1  0.373310  0.912800  0.720500  1.0  0.3515
  Cu  Cu18  1  0.399960  0.975430  0.692050  1.0  0.4014
  Cu  Cu19  1  0.373310  0.412800  0.220500  1.0  0.3515
  Cu  Cu20  1  0.399960  0.475430  0.192050  1.0  0.4014
  Cu  Cu21  1  0.873310  0.912800  0.220500  1.0  0.3515
  Cu  Cu22  1  0.899960  0.975430  0.192050  1.0  0.4014
  Cu  Cu23  1  0.873310  0.412800  0.720500  1.0  0.3515
  Cu  Cu24  1  0.899960  0.475430  0.692050  1.0  0.4014
  Cu  Cu25  1  0.876690  0.837200  0.220500  1.0  0.3518
  Cu  Cu26  1  0.850040  0.774570  0.192050  1.0  0.4007
  Cu  Cu27  1  0.876690  0.337200  0.720500  1.0  0.3518
  Cu  Cu28  1  0.850040  0.274570  0.692050  1.0  0.4007
  Cu  Cu29  1  0.376690  0.837200  0.720500  1.0  0.3518
  Cu  Cu30  1  0.350040  0.774570  0.692050  1.0  0.4007
  Cu  Cu31  1  0.376690  0.337200  0.220500  1.0  0.3518
  Cu  Cu32  1  0.350040  0.274570  0.192050  1.0  0.4007
  Cu  Cu33  1  0.529510  0.376690  0.412800  1.0  0.3522
  Cu  Cu34  1  0.557950  0.350040  0.475430  1.0  0.4012
  Cu  Cu35  1  0.529510  0.876690  0.912800  1.0  0.3522
  Cu  Cu36  1  0.557950  0.850040  0.975430  1.0  0.4012
  Cu  Cu37  1  0.029510  0.376690  0.912800  1.0  0.3522
  Cu  Cu38  1  0.057950  0.350040  0.975430  1.0  0.4012
  Cu  Cu39  1  0.029510  0.876690  0.412800  1.0  0.3522
  Cu  Cu40  1  0.057950  0.850040  0.475430  1.0  0.4012
  Cu  Cu41  1  0.029510  0.873310  0.337200  1.0  0.3518
  Cu  Cu42  1  0.057950  0.899960  0.274570  1.0  0.4033
  Cu  Cu43  1  0.029510  0.373310  0.837200  1.0  0.3518
  Cu  Cu44  1  0.057950  0.399960  0.774570  1.0  0.4033
  Cu  Cu45  1  0.529510  0.873310  0.837200  1.0  0.3518
  Cu  Cu46  1  0.557950  0.899960  0.774570  1.0  0.4033
  Cu  Cu47  1  0.529510  0.373310  0.337200  1.0  0.3518
  Cu  Cu48  1  0.557950  0.399960  0.274570  1.0  0.4033
  Cu  Cu49  1  0.720500  0.373310  0.912800  1.0  0.3505
  Cu  Cu50  1  0.692050  0.399960  0.975430  1.0  0.4028
  Cu  Cu51  1  0.720500  0.873310  0.412800  1.0  0.3505
  Cu  Cu52  1  0.692050  0.899960  0.475430  1.0  0.4028
  Cu  Cu53  1  0.220500  0.373310  0.412800  1.0  0.3505
  Cu  Cu54  1  0.192050  0.399960  0.475430  1.0  0.4028
  Cu  Cu55  1  0.220500  0.873310  0.912800  1.0  0.3505
  Cu  Cu56  1  0.192050  0.899960  0.975430  1.0  0.4028
  Cu  Cu57  1  0.220500  0.876690  0.837200  1.0  0.3506
  Cu  Cu58  1  0.192050  0.850040  0.774570  1.0  0.4011
  Cu  Cu59  1  0.220500  0.376690  0.337200  1.0  0.3506
  Cu  Cu60  1  0.192050  0.350040  0.274570  1.0  0.4011
  Cu  Cu61  1  0.720500  0.876690  0.337200  1.0  0.3506
  Cu  Cu62  1  0.692050  0.850040  0.274570  1.0  0.4011
  Cu  Cu63  1  0.720500  0.376690  0.837200  1.0  0.3506
  Cu  Cu64  1  0.692050  0.350040  0.774570  1.0  0.4011
  Cu  Cu65  1  0.412800  0.529510  0.376690  1.0  0.3525
  Cu  Cu66  1  0.475430  0.557950  0.350040  1.0  0.4055
  Cu  Cu67  1  0.412800  0.029510  0.876690  1.0  0.3525
  Cu  Cu68  1  0.475430  0.057950  0.850040  1.0  0.4055
  Cu  Cu69  1  0.912800  0.529510  0.876690  1.0  0.3525
  Cu  Cu70  1  0.975430  0.557950  0.850040  1.0  0.4055
  Cu  Cu71  1  0.912800  0.029510  0.376690  1.0  0.3525
  Cu  Cu72  1  0.975430  0.057950  0.350040  1.0  0.4055
  Cu  Cu73  1  0.337200  0.029510  0.873310  1.0  0.3524
  Cu  Cu74  1  0.274570  0.057950  0.899960  1.0  0.4053
  Cu  Cu75  1  0.337200  0.529510  0.373310  1.0  0.3524
  Cu  Cu76  1  0.274570  0.557950  0.399960  1.0  0.4053
  Cu  Cu77  1  0.837200  0.029510  0.373310  1.0  0.3524
  Cu  Cu78  1  0.774570  0.057950  0.399960  1.0  0.4053
  Cu  Cu79  1  0.837200  0.529510  0.873310  1.0  0.3524
  Cu  Cu80  1  0.774570  0.557950  0.899960  1.0  0.4053
  Cu  Cu81  1  0.912800  0.720500  0.373310  1.0  0.3519
  Cu  Cu82  1  0.975430  0.692050  0.399960  1.0  0.4042
  Cu  Cu83  1  0.912800  0.220500  0.873310  1.0  0.3519
  Cu  Cu84  1  0.975430  0.192050  0.899960  1.0  0.4042
  Cu  Cu85  1  0.412800  0.720500  0.873310  1.0  0.3519
  Cu  Cu86  1  0.475430  0.692050  0.899960  1.0  0.4042
  Cu  Cu87  1  0.412800  0.220500  0.373310  1.0  0.3519
  Cu  Cu88  1  0.475430  0.192050  0.399960  1.0  0.4042
  Cu  Cu89  1  0.837200  0.220500  0.876690  1.0  0.3521
  Cu  Cu90  1  0.774570  0.192050  0.850040  1.0  0.4058
  Cu  Cu91  1  0.837200  0.720500  0.376690  1.0  0.3521
  Cu  Cu92  1  0.774570  0.692050  0.350040  1.0  0.4058
  Cu  Cu93  1  0.337200  0.220500  0.376690  1.0  0.3521
  Cu  Cu94  1  0.274570  0.192050  0.350040  1.0  0.4058
  Cu  Cu95  1  0.337200  0.720500  0.876690  1.0  0.3521
  Cu  Cu96  1  0.274570  0.692050  0.850040  1.0  0.4058
  Cu  Cu97  1  0.162800  0.626690  0.470500  1.0  0.3519
  Cu  Cu98  1  0.225430  0.600040  0.442050  1.0  0.4027
  Cu  Cu99  1  0.162800  0.126690  0.970500  1.0  0.3519
  Cu  Cu100  1  0.225430  0.100040  0.942050  1.0  0.4027
  Cu  Cu101  1  0.662800  0.626690  0.970500  1.0  0.3519
  Cu  Cu102  1  0.725430  0.600040  0.942050  1.0  0.4027
  Cu  Cu103  1  0.662800  0.126690  0.470500  1.0  0.3519
  Cu  Cu104  1  0.725430  0.100040  0.442050  1.0  0.4027
  Cu  Cu105  1  0.087200  0.123310  0.970500  1.0  0.3515
  Cu  Cu106  1  0.024570  0.149960  0.942050  1.0  0.4049
  Cu  Cu107  1  0.087200  0.623310  0.470500  1.0  0.3515
  Cu  Cu108  1  0.024570  0.649960  0.442050  1.0  0.4049
  Cu  Cu109  1  0.587200  0.123310  0.470500  1.0  0.3515
  Cu  Cu110  1  0.524570  0.149960  0.442050  1.0  0.4049
  Cu  Cu111  1  0.587200  0.623310  0.970500  1.0  0.3515
  Cu  Cu112  1  0.524570  0.649960  0.942050  1.0  0.4049
  Cu  Cu113  1  0.662800  0.623310  0.279510  1.0  0.3525
  Cu  Cu114  1  0.725430  0.649960  0.307950  1.0  0.405
  Cu  Cu115  1  0.662800  0.123310  0.779510  1.0  0.3525
  Cu  Cu116  1  0.725430  0.149960  0.807950  1.0  0.405
  Cu  Cu117  1  0.162800  0.623310  0.779510  1.0  0.3525
  Cu  Cu118  1  0.225430  0.649960  0.807950  1.0  0.405
  Cu  Cu119  1  0.162800  0.123310  0.279510  1.0  0.3525
  Cu  Cu120  1  0.225430  0.149960  0.307950  1.0  0.405
  Cu  Cu121  1  0.587200  0.126690  0.779510  1.0  0.3529
  Cu  Cu122  1  0.524570  0.100040  0.807950  1.0  0.4031
  Cu  Cu123  1  0.587200  0.626690  0.279510  1.0  0.3529
  Cu  Cu124  1  0.524570  0.600040  0.307950  1.0  0.4031
  Cu  Cu125  1  0.087200  0.126690  0.279510  1.0  0.3529
  Cu  Cu126  1  0.024570  0.100040  0.307950  1.0  0.4031
  Cu  Cu127  1  0.087200  0.626690  0.779510  1.0  0.3529
  Cu  Cu128  1  0.024570  0.600040  0.807950  1.0  0.4031
  Cu  Cu129  1  0.126690  0.779510  0.587200  1.0  0.3526
  Cu  Cu130  1  0.100040  0.807950  0.524570  1.0  0.4013
  Cu  Cu131  1  0.126690  0.279510  0.087200  1.0  0.3526
  Cu  Cu132  1  0.100040  0.307950  0.024570  1.0  0.4013
  Cu  Cu133  1  0.626690  0.779510  0.087200  1.0  0.3526
  Cu  Cu134  1  0.600040  0.807950  0.024570  1.0  0.4013
  Cu  Cu135  1  0.626690  0.279510  0.587200  1.0  0.3526
  Cu  Cu136  1  0.600040  0.307950  0.524570  1.0  0.4013
  Cu  Cu137  1  0.623310  0.279510  0.662800  1.0  0.3521
  Cu  Cu138  1  0.649960  0.307950  0.725430  1.0  0.4014
  Cu  Cu139  1  0.623310  0.779510  0.162800  1.0  0.3521
  Cu  Cu140  1  0.649960  0.807950  0.225430  1.0  0.4014
  Cu  Cu141  1  0.123310  0.279510  0.162800  1.0  0.3521
  Cu  Cu142  1  0.149960  0.307950  0.225430  1.0  0.4014
  Cu  Cu143  1  0.123310  0.779510  0.662800  1.0  0.3521
  Cu  Cu144  1  0.149960  0.807950  0.725430  1.0  0.4014
  Cu  Cu145  1  0.123310  0.970500  0.087200  1.0  0.3517
  Cu  Cu146  1  0.149960  0.942050  0.024570  1.0  0.4009
  Cu  Cu147  1  0.123310  0.470500  0.587200  1.0  0.3517
  Cu  Cu148  1  0.149960  0.442050  0.524570  1.0  0.4009
  Cu  Cu149  1  0.623310  0.970500  0.587200  1.0  0.3517
  Cu  Cu150  1  0.649960  0.942050  0.524570  1.0  0.4009
  Cu  Cu151  1  0.623310  0.470500  0.087200  1.0  0.3517
  Cu  Cu152  1  0.649960  0.442050  0.024570  1.0  0.4009
  Cu  Cu153  1  0.626690  0.470500  0.162800  1.0  0.3521
  Cu  Cu154  1  0.600040  0.442050  0.225430  1.0  0.4004
  Cu  Cu155  1  0.626690  0.970500  0.662800  1.0  0.3521
  Cu  Cu156  1  0.600040  0.942050  0.725430  1.0  0.4004
  Cu  Cu157  1  0.126690  0.470500  0.662800  1.0  0.3521
  Cu  Cu158  1  0.100040  0.442050  0.725430  1.0  0.4004
  Cu  Cu159  1  0.126690  0.970500  0.162800  1.0  0.3521
  Cu  Cu160  1  0.100040  0.942050  0.225430  1.0  0.4004
  Cu  Cu161  1  0.279510  0.662800  0.623310  1.0  0.352
  Cu  Cu162  1  0.307950  0.725430  0.649960  1.0  0.4032
  Cu  Cu163  1  0.279510  0.162800  0.123310  1.0  0.352
  Cu  Cu164  1  0.307950  0.225430  0.149960  1.0  0.4032
  Cu  Cu165  1  0.779510  0.662800  0.123310  1.0  0.352
  Cu  Cu166  1  0.807950  0.725430  0.149960  1.0  0.4032
  Cu  Cu167  1  0.779510  0.162800  0.623310  1.0  0.352
  Cu  Cu168  1  0.807950  0.225430  0.649960  1.0  0.4032
  Cu  Cu169  1  0.779510  0.587200  0.126690  1.0  0.352
  Cu  Cu170  1  0.807950  0.524570  0.100040  1.0  0.4035
  Cu  Cu171  1  0.779510  0.087200  0.626690  1.0  0.352
  Cu  Cu172  1  0.807950  0.024570  0.600040  1.0  0.4035
  Cu  Cu173  1  0.279510  0.587200  0.626690  1.0  0.352
  Cu  Cu174  1  0.307950  0.524570  0.600040  1.0  0.4035
  Cu  Cu175  1  0.279510  0.087200  0.126690  1.0  0.352
  Cu  Cu176  1  0.307950  0.024570  0.100040  1.0  0.4035
  Cu  Cu177  1  0.470500  0.162800  0.626690  1.0  0.3508
  Cu  Cu178  1  0.442050  0.225430  0.600040  1.0  0.4037
  Cu  Cu179  1  0.470500  0.662800  0.126690  1.0  0.3508
  Cu  Cu180  1  0.442050  0.725430  0.100040  1.0  0.4037
  Cu  Cu181  1  0.970500  0.162800  0.126690  1.0  0.3508
  Cu  Cu182  1  0.942050  0.225430  0.100040  1.0  0.4037
  Cu  Cu183  1  0.970500  0.662800  0.626690  1.0  0.3508
  Cu  Cu184  1  0.942050  0.725430  0.600040  1.0  0.4037
  Cu  Cu185  1  0.970500  0.087200  0.123310  1.0  0.3502
  Cu  Cu186  1  0.942050  0.024570  0.149960  1.0  0.4026
  Cu  Cu187  1  0.970500  0.587200  0.623310  1.0  0.3502
  Cu  Cu188  1  0.942050  0.524570  0.649960  1.0  0.4026
  Cu  Cu189  1  0.470500  0.087200  0.623310  1.0  0.3502
  Cu  Cu190  1  0.442050  0.024570  0.649960  1.0  0.4026
  Cu  Cu191  1  0.470500  0.587200  0.123310  1.0  0.3502
  Cu  Cu192  1  0.442050  0.524570  0.149960  1.0  0.4026
  Cu  Cu193  1  0.623310  0.587200  0.470500  1.0  0.3514
  Cu  Cu194  1  0.649960  0.524570  0.442050  1.0  0.401
  Cu  Cu195  1  0.623310  0.087200  0.970500  1.0  0.3514
  Cu  Cu196  1  0.649960  0.024570  0.942050  1.0  0.401
  Cu  Cu197  1  0.123310  0.587200  0.970500  1.0  0.3514
  Cu  Cu198  1  0.149960  0.524570  0.942050  1.0  0.401
  Cu  Cu199  1  0.123310  0.087200  0.470500  1.0  0.3514
  Cu  Cu200  1  0.149960  0.024570  0.442050  1.0  0.401
  Cu  Cu201  1  0.126690  0.662800  0.970500  1.0  0.3519
  Cu  Cu202  1  0.100040  0.725430  0.942050  1.0  0.4011
  Cu  Cu203  1  0.126690  0.162800  0.470500  1.0  0.3519
  Cu  Cu204  1  0.100040  0.225430  0.442050  1.0  0.4011
  Cu  Cu205  1  0.626690  0.662800  0.470500  1.0  0.3519
  Cu  Cu206  1  0.600040  0.725430  0.442050  1.0  0.4011
  Cu  Cu207  1  0.626690  0.162800  0.970500  1.0  0.3519
  Cu  Cu208  1  0.600040  0.225430  0.942050  1.0  0.4011
  Cu  Cu209  1  0.626690  0.087200  0.279510  1.0  0.3528
  Cu  Cu210  1  0.600040  0.024570  0.307950  1.0  0.4005
  Cu  Cu211  1  0.626690  0.587200  0.779510  1.0  0.3528
  Cu  Cu212  1  0.600040  0.524570  0.807950  1.0  0.4005
  Cu  Cu213  1  0.126690  0.087200  0.779510  1.0  0.3528
  Cu  Cu214  1  0.100040  0.024570  0.807950  1.0  0.4005
  Cu  Cu215  1  0.126690  0.587200  0.279510  1.0  0.3528
  Cu  Cu216  1  0.100040  0.524570  0.307950  1.0  0.4005
  Cu  Cu217  1  0.123310  0.162800  0.779510  1.0  0.3525
  Cu  Cu218  1  0.149960  0.225430  0.807950  1.0  0.4017
  Cu  Cu219  1  0.123310  0.662800  0.279510  1.0  0.3525
  Cu  Cu220  1  0.149960  0.725430  0.307950  1.0  0.4017
  Cu  Cu221  1  0.623310  0.162800  0.279510  1.0  0.3525
  Cu  Cu222  1  0.649960  0.225430  0.307950  1.0  0.4017
  Cu  Cu223  1  0.623310  0.662800  0.779510  1.0  0.3525
  Cu  Cu224  1  0.649960  0.725430  0.807950  1.0  0.4017
  Cu  Cu225  1  0.470500  0.623310  0.587200  1.0  0.3502
  Cu  Cu226  1  0.442050  0.649960  0.524570  1.0  0.4031
  Cu  Cu227  1  0.470500  0.123310  0.087200  1.0  0.3502
  Cu  Cu228  1  0.442050  0.149960  0.024570  1.0  0.4031
  Cu  Cu229  1  0.970500  0.623310  0.087200  1.0  0.3502
  Cu  Cu230  1  0.942050  0.649960  0.024570  1.0  0.4031
  Cu  Cu231  1  0.970500  0.123310  0.587200  1.0  0.3502
  Cu  Cu232  1  0.942050  0.149960  0.524570  1.0  0.4031
  Cu  Cu233  1  0.970500  0.126690  0.662800  1.0  0.3508
  Cu  Cu234  1  0.942050  0.100040  0.725430  1.0  0.4007
  Cu  Cu235  1  0.970500  0.626690  0.162800  1.0  0.3508
  Cu  Cu236  1  0.942050  0.600040  0.225430  1.0  0.4007
  Cu  Cu237  1  0.470500  0.126690  0.162800  1.0  0.3508
  Cu  Cu238  1  0.442050  0.100040  0.225430  1.0  0.4007
  Cu  Cu239  1  0.470500  0.626690  0.662800  1.0  0.3508
  Cu  Cu240  1  0.442050  0.600040  0.725430  1.0  0.4007
  Cu  Cu241  1  0.279510  0.626690  0.087200  1.0  0.3522
  Cu  Cu242  1  0.307950  0.600040  0.024570  1.0  0.4017
  Cu  Cu243  1  0.279510  0.126690  0.587200  1.0  0.3522
  Cu  Cu244  1  0.307950  0.100040  0.524570  1.0  0.4017
  Cu  Cu245  1  0.779510  0.626690  0.587200  1.0  0.3522
  Cu  Cu246  1  0.807950  0.600040  0.524570  1.0  0.4017
  Cu  Cu247  1  0.779510  0.126690  0.087200  1.0  0.3522
  Cu  Cu248  1  0.807950  0.100040  0.024570  1.0  0.4017
  Cu  Cu249  1  0.779510  0.123310  0.162800  1.0  0.3518
  Cu  Cu250  1  0.807950  0.149960  0.225430  1.0  0.4029
  Cu  Cu251  1  0.779510  0.623310  0.662800  1.0  0.3518
  Cu  Cu252  1  0.807950  0.649960  0.725430  1.0  0.4029
  Cu  Cu253  1  0.279510  0.123310  0.662800  1.0  0.3518
  Cu  Cu254  1  0.307950  0.149960  0.725430  1.0  0.4029
  Cu  Cu255  1  0.279510  0.623310  0.162800  1.0  0.3518
  Cu  Cu256  1  0.307950  0.649960  0.225430  1.0  0.4029
  Cu  Cu257  1  0.587200  0.470500  0.623310  1.0  0.3519
  Cu  Cu258  1  0.524570  0.442050  0.649960  1.0  0.4046
  Cu  Cu259  1  0.587200  0.970500  0.123310  1.0  0.3519
  Cu  Cu260  1  0.524570  0.942050  0.149960  1.0  0.4046
  Cu  Cu261  1  0.087200  0.470500  0.123310  1.0  0.3519
  Cu  Cu262  1  0.024570  0.442050  0.149960  1.0  0.4046
  Cu  Cu263  1  0.087200  0.970500  0.623310  1.0  0.3519
  Cu  Cu264  1  0.024570  0.942050  0.649960  1.0  0.4046
  Cu  Cu265  1  0.662800  0.970500  0.126690  1.0  0.352
  Cu  Cu266  1  0.725430  0.942050  0.100040  1.0  0.4052
  Cu  Cu267  1  0.662800  0.470500  0.626690  1.0  0.352
  Cu  Cu268  1  0.725430  0.442050  0.600040  1.0  0.4052
  Cu  Cu269  1  0.162800  0.970500  0.626690  1.0  0.352
  Cu  Cu270  1  0.225430  0.942050  0.600040  1.0  0.4052
  Cu  Cu271  1  0.162800  0.470500  0.126690  1.0  0.352
  Cu  Cu272  1  0.225430  0.442050  0.100040  1.0  0.4052
  Cu  Cu273  1  0.087200  0.279510  0.626690  1.0  0.3526
  Cu  Cu274  1  0.024570  0.307950  0.600040  1.0  0.4061
  Cu  Cu275  1  0.087200  0.779510  0.126690  1.0  0.3526
  Cu  Cu276  1  0.024570  0.807950  0.100040  1.0  0.4061
  Cu  Cu277  1  0.587200  0.279510  0.126690  1.0  0.3526
  Cu  Cu278  1  0.524570  0.307950  0.100040  1.0  0.4061
  Cu  Cu279  1  0.587200  0.779510  0.626690  1.0  0.3526
  Cu  Cu280  1  0.524570  0.807950  0.600040  1.0  0.4061
  Cu  Cu281  1  0.162800  0.779510  0.123310  1.0  0.3524
  Cu  Cu282  1  0.225430  0.807950  0.149960  1.0  0.4049
  Cu  Cu283  1  0.162800  0.279510  0.623310  1.0  0.3524
  Cu  Cu284  1  0.225430  0.307950  0.649960  1.0  0.4049
  Cu  Cu285  1  0.662800  0.779510  0.623310  1.0  0.3524
  Cu  Cu286  1  0.725430  0.807950  0.649960  1.0  0.4049
  Cu  Cu287  1  0.662800  0.279510  0.123310  1.0  0.3524
  Cu  Cu288  1  0.725430  0.307950  0.149960  1.0  0.4049
  Cu  Cu289  1  0.837200  0.373310  0.529510  1.0  0.3525
  Cu  Cu290  1  0.774570  0.399960  0.557950  1.0  0.405
  Cu  Cu291  1  0.837200  0.873310  0.029510  1.0  0.3525
  Cu  Cu292  1  0.774570  0.899960  0.057950  1.0  0.405
  Cu  Cu293  1  0.337200  0.373310  0.029510  1.0  0.3525
  Cu  Cu294  1  0.274570  0.399960  0.057950  1.0  0.405
  Cu  Cu295  1  0.337200  0.873310  0.529510  1.0  0.3525
  Cu  Cu296  1  0.274570  0.899960  0.557950  1.0  0.405
  Cu  Cu297  1  0.912800  0.876690  0.029510  1.0  0.3529
  Cu  Cu298  1  0.975430  0.850040  0.057950  1.0  0.4027
  Cu  Cu299  1  0.912800  0.376690  0.529510  1.0  0.3529
  Cu  Cu300  1  0.975430  0.350040  0.557950  1.0  0.4027
  Cu  Cu301  1  0.412800  0.876690  0.529510  1.0  0.3529
  Cu  Cu302  1  0.475430  0.850040  0.557950  1.0  0.4027
  Cu  Cu303  1  0.412800  0.376690  0.029510  1.0  0.3529
  Cu  Cu304  1  0.475430  0.350040  0.057950  1.0  0.4027
  Cu  Cu305  1  0.337200  0.376690  0.720500  1.0  0.3519
  Cu  Cu306  1  0.274570  0.350040  0.692050  1.0  0.4033
  Cu  Cu307  1  0.337200  0.876690  0.220500  1.0  0.3519
  Cu  Cu308  1  0.274570  0.850040  0.192050  1.0  0.4033
  Cu  Cu309  1  0.837200  0.376690  0.220500  1.0  0.3519
  Cu  Cu310  1  0.774570  0.350040  0.192050  1.0  0.4033
  Cu  Cu311  1  0.837200  0.876690  0.720500  1.0  0.3519
  Cu  Cu312  1  0.774570  0.850040  0.692050  1.0  0.4033
  Cu  Cu313  1  0.412800  0.873310  0.220500  1.0  0.3515
  Cu  Cu314  1  0.475430  0.899960  0.192050  1.0  0.4048
  Cu  Cu315  1  0.412800  0.373310  0.720500  1.0  0.3515
  Cu  Cu316  1  0.475430  0.399960  0.692050  1.0  0.4048
  Cu  Cu317  1  0.912800  0.873310  0.720500  1.0  0.3515
  Cu  Cu318  1  0.975430  0.899960  0.692050  1.0  0.4048
  Cu  Cu319  1  0.912800  0.373310  0.220500  1.0  0.3515
  Cu  Cu320  1  0.975430  0.399960  0.192050  1.0  0.4048
  Cu  Cu321  1  0.873310  0.220500  0.412800  1.0  0.3517
  Cu  Cu322  1  0.899960  0.192050  0.475430  1.0  0.4007
  Cu  Cu323  1  0.873310  0.720500  0.912800  1.0  0.3517
  Cu  Cu324  1  0.899960  0.692050  0.975430  1.0  0.4007
  Cu  Cu325  1  0.373310  0.220500  0.912800  1.0  0.3517
  Cu  Cu326  1  0.399960  0.192050  0.975430  1.0  0.4007
  Cu  Cu327  1  0.373310  0.720500  0.412800  1.0  0.3517
  Cu  Cu328  1  0.399960  0.692050  0.475430  1.0  0.4007
  Cu  Cu329  1  0.376690  0.720500  0.337200  1.0  0.3521
  Cu  Cu330  1  0.350040  0.692050  0.274570  1.0  0.4008
  Cu  Cu331  1  0.376690  0.220500  0.837200  1.0  0.3521
  Cu  Cu332  1  0.350040  0.192050  0.774570  1.0  0.4008
  Cu  Cu333  1  0.876690  0.720500  0.837200  1.0  0.3521
  Cu  Cu334  1  0.850040  0.692050  0.774570  1.0  0.4008
  Cu  Cu335  1  0.876690  0.220500  0.337200  1.0  0.3521
  Cu  Cu336  1  0.850040  0.192050  0.274570  1.0  0.4008
  Cu  Cu337  1  0.876690  0.029510  0.912800  1.0  0.3526
  Cu  Cu338  1  0.850040  0.057950  0.975430  1.0  0.4009
  Cu  Cu339  1  0.876690  0.529510  0.412800  1.0  0.3526
  Cu  Cu340  1  0.850040  0.557950  0.475430  1.0  0.4009
  Cu  Cu341  1  0.376690  0.029510  0.412800  1.0  0.3526
  Cu  Cu342  1  0.350040  0.057950  0.475430  1.0  0.4009
  Cu  Cu343  1  0.376690  0.529510  0.912800  1.0  0.3526
  Cu  Cu344  1  0.350040  0.557950  0.975430  1.0  0.4009
  Cu  Cu345  1  0.373310  0.529510  0.837200  1.0  0.3522
  Cu  Cu346  1  0.399960  0.557950  0.774570  1.0  0.4016
  Cu  Cu347  1  0.373310  0.029510  0.337200  1.0  0.3522
  Cu  Cu348  1  0.399960  0.057950  0.274570  1.0  0.4016
  Cu  Cu349  1  0.873310  0.529510  0.337200  1.0  0.3522
  Cu  Cu350  1  0.899960  0.557950  0.274570  1.0  0.4016
  Cu  Cu351  1  0.873310  0.029510  0.837200  1.0  0.3522
  Cu  Cu352  1  0.899960  0.057950  0.774570  1.0  0.4016
  Cu  Cu353  1  0.720500  0.337200  0.376690  1.0  0.3507
  Cu  Cu354  1  0.692050  0.274570  0.350040  1.0  0.4033
  Cu  Cu355  1  0.720500  0.837200  0.876690  1.0  0.3507
  Cu  Cu356  1  0.692050  0.774570  0.850040  1.0  0.4033
  Cu  Cu357  1  0.220500  0.337200  0.876690  1.0  0.3507
  Cu  Cu358  1  0.192050  0.274570  0.850040  1.0  0.4033
  Cu  Cu359  1  0.220500  0.837200  0.376690  1.0  0.3507
  Cu  Cu360  1  0.192050  0.774570  0.350040  1.0  0.4033
  Cu  Cu361  1  0.220500  0.412800  0.873310  1.0  0.3504
  Cu  Cu362  1  0.192050  0.475430  0.899960  1.0  0.4029
  Cu  Cu363  1  0.220500  0.912800  0.373310  1.0  0.3504
  Cu  Cu364  1  0.192050  0.975430  0.399960  1.0  0.4029
  Cu  Cu365  1  0.720500  0.412800  0.373310  1.0  0.3504
  Cu  Cu366  1  0.692050  0.475430  0.399960  1.0  0.4029
  Cu  Cu367  1  0.720500  0.912800  0.873310  1.0  0.3504
  Cu  Cu368  1  0.692050  0.975430  0.899960  1.0  0.4029
  Cu  Cu369  1  0.529510  0.837200  0.373310  1.0  0.3519
  Cu  Cu370  1  0.557950  0.774570  0.399960  1.0  0.4029
  Cu  Cu371  1  0.529510  0.337200  0.873310  1.0  0.3519
  Cu  Cu372  1  0.557950  0.274570  0.899960  1.0  0.4029
  Cu  Cu373  1  0.029510  0.837200  0.873310  1.0  0.3519
  Cu  Cu374  1  0.057950  0.774570  0.899960  1.0  0.4029
  Cu  Cu375  1  0.029510  0.337200  0.373310  1.0  0.3519
  Cu  Cu376  1  0.057950  0.274570  0.399960  1.0  0.4029
  Cu  Cu377  1  0.029510  0.912800  0.876690  1.0  0.3522
  Cu  Cu378  1  0.057950  0.975430  0.850040  1.0  0.404
  Cu  Cu379  1  0.029510  0.412800  0.376690  1.0  0.3522
  Cu  Cu380  1  0.057950  0.475430  0.350040  1.0  0.404
  Cu  Cu381  1  0.529510  0.912800  0.376690  1.0  0.3522
  Cu  Cu382  1  0.557950  0.975430  0.350040  1.0  0.404
  Cu  Cu383  1  0.529510  0.412800  0.876690  1.0  0.3522
  Cu  Cu384  1  0.557950  0.475430  0.850040  1.0  0.404
  H  H385  1  0.329000  0.501900  0.434800  1.0  0.0564
  H  H386  1  0.385200  0.442100  0.465100  1.0  0.0605
  H  H387  1  0.401100  0.477400  0.608200  1.0  0.0516
  H  H388  1  0.420500  0.418000  0.656200  1.0  0.0486
  H  H389  1  0.423200  0.401300  0.579300  1.0  0.0506
  H  H390  1  0.350800  0.510900  0.499700  1.0  0.0611
  H  H391  1  0.413000  0.500300  0.440200  1.0  0.0511
  H  H392  1  0.476100  0.453700  0.604200  1.0  0.0444
  H  H393  1  0.329000  0.001900  0.934800  1.0  0.0564
  H  H394  1  0.385200  0.942100  0.965100  1.0  0.0605
  H  H395  1  0.401100  0.977400  0.108200  1.0  0.0516
  H  H396  1  0.420500  0.918000  0.156200  1.0  0.0486
  H  H397  1  0.423200  0.901300  0.079300  1.0  0.0506
  H  H398  1  0.350800  0.010900  0.999700  1.0  0.0611
  H  H399  1  0.413000  0.000300  0.940200  1.0  0.0511
  H  H400  1  0.476100  0.953700  0.104200  1.0  0.0444
  H  H401  1  0.829000  0.501900  0.934800  1.0  0.0564
  H  H402  1  0.885200  0.442100  0.965100  1.0  0.0605
  H  H403  1  0.901100  0.477400  0.108200  1.0  0.0516
  H  H404  1  0.920500  0.418000  0.156200  1.0  0.0486
  H  H405  1  0.923200  0.401300  0.079300  1.0  0.0506
  H  H406  1  0.850800  0.510900  0.999700  1.0  0.0611
  H  H407  1  0.913000  0.500300  0.940200  1.0  0.0511
  H  H408  1  0.976100  0.453700  0.104200  1.0  0.0444
  H  H409  1  0.829000  0.001900  0.434800  1.0  0.0564
  H  H410  1  0.885200  0.942100  0.465100  1.0  0.0605
  H  H411  1  0.901100  0.977400  0.608200  1.0  0.0516
  H  H412  1  0.920500  0.918000  0.656200  1.0  0.0486
  H  H413  1  0.923200  0.901300  0.579300  1.0  0.0506
  H  H414  1  0.850800  0.010900  0.499700  1.0  0.0611
  H  H415  1  0.913000  0.000300  0.440200  1.0  0.0511
  H  H416  1  0.976100  0.953700  0.604200  1.0  0.0444
  H  H417  1  0.921000  0.248100  0.934800  1.0  0.0549
  H  H418  1  0.864800  0.307900  0.965100  1.0  0.0607
  H  H419  1  0.848900  0.272600  0.108200  1.0  0.052
  H  H420  1  0.829500  0.332000  0.156200  1.0  0.0488
  H  H421  1  0.826800  0.348700  0.079300  1.0  0.051
  H  H422  1  0.899200  0.239100  0.999700  1.0  0.0607
  H  H423  1  0.837000  0.249700  0.940200  1.0  0.0514
  H  H424  1  0.773900  0.296300  0.104200  1.0  0.045
  H  H425  1  0.921000  0.748100  0.434800  1.0  0.0549
  H  H426  1  0.864800  0.807900  0.465100  1.0  0.0607
  H  H427  1  0.848900  0.772600  0.608200  1.0  0.052
  H  H428  1  0.829500  0.832000  0.656200  1.0  0.0488
  H  H429  1  0.826800  0.848700  0.579300  1.0  0.051
  H  H430  1  0.899200  0.739100  0.499700  1.0  0.0607
  H  H431  1  0.837000  0.749700  0.440200  1.0  0.0514
  H  H432  1  0.773900  0.796300  0.604200  1.0  0.045
  H  H433  1  0.421000  0.248100  0.434800  1.0  0.0549
  H  H434  1  0.364800  0.307900  0.465100  1.0  0.0607
  H  H435  1  0.348900  0.272600  0.608200  1.0  0.052
  H  H436  1  0.329500  0.332000  0.656200  1.0  0.0488
  H  H437  1  0.326800  0.348700  0.579300  1.0  0.051
  H  H438  1  0.399200  0.239100  0.499700  1.0  0.0607
  H  H439  1  0.337000  0.249700  0.440200  1.0  0.0514
  H  H440  1  0.273900  0.296300  0.604200  1.0  0.045
  H  H441  1  0.421000  0.748100  0.934800  1.0  0.0549
  H  H442  1  0.364800  0.807900  0.965100  1.0  0.0607
  H  H443  1  0.348900  0.772600  0.108200  1.0  0.052
  H  H444  1  0.329500  0.832000  0.156200  1.0  0.0488
  H  H445  1  0.326800  0.848700  0.079300  1.0  0.051
  H  H446  1  0.399200  0.739100  0.999700  1.0  0.0607
  H  H447  1  0.337000  0.749700  0.940200  1.0  0.0514
  H  H448  1  0.273900  0.796300  0.104200  1.0  0.045
  H  H449  1  0.421000  0.001900  0.815200  1.0  0.055
  H  H450  1  0.364800  0.942100  0.784900  1.0  0.0609
  H  H451  1  0.348900  0.977400  0.641800  1.0  0.052
  H  H452  1  0.329500  0.918000  0.593800  1.0  0.0496
  H  H453  1  0.326800  0.901300  0.670700  1.0  0.0514
  H  H454  1  0.399200  0.010900  0.750300  1.0  0.0606
  H  H455  1  0.337000  0.000300  0.809800  1.0  0.0515
  H  H456  1  0.273900  0.953700  0.645800  1.0  0.0444
  H  H457  1  0.421000  0.501900  0.315200  1.0  0.055
  H  H458  1  0.364800  0.442100  0.284900  1.0  0.0609
  H  H459  1  0.348900  0.477400  0.141800  1.0  0.052
  H  H460  1  0.329500  0.418000  0.093800  1.0  0.0496
  H  H461  1  0.326800  0.401300  0.170700  1.0  0.0514
  H  H462  1  0.399200  0.510900  0.250300  1.0  0.0606
  H  H463  1  0.337000  0.500300  0.309800  1.0  0.0515
  H  H464  1  0.273900  0.453700  0.145800  1.0  0.0444
  H  H465  1  0.921000  0.001900  0.315200  1.0  0.055
  H  H466  1  0.864800  0.942100  0.284900  1.0  0.0609
  H  H467  1  0.848900  0.977400  0.141800  1.0  0.052
  H  H468  1  0.829500  0.918000  0.093800  1.0  0.0496
  H  H469  1  0.826800  0.901300  0.170700  1.0  0.0514
  H  H470  1  0.899200  0.010900  0.250300  1.0  0.0606
  H  H471  1  0.837000  0.000300  0.309800  1.0  0.0515
  H  H472  1  0.773900  0.953700  0.145800  1.0  0.0444
  H  H473  1  0.921000  0.501900  0.815200  1.0  0.055
  H  H474  1  0.864800  0.442100  0.784900  1.0  0.0609
  H  H475  1  0.848900  0.477400  0.641800  1.0  0.052
  H  H476  1  0.829500  0.418000  0.593800  1.0  0.0496
  H  H477  1  0.826800  0.401300  0.670700  1.0  0.0514
  H  H478  1  0.899200  0.510900  0.750300  1.0  0.0606
  H  H479  1  0.837000  0.500300  0.809800  1.0  0.0515
  H  H480  1  0.773900  0.453700  0.645800  1.0  0.0444
  H  H481  1  0.829000  0.748100  0.315200  1.0  0.0568
  H  H482  1  0.885200  0.807900  0.284900  1.0  0.0603
  H  H483  1  0.901100  0.772600  0.141800  1.0  0.0513
  H  H484  1  0.920500  0.832000  0.093800  1.0  0.0494
  H  H485  1  0.923200  0.848700  0.170700  1.0  0.0504
  H  H486  1  0.850800  0.739100  0.250300  1.0  0.061
  H  H487  1  0.913000  0.749700  0.309800  1.0  0.0511
  H  H488  1  0.976100  0.796300  0.145800  1.0  0.0441
  H  H489  1  0.829000  0.248100  0.815200  1.0  0.0568
  H  H490  1  0.885200  0.307900  0.784900  1.0  0.0603
  H  H491  1  0.901100  0.272600  0.641800  1.0  0.0513
  H  H492  1  0.920500  0.332000  0.593800  1.0  0.0494
  H  H493  1  0.923200  0.348700  0.670700  1.0  0.0504
  H  H494  1  0.850800  0.239100  0.750300  1.0  0.061
  H  H495  1  0.913000  0.249700  0.809800  1.0  0.0511
  H  H496  1  0.976100  0.296300  0.645800  1.0  0.0441
  H  H497  1  0.329000  0.748100  0.815200  1.0  0.0568
  H  H498  1  0.385200  0.807900  0.784900  1.0  0.0603
  H  H499  1  0.401100  0.772600  0.641800  1.0  0.0513
  H  H500  1  0.420500  0.832000  0.593800  1.0  0.0494
  H  H501  1  0.423200  0.848700  0.670700  1.0  0.0504
  H  H502  1  0.350800  0.739100  0.750300  1.0  0.061
  H  H503  1  0.413000  0.749700  0.809800  1.0  0.0511
  H  H504  1  0.476100  0.796300  0.645800  1.0  0.0441
  H  H505  1  0.329000  0.248100  0.315200  1.0  0.0568
  H  H506  1  0.385200  0.307900  0.284900  1.0  0.0603
  H  H507  1  0.401100  0.272600  0.141800  1.0  0.0513
  H  H508  1  0.420500  0.332000  0.093800  1.0  0.0494
  H  H509  1  0.423200  0.348700  0.170700  1.0  0.0504
  H  H510  1  0.350800  0.239100  0.250300  1.0  0.061
  H  H511  1  0.413000  0.249700  0.309800  1.0  0.0511
  H  H512  1  0.476100  0.296300  0.145800  1.0  0.0441
  H  H513  1  0.434800  0.329000  0.501900  1.0  0.0569
  H  H514  1  0.465100  0.385200  0.442100  1.0  0.0601
  H  H515  1  0.608200  0.401100  0.477400  1.0  0.05
  H  H516  1  0.656200  0.420500  0.418000  1.0  0.0496
  H  H517  1  0.579300  0.423200  0.401300  1.0  0.049
  H  H518  1  0.499700  0.350800  0.510900  1.0  0.06
  H  H519  1  0.440200  0.413000  0.500300  1.0  0.0517
  H  H520  1  0.604200  0.476100  0.453700  1.0  0.0457
  H  H521  1  0.434800  0.829000  0.001900  1.0  0.0569
  H  H522  1  0.465100  0.885200  0.942100  1.0  0.0601
  H  H523  1  0.608200  0.901100  0.977400  1.0  0.05
  H  H524  1  0.656200  0.920500  0.918000  1.0  0.0496
  H  H525  1  0.579300  0.923200  0.901300  1.0  0.049
  H  H526  1  0.499700  0.850800  0.010900  1.0  0.06
  H  H527  1  0.440200  0.913000  0.000300  1.0  0.0517
  H  H528  1  0.604200  0.976100  0.953700  1.0  0.0457
  H  H529  1  0.934800  0.329000  0.001900  1.0  0.0569
  H  H530  1  0.965100  0.385200  0.942100  1.0  0.0601
  H  H531  1  0.108200  0.401100  0.977400  1.0  0.05
  H  H532  1  0.156200  0.420500  0.918000  1.0  0.0496
  H  H533  1  0.079300  0.423200  0.901300  1.0  0.049
  H  H534  1  0.999700  0.350800  0.010900  1.0  0.06
  H  H535  1  0.940200  0.413000  0.000300  1.0  0.0517
  H  H536  1  0.104200  0.476100  0.953700  1.0  0.0457
  H  H537  1  0.934800  0.829000  0.501900  1.0  0.0569
  H  H538  1  0.965100  0.885200  0.442100  1.0  0.0601
  H  H539  1  0.108200  0.901100  0.477400  1.0  0.05
  H  H540  1  0.156200  0.920500  0.418000  1.0  0.0496
  H  H541  1  0.079300  0.923200  0.401300  1.0  0.049
  H  H542  1  0.999700  0.850800  0.510900  1.0  0.06
  H  H543  1  0.940200  0.913000  0.500300  1.0  0.0517
  H  H544  1  0.104200  0.976100  0.453700  1.0  0.0457
  H  H545  1  0.934800  0.921000  0.248100  1.0  0.0562
  H  H546  1  0.965100  0.864800  0.307900  1.0  0.0609
  H  H547  1  0.108200  0.848900  0.272600  1.0  0.0499
  H  H548  1  0.156200  0.829500  0.332000  1.0  0.0492
  H  H549  1  0.079300  0.826800  0.348700  1.0  0.0487
  H  H550  1  0.999700  0.899200  0.239100  1.0  0.0605
  H  H551  1  0.940200  0.837000  0.249700  1.0  0.0519
  H  H552  1  0.104200  0.773900  0.296300  1.0  0.0456
  H  H553  1  0.934800  0.421000  0.748100  1.0  0.0562
  H  H554  1  0.965100  0.364800  0.807900  1.0  0.0609
  H  H555  1  0.108200  0.348900  0.772600  1.0  0.0499
  H  H556  1  0.156200  0.329500  0.832000  1.0  0.0492
  H  H557  1  0.079300  0.326800  0.848700  1.0  0.0487
  H  H558  1  0.999700  0.399200  0.739100  1.0  0.0605
  H  H559  1  0.940200  0.337000  0.749700  1.0  0.0519
  H  H560  1  0.104200  0.273900  0.796300  1.0  0.0456
  H  H561  1  0.434800  0.921000  0.748100  1.0  0.0562
  H  H562  1  0.465100  0.864800  0.807900  1.0  0.0609
  H  H563  1  0.608200  0.848900  0.772600  1.0  0.0499
  H  H564  1  0.656200  0.829500  0.832000  1.0  0.0492
  H  H565  1  0.579300  0.826800  0.848700  1.0  0.0487
  H  H566  1  0.499700  0.899200  0.739100  1.0  0.0605
  H  H567  1  0.440200  0.837000  0.749700  1.0  0.0519
  H  H568  1  0.604200  0.773900  0.796300  1.0  0.0456
  H  H569  1  0.434800  0.421000  0.248100  1.0  0.0562
  H  H570  1  0.465100  0.364800  0.307900  1.0  0.0609
  H  H571  1  0.608200  0.348900  0.272600  1.0  0.0499
  H  H572  1  0.656200  0.329500  0.332000  1.0  0.0492
  H  H573  1  0.579300  0.326800  0.348700  1.0  0.0487
  H  H574  1  0.499700  0.399200  0.239100  1.0  0.0605
  H  H575  1  0.440200  0.337000  0.249700  1.0  0.0519
  H  H576  1  0.604200  0.273900  0.296300  1.0  0.0456
  H  H577  1  0.815200  0.421000  0.001900  1.0  0.056
  H  H578  1  0.784900  0.364800  0.942100  1.0  0.0607
  H  H579  1  0.641800  0.348900  0.977400  1.0  0.0509
  H  H580  1  0.593800  0.329500  0.918000  1.0  0.0497
  H  H581  1  0.670700  0.326800  0.901300  1.0  0.05
  H  H582  1  0.750300  0.399200  0.010900  1.0  0.0605
  H  H583  1  0.809800  0.337000  0.000300  1.0  0.052
  H  H584  1  0.645800  0.273900  0.953700  1.0  0.0462
  H  H585  1  0.815200  0.921000  0.501900  1.0  0.056
  H  H586  1  0.784900  0.864800  0.442100  1.0  0.0607
  H  H587  1  0.641800  0.848900  0.477400  1.0  0.0509
  H  H588  1  0.593800  0.829500  0.418000  1.0  0.0497
  H  H589  1  0.670700  0.826800  0.401300  1.0  0.05
  H  H590  1  0.750300  0.899200  0.510900  1.0  0.0605
  H  H591  1  0.809800  0.837000  0.500300  1.0  0.052
  H  H592  1  0.645800  0.773900  0.453700  1.0  0.0462
  H  H593  1  0.315200  0.421000  0.501900  1.0  0.056
  H  H594  1  0.284900  0.364800  0.442100  1.0  0.0607
  H  H595  1  0.141800  0.348900  0.477400  1.0  0.0509
  H  H596  1  0.093800  0.329500  0.418000  1.0  0.0497
  H  H597  1  0.170700  0.326800  0.401300  1.0  0.05
  H  H598  1  0.250300  0.399200  0.510900  1.0  0.0605
  H  H599  1  0.309800  0.337000  0.500300  1.0  0.052
  H  H600  1  0.145800  0.273900  0.453700  1.0  0.0462
  H  H601  1  0.315200  0.921000  0.001900  1.0  0.056
  H  H602  1  0.284900  0.864800  0.942100  1.0  0.0607
  H  H603  1  0.141800  0.848900  0.977400  1.0  0.0509
  H  H604  1  0.093800  0.829500  0.918000  1.0  0.0497
  H  H605  1  0.170700  0.826800  0.901300  1.0  0.05
  H  H606  1  0.250300  0.899200  0.010900  1.0  0.0605
  H  H607  1  0.309800  0.837000  0.000300  1.0  0.052
  H  H608  1  0.145800  0.773900  0.953700  1.0  0.0462
  H  H609  1  0.315200  0.829000  0.748100  1.0  0.0572
  H  H610  1  0.284900  0.885200  0.807900  1.0  0.0606
  H  H611  1  0.141800  0.901100  0.772600  1.0  0.0507
  H  H612  1  0.093800  0.920500  0.832000  1.0  0.0491
  H  H613  1  0.170700  0.923200  0.848700  1.0  0.0485
  H  H614  1  0.250300  0.850800  0.739100  1.0  0.0605
  H  H615  1  0.309800  0.913000  0.749700  1.0  0.0517
  H  H616  1  0.145800  0.976100  0.796300  1.0  0.0458
  H  H617  1  0.315200  0.329000  0.248100  1.0  0.0572
  H  H618  1  0.284900  0.385200  0.307900  1.0  0.0606
  H  H619  1  0.141800  0.401100  0.272600  1.0  0.0507
  H  H620  1  0.093800  0.420500  0.332000  1.0  0.0491
  H  H621  1  0.170700  0.423200  0.348700  1.0  0.0485
  H  H622  1  0.250300  0.350800  0.239100  1.0  0.0605
  H  H623  1  0.309800  0.413000  0.249700  1.0  0.0517
  H  H624  1  0.145800  0.476100  0.296300  1.0  0.0458
  H  H625  1  0.815200  0.829000  0.248100  1.0  0.0572
  H  H626  1  0.784900  0.885200  0.307900  1.0  0.0606
  H  H627  1  0.641800  0.901100  0.272600  1.0  0.0507
  H  H628  1  0.593800  0.920500  0.332000  1.0  0.0491
  H  H629  1  0.670700  0.923200  0.348700  1.0  0.0485
  H  H630  1  0.750300  0.850800  0.239100  1.0  0.0605
  H  H631  1  0.809800  0.913000  0.249700  1.0  0.0517
  H  H632  1  0.645800  0.976100  0.296300  1.0  0.0458
  H  H633  1  0.815200  0.329000  0.748100  1.0  0.0572
  H  H634  1  0.784900  0.385200  0.807900  1.0  0.0606
  H  H635  1  0.641800  0.401100  0.772600  1.0  0.0507
  H  H636  1  0.593800  0.420500  0.832000  1.0  0.0491
  H  H637  1  0.670700  0.423200  0.848700  1.0  0.0485
  H  H638  1  0.750300  0.350800  0.739100  1.0  0.0605
  H  H639  1  0.809800  0.413000  0.749700  1.0  0.0517
  H  H640  1  0.645800  0.476100  0.796300  1.0  0.0458
  H  H641  1  0.501900  0.434800  0.329000  1.0  0.0551
  H  H642  1  0.442100  0.465100  0.385200  1.0  0.0606
  H  H643  1  0.477400  0.608200  0.401100  1.0  0.0503
  H  H644  1  0.418000  0.656200  0.420500  1.0  0.0491
  H  H645  1  0.401300  0.579300  0.423200  1.0  0.0517
  H  H646  1  0.510900  0.499700  0.350800  1.0  0.0609
  H  H647  1  0.500300  0.440200  0.413000  1.0  0.0496
  H  H648  1  0.453700  0.604200  0.476100  1.0  0.0463
  H  H649  1  0.501900  0.934800  0.829000  1.0  0.0551
  H  H650  1  0.442100  0.965100  0.885200  1.0  0.0606
  H  H651  1  0.477400  0.108200  0.901100  1.0  0.0503
  H  H652  1  0.418000  0.156200  0.920500  1.0  0.0491
  H  H653  1  0.401300  0.079300  0.923200  1.0  0.0517
  H  H654  1  0.510900  0.999700  0.850800  1.0  0.0609
  H  H655  1  0.500300  0.940200  0.913000  1.0  0.0496
  H  H656  1  0.453700  0.104200  0.976100  1.0  0.0463
  H  H657  1  0.001900  0.434800  0.829000  1.0  0.0551
  H  H658  1  0.942100  0.465100  0.885200  1.0  0.0606
  H  H659  1  0.977400  0.608200  0.901100  1.0  0.0503
  H  H660  1  0.918000  0.656200  0.920500  1.0  0.0491
  H  H661  1  0.901300  0.579300  0.923200  1.0  0.0517
  H  H662  1  0.010900  0.499700  0.850800  1.0  0.0609
  H  H663  1  0.000300  0.440200  0.913000  1.0  0.0496
  H  H664  1  0.953700  0.604200  0.976100  1.0  0.0463
  H  H665  1  0.001900  0.934800  0.329000  1.0  0.0551
  H  H666  1  0.942100  0.965100  0.385200  1.0  0.0606
  H  H667  1  0.977400  0.108200  0.401100  1.0  0.0503
  H  H668  1  0.918000  0.156200  0.420500  1.0  0.0491
  H  H669  1  0.901300  0.079300  0.423200  1.0  0.0517
  H  H670  1  0.010900  0.999700  0.350800  1.0  0.0609
  H  H671  1  0.000300  0.940200  0.413000  1.0  0.0496
  H  H672  1  0.953700  0.104200  0.476100  1.0  0.0463
  H  H673  1  0.248100  0.934800  0.921000  1.0  0.0542
  H  H674  1  0.307900  0.965100  0.864800  1.0  0.0602
  H  H675  1  0.272600  0.108200  0.848900  1.0  0.0506
  H  H676  1  0.332000  0.156200  0.829500  1.0  0.0486
  H  H677  1  0.348700  0.079300  0.826800  1.0  0.0515
  H  H678  1  0.239100  0.999700  0.899200  1.0  0.0617
  H  H679  1  0.249700  0.940200  0.837000  1.0  0.0493
  H  H680  1  0.296300  0.104200  0.773900  1.0  0.0465
  H  H681  1  0.248100  0.434800  0.421000  1.0  0.0542
  H  H682  1  0.307900  0.465100  0.364800  1.0  0.0602
  H  H683  1  0.272600  0.608200  0.348900  1.0  0.0506
  H  H684  1  0.332000  0.656200  0.329500  1.0  0.0486
  H  H685  1  0.348700  0.579300  0.326800  1.0  0.0515
  H  H686  1  0.239100  0.499700  0.399200  1.0  0.0617
  H  H687  1  0.249700  0.440200  0.337000  1.0  0.0493
  H  H688  1  0.296300  0.604200  0.273900  1.0  0.0465
  H  H689  1  0.748100  0.934800  0.421000  1.0  0.0542
  H  H690  1  0.807900  0.965100  0.364800  1.0  0.0602
  H  H691  1  0.772600  0.108200  0.348900  1.0  0.0506
  H  H692  1  0.832000  0.156200  0.329500  1.0  0.0486
  H  H693  1  0.848700  0.079300  0.326800  1.0  0.0515
  H  H694  1  0.739100  0.999700  0.399200  1.0  0.0617
  H  H695  1  0.749700  0.940200  0.337000  1.0  0.0493
  H  H696  1  0.796300  0.104200  0.273900  1.0  0.0465
  H  H697  1  0.748100  0.434800  0.921000  1.0  0.0542
  H  H698  1  0.807900  0.465100  0.864800  1.0  0.0602
  H  H699  1  0.772600  0.608200  0.848900  1.0  0.0506
  H  H700  1  0.832000  0.656200  0.829500  1.0  0.0486
  H  H701  1  0.848700  0.579300  0.826800  1.0  0.0515
  H  H702  1  0.739100  0.499700  0.899200  1.0  0.0617
  H  H703  1  0.749700  0.440200  0.837000  1.0  0.0493
  H  H704  1  0.796300  0.604200  0.773900  1.0  0.0465
  H  H705  1  0.001900  0.815200  0.421000  1.0  0.0547
  H  H706  1  0.942100  0.784900  0.364800  1.0  0.0604
  H  H707  1  0.977400  0.641800  0.348900  1.0  0.0502
  H  H708  1  0.918000  0.593800  0.329500  1.0  0.0489
  H  H709  1  0.901300  0.670700  0.326800  1.0  0.0515
  H  H710  1  0.010900  0.750300  0.399200  1.0  0.0612
  H  H711  1  0.000300  0.809800  0.337000  1.0  0.0495
  H  H712  1  0.953700  0.645800  0.273900  1.0  0.0458
  H  H713  1  0.001900  0.315200  0.921000  1.0  0.0547
  H  H714  1  0.942100  0.284900  0.864800  1.0  0.0604
  H  H715  1  0.977400  0.141800  0.848900  1.0  0.0502
  H  H716  1  0.918000  0.093800  0.829500  1.0  0.0489
  H  H717  1  0.901300  0.170700  0.826800  1.0  0.0515
  H  H718  1  0.010900  0.250300  0.899200  1.0  0.0612
  H  H719  1  0.000300  0.309800  0.837000  1.0  0.0495
  H  H720  1  0.953700  0.145800  0.773900  1.0  0.0458
  H  H721  1  0.501900  0.815200  0.921000  1.0  0.0547
  H  H722  1  0.442100  0.784900  0.864800  1.0  0.0604
  H  H723  1  0.477400  0.641800  0.848900  1.0  0.0502
  H  H724  1  0.418000  0.593800  0.829500  1.0  0.0489
  H  H725  1  0.401300  0.670700  0.826800  1.0  0.0515
  H  H726  1  0.510900  0.750300  0.899200  1.0  0.0612
  H  H727  1  0.500300  0.809800  0.837000  1.0  0.0495
  H  H728  1  0.453700  0.645800  0.773900  1.0  0.0458
  H  H729  1  0.501900  0.315200  0.421000  1.0  0.0547
  H  H730  1  0.442100  0.284900  0.364800  1.0  0.0604
  H  H731  1  0.477400  0.141800  0.348900  1.0  0.0502
  H  H732  1  0.418000  0.093800  0.329500  1.0  0.0489
  H  H733  1  0.401300  0.170700  0.326800  1.0  0.0515
  H  H734  1  0.510900  0.250300  0.399200  1.0  0.0612
  H  H735  1  0.500300  0.309800  0.337000  1.0  0.0495
  H  H736  1  0.453700  0.145800  0.273900  1.0  0.0458
  H  H737  1  0.748100  0.315200  0.829000  1.0  0.055
  H  H738  1  0.807900  0.284900  0.885200  1.0  0.0602
  H  H739  1  0.772600  0.141800  0.901100  1.0  0.0512
  H  H740  1  0.832000  0.093800  0.920500  1.0  0.0494
  H  H741  1  0.848700  0.170700  0.923200  1.0  0.0517
  H  H742  1  0.739100  0.250300  0.850800  1.0  0.0616
  H  H743  1  0.749700  0.309800  0.913000  1.0  0.0494
  H  H744  1  0.796300  0.145800  0.976100  1.0  0.0469
  H  H745  1  0.748100  0.815200  0.329000  1.0  0.055
  H  H746  1  0.807900  0.784900  0.385200  1.0  0.0602
  H  H747  1  0.772600  0.641800  0.401100  1.0  0.0512
  H  H748  1  0.832000  0.593800  0.420500  1.0  0.0494
  H  H749  1  0.848700  0.670700  0.423200  1.0  0.0517
  H  H750  1  0.739100  0.750300  0.350800  1.0  0.0616
  H  H751  1  0.749700  0.809800  0.413000  1.0  0.0494
  H  H752  1  0.796300  0.645800  0.476100  1.0  0.0469
  H  H753  1  0.248100  0.315200  0.329000  1.0  0.055
  H  H754  1  0.307900  0.284900  0.385200  1.0  0.0602
  H  H755  1  0.272600  0.141800  0.401100  1.0  0.0512
  H  H756  1  0.332000  0.093800  0.420500  1.0  0.0494
  H  H757  1  0.348700  0.170700  0.423200  1.0  0.0517
  H  H758  1  0.239100  0.250300  0.350800  1.0  0.0616
  H  H759  1  0.249700  0.309800  0.413000  1.0  0.0494
  H  H760  1  0.296300  0.145800  0.476100  1.0  0.0469
  H  H761  1  0.248100  0.815200  0.829000  1.0  0.055
  H  H762  1  0.307900  0.784900  0.885200  1.0  0.0602
  H  H763  1  0.272600  0.641800  0.901100  1.0  0.0512
  H  H764  1  0.332000  0.593800  0.920500  1.0  0.0494
  H  H765  1  0.348700  0.670700  0.923200  1.0  0.0517
  H  H766  1  0.239100  0.750300  0.850800  1.0  0.0616
  H  H767  1  0.249700  0.809800  0.913000  1.0  0.0494
  H  H768  1  0.296300  0.645800  0.976100  1.0  0.0469
  H  H769  1  0.251900  0.579000  0.565200  1.0  0.0574
  H  H770  1  0.192100  0.635200  0.534900  1.0  0.06
  H  H771  1  0.227400  0.651100  0.391800  1.0  0.0502
  H  H772  1  0.168000  0.670500  0.343800  1.0  0.0492
  H  H773  1  0.151300  0.673200  0.420700  1.0  0.051
  H  H774  1  0.260900  0.600800  0.500300  1.0  0.0606
  H  H775  1  0.250300  0.663000  0.559800  1.0  0.0521
  H  H776  1  0.203700  0.726100  0.395800  1.0  0.044
  H  H777  1  0.251900  0.079000  0.065200  1.0  0.0574
  H  H778  1  0.192100  0.135200  0.034900  1.0  0.06
  H  H779  1  0.227400  0.151100  0.891800  1.0  0.0502
  H  H780  1  0.168000  0.170500  0.843800  1.0  0.0492
  H  H781  1  0.151300  0.173200  0.920700  1.0  0.051
  H  H782  1  0.260900  0.100800  0.000300  1.0  0.0606
  H  H783  1  0.250300  0.163000  0.059800  1.0  0.0521
  H  H784  1  0.203700  0.226100  0.895800  1.0  0.044
  H  H785  1  0.751900  0.579000  0.065200  1.0  0.0574
  H  H786  1  0.692100  0.635200  0.034900  1.0  0.06
  H  H787  1  0.727400  0.651100  0.891800  1.0  0.0502
  H  H788  1  0.668000  0.670500  0.843800  1.0  0.0492
  H  H789  1  0.651300  0.673200  0.920700  1.0  0.051
  H  H790  1  0.760900  0.600800  0.000300  1.0  0.0606
  H  H791  1  0.750300  0.663000  0.059800  1.0  0.0521
  H  H792  1  0.703700  0.726100  0.895800  1.0  0.044
  H  H793  1  0.751900  0.079000  0.565200  1.0  0.0574
  H  H794  1  0.692100  0.135200  0.534900  1.0  0.06
  H  H795  1  0.727400  0.151100  0.391800  1.0  0.0502
  H  H796  1  0.668000  0.170500  0.343800  1.0  0.0492
  H  H797  1  0.651300  0.173200  0.420700  1.0  0.051
  H  H798  1  0.760900  0.100800  0.500300  1.0  0.0606
  H  H799  1  0.750300  0.163000  0.559800  1.0  0.0521
  H  H800  1  0.703700  0.226100  0.395800  1.0  0.044
  H  H801  1  0.998100  0.171000  0.065200  1.0  0.0569
  H  H802  1  0.057900  0.114800  0.034900  1.0  0.0597
  H  H803  1  0.022600  0.098900  0.891800  1.0  0.0504
  H  H804  1  0.082000  0.079500  0.843800  1.0  0.0491
  H  H805  1  0.098700  0.076800  0.920700  1.0  0.0513
  H  H806  1  0.989100  0.149200  0.000300  1.0  0.0612
  H  H807  1  0.999700  0.087000  0.059800  1.0  0.0524
  H  H808  1  0.046300  0.023900  0.895800  1.0  0.0452
  H  H809  1  0.998100  0.671000  0.565200  1.0  0.0569
  H  H810  1  0.057900  0.614800  0.534900  1.0  0.0597
  H  H811  1  0.022600  0.598900  0.391800  1.0  0.0504
  H  H812  1  0.082000  0.579500  0.343800  1.0  0.0491
  H  H813  1  0.098700  0.576800  0.420700  1.0  0.0513
  H  H814  1  0.989100  0.649200  0.500300  1.0  0.0612
  H  H815  1  0.999700  0.587000  0.559800  1.0  0.0524
  H  H816  1  0.046300  0.523900  0.395800  1.0  0.0452
  H  H817  1  0.498100  0.171000  0.565200  1.0  0.0569
  H  H818  1  0.557900  0.114800  0.534900  1.0  0.0597
  H  H819  1  0.522600  0.098900  0.391800  1.0  0.0504
  H  H820  1  0.582000  0.079500  0.343800  1.0  0.0491
  H  H821  1  0.598700  0.076800  0.420700  1.0  0.0513
  H  H822  1  0.489100  0.149200  0.500300  1.0  0.0612
  H  H823  1  0.499700  0.087000  0.559800  1.0  0.0524
  H  H824  1  0.546300  0.023900  0.395800  1.0  0.0452
  H  H825  1  0.498100  0.671000  0.065200  1.0  0.0569
  H  H826  1  0.557900  0.614800  0.034900  1.0  0.0597
  H  H827  1  0.522600  0.598900  0.891800  1.0  0.0504
  H  H828  1  0.582000  0.579500  0.843800  1.0  0.0491
  H  H829  1  0.598700  0.576800  0.920700  1.0  0.0513
  H  H830  1  0.489100  0.649200  0.000300  1.0  0.0612
  H  H831  1  0.499700  0.587000  0.059800  1.0  0.0524
  H  H832  1  0.546300  0.523900  0.895800  1.0  0.0452
  H  H833  1  0.751900  0.671000  0.184800  1.0  0.0568
  H  H834  1  0.692100  0.614800  0.215100  1.0  0.0599
  H  H835  1  0.727400  0.598900  0.358200  1.0  0.05
  H  H836  1  0.668000  0.579500  0.406200  1.0  0.0484
  H  H837  1  0.651300  0.576800  0.329300  1.0  0.0512
  H  H838  1  0.760900  0.649200  0.249700  1.0  0.0609
  H  H839  1  0.750300  0.587000  0.190200  1.0  0.0529
  H  H840  1  0.703700  0.523900  0.354200  1.0  0.0448
  H  H841  1  0.751900  0.171000  0.684800  1.0  0.0568
  H  H842  1  0.692100  0.114800  0.715100  1.0  0.0599
  H  H843  1  0.727400  0.098900  0.858200  1.0  0.05
  H  H844  1  0.668000  0.079500  0.906200  1.0  0.0484
  H  H845  1  0.651300  0.076800  0.829300  1.0  0.0512
  H  H846  1  0.760900  0.149200  0.749700  1.0  0.0609
  H  H847  1  0.750300  0.087000  0.690200  1.0  0.0529
  H  H848  1  0.703700  0.023900  0.854200  1.0  0.0448
  H  H849  1  0.251900  0.671000  0.684800  1.0  0.0568
  H  H850  1  0.192100  0.614800  0.715100  1.0  0.0599
  H  H851  1  0.227400  0.598900  0.858200  1.0  0.05
  H  H852  1  0.168000  0.579500  0.906200  1.0  0.0484
  H  H853  1  0.151300  0.576800  0.829300  1.0  0.0512
  H  H854  1  0.260900  0.649200  0.749700  1.0  0.0609
  H  H855  1  0.250300  0.587000  0.690200  1.0  0.0529
  H  H856  1  0.203700  0.523900  0.854200  1.0  0.0448
  H  H857  1  0.251900  0.171000  0.184800  1.0  0.0568
  H  H858  1  0.192100  0.114800  0.215100  1.0  0.0599
  H  H859  1  0.227400  0.098900  0.358200  1.0  0.05
  H  H860  1  0.168000  0.079500  0.406200  1.0  0.0484
  H  H861  1  0.151300  0.076800  0.329300  1.0  0.0512
  H  H862  1  0.260900  0.149200  0.249700  1.0  0.0609
  H  H863  1  0.250300  0.087000  0.190200  1.0  0.0529
  H  H864  1  0.203700  0.023900  0.354200  1.0  0.0448
  H  H865  1  0.498100  0.079000  0.684800  1.0  0.0573
  H  H866  1  0.557900  0.135200  0.715100  1.0  0.0596
  H  H867  1  0.522600  0.151100  0.858200  1.0  0.0504
  H  H868  1  0.582000  0.170500  0.906200  1.0  0.0483
  H  H869  1  0.598700  0.173200  0.829300  1.0  0.0513
  H  H870  1  0.489100  0.100800  0.749700  1.0  0.0611
  H  H871  1  0.499700  0.163000  0.690200  1.0  0.052
  H  H872  1  0.546300  0.226100  0.854200  1.0  0.0453
  H  H873  1  0.498100  0.579000  0.184800  1.0  0.0573
  H  H874  1  0.557900  0.635200  0.215100  1.0  0.0596
  H  H875  1  0.522600  0.651100  0.358200  1.0  0.0504
  H  H876  1  0.582000  0.670500  0.406200  1.0  0.0483
  H  H877  1  0.598700  0.673200  0.329300  1.0  0.0513
  H  H878  1  0.489100  0.600800  0.249700  1.0  0.0611
  H  H879  1  0.499700  0.663000  0.190200  1.0  0.052
  H  H880  1  0.546300  0.726100  0.354200  1.0  0.0453
  H  H881  1  0.998100  0.079000  0.184800  1.0  0.0573
  H  H882  1  0.057900  0.135200  0.215100  1.0  0.0596
  H  H883  1  0.022600  0.151100  0.358200  1.0  0.0504
  H  H884  1  0.082000  0.170500  0.406200  1.0  0.0483
  H  H885  1  0.098700  0.173200  0.329300  1.0  0.0513
  H  H886  1  0.989100  0.100800  0.249700  1.0  0.0611
  H  H887  1  0.999700  0.163000  0.190200  1.0  0.052
  H  H888  1  0.046300  0.226100  0.354200  1.0  0.0453
  H  H889  1  0.998100  0.579000  0.684800  1.0  0.0573
  H  H890  1  0.057900  0.635200  0.715100  1.0  0.0596
  H  H891  1  0.022600  0.651100  0.858200  1.0  0.0504
  H  H892  1  0.082000  0.670500  0.906200  1.0  0.0483
  H  H893  1  0.098700  0.673200  0.829300  1.0  0.0513
  H  H894  1  0.989100  0.600800  0.749700  1.0  0.0611
  H  H895  1  0.999700  0.663000  0.690200  1.0  0.052
  H  H896  1  0.046300  0.726100  0.854200  1.0  0.0453
  H  H897  1  0.079000  0.684800  0.498100  1.0  0.0557
  H  H898  1  0.135200  0.715100  0.557900  1.0  0.0614
  H  H899  1  0.151100  0.858200  0.522600  1.0  0.0499
  H  H900  1  0.170500  0.906200  0.582000  1.0  0.0487
  H  H901  1  0.173200  0.829300  0.598700  1.0  0.0486
  H  H902  1  0.100800  0.749700  0.489100  1.0  0.0608
  H  H903  1  0.163000  0.690200  0.499700  1.0  0.0505
  H  H904  1  0.226100  0.854200  0.546300  1.0  0.0465
  H  H905  1  0.079000  0.184800  0.998100  1.0  0.0557
  H  H906  1  0.135200  0.215100  0.057900  1.0  0.0614
  H  H907  1  0.151100  0.358200  0.022600  1.0  0.0499
  H  H908  1  0.170500  0.406200  0.082000  1.0  0.0487
  H  H909  1  0.173200  0.329300  0.098700  1.0  0.0486
  H  H910  1  0.100800  0.249700  0.989100  1.0  0.0608
  H  H911  1  0.163000  0.190200  0.999700  1.0  0.0505
  H  H912  1  0.226100  0.354200  0.046300  1.0  0.0465
  H  H913  1  0.579000  0.684800  0.998100  1.0  0.0557
  H  H914  1  0.635200  0.715100  0.057900  1.0  0.0614
  H  H915  1  0.651100  0.858200  0.022600  1.0  0.0499
  H  H916  1  0.670500  0.906200  0.082000  1.0  0.0487
  H  H917  1  0.673200  0.829300  0.098700  1.0  0.0486
  H  H918  1  0.600800  0.749700  0.989100  1.0  0.0608
  H  H919  1  0.663000  0.690200  0.999700  1.0  0.0505
  H  H920  1  0.726100  0.854200  0.046300  1.0  0.0465
  H  H921  1  0.579000  0.184800  0.498100  1.0  0.0557
  H  H922  1  0.635200  0.215100  0.557900  1.0  0.0614
  H  H923  1  0.651100  0.358200  0.522600  1.0  0.0499
  H  H924  1  0.670500  0.406200  0.582000  1.0  0.0487
  H  H925  1  0.673200  0.329300  0.598700  1.0  0.0486
  H  H926  1  0.600800  0.249700  0.489100  1.0  0.0608
  H  H927  1  0.663000  0.190200  0.499700  1.0  0.0505
  H  H928  1  0.726100  0.354200  0.546300  1.0  0.0465
  H  H929  1  0.671000  0.184800  0.751900  1.0  0.0544
  H  H930  1  0.614800  0.215100  0.692100  1.0  0.0613
  H  H931  1  0.598900  0.358200  0.727400  1.0  0.0506
  H  H932  1  0.579500  0.406200  0.668000  1.0  0.0504
  H  H933  1  0.576800  0.329300  0.651300  1.0  0.0501
  H  H934  1  0.649200  0.249700  0.760900  1.0  0.0601
  H  H935  1  0.587000  0.190200  0.750300  1.0  0.0506
  H  H936  1  0.523900  0.354200  0.703700  1.0  0.0477
  H  H937  1  0.671000  0.684800  0.251900  1.0  0.0544
  H  H938  1  0.614800  0.715100  0.192100  1.0  0.0613
  H  H939  1  0.598900  0.858200  0.227400  1.0  0.0506
  H  H940  1  0.579500  0.906200  0.168000  1.0  0.0504
  H  H941  1  0.576800  0.829300  0.151300  1.0  0.0501
  H  H942  1  0.649200  0.749700  0.260900  1.0  0.0601
  H  H943  1  0.587000  0.690200  0.250300  1.0  0.0506
  H  H944  1  0.523900  0.854200  0.203700  1.0  0.0477
  H  H945  1  0.171000  0.184800  0.251900  1.0  0.0544
  H  H946  1  0.114800  0.215100  0.192100  1.0  0.0613
  H  H947  1  0.098900  0.358200  0.227400  1.0  0.0506
  H  H948  1  0.079500  0.406200  0.168000  1.0  0.0504
  H  H949  1  0.076800  0.329300  0.151300  1.0  0.0501
  H  H950  1  0.149200  0.249700  0.260900  1.0  0.0601
  H  H951  1  0.087000  0.190200  0.250300  1.0  0.0506
  H  H952  1  0.023900  0.354200  0.203700  1.0  0.0477
  H  H953  1  0.171000  0.684800  0.751900  1.0  0.0544
  H  H954  1  0.114800  0.715100  0.692100  1.0  0.0613
  H  H955  1  0.098900  0.858200  0.727400  1.0  0.0506
  H  H956  1  0.079500  0.906200  0.668000  1.0  0.0504
  H  H957  1  0.076800  0.829300  0.651300  1.0  0.0501
  H  H958  1  0.149200  0.749700  0.760900  1.0  0.0601
  H  H959  1  0.087000  0.690200  0.750300  1.0  0.0506
  H  H960  1  0.023900  0.854200  0.703700  1.0  0.0477
  H  H961  1  0.171000  0.065200  0.998100  1.0  0.0544
  H  H962  1  0.114800  0.034900  0.057900  1.0  0.0614
  H  H963  1  0.098900  0.891800  0.022600  1.0  0.0504
  H  H964  1  0.079500  0.843800  0.082000  1.0  0.0493
  H  H965  1  0.076800  0.920700  0.098700  1.0  0.0494
  H  H966  1  0.149200  0.000300  0.989100  1.0  0.0609
  H  H967  1  0.087000  0.059800  0.999700  1.0  0.0512
  H  H968  1  0.023900  0.895800  0.046300  1.0  0.0475
  H  H969  1  0.171000  0.565200  0.498100  1.0  0.0544
  H  H970  1  0.114800  0.534900  0.557900  1.0  0.0614
  H  H971  1  0.098900  0.391800  0.522600  1.0  0.0504
  H  H972  1  0.079500  0.343800  0.582000  1.0  0.0493
  H  H973  1  0.076800  0.420700  0.598700  1.0  0.0494
  H  H974  1  0.149200  0.500300  0.489100  1.0  0.0609
  H  H975  1  0.087000  0.559800  0.499700  1.0  0.0512
  H  H976  1  0.023900  0.395800  0.546300  1.0  0.0475
  H  H977  1  0.671000  0.065200  0.498100  1.0  0.0544
  H  H978  1  0.614800  0.034900  0.557900  1.0  0.0614
  H  H979  1  0.598900  0.891800  0.522600  1.0  0.0504
  H  H980  1  0.579500  0.843800  0.582000  1.0  0.0493
  H  H981  1  0.576800  0.920700  0.598700  1.0  0.0494
  H  H982  1  0.649200  0.000300  0.489100  1.0  0.0609
  H  H983  1  0.587000  0.059800  0.499700  1.0  0.0512
  H  H984  1  0.523900  0.895800  0.546300  1.0  0.0475
  H  H985  1  0.671000  0.565200  0.998100  1.0  0.0544
  H  H986  1  0.614800  0.534900  0.057900  1.0  0.0614
  H  H987  1  0.598900  0.391800  0.022600  1.0  0.0504
  H  H988  1  0.579500  0.343800  0.082000  1.0  0.0493
  H  H989  1  0.576800  0.420700  0.098700  1.0  0.0494
  H  H990  1  0.649200  0.500300  0.989100  1.0  0.0609
  H  H991  1  0.587000  0.559800  0.999700  1.0  0.0512
  H  H992  1  0.523900  0.395800  0.046300  1.0  0.0475
  H  H993  1  0.579000  0.565200  0.251900  1.0  0.0556
  H  H994  1  0.635200  0.534900  0.192100  1.0  0.0611
  H  H995  1  0.651100  0.391800  0.227400  1.0  0.0503
  H  H996  1  0.670500  0.343800  0.168000  1.0  0.05
  H  H997  1  0.673200  0.420700  0.151300  1.0  0.0496
  H  H998  1  0.600800  0.500300  0.260900  1.0  0.0609
  H  H999  1  0.663000  0.559800  0.250300  1.0  0.0505
  H  H1000  1  0.726100  0.395800  0.203700  1.0  0.0468
  H  H1001  1  0.579000  0.065200  0.751900  1.0  0.0556
  H  H1002  1  0.635200  0.034900  0.692100  1.0  0.0611
  H  H1003  1  0.651100  0.891800  0.727400  1.0  0.0503
  H  H1004  1  0.670500  0.843800  0.668000  1.0  0.05
  H  H1005  1  0.673200  0.920700  0.651300  1.0  0.0496
  H  H1006  1  0.600800  0.000300  0.760900  1.0  0.0609
  H  H1007  1  0.663000  0.059800  0.750300  1.0  0.0505
  H  H1008  1  0.726100  0.895800  0.703700  1.0  0.0468
  H  H1009  1  0.079000  0.565200  0.751900  1.0  0.0556
  H  H1010  1  0.135200  0.534900  0.692100  1.0  0.0611
  H  H1011  1  0.151100  0.391800  0.727400  1.0  0.0503
  H  H1012  1  0.170500  0.343800  0.668000  1.0  0.05
  H  H1013  1  0.173200  0.420700  0.651300  1.0  0.0496
  H  H1014  1  0.100800  0.500300  0.760900  1.0  0.0609
  H  H1015  1  0.163000  0.559800  0.750300  1.0  0.0505
  H  H1016  1  0.226100  0.395800  0.703700  1.0  0.0468
  H  H1017  1  0.079000  0.065200  0.251900  1.0  0.0556
  H  H1018  1  0.135200  0.034900  0.192100  1.0  0.0611
  H  H1019  1  0.151100  0.891800  0.227400  1.0  0.0503
  H  H1020  1  0.170500  0.843800  0.168000  1.0  0.05
  H  H1021  1  0.173200  0.920700  0.151300  1.0  0.0496
  H  H1022  1  0.100800  0.000300  0.260900  1.0  0.0609
  H  H1023  1  0.163000  0.059800  0.250300  1.0  0.0505
  H  H1024  1  0.226100  0.895800  0.203700  1.0  0.0468
  H  H1025  1  0.184800  0.751900  0.671000  1.0  0.0549
  H  H1026  1  0.215100  0.692100  0.614800  1.0  0.0598
  H  H1027  1  0.358200  0.727400  0.598900  1.0  0.0515
  H  H1028  1  0.406200  0.668000  0.579500  1.0  0.0486
  H  H1029  1  0.329300  0.651300  0.576800  1.0  0.0509
  H  H1030  1  0.249700  0.760900  0.649200  1.0  0.0611
  H  H1031  1  0.190200  0.750300  0.587000  1.0  0.0497
  H  H1032  1  0.354200  0.703700  0.523900  1.0  0.0448
  H  H1033  1  0.184800  0.251900  0.171000  1.0  0.0549
  H  H1034  1  0.215100  0.192100  0.114800  1.0  0.0598
  H  H1035  1  0.358200  0.227400  0.098900  1.0  0.0515
  H  H1036  1  0.406200  0.168000  0.079500  1.0  0.0486
  H  H1037  1  0.329300  0.151300  0.076800  1.0  0.0509
  H  H1038  1  0.249700  0.260900  0.149200  1.0  0.0611
  H  H1039  1  0.190200  0.250300  0.087000  1.0  0.0497
  H  H1040  1  0.354200  0.203700  0.023900  1.0  0.0448
  H  H1041  1  0.684800  0.751900  0.171000  1.0  0.0549
  H  H1042  1  0.715100  0.692100  0.114800  1.0  0.0598
  H  H1043  1  0.858200  0.727400  0.098900  1.0  0.0515
  H  H1044  1  0.906200  0.668000  0.079500  1.0  0.0486
  H  H1045  1  0.829300  0.651300  0.076800  1.0  0.0509
  H  H1046  1  0.749700  0.760900  0.149200  1.0  0.0611
  H  H1047  1  0.690200  0.750300  0.087000  1.0  0.0497
  H  H1048  1  0.854200  0.703700  0.023900  1.0  0.0448
  H  H1049  1  0.684800  0.251900  0.671000  1.0  0.0549
  H  H1050  1  0.715100  0.192100  0.614800  1.0  0.0598
  H  H1051  1  0.858200  0.227400  0.598900  1.0  0.0515
  H  H1052  1  0.906200  0.168000  0.579500  1.0  0.0486
  H  H1053  1  0.829300  0.151300  0.576800  1.0  0.0509
  H  H1054  1  0.749700  0.260900  0.649200  1.0  0.0611
  H  H1055  1  0.690200  0.250300  0.587000  1.0  0.0497
  H  H1056  1  0.854200  0.203700  0.523900  1.0  0.0448
  H  H1057  1  0.684800  0.498100  0.079000  1.0  0.0551
  H  H1058  1  0.715100  0.557900  0.135200  1.0  0.0608
  H  H1059  1  0.858200  0.522600  0.151100  1.0  0.0517
  H  H1060  1  0.906200  0.582000  0.170500  1.0  0.0496
  H  H1061  1  0.829300  0.598700  0.173200  1.0  0.0509
  H  H1062  1  0.749700  0.489100  0.100800  1.0  0.0609
  H  H1063  1  0.690200  0.499700  0.163000  1.0  0.0494
  H  H1064  1  0.854200  0.546300  0.226100  1.0  0.0451
  H  H1065  1  0.684800  0.998100  0.579000  1.0  0.0551
  H  H1066  1  0.715100  0.057900  0.635200  1.0  0.0608
  H  H1067  1  0.858200  0.022600  0.651100  1.0  0.0517
  H  H1068  1  0.906200  0.082000  0.670500  1.0  0.0496
  H  H1069  1  0.829300  0.098700  0.673200  1.0  0.0509
  H  H1070  1  0.749700  0.989100  0.600800  1.0  0.0609
  H  H1071  1  0.690200  0.999700  0.663000  1.0  0.0494
  H  H1072  1  0.854200  0.046300  0.726100  1.0  0.0451
  H  H1073  1  0.184800  0.498100  0.579000  1.0  0.0551
  H  H1074  1  0.215100  0.557900  0.635200  1.0  0.0608
  H  H1075  1  0.358200  0.522600  0.651100  1.0  0.0517
  H  H1076  1  0.406200  0.582000  0.670500  1.0  0.0496
  H  H1077  1  0.329300  0.598700  0.673200  1.0  0.0509
  H  H1078  1  0.249700  0.489100  0.600800  1.0  0.0609
  H  H1079  1  0.190200  0.499700  0.663000  1.0  0.0494
  H  H1080  1  0.354200  0.546300  0.726100  1.0  0.0451
  H  H1081  1  0.184800  0.998100  0.079000  1.0  0.0551
  H  H1082  1  0.215100  0.057900  0.135200  1.0  0.0608
  H  H1083  1  0.358200  0.022600  0.151100  1.0  0.0517
  H  H1084  1  0.406200  0.082000  0.170500  1.0  0.0496
  H  H1085  1  0.329300  0.098700  0.173200  1.0  0.0509
  H  H1086  1  0.249700  0.989100  0.100800  1.0  0.0609
  H  H1087  1  0.190200  0.999700  0.163000  1.0  0.0494
  H  H1088  1  0.354200  0.046300  0.226100  1.0  0.0451
  H  H1089  1  0.565200  0.251900  0.579000  1.0  0.0558
  H  H1090  1  0.534900  0.192100  0.635200  1.0  0.0611
  H  H1091  1  0.391800  0.227400  0.651100  1.0  0.0524
  H  H1092  1  0.343800  0.168000  0.670500  1.0  0.0489
  H  H1093  1  0.420700  0.151300  0.673200  1.0  0.0512
  H  H1094  1  0.500300  0.260900  0.600800  1.0  0.0613
  H  H1095  1  0.559800  0.250300  0.663000  1.0  0.0502
  H  H1096  1  0.395800  0.203700  0.726100  1.0  0.0449
  H  H1097  1  0.565200  0.751900  0.079000  1.0  0.0558
  H  H1098  1  0.534900  0.692100  0.135200  1.0  0.0611
  H  H1099  1  0.391800  0.727400  0.151100  1.0  0.0524
  H  H1100  1  0.343800  0.668000  0.170500  1.0  0.0489
  H  H1101  1  0.420700  0.651300  0.173200  1.0  0.0512
  H  H1102  1  0.500300  0.760900  0.100800  1.0  0.0613
  H  H1103  1  0.559800  0.750300  0.163000  1.0  0.0502
  H  H1104  1  0.395800  0.703700  0.226100  1.0  0.0449
  H  H1105  1  0.065200  0.251900  0.079000  1.0  0.0558
  H  H1106  1  0.034900  0.192100  0.135200  1.0  0.0611
  H  H1107  1  0.891800  0.227400  0.151100  1.0  0.0524
  H  H1108  1  0.843800  0.168000  0.170500  1.0  0.0489
  H  H1109  1  0.920700  0.151300  0.173200  1.0  0.0512
  H  H1110  1  0.000300  0.260900  0.100800  1.0  0.0613
  H  H1111  1  0.059800  0.250300  0.163000  1.0  0.0502
  H  H1112  1  0.895800  0.203700  0.226100  1.0  0.0449
  H  H1113  1  0.065200  0.751900  0.579000  1.0  0.0558
  H  H1114  1  0.034900  0.692100  0.635200  1.0  0.0611
  H  H1115  1  0.891800  0.727400  0.651100  1.0  0.0524
  H  H1116  1  0.843800  0.668000  0.670500  1.0  0.0489
  H  H1117  1  0.920700  0.651300  0.673200  1.0  0.0512
  H  H1118  1  0.000300  0.760900  0.600800  1.0  0.0613
  H  H1119  1  0.059800  0.750300  0.663000  1.0  0.0502
  H  H1120  1  0.895800  0.703700  0.726100  1.0  0.0449
  H  H1121  1  0.065200  0.998100  0.171000  1.0  0.0547
  H  H1122  1  0.034900  0.057900  0.114800  1.0  0.0603
  H  H1123  1  0.891800  0.022600  0.098900  1.0  0.0516
  H  H1124  1  0.843800  0.082000  0.079500  1.0  0.0488
  H  H1125  1  0.920700  0.098700  0.076800  1.0  0.0509
  H  H1126  1  0.000300  0.989100  0.149200  1.0  0.0613
  H  H1127  1  0.059800  0.999700  0.087000  1.0  0.0497
  H  H1128  1  0.895800  0.046300  0.023900  1.0  0.0451
  H  H1129  1  0.065200  0.498100  0.671000  1.0  0.0547
  H  H1130  1  0.034900  0.557900  0.614800  1.0  0.0603
  H  H1131  1  0.891800  0.522600  0.598900  1.0  0.0516
  H  H1132  1  0.843800  0.582000  0.579500  1.0  0.0488
  H  H1133  1  0.920700  0.598700  0.576800  1.0  0.0509
  H  H1134  1  0.000300  0.489100  0.649200  1.0  0.0613
  H  H1135  1  0.059800  0.499700  0.587000  1.0  0.0497
  H  H1136  1  0.895800  0.546300  0.523900  1.0  0.0451
  H  H1137  1  0.565200  0.998100  0.671000  1.0  0.0547
  H  H1138  1  0.534900  0.057900  0.614800  1.0  0.0603
  H  H1139  1  0.391800  0.022600  0.598900  1.0  0.0516
  H  H1140  1  0.343800  0.082000  0.579500  1.0  0.0488
  H  H1141  1  0.420700  0.098700  0.576800  1.0  0.0509
  H  H1142  1  0.500300  0.989100  0.649200  1.0  0.0613
  H  H1143  1  0.559800  0.999700  0.587000  1.0  0.0497
  H  H1144  1  0.395800  0.046300  0.523900  1.0  0.0451
  H  H1145  1  0.565200  0.498100  0.171000  1.0  0.0547
  H  H1146  1  0.534900  0.557900  0.114800  1.0  0.0603
  H  H1147  1  0.391800  0.522600  0.098900  1.0  0.0516
  H  H1148  1  0.343800  0.582000  0.079500  1.0  0.0488
  H  H1149  1  0.420700  0.598700  0.076800  1.0  0.0509
  H  H1150  1  0.500300  0.489100  0.149200  1.0  0.0613
  H  H1151  1  0.559800  0.499700  0.087000  1.0  0.0497
  H  H1152  1  0.395800  0.546300  0.023900  1.0  0.0451
  H  H1153  1  0.671000  0.498100  0.565200  1.0  0.0548
  H  H1154  1  0.614800  0.557900  0.534900  1.0  0.061
  H  H1155  1  0.598900  0.522600  0.391800  1.0  0.0514
  H  H1156  1  0.579500  0.582000  0.343800  1.0  0.0495
  H  H1157  1  0.576800  0.598700  0.420700  1.0  0.0512
  H  H1158  1  0.649200  0.489100  0.500300  1.0  0.061
  H  H1159  1  0.587000  0.499700  0.559800  1.0  0.0516
  H  H1160  1  0.523900  0.546300  0.395800  1.0  0.0447
  H  H1161  1  0.671000  0.998100  0.065200  1.0  0.0548
  H  H1162  1  0.614800  0.057900  0.034900  1.0  0.061
  H  H1163  1  0.598900  0.022600  0.891800  1.0  0.0514
  H  H1164  1  0.579500  0.082000  0.843800  1.0  0.0495
  H  H1165  1  0.576800  0.098700  0.920700  1.0  0.0512
  H  H1166  1  0.649200  0.989100  0.000300  1.0  0.061
  H  H1167  1  0.587000  0.999700  0.059800  1.0  0.0516
  H  H1168  1  0.523900  0.046300  0.895800  1.0  0.0447
  H  H1169  1  0.171000  0.498100  0.065200  1.0  0.0548
  H  H1170  1  0.114800  0.557900  0.034900  1.0  0.061
  H  H1171  1  0.098900  0.522600  0.891800  1.0  0.0514
  H  H1172  1  0.079500  0.582000  0.843800  1.0  0.0495
  H  H1173  1  0.076800  0.598700  0.920700  1.0  0.0512
  H  H1174  1  0.149200  0.489100  0.000300  1.0  0.061
  H  H1175  1  0.087000  0.499700  0.059800  1.0  0.0516
  H  H1176  1  0.023900  0.546300  0.895800  1.0  0.0447
  H  H1177  1  0.171000  0.998100  0.565200  1.0  0.0548
  H  H1178  1  0.114800  0.057900  0.534900  1.0  0.061
  H  H1179  1  0.098900  0.022600  0.391800  1.0  0.0514
  H  H1180  1  0.079500  0.082000  0.343800  1.0  0.0495
  H  H1181  1  0.076800  0.098700  0.420700  1.0  0.0512
  H  H1182  1  0.149200  0.989100  0.500300  1.0  0.061
  H  H1183  1  0.087000  0.999700  0.559800  1.0  0.0516
  H  H1184  1  0.023900  0.046300  0.395800  1.0  0.0447
  H  H1185  1  0.079000  0.751900  0.065200  1.0  0.0567
  H  H1186  1  0.135200  0.692100  0.034900  1.0  0.0605
  H  H1187  1  0.151100  0.727400  0.891800  1.0  0.0517
  H  H1188  1  0.170500  0.668000  0.843800  1.0  0.0493
  H  H1189  1  0.173200  0.651300  0.920700  1.0  0.0509
  H  H1190  1  0.100800  0.760900  0.000300  1.0  0.0611
  H  H1191  1  0.163000  0.750300  0.059800  1.0  0.0509
  H  H1192  1  0.226100  0.703700  0.895800  1.0  0.044
  H  H1193  1  0.079000  0.251900  0.565200  1.0  0.0567
  H  H1194  1  0.135200  0.192100  0.534900  1.0  0.0605
  H  H1195  1  0.151100  0.227400  0.391800  1.0  0.0517
  H  H1196  1  0.170500  0.168000  0.343800  1.0  0.0493
  H  H1197  1  0.173200  0.151300  0.420700  1.0  0.0509
  H  H1198  1  0.100800  0.260900  0.500300  1.0  0.0611
  H  H1199  1  0.163000  0.250300  0.559800  1.0  0.0509
  H  H1200  1  0.226100  0.203700  0.395800  1.0  0.044
  H  H1201  1  0.579000  0.751900  0.565200  1.0  0.0567
  H  H1202  1  0.635200  0.692100  0.534900  1.0  0.0605
  H  H1203  1  0.651100  0.727400  0.391800  1.0  0.0517
  H  H1204  1  0.670500  0.668000  0.343800  1.0  0.0493
  H  H1205  1  0.673200  0.651300  0.420700  1.0  0.0509
  H  H1206  1  0.600800  0.760900  0.500300  1.0  0.0611
  H  H1207  1  0.663000  0.750300  0.559800  1.0  0.0509
  H  H1208  1  0.726100  0.703700  0.395800  1.0  0.044
  H  H1209  1  0.579000  0.251900  0.065200  1.0  0.0567
  H  H1210  1  0.635200  0.192100  0.034900  1.0  0.0605
  H  H1211  1  0.651100  0.227400  0.891800  1.0  0.0517
  H  H1212  1  0.670500  0.168000  0.843800  1.0  0.0493
  H  H1213  1  0.673200  0.151300  0.920700  1.0  0.0509
  H  H1214  1  0.600800  0.260900  0.000300  1.0  0.0611
  H  H1215  1  0.663000  0.250300  0.059800  1.0  0.0509
  H  H1216  1  0.726100  0.203700  0.895800  1.0  0.044
  H  H1217  1  0.579000  0.998100  0.184800  1.0  0.0562
  H  H1218  1  0.635200  0.057900  0.215100  1.0  0.0602
  H  H1219  1  0.651100  0.022600  0.358200  1.0  0.0515
  H  H1220  1  0.670500  0.082000  0.406200  1.0  0.049
  H  H1221  1  0.673200  0.098700  0.329300  1.0  0.0504
  H  H1222  1  0.600800  0.989100  0.249700  1.0  0.0608
  H  H1223  1  0.663000  0.999700  0.190200  1.0  0.0509
  H  H1224  1  0.726100  0.046300  0.354200  1.0  0.0446
  H  H1225  1  0.579000  0.498100  0.684800  1.0  0.0562
  H  H1226  1  0.635200  0.557900  0.715100  1.0  0.0602
  H  H1227  1  0.651100  0.522600  0.858200  1.0  0.0515
  H  H1228  1  0.670500  0.582000  0.906200  1.0  0.049
  H  H1229  1  0.673200  0.598700  0.829300  1.0  0.0504
  H  H1230  1  0.600800  0.489100  0.749700  1.0  0.0608
  H  H1231  1  0.663000  0.499700  0.690200  1.0  0.0509
  H  H1232  1  0.726100  0.546300  0.854200  1.0  0.0446
  H  H1233  1  0.079000  0.998100  0.684800  1.0  0.0562
  H  H1234  1  0.135200  0.057900  0.715100  1.0  0.0602
  H  H1235  1  0.151100  0.022600  0.858200  1.0  0.0515
  H  H1236  1  0.170500  0.082000  0.906200  1.0  0.049
  H  H1237  1  0.173200  0.098700  0.829300  1.0  0.0504
  H  H1238  1  0.100800  0.989100  0.749700  1.0  0.0608
  H  H1239  1  0.163000  0.999700  0.690200  1.0  0.0509
  H  H1240  1  0.226100  0.046300  0.854200  1.0  0.0446
  H  H1241  1  0.079000  0.498100  0.184800  1.0  0.0562
  H  H1242  1  0.135200  0.557900  0.215100  1.0  0.0602
  H  H1243  1  0.151100  0.522600  0.358200  1.0  0.0515
  H  H1244  1  0.170500  0.582000  0.406200  1.0  0.049
  H  H1245  1  0.173200  0.598700  0.329300  1.0  0.0504
  H  H1246  1  0.100800  0.489100  0.249700  1.0  0.0608
  H  H1247  1  0.163000  0.499700  0.190200  1.0  0.0509
  H  H1248  1  0.226100  0.546300  0.354200  1.0  0.0446
  H  H1249  1  0.171000  0.251900  0.684800  1.0  0.0553
  H  H1250  1  0.114800  0.192100  0.715100  1.0  0.0605
  H  H1251  1  0.098900  0.227400  0.858200  1.0  0.0519
  H  H1252  1  0.079500  0.168000  0.906200  1.0  0.0488
  H  H1253  1  0.076800  0.151300  0.829300  1.0  0.051
  H  H1254  1  0.149200  0.260900  0.749700  1.0  0.0606
  H  H1255  1  0.087000  0.250300  0.690200  1.0  0.0517
  H  H1256  1  0.023900  0.203700  0.854200  1.0  0.0449
  H  H1257  1  0.171000  0.751900  0.184800  1.0  0.0553
  H  H1258  1  0.114800  0.692100  0.215100  1.0  0.0605
  H  H1259  1  0.098900  0.727400  0.358200  1.0  0.0519
  H  H1260  1  0.079500  0.668000  0.406200  1.0  0.0488
  H  H1261  1  0.076800  0.651300  0.329300  1.0  0.051
  H  H1262  1  0.149200  0.760900  0.249700  1.0  0.0606
  H  H1263  1  0.087000  0.750300  0.190200  1.0  0.0517
  H  H1264  1  0.023900  0.703700  0.354200  1.0  0.0449
  H  H1265  1  0.671000  0.251900  0.184800  1.0  0.0553
  H  H1266  1  0.614800  0.192100  0.215100  1.0  0.0605
  H  H1267  1  0.598900  0.227400  0.358200  1.0  0.0519
  H  H1268  1  0.579500  0.168000  0.406200  1.0  0.0488
  H  H1269  1  0.576800  0.151300  0.329300  1.0  0.051
  H  H1270  1  0.649200  0.260900  0.249700  1.0  0.0606
  H  H1271  1  0.587000  0.250300  0.190200  1.0  0.0517
  H  H1272  1  0.523900  0.203700  0.354200  1.0  0.0449
  H  H1273  1  0.671000  0.751900  0.684800  1.0  0.0553
  H  H1274  1  0.614800  0.692100  0.715100  1.0  0.0605
  H  H1275  1  0.598900  0.727400  0.858200  1.0  0.0519
  H  H1276  1  0.579500  0.668000  0.906200  1.0  0.0488
  H  H1277  1  0.576800  0.651300  0.829300  1.0  0.051
  H  H1278  1  0.649200  0.760900  0.749700  1.0  0.0606
  H  H1279  1  0.587000  0.750300  0.690200  1.0  0.0517
  H  H1280  1  0.523900  0.703700  0.854200  1.0  0.0449
  H  H1281  1  0.565200  0.671000  0.498100  1.0  0.0564
  H  H1282  1  0.534900  0.614800  0.557900  1.0  0.0609
  H  H1283  1  0.391800  0.598900  0.522600  1.0  0.0507
  H  H1284  1  0.343800  0.579500  0.582000  1.0  0.0488
  H  H1285  1  0.420700  0.576800  0.598700  1.0  0.0487
  H  H1286  1  0.500300  0.649200  0.489100  1.0  0.0608
  H  H1287  1  0.559800  0.587000  0.499700  1.0  0.0523
  H  H1288  1  0.395800  0.523900  0.546300  1.0  0.0458
  H  H1289  1  0.565200  0.171000  0.998100  1.0  0.0564
  H  H1290  1  0.534900  0.114800  0.057900  1.0  0.0609
  H  H1291  1  0.391800  0.098900  0.022600  1.0  0.0507
  H  H1292  1  0.343800  0.079500  0.082000  1.0  0.0488
  H  H1293  1  0.420700  0.076800  0.098700  1.0  0.0487
  H  H1294  1  0.500300  0.149200  0.989100  1.0  0.0608
  H  H1295  1  0.559800  0.087000  0.999700  1.0  0.0523
  H  H1296  1  0.395800  0.023900  0.046300  1.0  0.0458
  H  H1297  1  0.065200  0.671000  0.998100  1.0  0.0564
  H  H1298  1  0.034900  0.614800  0.057900  1.0  0.0609
  H  H1299  1  0.891800  0.598900  0.022600  1.0  0.0507
  H  H1300  1  0.843800  0.579500  0.082000  1.0  0.0488
  H  H1301  1  0.920700  0.576800  0.098700  1.0  0.0487
  H  H1302  1  0.000300  0.649200  0.989100  1.0  0.0608
  H  H1303  1  0.059800  0.587000  0.999700  1.0  0.0523
  H  H1304  1  0.895800  0.523900  0.046300  1.0  0.0458
  H  H1305  1  0.065200  0.171000  0.498100  1.0  0.0564
  H  H1306  1  0.034900  0.114800  0.557900  1.0  0.0609
  H  H1307  1  0.891800  0.098900  0.522600  1.0  0.0507
  H  H1308  1  0.843800  0.079500  0.582000  1.0  0.0488
  H  H1309  1  0.920700  0.076800  0.598700  1.0  0.0487
  H  H1310  1  0.000300  0.149200  0.489100  1.0  0.0608
  H  H1311  1  0.059800  0.087000  0.499700  1.0  0.0523
  H  H1312  1  0.895800  0.023900  0.546300  1.0  0.0458
  H  H1313  1  0.065200  0.079000  0.751900  1.0  0.0568
  H  H1314  1  0.034900  0.135200  0.692100  1.0  0.0606
  H  H1315  1  0.891800  0.151100  0.727400  1.0  0.0509
  H  H1316  1  0.843800  0.170500  0.668000  1.0  0.0501
  H  H1317  1  0.920700  0.173200  0.651300  1.0  0.0492
  H  H1318  1  0.000300  0.100800  0.760900  1.0  0.0602
  H  H1319  1  0.059800  0.163000  0.750300  1.0  0.0516
  H  H1320  1  0.895800  0.226100  0.703700  1.0  0.0458
  H  H1321  1  0.065200  0.579000  0.251900  1.0  0.0568
  H  H1322  1  0.034900  0.635200  0.192100  1.0  0.0606
  H  H1323  1  0.891800  0.651100  0.227400  1.0  0.0509
  H  H1324  1  0.843800  0.670500  0.168000  1.0  0.0501
  H  H1325  1  0.920700  0.673200  0.151300  1.0  0.0492
  H  H1326  1  0.000300  0.600800  0.260900  1.0  0.0602
  H  H1327  1  0.059800  0.663000  0.250300  1.0  0.0516
  H  H1328  1  0.895800  0.726100  0.203700  1.0  0.0458
  H  H1329  1  0.565200  0.079000  0.251900  1.0  0.0568
  H  H1330  1  0.534900  0.135200  0.192100  1.0  0.0606
  H  H1331  1  0.391800  0.151100  0.227400  1.0  0.0509
  H  H1332  1  0.343800  0.170500  0.168000  1.0  0.0501
  H  H1333  1  0.420700  0.173200  0.151300  1.0  0.0492
  H  H1334  1  0.500300  0.100800  0.260900  1.0  0.0602
  H  H1335  1  0.559800  0.163000  0.250300  1.0  0.0516
  H  H1336  1  0.395800  0.226100  0.203700  1.0  0.0458
  H  H1337  1  0.565200  0.579000  0.751900  1.0  0.0568
  H  H1338  1  0.534900  0.635200  0.692100  1.0  0.0606
  H  H1339  1  0.391800  0.651100  0.727400  1.0  0.0509
  H  H1340  1  0.343800  0.670500  0.668000  1.0  0.0501
  H  H1341  1  0.420700  0.673200  0.651300  1.0  0.0492
  H  H1342  1  0.500300  0.600800  0.760900  1.0  0.0602
  H  H1343  1  0.559800  0.663000  0.750300  1.0  0.0516
  H  H1344  1  0.395800  0.726100  0.703700  1.0  0.0458
  H  H1345  1  0.184800  0.579000  0.998100  1.0  0.057
  H  H1346  1  0.215100  0.635200  0.057900  1.0  0.0606
  H  H1347  1  0.358200  0.651100  0.022600  1.0  0.0499
  H  H1348  1  0.406200  0.670500  0.082000  1.0  0.0486
  H  H1349  1  0.329300  0.673200  0.098700  1.0  0.0484
  H  H1350  1  0.249700  0.600800  0.989100  1.0  0.0603
  H  H1351  1  0.190200  0.663000  0.999700  1.0  0.0515
  H  H1352  1  0.354200  0.726100  0.046300  1.0  0.0456
  H  H1353  1  0.184800  0.079000  0.498100  1.0  0.057
  H  H1354  1  0.215100  0.135200  0.557900  1.0  0.0606
  H  H1355  1  0.358200  0.151100  0.522600  1.0  0.0499
  H  H1356  1  0.406200  0.170500  0.582000  1.0  0.0486
  H  H1357  1  0.329300  0.173200  0.598700  1.0  0.0484
  H  H1358  1  0.249700  0.100800  0.489100  1.0  0.0603
  H  H1359  1  0.190200  0.163000  0.499700  1.0  0.0515
  H  H1360  1  0.354200  0.226100  0.546300  1.0  0.0456
  H  H1361  1  0.684800  0.579000  0.498100  1.0  0.057
  H  H1362  1  0.715100  0.635200  0.557900  1.0  0.0606
  H  H1363  1  0.858200  0.651100  0.522600  1.0  0.0499
  H  H1364  1  0.906200  0.670500  0.582000  1.0  0.0486
  H  H1365  1  0.829300  0.673200  0.598700  1.0  0.0484
  H  H1366  1  0.749700  0.600800  0.489100  1.0  0.0603
  H  H1367  1  0.690200  0.663000  0.499700  1.0  0.0515
  H  H1368  1  0.854200  0.726100  0.546300  1.0  0.0456
  H  H1369  1  0.684800  0.079000  0.998100  1.0  0.057
  H  H1370  1  0.715100  0.135200  0.057900  1.0  0.0606
  H  H1371  1  0.858200  0.151100  0.022600  1.0  0.0499
  H  H1372  1  0.906200  0.170500  0.082000  1.0  0.0486
  H  H1373  1  0.829300  0.173200  0.098700  1.0  0.0484
  H  H1374  1  0.749700  0.100800  0.989100  1.0  0.0603
  H  H1375  1  0.690200  0.163000  0.999700  1.0  0.0515
  H  H1376  1  0.854200  0.226100  0.046300  1.0  0.0456
  H  H1377  1  0.684800  0.171000  0.251900  1.0  0.056
  H  H1378  1  0.715100  0.114800  0.192100  1.0  0.0603
  H  H1379  1  0.858200  0.098900  0.227400  1.0  0.05
  H  H1380  1  0.906200  0.079500  0.168000  1.0  0.0501
  H  H1381  1  0.829300  0.076800  0.151300  1.0  0.0497
  H  H1382  1  0.749700  0.149200  0.260900  1.0  0.0602
  H  H1383  1  0.690200  0.087000  0.250300  1.0  0.052
  H  H1384  1  0.854200  0.023900  0.203700  1.0  0.0461
  H  H1385  1  0.684800  0.671000  0.751900  1.0  0.056
  H  H1386  1  0.715100  0.614800  0.692100  1.0  0.0603
  H  H1387  1  0.858200  0.598900  0.727400  1.0  0.05
  H  H1388  1  0.906200  0.579500  0.668000  1.0  0.0501
  H  H1389  1  0.829300  0.576800  0.651300  1.0  0.0497
  H  H1390  1  0.749700  0.649200  0.760900  1.0  0.0602
  H  H1391  1  0.690200  0.587000  0.750300  1.0  0.052
  H  H1392  1  0.854200  0.523900  0.703700  1.0  0.0461
  H  H1393  1  0.184800  0.171000  0.751900  1.0  0.056
  H  H1394  1  0.215100  0.114800  0.692100  1.0  0.0603
  H  H1395  1  0.358200  0.098900  0.727400  1.0  0.05
  H  H1396  1  0.406200  0.079500  0.668000  1.0  0.0501
  H  H1397  1  0.329300  0.076800  0.651300  1.0  0.0497
  H  H1398  1  0.249700  0.149200  0.760900  1.0  0.0602
  H  H1399  1  0.190200  0.087000  0.750300  1.0  0.052
  H  H1400  1  0.354200  0.023900  0.703700  1.0  0.0461
  H  H1401  1  0.184800  0.671000  0.251900  1.0  0.056
  H  H1402  1  0.215100  0.614800  0.192100  1.0  0.0603
  H  H1403  1  0.358200  0.598900  0.227400  1.0  0.05
  H  H1404  1  0.406200  0.579500  0.168000  1.0  0.0501
  H  H1405  1  0.329300  0.576800  0.151300  1.0  0.0497
  H  H1406  1  0.249700  0.649200  0.260900  1.0  0.0602
  H  H1407  1  0.190200  0.587000  0.250300  1.0  0.052
  H  H1408  1  0.354200  0.523900  0.203700  1.0  0.0461
  H  H1409  1  0.498100  0.565200  0.671000  1.0  0.0544
  H  H1410  1  0.557900  0.534900  0.614800  1.0  0.06
  H  H1411  1  0.522600  0.391800  0.598900  1.0  0.0506
  H  H1412  1  0.582000  0.343800  0.579500  1.0  0.0488
  H  H1413  1  0.598700  0.420700  0.576800  1.0  0.0514
  H  H1414  1  0.489100  0.500300  0.649200  1.0  0.0617
  H  H1415  1  0.499700  0.559800  0.587000  1.0  0.0492
  H  H1416  1  0.546300  0.395800  0.523900  1.0  0.0469
  H  H1417  1  0.498100  0.065200  0.171000  1.0  0.0544
  H  H1418  1  0.557900  0.034900  0.114800  1.0  0.06
  H  H1419  1  0.522600  0.891800  0.098900  1.0  0.0506
  H  H1420  1  0.582000  0.843800  0.079500  1.0  0.0488
  H  H1421  1  0.598700  0.920700  0.076800  1.0  0.0514
  H  H1422  1  0.489100  0.000300  0.149200  1.0  0.0617
  H  H1423  1  0.499700  0.059800  0.087000  1.0  0.0492
  H  H1424  1  0.546300  0.895800  0.023900  1.0  0.0469
  H  H1425  1  0.998100  0.565200  0.171000  1.0  0.0544
  H  H1426  1  0.057900  0.534900  0.114800  1.0  0.06
  H  H1427  1  0.022600  0.391800  0.098900  1.0  0.0506
  H  H1428  1  0.082000  0.343800  0.079500  1.0  0.0488
  H  H1429  1  0.098700  0.420700  0.076800  1.0  0.0514
  H  H1430  1  0.989100  0.500300  0.149200  1.0  0.0617
  H  H1431  1  0.999700  0.559800  0.087000  1.0  0.0492
  H  H1432  1  0.046300  0.395800  0.023900  1.0  0.0469
  H  H1433  1  0.998100  0.065200  0.671000  1.0  0.0544
  H  H1434  1  0.057900  0.034900  0.614800  1.0  0.06
  H  H1435  1  0.022600  0.891800  0.598900  1.0  0.0506
  H  H1436  1  0.082000  0.843800  0.579500  1.0  0.0488
  H  H1437  1  0.098700  0.920700  0.576800  1.0  0.0514
  H  H1438  1  0.989100  0.000300  0.649200  1.0  0.0617
  H  H1439  1  0.999700  0.059800  0.587000  1.0  0.0492
  H  H1440  1  0.046300  0.895800  0.523900  1.0  0.0469
  H  H1441  1  0.751900  0.065200  0.079000  1.0  0.0553
  H  H1442  1  0.692100  0.034900  0.135200  1.0  0.0608
  H  H1443  1  0.727400  0.891800  0.151100  1.0  0.0505
  H  H1444  1  0.668000  0.843800  0.170500  1.0  0.0495
  H  H1445  1  0.651300  0.920700  0.173200  1.0  0.0516
  H  H1446  1  0.760900  0.000300  0.100800  1.0  0.061
  H  H1447  1  0.750300  0.059800  0.163000  1.0  0.05
  H  H1448  1  0.703700  0.895800  0.226100  1.0  0.0458
  H  H1449  1  0.751900  0.565200  0.579000  1.0  0.0553
  H  H1450  1  0.692100  0.534900  0.635200  1.0  0.0608
  H  H1451  1  0.727400  0.391800  0.651100  1.0  0.0505
  H  H1452  1  0.668000  0.343800  0.670500  1.0  0.0495
  H  H1453  1  0.651300  0.420700  0.673200  1.0  0.0516
  H  H1454  1  0.760900  0.500300  0.600800  1.0  0.061
  H  H1455  1  0.750300  0.559800  0.663000  1.0  0.05
  H  H1456  1  0.703700  0.395800  0.726100  1.0  0.0458
  H  H1457  1  0.251900  0.065200  0.579000  1.0  0.0553
  H  H1458  1  0.192100  0.034900  0.635200  1.0  0.0608
  H  H1459  1  0.227400  0.891800  0.651100  1.0  0.0505
  H  H1460  1  0.168000  0.843800  0.670500  1.0  0.0495
  H  H1461  1  0.151300  0.920700  0.673200  1.0  0.0516
  H  H1462  1  0.260900  0.000300  0.600800  1.0  0.061
  H  H1463  1  0.250300  0.059800  0.663000  1.0  0.05
  H  H1464  1  0.203700  0.895800  0.726100  1.0  0.0458
  H  H1465  1  0.251900  0.565200  0.079000  1.0  0.0553
  H  H1466  1  0.192100  0.534900  0.135200  1.0  0.0608
  H  H1467  1  0.227400  0.391800  0.151100  1.0  0.0505
  H  H1468  1  0.168000  0.343800  0.170500  1.0  0.0495
  H  H1469  1  0.151300  0.420700  0.173200  1.0  0.0516
  H  H1470  1  0.260900  0.500300  0.100800  1.0  0.061
  H  H1471  1  0.250300  0.559800  0.163000  1.0  0.05
  H  H1472  1  0.203700  0.395800  0.226100  1.0  0.0458
  H  H1473  1  0.998100  0.184800  0.579000  1.0  0.055
  H  H1474  1  0.057900  0.215100  0.635200  1.0  0.0608
  H  H1475  1  0.022600  0.358200  0.651100  1.0  0.0508
  H  H1476  1  0.082000  0.406200  0.670500  1.0  0.0492
  H  H1477  1  0.098700  0.329300  0.673200  1.0  0.052
  H  H1478  1  0.989100  0.249700  0.600800  1.0  0.0616
  H  H1479  1  0.999700  0.190200  0.663000  1.0  0.0492
  H  H1480  1  0.046300  0.354200  0.726100  1.0  0.0467
  H  H1481  1  0.998100  0.684800  0.079000  1.0  0.055
  H  H1482  1  0.057900  0.715100  0.135200  1.0  0.0608
  H  H1483  1  0.022600  0.858200  0.151100  1.0  0.0508
  H  H1484  1  0.082000  0.906200  0.170500  1.0  0.0492
  H  H1485  1  0.098700  0.829300  0.173200  1.0  0.052
  H  H1486  1  0.989100  0.749700  0.100800  1.0  0.0616
  H  H1487  1  0.999700  0.690200  0.163000  1.0  0.0492
  H  H1488  1  0.046300  0.854200  0.226100  1.0  0.0467
  H  H1489  1  0.498100  0.184800  0.079000  1.0  0.055
  H  H1490  1  0.557900  0.215100  0.135200  1.0  0.0608
  H  H1491  1  0.522600  0.358200  0.151100  1.0  0.0508
  H  H1492  1  0.582000  0.406200  0.170500  1.0  0.0492
  H  H1493  1  0.598700  0.329300  0.173200  1.0  0.052
  H  H1494  1  0.489100  0.249700  0.100800  1.0  0.0616
  H  H1495  1  0.499700  0.190200  0.163000  1.0  0.0492
  H  H1496  1  0.546300  0.354200  0.226100  1.0  0.0467
  H  H1497  1  0.498100  0.684800  0.579000  1.0  0.055
  H  H1498  1  0.557900  0.715100  0.635200  1.0  0.0608
  H  H1499  1  0.522600  0.858200  0.651100  1.0  0.0508
  H  H1500  1  0.582000  0.906200  0.670500  1.0  0.0492
  H  H1501  1  0.598700  0.829300  0.673200  1.0  0.052
  H  H1502  1  0.489100  0.749700  0.600800  1.0  0.0616
  H  H1503  1  0.499700  0.690200  0.663000  1.0  0.0492
  H  H1504  1  0.546300  0.854200  0.726100  1.0  0.0467
  H  H1505  1  0.251900  0.684800  0.171000  1.0  0.0544
  H  H1506  1  0.192100  0.715100  0.114800  1.0  0.0598
  H  H1507  1  0.227400  0.858200  0.098900  1.0  0.0504
  H  H1508  1  0.168000  0.906200  0.079500  1.0  0.0485
  H  H1509  1  0.151300  0.829300  0.076800  1.0  0.0515
  H  H1510  1  0.260900  0.749700  0.149200  1.0  0.0611
  H  H1511  1  0.250300  0.690200  0.087000  1.0  0.0494
  H  H1512  1  0.203700  0.854200  0.023900  1.0  0.0461
  H  H1513  1  0.251900  0.184800  0.671000  1.0  0.0544
  H  H1514  1  0.192100  0.215100  0.614800  1.0  0.0598
  H  H1515  1  0.227400  0.358200  0.598900  1.0  0.0504
  H  H1516  1  0.168000  0.406200  0.579500  1.0  0.0485
  H  H1517  1  0.151300  0.329300  0.576800  1.0  0.0515
  H  H1518  1  0.260900  0.249700  0.649200  1.0  0.0611
  H  H1519  1  0.250300  0.190200  0.587000  1.0  0.0494
  H  H1520  1  0.203700  0.354200  0.523900  1.0  0.0461
  H  H1521  1  0.751900  0.684800  0.671000  1.0  0.0544
  H  H1522  1  0.692100  0.715100  0.614800  1.0  0.0598
  H  H1523  1  0.727400  0.858200  0.598900  1.0  0.0504
  H  H1524  1  0.668000  0.906200  0.579500  1.0  0.0485
  H  H1525  1  0.651300  0.829300  0.576800  1.0  0.0515
  H  H1526  1  0.760900  0.749700  0.649200  1.0  0.0611
  H  H1527  1  0.750300  0.690200  0.587000  1.0  0.0494
  H  H1528  1  0.703700  0.854200  0.523900  1.0  0.0461
  H  H1529  1  0.751900  0.184800  0.171000  1.0  0.0544
  H  H1530  1  0.692100  0.215100  0.114800  1.0  0.0598
  H  H1531  1  0.727400  0.358200  0.098900  1.0  0.0504
  H  H1532  1  0.668000  0.406200  0.079500  1.0  0.0485
  H  H1533  1  0.651300  0.329300  0.076800  1.0  0.0515
  H  H1534  1  0.760900  0.249700  0.149200  1.0  0.0611
  H  H1535  1  0.750300  0.190200  0.087000  1.0  0.0494
  H  H1536  1  0.703700  0.354200  0.023900  1.0  0.0461
  H  H1537  1  0.748100  0.421000  0.434800  1.0  0.0564
  H  H1538  1  0.807900  0.364800  0.465100  1.0  0.0598
  H  H1539  1  0.772600  0.348900  0.608200  1.0  0.0504
  H  H1540  1  0.832000  0.329500  0.656200  1.0  0.0485
  H  H1541  1  0.848700  0.326800  0.579300  1.0  0.0511
  H  H1542  1  0.739100  0.399200  0.499700  1.0  0.0611
  H  H1543  1  0.749700  0.337000  0.440200  1.0  0.0524
  H  H1544  1  0.796300  0.273900  0.604200  1.0  0.0454
  H  H1545  1  0.748100  0.921000  0.934800  1.0  0.0564
  H  H1546  1  0.807900  0.864800  0.965100  1.0  0.0598
  H  H1547  1  0.772600  0.848900  0.108200  1.0  0.0504
  H  H1548  1  0.832000  0.829500  0.156200  1.0  0.0485
  H  H1549  1  0.848700  0.826800  0.079300  1.0  0.0511
  H  H1550  1  0.739100  0.899200  0.999700  1.0  0.0611
  H  H1551  1  0.749700  0.837000  0.940200  1.0  0.0524
  H  H1552  1  0.796300  0.773900  0.104200  1.0  0.0454
  H  H1553  1  0.248100  0.421000  0.934800  1.0  0.0564
  H  H1554  1  0.307900  0.364800  0.965100  1.0  0.0598
  H  H1555  1  0.272600  0.348900  0.108200  1.0  0.0504
  H  H1556  1  0.332000  0.329500  0.156200  1.0  0.0485
  H  H1557  1  0.348700  0.326800  0.079300  1.0  0.0511
  H  H1558  1  0.239100  0.399200  0.999700  1.0  0.0611
  H  H1559  1  0.249700  0.337000  0.940200  1.0  0.0524
  H  H1560  1  0.296300  0.273900  0.104200  1.0  0.0454
  H  H1561  1  0.248100  0.921000  0.434800  1.0  0.0564
  H  H1562  1  0.307900  0.864800  0.465100  1.0  0.0598
  H  H1563  1  0.272600  0.848900  0.608200  1.0  0.0504
  H  H1564  1  0.332000  0.829500  0.656200  1.0  0.0485
  H  H1565  1  0.348700  0.826800  0.579300  1.0  0.0511
  H  H1566  1  0.239100  0.899200  0.499700  1.0  0.0611
  H  H1567  1  0.249700  0.837000  0.440200  1.0  0.0524
  H  H1568  1  0.296300  0.773900  0.604200  1.0  0.0454
  H  H1569  1  0.001900  0.829000  0.934800  1.0  0.0577
  H  H1570  1  0.942100  0.885200  0.965100  1.0  0.0597
  H  H1571  1  0.977400  0.901100  0.108200  1.0  0.05
  H  H1572  1  0.918000  0.920500  0.156200  1.0  0.0485
  H  H1573  1  0.901300  0.923200  0.079300  1.0  0.0509
  H  H1574  1  0.010900  0.850800  0.999700  1.0  0.0605
  H  H1575  1  0.000300  0.913000  0.940200  1.0  0.0525
  H  H1576  1  0.953700  0.976100  0.104200  1.0  0.0446
  H  H1577  1  0.001900  0.329000  0.434800  1.0  0.0577
  H  H1578  1  0.942100  0.385200  0.465100  1.0  0.0597
  H  H1579  1  0.977400  0.401100  0.608200  1.0  0.05
  H  H1580  1  0.918000  0.420500  0.656200  1.0  0.0485
  H  H1581  1  0.901300  0.423200  0.579300  1.0  0.0509
  H  H1582  1  0.010900  0.350800  0.499700  1.0  0.0605
  H  H1583  1  0.000300  0.413000  0.440200  1.0  0.0525
  H  H1584  1  0.953700  0.476100  0.604200  1.0  0.0446
  H  H1585  1  0.501900  0.829000  0.434800  1.0  0.0577
  H  H1586  1  0.442100  0.885200  0.465100  1.0  0.0597
  H  H1587  1  0.477400  0.901100  0.608200  1.0  0.05
  H  H1588  1  0.418000  0.920500  0.656200  1.0  0.0485
  H  H1589  1  0.401300  0.923200  0.579300  1.0  0.0509
  H  H1590  1  0.510900  0.850800  0.499700  1.0  0.0605
  H  H1591  1  0.500300  0.913000  0.440200  1.0  0.0525
  H  H1592  1  0.453700  0.976100  0.604200  1.0  0.0446
  H  H1593  1  0.501900  0.329000  0.934800  1.0  0.0577
  H  H1594  1  0.442100  0.385200  0.965100  1.0  0.0597
  H  H1595  1  0.477400  0.401100  0.108200  1.0  0.05
  H  H1596  1  0.418000  0.420500  0.156200  1.0  0.0485
  H  H1597  1  0.401300  0.423200  0.079300  1.0  0.0509
  H  H1598  1  0.510900  0.350800  0.999700  1.0  0.0605
  H  H1599  1  0.500300  0.413000  0.940200  1.0  0.0525
  H  H1600  1  0.453700  0.476100  0.104200  1.0  0.0446
  H  H1601  1  0.248100  0.329000  0.815200  1.0  0.0573
  H  H1602  1  0.307900  0.385200  0.784900  1.0  0.0594
  H  H1603  1  0.272600  0.401100  0.641800  1.0  0.0505
  H  H1604  1  0.332000  0.420500  0.593800  1.0  0.0488
  H  H1605  1  0.348700  0.423200  0.670700  1.0  0.0513
  H  H1606  1  0.239100  0.350800  0.750300  1.0  0.0612
  H  H1607  1  0.249700  0.413000  0.809800  1.0  0.0518
  H  H1608  1  0.296300  0.476100  0.645800  1.0  0.0449
  H  H1609  1  0.248100  0.829000  0.315200  1.0  0.0573
  H  H1610  1  0.307900  0.885200  0.284900  1.0  0.0594
  H  H1611  1  0.272600  0.901100  0.141800  1.0  0.0505
  H  H1612  1  0.332000  0.920500  0.093800  1.0  0.0488
  H  H1613  1  0.348700  0.923200  0.170700  1.0  0.0513
  H  H1614  1  0.239100  0.850800  0.250300  1.0  0.0612
  H  H1615  1  0.249700  0.913000  0.309800  1.0  0.0518
  H  H1616  1  0.296300  0.976100  0.145800  1.0  0.0449
  H  H1617  1  0.748100  0.329000  0.315200  1.0  0.0573
  H  H1618  1  0.807900  0.385200  0.284900  1.0  0.0594
  H  H1619  1  0.772600  0.401100  0.141800  1.0  0.0505
  H  H1620  1  0.832000  0.420500  0.093800  1.0  0.0488
  H  H1621  1  0.848700  0.423200  0.170700  1.0  0.0513
  H  H1622  1  0.739100  0.350800  0.250300  1.0  0.0612
  H  H1623  1  0.749700  0.413000  0.309800  1.0  0.0518
  H  H1624  1  0.796300  0.476100  0.145800  1.0  0.0449
  H  H1625  1  0.748100  0.829000  0.815200  1.0  0.0573
  H  H1626  1  0.807900  0.885200  0.784900  1.0  0.0594
  H  H1627  1  0.772600  0.901100  0.641800  1.0  0.0505
  H  H1628  1  0.832000  0.920500  0.593800  1.0  0.0488
  H  H1629  1  0.848700  0.923200  0.670700  1.0  0.0513
  H  H1630  1  0.739100  0.850800  0.750300  1.0  0.0612
  H  H1631  1  0.749700  0.913000  0.809800  1.0  0.0518
  H  H1632  1  0.796300  0.976100  0.645800  1.0  0.0449
  H  H1633  1  0.501900  0.921000  0.315200  1.0  0.0571
  H  H1634  1  0.442100  0.864800  0.284900  1.0  0.0603
  H  H1635  1  0.477400  0.848900  0.141800  1.0  0.0502
  H  H1636  1  0.418000  0.829500  0.093800  1.0  0.0492
  H  H1637  1  0.401300  0.826800  0.170700  1.0  0.0515
  H  H1638  1  0.510900  0.899200  0.250300  1.0  0.0609
  H  H1639  1  0.500300  0.837000  0.309800  1.0  0.0526
  H  H1640  1  0.453700  0.773900  0.145800  1.0  0.0443
  H  H1641  1  0.501900  0.421000  0.815200  1.0  0.0571
  H  H1642  1  0.442100  0.364800  0.784900  1.0  0.0603
  H  H1643  1  0.477400  0.348900  0.641800  1.0  0.0502
  H  H1644  1  0.418000  0.329500  0.593800  1.0  0.0492
  H  H1645  1  0.401300  0.326800  0.670700  1.0  0.0515
  H  H1646  1  0.510900  0.399200  0.750300  1.0  0.0609
  H  H1647  1  0.500300  0.337000  0.809800  1.0  0.0526
  H  H1648  1  0.453700  0.273900  0.645800  1.0  0.0443
  H  H1649  1  0.001900  0.921000  0.815200  1.0  0.0571
  H  H1650  1  0.942100  0.864800  0.784900  1.0  0.0603
  H  H1651  1  0.977400  0.848900  0.641800  1.0  0.0502
  H  H1652  1  0.918000  0.829500  0.593800  1.0  0.0492
  H  H1653  1  0.901300  0.826800  0.670700  1.0  0.0515
  H  H1654  1  0.010900  0.899200  0.750300  1.0  0.0609
  H  H1655  1  0.000300  0.837000  0.809800  1.0  0.0526
  H  H1656  1  0.953700  0.773900  0.645800  1.0  0.0443
  H  H1657  1  0.001900  0.421000  0.315200  1.0  0.0571
  H  H1658  1  0.942100  0.364800  0.284900  1.0  0.0603
  H  H1659  1  0.977400  0.348900  0.141800  1.0  0.0502
  H  H1660  1  0.918000  0.329500  0.093800  1.0  0.0492
  H  H1661  1  0.901300  0.326800  0.170700  1.0  0.0515
  H  H1662  1  0.010900  0.399200  0.250300  1.0  0.0609
  H  H1663  1  0.000300  0.337000  0.309800  1.0  0.0526
  H  H1664  1  0.953700  0.273900  0.145800  1.0  0.0443
  H  H1665  1  0.921000  0.315200  0.501900  1.0  0.0544
  H  H1666  1  0.864800  0.284900  0.442100  1.0  0.0615
  H  H1667  1  0.848900  0.141800  0.477400  1.0  0.0508
  H  H1668  1  0.829500  0.093800  0.418000  1.0  0.0503
  H  H1669  1  0.826800  0.170700  0.401300  1.0  0.0501
  H  H1670  1  0.899200  0.250300  0.510900  1.0  0.0602
  H  H1671  1  0.837000  0.309800  0.500300  1.0  0.0509
  H  H1672  1  0.773900  0.145800  0.453700  1.0  0.0476
  H  H1673  1  0.921000  0.815200  0.001900  1.0  0.0544
  H  H1674  1  0.864800  0.784900  0.942100  1.0  0.0615
  H  H1675  1  0.848900  0.641800  0.977400  1.0  0.0508
  H  H1676  1  0.829500  0.593800  0.918000  1.0  0.0503
  H  H1677  1  0.826800  0.670700  0.901300  1.0  0.0501
  H  H1678  1  0.899200  0.750300  0.010900  1.0  0.0602
  H  H1679  1  0.837000  0.809800  0.000300  1.0  0.0509
  H  H1680  1  0.773900  0.645800  0.953700  1.0  0.0476
  H  H1681  1  0.421000  0.315200  0.001900  1.0  0.0544
  H  H1682  1  0.364800  0.284900  0.942100  1.0  0.0615
  H  H1683  1  0.348900  0.141800  0.977400  1.0  0.0508
  H  H1684  1  0.329500  0.093800  0.918000  1.0  0.0503
  H  H1685  1  0.326800  0.170700  0.901300  1.0  0.0501
  H  H1686  1  0.399200  0.250300  0.010900  1.0  0.0602
  H  H1687  1  0.337000  0.309800  0.000300  1.0  0.0509
  H  H1688  1  0.273900  0.145800  0.953700  1.0  0.0476
  H  H1689  1  0.421000  0.815200  0.501900  1.0  0.0544
  H  H1690  1  0.364800  0.784900  0.442100  1.0  0.0615
  H  H1691  1  0.348900  0.641800  0.477400  1.0  0.0508
  H  H1692  1  0.329500  0.593800  0.418000  1.0  0.0503
  H  H1693  1  0.326800  0.670700  0.401300  1.0  0.0501
  H  H1694  1  0.399200  0.750300  0.510900  1.0  0.0602
  H  H1695  1  0.337000  0.809800  0.500300  1.0  0.0509
  H  H1696  1  0.273900  0.645800  0.453700  1.0  0.0476
  H  H1697  1  0.329000  0.815200  0.248100  1.0  0.0559
  H  H1698  1  0.385200  0.784900  0.307900  1.0  0.0609
  H  H1699  1  0.401100  0.641800  0.272600  1.0  0.0503
  H  H1700  1  0.420500  0.593800  0.332000  1.0  0.0492
  H  H1701  1  0.423200  0.670700  0.348700  1.0  0.0484
  H  H1702  1  0.350800  0.750300  0.239100  1.0  0.0609
  H  H1703  1  0.413000  0.809800  0.249700  1.0  0.0505
  H  H1704  1  0.476100  0.645800  0.296300  1.0  0.0465
  H  H1705  1  0.329000  0.315200  0.748100  1.0  0.0559
  H  H1706  1  0.385200  0.284900  0.807900  1.0  0.0609
  H  H1707  1  0.401100  0.141800  0.772600  1.0  0.0503
  H  H1708  1  0.420500  0.093800  0.832000  1.0  0.0492
  H  H1709  1  0.423200  0.170700  0.848700  1.0  0.0484
  H  H1710  1  0.350800  0.250300  0.739100  1.0  0.0609
  H  H1711  1  0.413000  0.309800  0.749700  1.0  0.0505
  H  H1712  1  0.476100  0.145800  0.796300  1.0  0.0465
  H  H1713  1  0.829000  0.815200  0.748100  1.0  0.0559
  H  H1714  1  0.885200  0.784900  0.807900  1.0  0.0609
  H  H1715  1  0.901100  0.641800  0.772600  1.0  0.0503
  H  H1716  1  0.920500  0.593800  0.832000  1.0  0.0492
  H  H1717  1  0.923200  0.670700  0.848700  1.0  0.0484
  H  H1718  1  0.850800  0.750300  0.739100  1.0  0.0609
  H  H1719  1  0.913000  0.809800  0.749700  1.0  0.0505
  H  H1720  1  0.976100  0.645800  0.796300  1.0  0.0465
  H  H1721  1  0.829000  0.315200  0.248100  1.0  0.0559
  H  H1722  1  0.885200  0.284900  0.307900  1.0  0.0609
  H  H1723  1  0.901100  0.141800  0.272600  1.0  0.0503
  H  H1724  1  0.920500  0.093800  0.332000  1.0  0.0492
  H  H1725  1  0.923200  0.170700  0.348700  1.0  0.0484
  H  H1726  1  0.850800  0.250300  0.239100  1.0  0.0609
  H  H1727  1  0.913000  0.309800  0.249700  1.0  0.0505
  H  H1728  1  0.976100  0.145800  0.296300  1.0  0.0465
  H  H1729  1  0.829000  0.934800  0.001900  1.0  0.0553
  H  H1730  1  0.885200  0.965100  0.942100  1.0  0.0613
  H  H1731  1  0.901100  0.108200  0.977400  1.0  0.0502
  H  H1732  1  0.920500  0.156200  0.918000  1.0  0.0499
  H  H1733  1  0.923200  0.079300  0.901300  1.0  0.0498
  H  H1734  1  0.850800  0.999700  0.010900  1.0  0.0607
  H  H1735  1  0.913000  0.940200  0.000300  1.0  0.0506
  H  H1736  1  0.976100  0.104200  0.953700  1.0  0.0472
  H  H1737  1  0.829000  0.434800  0.501900  1.0  0.0553
  H  H1738  1  0.885200  0.465100  0.442100  1.0  0.0613
  H  H1739  1  0.901100  0.608200  0.477400  1.0  0.0502
  H  H1740  1  0.920500  0.656200  0.418000  1.0  0.0499
  H  H1741  1  0.923200  0.579300  0.401300  1.0  0.0498
  H  H1742  1  0.850800  0.499700  0.510900  1.0  0.0607
  H  H1743  1  0.913000  0.440200  0.500300  1.0  0.0506
  H  H1744  1  0.976100  0.604200  0.453700  1.0  0.0472
  H  H1745  1  0.329000  0.934800  0.501900  1.0  0.0553
  H  H1746  1  0.385200  0.965100  0.442100  1.0  0.0613
  H  H1747  1  0.401100  0.108200  0.477400  1.0  0.0502
  H  H1748  1  0.420500  0.156200  0.418000  1.0  0.0499
  H  H1749  1  0.423200  0.079300  0.401300  1.0  0.0498
  H  H1750  1  0.350800  0.999700  0.510900  1.0  0.0607
  H  H1751  1  0.413000  0.940200  0.500300  1.0  0.0506
  H  H1752  1  0.476100  0.104200  0.453700  1.0  0.0472
  H  H1753  1  0.329000  0.434800  0.001900  1.0  0.0553
  H  H1754  1  0.385200  0.465100  0.942100  1.0  0.0613
  H  H1755  1  0.401100  0.608200  0.977400  1.0  0.0502
  H  H1756  1  0.420500  0.656200  0.918000  1.0  0.0499
  H  H1757  1  0.423200  0.579300  0.901300  1.0  0.0498
  H  H1758  1  0.350800  0.499700  0.010900  1.0  0.0607
  H  H1759  1  0.413000  0.440200  0.000300  1.0  0.0506
  H  H1760  1  0.476100  0.604200  0.953700  1.0  0.0472
  H  H1761  1  0.421000  0.434800  0.748100  1.0  0.0545
  H  H1762  1  0.364800  0.465100  0.807900  1.0  0.0617
  H  H1763  1  0.348900  0.608200  0.772600  1.0  0.0503
  H  H1764  1  0.329500  0.656200  0.832000  1.0  0.0493
  H  H1765  1  0.326800  0.579300  0.848700  1.0  0.0494
  H  H1766  1  0.399200  0.499700  0.739100  1.0  0.0608
  H  H1767  1  0.337000  0.440200  0.749700  1.0  0.0507
  H  H1768  1  0.273900  0.604200  0.796300  1.0  0.047
  H  H1769  1  0.421000  0.934800  0.248100  1.0  0.0545
  H  H1770  1  0.364800  0.965100  0.307900  1.0  0.0617
  H  H1771  1  0.348900  0.108200  0.272600  1.0  0.0503
  H  H1772  1  0.329500  0.156200  0.332000  1.0  0.0493
  H  H1773  1  0.326800  0.079300  0.348700  1.0  0.0494
  H  H1774  1  0.399200  0.999700  0.239100  1.0  0.0608
  H  H1775  1  0.337000  0.940200  0.249700  1.0  0.0507
  H  H1776  1  0.273900  0.104200  0.296300  1.0  0.047
  H  H1777  1  0.921000  0.434800  0.248100  1.0  0.0545
  H  H1778  1  0.864800  0.465100  0.307900  1.0  0.0617
  H  H1779  1  0.848900  0.608200  0.272600  1.0  0.0503
  H  H1780  1  0.829500  0.656200  0.332000  1.0  0.0493
  H  H1781  1  0.826800  0.579300  0.348700  1.0  0.0494
  H  H1782  1  0.899200  0.499700  0.239100  1.0  0.0608
  H  H1783  1  0.837000  0.440200  0.249700  1.0  0.0507
  H  H1784  1  0.773900  0.604200  0.296300  1.0  0.047
  H  H1785  1  0.921000  0.934800  0.748100  1.0  0.0545
  H  H1786  1  0.864800  0.965100  0.807900  1.0  0.0617
  H  H1787  1  0.848900  0.108200  0.772600  1.0  0.0503
  H  H1788  1  0.829500  0.156200  0.832000  1.0  0.0493
  H  H1789  1  0.826800  0.079300  0.848700  1.0  0.0494
  H  H1790  1  0.899200  0.999700  0.739100  1.0  0.0608
  H  H1791  1  0.837000  0.940200  0.749700  1.0  0.0507
  H  H1792  1  0.773900  0.104200  0.796300  1.0  0.047
  H  H1793  1  0.815200  0.248100  0.329000  1.0  0.0556
  H  H1794  1  0.784900  0.307900  0.385200  1.0  0.0609
  H  H1795  1  0.641800  0.272600  0.401100  1.0  0.0523
  H  H1796  1  0.593800  0.332000  0.420500  1.0  0.0493
  H  H1797  1  0.670700  0.348700  0.423200  1.0  0.051
  H  H1798  1  0.750300  0.239100  0.350800  1.0  0.0611
  H  H1799  1  0.809800  0.249700  0.413000  1.0  0.0499
  H  H1800  1  0.645800  0.296300  0.476100  1.0  0.0452
  H  H1801  1  0.815200  0.748100  0.829000  1.0  0.0556
  H  H1802  1  0.784900  0.807900  0.885200  1.0  0.0609
  H  H1803  1  0.641800  0.772600  0.901100  1.0  0.0523
  H  H1804  1  0.593800  0.832000  0.920500  1.0  0.0493
  H  H1805  1  0.670700  0.848700  0.923200  1.0  0.051
  H  H1806  1  0.750300  0.739100  0.850800  1.0  0.0611
  H  H1807  1  0.809800  0.749700  0.913000  1.0  0.0499
  H  H1808  1  0.645800  0.796300  0.976100  1.0  0.0452
  H  H1809  1  0.315200  0.248100  0.829000  1.0  0.0556
  H  H1810  1  0.284900  0.307900  0.885200  1.0  0.0609
  H  H1811  1  0.141800  0.272600  0.901100  1.0  0.0523
  H  H1812  1  0.093800  0.332000  0.920500  1.0  0.0493
  H  H1813  1  0.170700  0.348700  0.923200  1.0  0.051
  H  H1814  1  0.250300  0.239100  0.850800  1.0  0.0611
  H  H1815  1  0.309800  0.249700  0.913000  1.0  0.0499
  H  H1816  1  0.145800  0.296300  0.976100  1.0  0.0452
  H  H1817  1  0.315200  0.748100  0.329000  1.0  0.0556
  H  H1818  1  0.284900  0.807900  0.385200  1.0  0.0609
  H  H1819  1  0.141800  0.772600  0.401100  1.0  0.0523
  H  H1820  1  0.093800  0.832000  0.420500  1.0  0.0493
  H  H1821  1  0.170700  0.848700  0.423200  1.0  0.051
  H  H1822  1  0.250300  0.739100  0.350800  1.0  0.0611
  H  H1823  1  0.309800  0.749700  0.413000  1.0  0.0499
  H  H1824  1  0.145800  0.796300  0.476100  1.0  0.0452
  H  H1825  1  0.315200  0.501900  0.921000  1.0  0.0551
  H  H1826  1  0.284900  0.442100  0.864800  1.0  0.0603
  H  H1827  1  0.141800  0.477400  0.848900  1.0  0.0524
  H  H1828  1  0.093800  0.418000  0.829500  1.0  0.0484
  H  H1829  1  0.170700  0.401300  0.826800  1.0  0.0512
  H  H1830  1  0.250300  0.510900  0.899200  1.0  0.0613
  H  H1831  1  0.309800  0.500300  0.837000  1.0  0.0496
  H  H1832  1  0.145800  0.453700  0.773900  1.0  0.0451
  H  H1833  1  0.315200  0.001900  0.421000  1.0  0.0551
  H  H1834  1  0.284900  0.942100  0.364800  1.0  0.0603
  H  H1835  1  0.141800  0.977400  0.348900  1.0  0.0524
  H  H1836  1  0.093800  0.918000  0.329500  1.0  0.0484
  H  H1837  1  0.170700  0.901300  0.326800  1.0  0.0512
  H  H1838  1  0.250300  0.010900  0.399200  1.0  0.0613
  H  H1839  1  0.309800  0.000300  0.337000  1.0  0.0496
  H  H1840  1  0.145800  0.953700  0.273900  1.0  0.0451
  H  H1841  1  0.815200  0.501900  0.421000  1.0  0.0551
  H  H1842  1  0.784900  0.442100  0.364800  1.0  0.0603
  H  H1843  1  0.641800  0.477400  0.348900  1.0  0.0524
  H  H1844  1  0.593800  0.418000  0.329500  1.0  0.0484
  H  H1845  1  0.670700  0.401300  0.326800  1.0  0.0512
  H  H1846  1  0.750300  0.510900  0.399200  1.0  0.0613
  H  H1847  1  0.809800  0.500300  0.337000  1.0  0.0496
  H  H1848  1  0.645800  0.453700  0.273900  1.0  0.0451
  H  H1849  1  0.815200  0.001900  0.921000  1.0  0.0551
  H  H1850  1  0.784900  0.942100  0.864800  1.0  0.0603
  H  H1851  1  0.641800  0.977400  0.848900  1.0  0.0524
  H  H1852  1  0.593800  0.918000  0.829500  1.0  0.0484
  H  H1853  1  0.670700  0.901300  0.826800  1.0  0.0512
  H  H1854  1  0.750300  0.010900  0.899200  1.0  0.0613
  H  H1855  1  0.809800  0.000300  0.837000  1.0  0.0496
  H  H1856  1  0.645800  0.953700  0.773900  1.0  0.0451
  H  H1857  1  0.434800  0.748100  0.421000  1.0  0.0545
  H  H1858  1  0.465100  0.807900  0.364800  1.0  0.0602
  H  H1859  1  0.608200  0.772600  0.348900  1.0  0.0512
  H  H1860  1  0.656200  0.832000  0.329500  1.0  0.0486
  H  H1861  1  0.579300  0.848700  0.326800  1.0  0.0506
  H  H1862  1  0.499700  0.739100  0.399200  1.0  0.061
  H  H1863  1  0.440200  0.749700  0.337000  1.0  0.0498
  H  H1864  1  0.604200  0.796300  0.273900  1.0  0.0449
  H  H1865  1  0.434800  0.248100  0.921000  1.0  0.0545
  H  H1866  1  0.465100  0.307900  0.864800  1.0  0.0602
  H  H1867  1  0.608200  0.272600  0.848900  1.0  0.0512
  H  H1868  1  0.656200  0.332000  0.829500  1.0  0.0486
  H  H1869  1  0.579300  0.348700  0.826800  1.0  0.0506
  H  H1870  1  0.499700  0.239100  0.899200  1.0  0.061
  H  H1871  1  0.440200  0.249700  0.837000  1.0  0.0498
  H  H1872  1  0.604200  0.296300  0.773900  1.0  0.0449
  H  H1873  1  0.934800  0.748100  0.921000  1.0  0.0545
  H  H1874  1  0.965100  0.807900  0.864800  1.0  0.0602
  H  H1875  1  0.108200  0.772600  0.848900  1.0  0.0512
  H  H1876  1  0.156200  0.832000  0.829500  1.0  0.0486
  H  H1877  1  0.079300  0.848700  0.826800  1.0  0.0506
  H  H1878  1  0.999700  0.739100  0.899200  1.0  0.061
  H  H1879  1  0.940200  0.749700  0.837000  1.0  0.0498
  H  H1880  1  0.104200  0.796300  0.773900  1.0  0.0449
  H  H1881  1  0.934800  0.248100  0.421000  1.0  0.0545
  H  H1882  1  0.965100  0.307900  0.364800  1.0  0.0602
  H  H1883  1  0.108200  0.272600  0.348900  1.0  0.0512
  H  H1884  1  0.156200  0.332000  0.329500  1.0  0.0486
  H  H1885  1  0.079300  0.348700  0.326800  1.0  0.0506
  H  H1886  1  0.999700  0.239100  0.399200  1.0  0.061
  H  H1887  1  0.940200  0.249700  0.337000  1.0  0.0498
  H  H1888  1  0.104200  0.296300  0.273900  1.0  0.0449
  H  H1889  1  0.934800  0.001900  0.829000  1.0  0.0554
  H  H1890  1  0.965100  0.942100  0.885200  1.0  0.0606
  H  H1891  1  0.108200  0.977400  0.901100  1.0  0.0515
  H  H1892  1  0.156200  0.918000  0.920500  1.0  0.0496
  H  H1893  1  0.079300  0.901300  0.923200  1.0  0.0512
  H  H1894  1  0.999700  0.010900  0.850800  1.0  0.061
  H  H1895  1  0.940200  0.000300  0.913000  1.0  0.0496
  H  H1896  1  0.104200  0.953700  0.976100  1.0  0.0445
  H  H1897  1  0.934800  0.501900  0.329000  1.0  0.0554
  H  H1898  1  0.965100  0.442100  0.385200  1.0  0.0606
  H  H1899  1  0.108200  0.477400  0.401100  1.0  0.0515
  H  H1900  1  0.156200  0.418000  0.420500  1.0  0.0496
  H  H1901  1  0.079300  0.401300  0.423200  1.0  0.0512
  H  H1902  1  0.999700  0.510900  0.350800  1.0  0.061
  H  H1903  1  0.940200  0.500300  0.413000  1.0  0.0496
  H  H1904  1  0.104200  0.453700  0.476100  1.0  0.0445
  H  H1905  1  0.434800  0.001900  0.329000  1.0  0.0554
  H  H1906  1  0.465100  0.942100  0.385200  1.0  0.0606
  H  H1907  1  0.608200  0.977400  0.401100  1.0  0.0515
  H  H1908  1  0.656200  0.918000  0.420500  1.0  0.0496
  H  H1909  1  0.579300  0.901300  0.423200  1.0  0.0512
  H  H1910  1  0.499700  0.010900  0.350800  1.0  0.061
  H  H1911  1  0.440200  0.000300  0.413000  1.0  0.0496
  H  H1912  1  0.604200  0.953700  0.476100  1.0  0.0445
  H  H1913  1  0.434800  0.501900  0.829000  1.0  0.0554
  H  H1914  1  0.465100  0.442100  0.885200  1.0  0.0606
  H  H1915  1  0.608200  0.477400  0.901100  1.0  0.0515
  H  H1916  1  0.656200  0.418000  0.920500  1.0  0.0496
  H  H1917  1  0.579300  0.401300  0.923200  1.0  0.0512
  H  H1918  1  0.499700  0.510900  0.850800  1.0  0.061
  H  H1919  1  0.440200  0.500300  0.913000  1.0  0.0496
  H  H1920  1  0.604200  0.453700  0.976100  1.0  0.0445
  C  C1921  1  0.348200  0.504360  0.430640  1.0  0.1028
  C  C1922  1  0.376790  0.454500  0.478060  1.0  0.1202
  C  C1923  1  0.401890  0.460920  0.597250  1.0  0.0722
  C  C1924  1  0.437330  0.425100  0.648640  1.0  0.1303
  C  C1925  1  0.414050  0.418720  0.581330  1.0  0.1487
  C  C1926  1  0.357690  0.492480  0.497190  1.0  0.0467
  C  C1927  1  0.394640  0.503340  0.433550  1.0  0.1125
  C  C1928  1  0.468100  0.444790  0.619910  1.0  0.0771
  C  C1929  1  0.348200  0.004360  0.930640  1.0  0.1028
  C  C1930  1  0.376790  0.954500  0.978060  1.0  0.1202
  C  C1931  1  0.401890  0.960920  0.097250  1.0  0.0722
  C  C1932  1  0.437330  0.925100  0.148640  1.0  0.1303
  C  C1933  1  0.414050  0.918720  0.081330  1.0  0.1487
  C  C1934  1  0.357690  0.992480  0.997190  1.0  0.0467
  C  C1935  1  0.394640  0.003340  0.933550  1.0  0.1125
  C  C1936  1  0.468100  0.944790  0.119910  1.0  0.0771
  C  C1937  1  0.848200  0.504360  0.930640  1.0  0.1028
  C  C1938  1  0.876790  0.454500  0.978060  1.0  0.1202
  C  C1939  1  0.901890  0.460920  0.097250  1.0  0.0722
  C  C1940  1  0.937330  0.425100  0.148640  1.0  0.1303
  C  C1941  1  0.914050  0.418720  0.081330  1.0  0.1487
  C  C1942  1  0.857690  0.492480  0.997190  1.0  0.0467
  C  C1943  1  0.894640  0.503340  0.933550  1.0  0.1125
  C  C1944  1  0.968100  0.444790  0.119910  1.0  0.0771
  C  C1945  1  0.848200  0.004360  0.430640  1.0  0.1028
  C  C1946  1  0.876790  0.954500  0.478060  1.0  0.1202
  C  C1947  1  0.901890  0.960920  0.597250  1.0  0.0722
  C  C1948  1  0.937330  0.925100  0.648640  1.0  0.1303
  C  C1949  1  0.914050  0.918720  0.581330  1.0  0.1487
  C  C1950  1  0.857690  0.992480  0.497190  1.0  0.0467
  C  C1951  1  0.894640  0.003340  0.433550  1.0  0.1125
  C  C1952  1  0.968100  0.944790  0.619910  1.0  0.0771
  C  C1953  1  0.901800  0.245640  0.930640  1.0  0.1029
  C  C1954  1  0.873210  0.295500  0.978060  1.0  0.1207
  C  C1955  1  0.848110  0.289080  0.097250  1.0  0.0738
  C  C1956  1  0.812670  0.324900  0.148640  1.0  0.1307
  C  C1957  1  0.835950  0.331280  0.081330  1.0  0.1489
  C  C1958  1  0.892310  0.257520  0.997190  1.0  0.0466
  C  C1959  1  0.855360  0.246660  0.933550  1.0  0.1115
  C  C1960  1  0.781900  0.305210  0.119910  1.0  0.0771
  C  C1961  1  0.901800  0.745640  0.430640  1.0  0.1029
  C  C1962  1  0.873210  0.795500  0.478060  1.0  0.1207
  C  C1963  1  0.848110  0.789080  0.597250  1.0  0.0738
  C  C1964  1  0.812670  0.824900  0.648640  1.0  0.1307
  C  C1965  1  0.835950  0.831280  0.581330  1.0  0.1489
  C  C1966  1  0.892310  0.757520  0.497190  1.0  0.0466
  C  C1967  1  0.855360  0.746660  0.433550  1.0  0.1115
  C  C1968  1  0.781900  0.805210  0.619910  1.0  0.0771
  C  C1969  1  0.401800  0.245640  0.430640  1.0  0.1029
  C  C1970  1  0.373210  0.295500  0.478060  1.0  0.1207
  C  C1971  1  0.348110  0.289080  0.597250  1.0  0.0738
  C  C1972  1  0.312670  0.324900  0.648640  1.0  0.1307
  C  C1973  1  0.335950  0.331280  0.581330  1.0  0.1489
  C  C1974  1  0.392310  0.257520  0.497190  1.0  0.0466
  C  C1975  1  0.355360  0.246660  0.433550  1.0  0.1115
  C  C1976  1  0.281900  0.305210  0.619910  1.0  0.0771
  C  C1977  1  0.401800  0.745640  0.930640  1.0  0.1029
  C  C1978  1  0.373210  0.795500  0.978060  1.0  0.1207
  C  C1979  1  0.348110  0.789080  0.097250  1.0  0.0738
  C  C1980  1  0.312670  0.824900  0.148640  1.0  0.1307
  C  C1981  1  0.335950  0.831280  0.081330  1.0  0.1489
  C  C1982  1  0.392310  0.757520  0.997190  1.0  0.0466
  C  C1983  1  0.355360  0.746660  0.933550  1.0  0.1115
  C  C1984  1  0.281900  0.805210  0.119910  1.0  0.0771
  C  C1985  1  0.401800  0.004360  0.819360  1.0  0.1032
  C  C1986  1  0.373210  0.954500  0.771940  1.0  0.1202
  C  C1987  1  0.348110  0.960920  0.652750  1.0  0.0728
  C  C1988  1  0.312670  0.925100  0.601360  1.0  0.1311
  C  C1989  1  0.335950  0.918720  0.668670  1.0  0.1491
  C  C1990  1  0.392310  0.992480  0.752810  1.0  0.0463
  C  C1991  1  0.355360  0.003340  0.816450  1.0  0.1124
  C  C1992  1  0.281900  0.944790  0.630090  1.0  0.0755
  C  C1993  1  0.401800  0.504360  0.319360  1.0  0.1032
  C  C1994  1  0.373210  0.454500  0.271940  1.0  0.1202
  C  C1995  1  0.348110  0.460920  0.152750  1.0  0.0728
  C  C1996  1  0.312670  0.425100  0.101360  1.0  0.1311
  C  C1997  1  0.335950  0.418720  0.168670  1.0  0.1491
  C  C1998  1  0.392310  0.492480  0.252810  1.0  0.0463
  C  C1999  1  0.355360  0.503340  0.316450  1.0  0.1124
  C  C2000  1  0.281900  0.444790  0.130090  1.0  0.0755
  C  C2001  1  0.901800  0.004360  0.319360  1.0  0.1032
  C  C2002  1  0.873210  0.954500  0.271940  1.0  0.1202
  C  C2003  1  0.848110  0.960920  0.152750  1.0  0.0728
  C  C2004  1  0.812670  0.925100  0.101360  1.0  0.1311
  C  C2005  1  0.835950  0.918720  0.168670  1.0  0.1491
  C  C2006  1  0.892310  0.992480  0.252810  1.0  0.0463
  C  C2007  1  0.855360  0.003340  0.316450  1.0  0.1124
  C  C2008  1  0.781900  0.944790  0.130090  1.0  0.0755
  C  C2009  1  0.901800  0.504360  0.819360  1.0  0.1032
  C  C2010  1  0.873210  0.454500  0.771940  1.0  0.1202
  C  C2011  1  0.848110  0.460920  0.652750  1.0  0.0728
  C  C2012  1  0.812670  0.425100  0.601360  1.0  0.1311
  C  C2013  1  0.835950  0.418720  0.668670  1.0  0.1491
  C  C2014  1  0.892310  0.492480  0.752810  1.0  0.0463
  C  C2015  1  0.855360  0.503340  0.816450  1.0  0.1124
  C  C2016  1  0.781900  0.444790  0.630090  1.0  0.0755
  C  C2017  1  0.848200  0.745640  0.319360  1.0  0.1027
  C  C2018  1  0.876790  0.795500  0.271940  1.0  0.1205
  C  C2019  1  0.901890  0.789080  0.152750  1.0  0.0718
  C  C2020  1  0.937330  0.824900  0.101360  1.0  0.1308
  C  C2021  1  0.914050  0.831280  0.168670  1.0  0.1487
  C  C2022  1  0.857690  0.757520  0.252810  1.0  0.0467
  C  C2023  1  0.894640  0.746660  0.316450  1.0  0.1126
  C  C2024  1  0.968100  0.805210  0.130090  1.0  0.0775
  C  C2025  1  0.848200  0.245640  0.819360  1.0  0.1027
  C  C2026  1  0.876790  0.295500  0.771940  1.0  0.1205
  C  C2027  1  0.901890  0.289080  0.652750  1.0  0.0718
  C  C2028  1  0.937330  0.324900  0.601360  1.0  0.1308
  C  C2029  1  0.914050  0.331280  0.668670  1.0  0.1487
  C  C2030  1  0.857690  0.257520  0.752810  1.0  0.0467
  C  C2031  1  0.894640  0.246660  0.816450  1.0  0.1126
  C  C2032  1  0.968100  0.305210  0.630090  1.0  0.0775
  C  C2033  1  0.348200  0.745640  0.819360  1.0  0.1027
  C  C2034  1  0.376790  0.795500  0.771940  1.0  0.1205
  C  C2035  1  0.401890  0.789080  0.652750  1.0  0.0718
  C  C2036  1  0.437330  0.824900  0.601360  1.0  0.1308
  C  C2037  1  0.414050  0.831280  0.668670  1.0  0.1487
  C  C2038  1  0.357690  0.757520  0.752810  1.0  0.0467
  C  C2039  1  0.394640  0.746660  0.816450  1.0  0.1126
  C  C2040  1  0.468100  0.805210  0.630090  1.0  0.0775
  C  C2041  1  0.348200  0.245640  0.319360  1.0  0.1027
  C  C2042  1  0.376790  0.295500  0.271940  1.0  0.1205
  C  C2043  1  0.401890  0.289080  0.152750  1.0  0.0718
  C  C2044  1  0.437330  0.324900  0.101360  1.0  0.1308
  C  C2045  1  0.414050  0.331280  0.168670  1.0  0.1487
  C  C2046  1  0.357690  0.257520  0.252810  1.0  0.0467
  C  C2047  1  0.394640  0.246660  0.316450  1.0  0.1126
  C  C2048  1  0.468100  0.305210  0.130090  1.0  0.0775
  C  C2049  1  0.430640  0.348200  0.504360  1.0  0.103
  C  C2050  1  0.478060  0.376790  0.454500  1.0  0.1218
  C  C2051  1  0.597250  0.401890  0.460920  1.0  0.0717
  C  C2052  1  0.648640  0.437330  0.425100  1.0  0.1318
  C  C2053  1  0.581330  0.414050  0.418720  1.0  0.149
  C  C2054  1  0.497190  0.357690  0.492480  1.0  0.0455
  C  C2055  1  0.433550  0.394640  0.503340  1.0  0.1139
  C  C2056  1  0.619910  0.468100  0.444790  1.0  0.0747
  C  C2057  1  0.430640  0.848200  0.004360  1.0  0.103
  C  C2058  1  0.478060  0.876790  0.954500  1.0  0.1218
  C  C2059  1  0.597250  0.901890  0.960920  1.0  0.0717
  C  C2060  1  0.648640  0.937330  0.925100  1.0  0.1318
  C  C2061  1  0.581330  0.914050  0.918720  1.0  0.149
  C  C2062  1  0.497190  0.857690  0.992480  1.0  0.0455
  C  C2063  1  0.433550  0.894640  0.003340  1.0  0.1139
  C  C2064  1  0.619910  0.968100  0.944790  1.0  0.0747
  C  C2065  1  0.930640  0.348200  0.004360  1.0  0.103
  C  C2066  1  0.978060  0.376790  0.954500  1.0  0.1218
  C  C2067  1  0.097250  0.401890  0.960920  1.0  0.0717
  C  C2068  1  0.148640  0.437330  0.925100  1.0  0.1318
  C  C2069  1  0.081330  0.414050  0.918720  1.0  0.149
  C  C2070  1  0.997190  0.357690  0.992480  1.0  0.0455
  C  C2071  1  0.933550  0.394640  0.003340  1.0  0.1139
  C  C2072  1  0.119910  0.468100  0.944790  1.0  0.0747
  C  C2073  1  0.930640  0.848200  0.504360  1.0  0.103
  C  C2074  1  0.978060  0.876790  0.454500  1.0  0.1218
  C  C2075  1  0.097250  0.901890  0.460920  1.0  0.0717
  C  C2076  1  0.148640  0.937330  0.425100  1.0  0.1318
  C  C2077  1  0.081330  0.914050  0.418720  1.0  0.149
  C  C2078  1  0.997190  0.857690  0.492480  1.0  0.0455
  C  C2079  1  0.933550  0.894640  0.503340  1.0  0.1139
  C  C2080  1  0.119910  0.968100  0.444790  1.0  0.0747
  C  C2081  1  0.930640  0.901800  0.245640  1.0  0.1039
  C  C2082  1  0.978060  0.873210  0.295500  1.0  0.1207
  C  C2083  1  0.097250  0.848110  0.289080  1.0  0.073
  C  C2084  1  0.148640  0.812670  0.324900  1.0  0.1305
  C  C2085  1  0.081330  0.835950  0.331280  1.0  0.1483
  C  C2086  1  0.997190  0.892310  0.257520  1.0  0.0453
  C  C2087  1  0.933550  0.855360  0.246660  1.0  0.1133
  C  C2088  1  0.119910  0.781900  0.305210  1.0  0.0752
  C  C2089  1  0.930640  0.401800  0.745640  1.0  0.1039
  C  C2090  1  0.978060  0.373210  0.795500  1.0  0.1207
  C  C2091  1  0.097250  0.348110  0.789080  1.0  0.073
  C  C2092  1  0.148640  0.312670  0.824900  1.0  0.1305
  C  C2093  1  0.081330  0.335950  0.831280  1.0  0.1483
  C  C2094  1  0.997190  0.392310  0.757520  1.0  0.0453
  C  C2095  1  0.933550  0.355360  0.746660  1.0  0.1133
  C  C2096  1  0.119910  0.281900  0.805210  1.0  0.0752
  C  C2097  1  0.430640  0.901800  0.745640  1.0  0.1039
  C  C2098  1  0.478060  0.873210  0.795500  1.0  0.1207
  C  C2099  1  0.597250  0.848110  0.789080  1.0  0.073
  C  C2100  1  0.648640  0.812670  0.824900  1.0  0.1305
  C  C2101  1  0.581330  0.835950  0.831280  1.0  0.1483
  C  C2102  1  0.497190  0.892310  0.757520  1.0  0.0453
  C  C2103  1  0.433550  0.855360  0.746660  1.0  0.1133
  C  C2104  1  0.619910  0.781900  0.805210  1.0  0.0752
  C  C2105  1  0.430640  0.401800  0.245640  1.0  0.1039
  C  C2106  1  0.478060  0.373210  0.295500  1.0  0.1207
  C  C2107  1  0.597250  0.348110  0.289080  1.0  0.073
  C  C2108  1  0.648640  0.312670  0.324900  1.0  0.1305
  C  C2109  1  0.581330  0.335950  0.331280  1.0  0.1483
  C  C2110  1  0.497190  0.392310  0.257520  1.0  0.0453
  C  C2111  1  0.433550  0.355360  0.246660  1.0  0.1133
  C  C2112  1  0.619910  0.281900  0.305210  1.0  0.0752
  C  C2113  1  0.819360  0.401800  0.004360  1.0  0.104
  C  C2114  1  0.771940  0.373210  0.954500  1.0  0.1222
  C  C2115  1  0.652750  0.348110  0.960920  1.0  0.0723
  C  C2116  1  0.601360  0.312670  0.925100  1.0  0.1306
  C  C2117  1  0.668670  0.335950  0.918720  1.0  0.1492
  C  C2118  1  0.752810  0.392310  0.992480  1.0  0.0446
  C  C2119  1  0.816450  0.355360  0.003340  1.0  0.1132
  C  C2120  1  0.630090  0.281900  0.944790  1.0  0.0767
  C  C2121  1  0.819360  0.901800  0.504360  1.0  0.104
  C  C2122  1  0.771940  0.873210  0.454500  1.0  0.1222
  C  C2123  1  0.652750  0.848110  0.460920  1.0  0.0723
  C  C2124  1  0.601360  0.812670  0.425100  1.0  0.1306
  C  C2125  1  0.668670  0.835950  0.418720  1.0  0.1492
  C  C2126  1  0.752810  0.892310  0.492480  1.0  0.0446
  C  C2127  1  0.816450  0.855360  0.503340  1.0  0.1132
  C  C2128  1  0.630090  0.781900  0.444790  1.0  0.0767
  C  C2129  1  0.319360  0.401800  0.504360  1.0  0.104
  C  C2130  1  0.271940  0.373210  0.454500  1.0  0.1222
  C  C2131  1  0.152750  0.348110  0.460920  1.0  0.0723
  C  C2132  1  0.101360  0.312670  0.425100  1.0  0.1306
  C  C2133  1  0.168670  0.335950  0.418720  1.0  0.1492
  C  C2134  1  0.252810  0.392310  0.492480  1.0  0.0446
  C  C2135  1  0.316450  0.355360  0.503340  1.0  0.1132
  C  C2136  1  0.130090  0.281900  0.444790  1.0  0.0767
  C  C2137  1  0.319360  0.901800  0.004360  1.0  0.104
  C  C2138  1  0.271940  0.873210  0.954500  1.0  0.1222
  C  C2139  1  0.152750  0.848110  0.960920  1.0  0.0723
  C  C2140  1  0.101360  0.812670  0.925100  1.0  0.1306
  C  C2141  1  0.168670  0.835950  0.918720  1.0  0.1492
  C  C2142  1  0.252810  0.892310  0.992480  1.0  0.0446
  C  C2143  1  0.316450  0.855360  0.003340  1.0  0.1132
  C  C2144  1  0.130090  0.781900  0.944790  1.0  0.0767
  C  C2145  1  0.319360  0.848200  0.745640  1.0  0.1033
  C  C2146  1  0.271940  0.876790  0.795500  1.0  0.1206
  C  C2147  1  0.152750  0.901890  0.789080  1.0  0.0734
  C  C2148  1  0.101360  0.937330  0.824900  1.0  0.1302
  C  C2149  1  0.168670  0.914050  0.831280  1.0  0.1481
  C  C2150  1  0.252810  0.857690  0.757520  1.0  0.0451
  C  C2151  1  0.316450  0.894640  0.746660  1.0  0.1134
  C  C2152  1  0.130090  0.968100  0.805210  1.0  0.0763
  C  C2153  1  0.319360  0.348200  0.245640  1.0  0.1033
  C  C2154  1  0.271940  0.376790  0.295500  1.0  0.1206
  C  C2155  1  0.152750  0.401890  0.289080  1.0  0.0734
  C  C2156  1  0.101360  0.437330  0.324900  1.0  0.1302
  C  C2157  1  0.168670  0.414050  0.331280  1.0  0.1481
  C  C2158  1  0.252810  0.357690  0.257520  1.0  0.0451
  C  C2159  1  0.316450  0.394640  0.246660  1.0  0.1134
  C  C2160  1  0.130090  0.468100  0.305210  1.0  0.0763
  C  C2161  1  0.819360  0.848200  0.245640  1.0  0.1033
  C  C2162  1  0.771940  0.876790  0.295500  1.0  0.1206
  C  C2163  1  0.652750  0.901890  0.289080  1.0  0.0734
  C  C2164  1  0.601360  0.937330  0.324900  1.0  0.1302
  C  C2165  1  0.668670  0.914050  0.331280  1.0  0.1481
  C  C2166  1  0.752810  0.857690  0.257520  1.0  0.0451
  C  C2167  1  0.816450  0.894640  0.246660  1.0  0.1134
  C  C2168  1  0.630090  0.968100  0.305210  1.0  0.0763
  C  C2169  1  0.819360  0.348200  0.745640  1.0  0.1033
  C  C2170  1  0.771940  0.376790  0.795500  1.0  0.1206
  C  C2171  1  0.652750  0.401890  0.789080  1.0  0.0734
  C  C2172  1  0.601360  0.437330  0.824900  1.0  0.1302
  C  C2173  1  0.668670  0.414050  0.831280  1.0  0.1481
  C  C2174  1  0.752810  0.357690  0.757520  1.0  0.0451
  C  C2175  1  0.816450  0.394640  0.746660  1.0  0.1134
  C  C2176  1  0.630090  0.468100  0.805210  1.0  0.0763
  C  C2177  1  0.504360  0.430640  0.348200  1.0  0.1066
  C  C2178  1  0.454500  0.478060  0.376790  1.0  0.1205
  C  C2179  1  0.460920  0.597250  0.401890  1.0  0.0692
  C  C2180  1  0.425100  0.648640  0.437330  1.0  0.1295
  C  C2181  1  0.418720  0.581330  0.414050  1.0  0.1482
  C  C2182  1  0.492480  0.497190  0.357690  1.0  0.0462
  C  C2183  1  0.503340  0.433550  0.394640  1.0  0.112
  C  C2184  1  0.444790  0.619910  0.468100  1.0  0.0778
  C  C2185  1  0.504360  0.930640  0.848200  1.0  0.1066
  C  C2186  1  0.454500  0.978060  0.876790  1.0  0.1205
  C  C2187  1  0.460920  0.097250  0.901890  1.0  0.0692
  C  C2188  1  0.425100  0.148640  0.937330  1.0  0.1295
  C  C2189  1  0.418720  0.081330  0.914050  1.0  0.1482
  C  C2190  1  0.492480  0.997190  0.857690  1.0  0.0462
  C  C2191  1  0.503340  0.933550  0.894640  1.0  0.112
  C  C2192  1  0.444790  0.119910  0.968100  1.0  0.0778
  C  C2193  1  0.004360  0.430640  0.848200  1.0  0.1066
  C  C2194  1  0.954500  0.478060  0.876790  1.0  0.1205
  C  C2195  1  0.960920  0.597250  0.901890  1.0  0.0692
  C  C2196  1  0.925100  0.648640  0.937330  1.0  0.1295
  C  C2197  1  0.918720  0.581330  0.914050  1.0  0.1482
  C  C2198  1  0.992480  0.497190  0.857690  1.0  0.0462
  C  C2199  1  0.003340  0.433550  0.894640  1.0  0.112
  C  C2200  1  0.944790  0.619910  0.968100  1.0  0.0778
  C  C2201  1  0.004360  0.930640  0.348200  1.0  0.1066
  C  C2202  1  0.954500  0.978060  0.376790  1.0  0.1205
  C  C2203  1  0.960920  0.097250  0.401890  1.0  0.0692
  C  C2204  1  0.925100  0.148640  0.437330  1.0  0.1295
  C  C2205  1  0.918720  0.081330  0.414050  1.0  0.1482
  C  C2206  1  0.992480  0.997190  0.357690  1.0  0.0462
  C  C2207  1  0.003340  0.933550  0.394640  1.0  0.112
  C  C2208  1  0.944790  0.119910  0.468100  1.0  0.0778
  C  C2209  1  0.245640  0.930640  0.901800  1.0  0.1054
  C  C2210  1  0.295500  0.978060  0.873210  1.0  0.1205
  C  C2211  1  0.289080  0.097250  0.848110  1.0  0.0699
  C  C2212  1  0.324900  0.148640  0.812670  1.0  0.1305
  C  C2213  1  0.331280  0.081330  0.835950  1.0  0.1482
  C  C2214  1  0.257520  0.997190  0.892310  1.0  0.0457
  C  C2215  1  0.246660  0.933550  0.855360  1.0  0.1139
  C  C2216  1  0.305210  0.119910  0.781900  1.0  0.0767
  C  C2217  1  0.245640  0.430640  0.401800  1.0  0.1054
  C  C2218  1  0.295500  0.478060  0.373210  1.0  0.1205
  C  C2219  1  0.289080  0.597250  0.348110  1.0  0.0699
  C  C2220  1  0.324900  0.648640  0.312670  1.0  0.1305
  C  C2221  1  0.331280  0.581330  0.335950  1.0  0.1482
  C  C2222  1  0.257520  0.497190  0.392310  1.0  0.0457
  C  C2223  1  0.246660  0.433550  0.355360  1.0  0.1139
  C  C2224  1  0.305210  0.619910  0.281900  1.0  0.0767
  C  C2225  1  0.745640  0.930640  0.401800  1.0  0.1054
  C  C2226  1  0.795500  0.978060  0.373210  1.0  0.1205
  C  C2227  1  0.789080  0.097250  0.348110  1.0  0.0699
  C  C2228  1  0.824900  0.148640  0.312670  1.0  0.1305
  C  C2229  1  0.831280  0.081330  0.335950  1.0  0.1482
  C  C2230  1  0.757520  0.997190  0.392310  1.0  0.0457
  C  C2231  1  0.746660  0.933550  0.355360  1.0  0.1139
  C  C2232  1  0.805210  0.119910  0.281900  1.0  0.0767
  C  C2233  1  0.745640  0.430640  0.901800  1.0  0.1054
  C  C2234  1  0.795500  0.478060  0.873210  1.0  0.1205
  C  C2235  1  0.789080  0.597250  0.848110  1.0  0.0699
  C  C2236  1  0.824900  0.648640  0.812670  1.0  0.1305
  C  C2237  1  0.831280  0.581330  0.835950  1.0  0.1482
  C  C2238  1  0.757520  0.497190  0.892310  1.0  0.0457
  C  C2239  1  0.746660  0.433550  0.855360  1.0  0.1139
  C  C2240  1  0.805210  0.619910  0.781900  1.0  0.0767
  C  C2241  1  0.004360  0.819360  0.401800  1.0  0.1063
  C  C2242  1  0.954500  0.771940  0.373210  1.0  0.1208
  C  C2243  1  0.960920  0.652750  0.348110  1.0  0.069
  C  C2244  1  0.925100  0.601360  0.312670  1.0  0.1297
  C  C2245  1  0.918720  0.668670  0.335950  1.0  0.1475
  C  C2246  1  0.992480  0.752810  0.392310  1.0  0.0464
  C  C2247  1  0.003340  0.816450  0.355360  1.0  0.1141
  C  C2248  1  0.944790  0.630090  0.281900  1.0  0.0769
  C  C2249  1  0.004360  0.319360  0.901800  1.0  0.1063
  C  C2250  1  0.954500  0.271940  0.873210  1.0  0.1208
  C  C2251  1  0.960920  0.152750  0.848110  1.0  0.069
  C  C2252  1  0.925100  0.101360  0.812670  1.0  0.1297
  C  C2253  1  0.918720  0.168670  0.835950  1.0  0.1475
  C  C2254  1  0.992480  0.252810  0.892310  1.0  0.0464
  C  C2255  1  0.003340  0.316450  0.855360  1.0  0.1141
  C  C2256  1  0.944790  0.130090  0.781900  1.0  0.0769
  C  C2257  1  0.504360  0.819360  0.901800  1.0  0.1063
  C  C2258  1  0.454500  0.771940  0.873210  1.0  0.1208
  C  C2259  1  0.460920  0.652750  0.848110  1.0  0.069
  C  C2260  1  0.425100  0.601360  0.812670  1.0  0.1297
  C  C2261  1  0.418720  0.668670  0.835950  1.0  0.1475
  C  C2262  1  0.492480  0.752810  0.892310  1.0  0.0464
  C  C2263  1  0.503340  0.816450  0.855360  1.0  0.1141
  C  C2264  1  0.444790  0.630090  0.781900  1.0  0.0769
  C  C2265  1  0.504360  0.319360  0.401800  1.0  0.1063
  C  C2266  1  0.454500  0.271940  0.373210  1.0  0.1208
  C  C2267  1  0.460920  0.152750  0.348110  1.0  0.069
  C  C2268  1  0.425100  0.101360  0.312670  1.0  0.1297
  C  C2269  1  0.418720  0.168670  0.335950  1.0  0.1475
  C  C2270  1  0.492480  0.252810  0.392310  1.0  0.0464
  C  C2271  1  0.503340  0.316450  0.355360  1.0  0.1141
  C  C2272  1  0.444790  0.130090  0.281900  1.0  0.0769
  C  C2273  1  0.745640  0.319360  0.848200  1.0  0.1062
  C  C2274  1  0.795500  0.271940  0.876790  1.0  0.1208
  C  C2275  1  0.789080  0.152750  0.901890  1.0  0.0705
  C  C2276  1  0.824900  0.101360  0.937330  1.0  0.1304
  C  C2277  1  0.831280  0.168670  0.914050  1.0  0.1486
  C  C2278  1  0.757520  0.252810  0.857690  1.0  0.0467
  C  C2279  1  0.746660  0.316450  0.894640  1.0  0.1135
  C  C2280  1  0.805210  0.130090  0.968100  1.0  0.0772
  C  C2281  1  0.745640  0.819360  0.348200  1.0  0.1062
  C  C2282  1  0.795500  0.771940  0.376790  1.0  0.1208
  C  C2283  1  0.789080  0.652750  0.401890  1.0  0.0705
  C  C2284  1  0.824900  0.601360  0.437330  1.0  0.1304
  C  C2285  1  0.831280  0.668670  0.414050  1.0  0.1486
  C  C2286  1  0.757520  0.752810  0.357690  1.0  0.0467
  C  C2287  1  0.746660  0.816450  0.394640  1.0  0.1135
  C  C2288  1  0.805210  0.630090  0.468100  1.0  0.0772
  C  C2289  1  0.245640  0.319360  0.348200  1.0  0.1062
  C  C2290  1  0.295500  0.271940  0.376790  1.0  0.1208
  C  C2291  1  0.289080  0.152750  0.401890  1.0  0.0705
  C  C2292  1  0.324900  0.101360  0.437330  1.0  0.1304
  C  C2293  1  0.331280  0.168670  0.414050  1.0  0.1486
  C  C2294  1  0.257520  0.252810  0.357690  1.0  0.0467
  C  C2295  1  0.246660  0.316450  0.394640  1.0  0.1135
  C  C2296  1  0.305210  0.130090  0.468100  1.0  0.0772
  C  C2297  1  0.245640  0.819360  0.848200  1.0  0.1062
  C  C2298  1  0.295500  0.771940  0.876790  1.0  0.1208
  C  C2299  1  0.289080  0.652750  0.901890  1.0  0.0705
  C  C2300  1  0.324900  0.601360  0.937330  1.0  0.1304
  C  C2301  1  0.331280  0.668670  0.914050  1.0  0.1486
  C  C2302  1  0.257520  0.752810  0.857690  1.0  0.0467
  C  C2303  1  0.246660  0.816450  0.894640  1.0  0.1135
  C  C2304  1  0.305210  0.630090  0.968100  1.0  0.0772
  C  C2305  1  0.254360  0.598200  0.569360  1.0  0.1036
  C  C2306  1  0.204500  0.626790  0.521940  1.0  0.1198
  C  C2307  1  0.210920  0.651890  0.402750  1.0  0.0684
  C  C2308  1  0.175100  0.687330  0.351360  1.0  0.1297
  C  C2309  1  0.168720  0.664050  0.418670  1.0  0.1471
  C  C2310  1  0.242480  0.607690  0.502810  1.0  0.0453
  C  C2311  1  0.253340  0.644640  0.566450  1.0  0.1138
  C  C2312  1  0.194790  0.718100  0.380090  1.0  0.0757
  C  C2313  1  0.254360  0.098200  0.069360  1.0  0.1036
  C  C2314  1  0.204500  0.126790  0.021940  1.0  0.1198
  C  C2315  1  0.210920  0.151890  0.902750  1.0  0.0684
  C  C2316  1  0.175100  0.187330  0.851360  1.0  0.1297
  C  C2317  1  0.168720  0.164050  0.918670  1.0  0.1471
  C  C2318  1  0.242480  0.107690  0.002810  1.0  0.0453
  C  C2319  1  0.253340  0.144640  0.066450  1.0  0.1138
  C  C2320  1  0.194790  0.218100  0.880090  1.0  0.0757
  C  C2321  1  0.754360  0.598200  0.069360  1.0  0.1036
  C  C2322  1  0.704500  0.626790  0.021940  1.0  0.1198
  C  C2323  1  0.710920  0.651890  0.902750  1.0  0.0684
  C  C2324  1  0.675100  0.687330  0.851360  1.0  0.1297
  C  C2325  1  0.668720  0.664050  0.918670  1.0  0.1471
  C  C2326  1  0.742480  0.607690  0.002810  1.0  0.0453
  C  C2327  1  0.753340  0.644640  0.066450  1.0  0.1138
  C  C2328  1  0.694790  0.718100  0.880090  1.0  0.0757
  C  C2329  1  0.754360  0.098200  0.569360  1.0  0.1036
  C  C2330  1  0.704500  0.126790  0.521940  1.0  0.1198
  C  C2331  1  0.710920  0.151890  0.402750  1.0  0.0684
  C  C2332  1  0.675100  0.187330  0.351360  1.0  0.1297
  C  C2333  1  0.668720  0.164050  0.418670  1.0  0.1471
  C  C2334  1  0.742480  0.107690  0.502810  1.0  0.0453
  C  C2335  1  0.753340  0.144640  0.566450  1.0  0.1138
  C  C2336  1  0.694790  0.218100  0.380090  1.0  0.0757
  C  C2337  1  0.995640  0.151800  0.069360  1.0  0.1044
  C  C2338  1  0.045500  0.123210  0.021940  1.0  0.1214
  C  C2339  1  0.039080  0.098110  0.902750  1.0  0.07
  C  C2340  1  0.074900  0.062670  0.851360  1.0  0.1316
  C  C2341  1  0.081280  0.085950  0.918670  1.0  0.1481
  C  C2342  1  0.007520  0.142310  0.002810  1.0  0.0461
  C  C2343  1  0.996660  0.105360  0.066450  1.0  0.1135
  C  C2344  1  0.055210  0.031900  0.880090  1.0  0.0765
  C  C2345  1  0.995640  0.651800  0.569360  1.0  0.1044
  C  C2346  1  0.045500  0.623210  0.521940  1.0  0.1214
  C  C2347  1  0.039080  0.598110  0.402750  1.0  0.07
  C  C2348  1  0.074900  0.562670  0.351360  1.0  0.1316
  C  C2349  1  0.081280  0.585950  0.418670  1.0  0.1481
  C  C2350  1  0.007520  0.642310  0.502810  1.0  0.0461
  C  C2351  1  0.996660  0.605360  0.566450  1.0  0.1135
  C  C2352  1  0.055210  0.531900  0.380090  1.0  0.0765
  C  C2353  1  0.495640  0.151800  0.569360  1.0  0.1044
  C  C2354  1  0.545500  0.123210  0.521940  1.0  0.1214
  C  C2355  1  0.539080  0.098110  0.402750  1.0  0.07
  C  C2356  1  0.574900  0.062670  0.351360  1.0  0.1316
  C  C2357  1  0.581280  0.085950  0.418670  1.0  0.1481
  C  C2358  1  0.507520  0.142310  0.502810  1.0  0.0461
  C  C2359  1  0.496660  0.105360  0.566450  1.0  0.1135
  C  C2360  1  0.555210  0.031900  0.380090  1.0  0.0765
  C  C2361  1  0.495640  0.651800  0.069360  1.0  0.1044
  C  C2362  1  0.545500  0.623210  0.021940  1.0  0.1214
  C  C2363  1  0.539080  0.598110  0.902750  1.0  0.07
  C  C2364  1  0.574900  0.562670  0.851360  1.0  0.1316
  C  C2365  1  0.581280  0.585950  0.918670  1.0  0.1481
  C  C2366  1  0.507520  0.642310  0.002810  1.0  0.0461
  C  C2367  1  0.496660  0.605360  0.066450  1.0  0.1135
  C  C2368  1  0.555210  0.531900  0.880090  1.0  0.0765
  C  C2369  1  0.754360  0.651800  0.180640  1.0  0.1046
  C  C2370  1  0.704500  0.623210  0.228060  1.0  0.1209
  C  C2371  1  0.710920  0.598110  0.347250  1.0  0.0693
  C  C2372  1  0.675100  0.562670  0.398640  1.0  0.1296
  C  C2373  1  0.668720  0.585950  0.331330  1.0  0.1481
  C  C2374  1  0.742480  0.642310  0.247190  1.0  0.0462
  C  C2375  1  0.753340  0.605360  0.183550  1.0  0.1127
  C  C2376  1  0.694790  0.531900  0.369910  1.0  0.0762
  C  C2377  1  0.754360  0.151800  0.680640  1.0  0.1046
  C  C2378  1  0.704500  0.123210  0.728060  1.0  0.1209
  C  C2379  1  0.710920  0.098110  0.847250  1.0  0.0693
  C  C2380  1  0.675100  0.062670  0.898640  1.0  0.1296
  C  C2381  1  0.668720  0.085950  0.831330  1.0  0.1481
  C  C2382  1  0.742480  0.142310  0.747190  1.0  0.0462
  C  C2383  1  0.753340  0.105360  0.683550  1.0  0.1127
  C  C2384  1  0.694790  0.031900  0.869910  1.0  0.0762
  C  C2385  1  0.254360  0.651800  0.680640  1.0  0.1046
  C  C2386  1  0.204500  0.623210  0.728060  1.0  0.1209
  C  C2387  1  0.210920  0.598110  0.847250  1.0  0.0693
  C  C2388  1  0.175100  0.562670  0.898640  1.0  0.1296
  C  C2389  1  0.168720  0.585950  0.831330  1.0  0.1481
  C  C2390  1  0.242480  0.642310  0.747190  1.0  0.0462
  C  C2391  1  0.253340  0.605360  0.683550  1.0  0.1127
  C  C2392  1  0.194790  0.531900  0.869910  1.0  0.0762
  C  C2393  1  0.254360  0.151800  0.180640  1.0  0.1046
  C  C2394  1  0.204500  0.123210  0.228060  1.0  0.1209
  C  C2395  1  0.210920  0.098110  0.347250  1.0  0.0693
  C  C2396  1  0.175100  0.062670  0.398640  1.0  0.1296
  C  C2397  1  0.168720  0.085950  0.331330  1.0  0.1481
  C  C2398  1  0.242480  0.142310  0.247190  1.0  0.0462
  C  C2399  1  0.253340  0.105360  0.183550  1.0  0.1127
  C  C2400  1  0.194790  0.031900  0.369910  1.0  0.0762
  C  C2401  1  0.495640  0.098200  0.680640  1.0  0.1036
  C  C2402  1  0.545500  0.126790  0.728060  1.0  0.1215
  C  C2403  1  0.539080  0.151890  0.847250  1.0  0.0693
  C  C2404  1  0.574900  0.187330  0.898640  1.0  0.1314
  C  C2405  1  0.581280  0.164050  0.831330  1.0  0.1483
  C  C2406  1  0.507520  0.107690  0.747190  1.0  0.0465
  C  C2407  1  0.496660  0.144640  0.683550  1.0  0.1136
  C  C2408  1  0.555210  0.218100  0.869910  1.0  0.077
  C  C2409  1  0.495640  0.598200  0.180640  1.0  0.1036
  C  C2410  1  0.545500  0.626790  0.228060  1.0  0.1215
  C  C2411  1  0.539080  0.651890  0.347250  1.0  0.0693
  C  C2412  1  0.574900  0.687330  0.398640  1.0  0.1314
  C  C2413  1  0.581280  0.664050  0.331330  1.0  0.1483
  C  C2414  1  0.507520  0.607690  0.247190  1.0  0.0465
  C  C2415  1  0.496660  0.644640  0.183550  1.0  0.1136
  C  C2416  1  0.555210  0.718100  0.369910  1.0  0.077
  C  C2417  1  0.995640  0.098200  0.180640  1.0  0.1036
  C  C2418  1  0.045500  0.126790  0.228060  1.0  0.1215
  C  C2419  1  0.039080  0.151890  0.347250  1.0  0.0693
  C  C2420  1  0.074900  0.187330  0.398640  1.0  0.1314
  C  C2421  1  0.081280  0.164050  0.331330  1.0  0.1483
  C  C2422  1  0.007520  0.107690  0.247190  1.0  0.0465
  C  C2423  1  0.996660  0.144640  0.183550  1.0  0.1136
  C  C2424  1  0.055210  0.218100  0.369910  1.0  0.077
  C  C2425  1  0.995640  0.598200  0.680640  1.0  0.1036
  C  C2426  1  0.045500  0.626790  0.728060  1.0  0.1215
  C  C2427  1  0.039080  0.651890  0.847250  1.0  0.0693
  C  C2428  1  0.074900  0.687330  0.898640  1.0  0.1314
  C  C2429  1  0.081280  0.664050  0.831330  1.0  0.1483
  C  C2430  1  0.007520  0.607690  0.747190  1.0  0.0465
  C  C2431  1  0.996660  0.644640  0.683550  1.0  0.1136
  C  C2432  1  0.055210  0.718100  0.869910  1.0  0.077
  C  C2433  1  0.098200  0.680640  0.495640  1.0  0.1026
  C  C2434  1  0.126790  0.728060  0.545500  1.0  0.1206
  C  C2435  1  0.151890  0.847250  0.539080  1.0  0.0736
  C  C2436  1  0.187330  0.898640  0.574900  1.0  0.1298
  C  C2437  1  0.164050  0.831330  0.581280  1.0  0.1489
  C  C2438  1  0.107690  0.747190  0.507520  1.0  0.0465
  C  C2439  1  0.144640  0.683550  0.496660  1.0  0.1123
  C  C2440  1  0.218100  0.869910  0.555210  1.0  0.076
  C  C2441  1  0.098200  0.180640  0.995640  1.0  0.1026
  C  C2442  1  0.126790  0.228060  0.045500  1.0  0.1206
  C  C2443  1  0.151890  0.347250  0.039080  1.0  0.0736
  C  C2444  1  0.187330  0.398640  0.074900  1.0  0.1298
  C  C2445  1  0.164050  0.331330  0.081280  1.0  0.1489
  C  C2446  1  0.107690  0.247190  0.007520  1.0  0.0465
  C  C2447  1  0.144640  0.183550  0.996660  1.0  0.1123
  C  C2448  1  0.218100  0.369910  0.055210  1.0  0.076
  C  C2449  1  0.598200  0.680640  0.995640  1.0  0.1026
  C  C2450  1  0.626790  0.728060  0.045500  1.0  0.1206
  C  C2451  1  0.651890  0.847250  0.039080  1.0  0.0736
  C  C2452  1  0.687330  0.898640  0.074900  1.0  0.1298
  C  C2453  1  0.664050  0.831330  0.081280  1.0  0.1489
  C  C2454  1  0.607690  0.747190  0.007520  1.0  0.0465
  C  C2455  1  0.644640  0.683550  0.996660  1.0  0.1123
  C  C2456  1  0.718100  0.869910  0.055210  1.0  0.076
  C  C2457  1  0.598200  0.180640  0.495640  1.0  0.1026
  C  C2458  1  0.626790  0.228060  0.545500  1.0  0.1206
  C  C2459  1  0.651890  0.347250  0.539080  1.0  0.0736
  C  C2460  1  0.687330  0.398640  0.574900  1.0  0.1298
  C  C2461  1  0.664050  0.331330  0.581280  1.0  0.1489
  C  C2462  1  0.607690  0.247190  0.507520  1.0  0.0465
  C  C2463  1  0.644640  0.183550  0.496660  1.0  0.1123
  C  C2464  1  0.718100  0.369910  0.555210  1.0  0.076
  C  C2465  1  0.651800  0.180640  0.754360  1.0  0.1027
  C  C2466  1  0.623210  0.228060  0.704500  1.0  0.1211
  C  C2467  1  0.598110  0.347250  0.710920  1.0  0.0732
  C  C2468  1  0.562670  0.398640  0.675100  1.0  0.1309
  C  C2469  1  0.585950  0.331330  0.668720  1.0  0.1495
  C  C2470  1  0.642310  0.247190  0.742480  1.0  0.0461
  C  C2471  1  0.605360  0.183550  0.753340  1.0  0.1114
  C  C2472  1  0.531900  0.369910  0.694790  1.0  0.0762
  C  C2473  1  0.651800  0.680640  0.254360  1.0  0.1027
  C  C2474  1  0.623210  0.728060  0.204500  1.0  0.1211
  C  C2475  1  0.598110  0.847250  0.210920  1.0  0.0732
  C  C2476  1  0.562670  0.898640  0.175100  1.0  0.1309
  C  C2477  1  0.585950  0.831330  0.168720  1.0  0.1495
  C  C2478  1  0.642310  0.747190  0.242480  1.0  0.0461
  C  C2479  1  0.605360  0.683550  0.253340  1.0  0.1114
  C  C2480  1  0.531900  0.869910  0.194790  1.0  0.0762
  C  C2481  1  0.151800  0.180640  0.254360  1.0  0.1027
  C  C2482  1  0.123210  0.228060  0.204500  1.0  0.1211
  C  C2483  1  0.098110  0.347250  0.210920  1.0  0.0732
  C  C2484  1  0.062670  0.398640  0.175100  1.0  0.1309
  C  C2485  1  0.085950  0.331330  0.168720  1.0  0.1495
  C  C2486  1  0.142310  0.247190  0.242480  1.0  0.0461
  C  C2487  1  0.105360  0.183550  0.253340  1.0  0.1114
  C  C2488  1  0.031900  0.369910  0.194790  1.0  0.0762
  C  C2489  1  0.151800  0.680640  0.754360  1.0  0.1027
  C  C2490  1  0.123210  0.728060  0.704500  1.0  0.1211
  C  C2491  1  0.098110  0.847250  0.710920  1.0  0.0732
  C  C2492  1  0.062670  0.898640  0.675100  1.0  0.1309
  C  C2493  1  0.085950  0.831330  0.668720  1.0  0.1495
  C  C2494  1  0.142310  0.747190  0.742480  1.0  0.0461
  C  C2495  1  0.105360  0.683550  0.753340  1.0  0.1114
  C  C2496  1  0.031900  0.869910  0.694790  1.0  0.0762
  C  C2497  1  0.151800  0.069360  0.995640  1.0  0.1036
  C  C2498  1  0.123210  0.021940  0.045500  1.0  0.1196
  C  C2499  1  0.098110  0.902750  0.039080  1.0  0.0748
  C  C2500  1  0.062670  0.851360  0.074900  1.0  0.1302
  C  C2501  1  0.085950  0.918670  0.081280  1.0  0.1481
  C  C2502  1  0.142310  0.002810  0.007520  1.0  0.0461
  C  C2503  1  0.105360  0.066450  0.996660  1.0  0.1121
  C  C2504  1  0.031900  0.880090  0.055210  1.0  0.0763
  C  C2505  1  0.151800  0.569360  0.495640  1.0  0.1036
  C  C2506  1  0.123210  0.521940  0.545500  1.0  0.1196
  C  C2507  1  0.098110  0.402750  0.539080  1.0  0.0748
  C  C2508  1  0.062670  0.351360  0.574900  1.0  0.1302
  C  C2509  1  0.085950  0.418670  0.581280  1.0  0.1481
  C  C2510  1  0.142310  0.502810  0.507520  1.0  0.0461
  C  C2511  1  0.105360  0.566450  0.496660  1.0  0.1121
  C  C2512  1  0.031900  0.380090  0.555210  1.0  0.0763
  C  C2513  1  0.651800  0.069360  0.495640  1.0  0.1036
  C  C2514  1  0.623210  0.021940  0.545500  1.0  0.1196
  C  C2515  1  0.598110  0.902750  0.539080  1.0  0.0748
  C  C2516  1  0.562670  0.851360  0.574900  1.0  0.1302
  C  C2517  1  0.585950  0.918670  0.581280  1.0  0.1481
  C  C2518  1  0.642310  0.002810  0.507520  1.0  0.0461
  C  C2519  1  0.605360  0.066450  0.496660  1.0  0.1121
  C  C2520  1  0.531900  0.880090  0.555210  1.0  0.0763
  C  C2521  1  0.651800  0.569360  0.995640  1.0  0.1036
  C  C2522  1  0.623210  0.521940  0.045500  1.0  0.1196
  C  C2523  1  0.598110  0.402750  0.039080  1.0  0.0748
  C  C2524  1  0.562670  0.351360  0.074900  1.0  0.1302
  C  C2525  1  0.585950  0.418670  0.081280  1.0  0.1481
  C  C2526  1  0.642310  0.502810  0.007520  1.0  0.0461
  C  C2527  1  0.605360  0.566450  0.996660  1.0  0.1121
  C  C2528  1  0.531900  0.380090  0.055210  1.0  0.0763
  C  C2529  1  0.598200  0.569360  0.254360  1.0  0.1032
  C  C2530  1  0.626790  0.521940  0.204500  1.0  0.1221
  C  C2531  1  0.651890  0.402750  0.210920  1.0  0.0735
  C  C2532  1  0.687330  0.351360  0.175100  1.0  0.1311
  C  C2533  1  0.664050  0.418670  0.168720  1.0  0.1497
  C  C2534  1  0.607690  0.502810  0.242480  1.0  0.0466
  C  C2535  1  0.644640  0.566450  0.253340  1.0  0.1123
  C  C2536  1  0.718100  0.380090  0.194790  1.0  0.0762
  C  C2537  1  0.598200  0.069360  0.754360  1.0  0.1032
  C  C2538  1  0.626790  0.021940  0.704500  1.0  0.1221
  C  C2539  1  0.651890  0.902750  0.710920  1.0  0.0735
  C  C2540  1  0.687330  0.851360  0.675100  1.0  0.1311
  C  C2541  1  0.664050  0.918670  0.668720  1.0  0.1497
  C  C2542  1  0.607690  0.002810  0.742480  1.0  0.0466
  C  C2543  1  0.644640  0.066450  0.753340  1.0  0.1123
  C  C2544  1  0.718100  0.880090  0.694790  1.0  0.0762
  C  C2545  1  0.098200  0.569360  0.754360  1.0  0.1032
  C  C2546  1  0.126790  0.521940  0.704500  1.0  0.1221
  C  C2547  1  0.151890  0.402750  0.710920  1.0  0.0735
  C  C2548  1  0.187330  0.351360  0.675100  1.0  0.1311
  C  C2549  1  0.164050  0.418670  0.668720  1.0  0.1497
  C  C2550  1  0.107690  0.502810  0.742480  1.0  0.0466
  C  C2551  1  0.144640  0.566450  0.753340  1.0  0.1123
  C  C2552  1  0.218100  0.380090  0.694790  1.0  0.0762
  C  C2553  1  0.098200  0.069360  0.254360  1.0  0.1032
  C  C2554  1  0.126790  0.021940  0.204500  1.0  0.1221
  C  C2555  1  0.151890  0.902750  0.210920  1.0  0.0735
  C  C2556  1  0.187330  0.851360  0.175100  1.0  0.1311
  C  C2557  1  0.164050  0.918670  0.168720  1.0  0.1497
  C  C2558  1  0.107690  0.002810  0.242480  1.0  0.0466
  C  C2559  1  0.144640  0.066450  0.253340  1.0  0.1123
  C  C2560  1  0.218100  0.880090  0.194790  1.0  0.0762
  C  C2561  1  0.180640  0.754360  0.651800  1.0  0.1054
  C  C2562  1  0.228060  0.704500  0.623210  1.0  0.1201
  C  C2563  1  0.347250  0.710920  0.598110  1.0  0.0716
  C  C2564  1  0.398640  0.675100  0.562670  1.0  0.1313
  C  C2565  1  0.331330  0.668720  0.585950  1.0  0.1489
  C  C2566  1  0.247190  0.742480  0.642310  1.0  0.0454
  C  C2567  1  0.183550  0.753340  0.605360  1.0  0.1146
  C  C2568  1  0.369910  0.694790  0.531900  1.0  0.076
  C  C2569  1  0.180640  0.254360  0.151800  1.0  0.1054
  C  C2570  1  0.228060  0.204500  0.123210  1.0  0.1201
  C  C2571  1  0.347250  0.210920  0.098110  1.0  0.0716
  C  C2572  1  0.398640  0.175100  0.062670  1.0  0.1313
  C  C2573  1  0.331330  0.168720  0.085950  1.0  0.1489
  C  C2574  1  0.247190  0.242480  0.142310  1.0  0.0454
  C  C2575  1  0.183550  0.253340  0.105360  1.0  0.1146
  C  C2576  1  0.369910  0.194790  0.031900  1.0  0.076
  C  C2577  1  0.680640  0.754360  0.151800  1.0  0.1054
  C  C2578  1  0.728060  0.704500  0.123210  1.0  0.1201
  C  C2579  1  0.847250  0.710920  0.098110  1.0  0.0716
  C  C2580  1  0.898640  0.675100  0.062670  1.0  0.1313
  C  C2581  1  0.831330  0.668720  0.085950  1.0  0.1489
  C  C2582  1  0.747190  0.742480  0.142310  1.0  0.0454
  C  C2583  1  0.683550  0.753340  0.105360  1.0  0.1146
  C  C2584  1  0.869910  0.694790  0.031900  1.0  0.076
  C  C2585  1  0.680640  0.254360  0.651800  1.0  0.1054
  C  C2586  1  0.728060  0.204500  0.623210  1.0  0.1201
  C  C2587  1  0.847250  0.210920  0.598110  1.0  0.0716
  C  C2588  1  0.898640  0.175100  0.562670  1.0  0.1313
  C  C2589  1  0.831330  0.168720  0.585950  1.0  0.1489
  C  C2590  1  0.747190  0.242480  0.642310  1.0  0.0454
  C  C2591  1  0.683550  0.253340  0.605360  1.0  0.1146
  C  C2592  1  0.869910  0.194790  0.531900  1.0  0.076
  C  C2593  1  0.680640  0.495640  0.098200  1.0  0.1052
  C  C2594  1  0.728060  0.545500  0.126790  1.0  0.12
  C  C2595  1  0.847250  0.539080  0.151890  1.0  0.0716
  C  C2596  1  0.898640  0.574900  0.187330  1.0  0.1308
  C  C2597  1  0.831330  0.581280  0.164050  1.0  0.1488
  C  C2598  1  0.747190  0.507520  0.107690  1.0  0.0459
  C  C2599  1  0.683550  0.496660  0.144640  1.0  0.1132
  C  C2600  1  0.869910  0.555210  0.218100  1.0  0.0772
  C  C2601  1  0.680640  0.995640  0.598200  1.0  0.1052
  C  C2602  1  0.728060  0.045500  0.626790  1.0  0.12
  C  C2603  1  0.847250  0.039080  0.651890  1.0  0.0716
  C  C2604  1  0.898640  0.074900  0.687330  1.0  0.1308
  C  C2605  1  0.831330  0.081280  0.664050  1.0  0.1488
  C  C2606  1  0.747190  0.007520  0.607690  1.0  0.0459
  C  C2607  1  0.683550  0.996660  0.644640  1.0  0.1132
  C  C2608  1  0.869910  0.055210  0.718100  1.0  0.0772
  C  C2609  1  0.180640  0.495640  0.598200  1.0  0.1052
  C  C2610  1  0.228060  0.545500  0.626790  1.0  0.12
  C  C2611  1  0.347250  0.539080  0.651890  1.0  0.0716
  C  C2612  1  0.398640  0.574900  0.687330  1.0  0.1308
  C  C2613  1  0.331330  0.581280  0.664050  1.0  0.1488
  C  C2614  1  0.247190  0.507520  0.607690  1.0  0.0459
  C  C2615  1  0.183550  0.496660  0.644640  1.0  0.1132
  C  C2616  1  0.369910  0.555210  0.718100  1.0  0.0772
  C  C2617  1  0.180640  0.995640  0.098200  1.0  0.1052
  C  C2618  1  0.228060  0.045500  0.126790  1.0  0.12
  C  C2619  1  0.347250  0.039080  0.151890  1.0  0.0716
  C  C2620  1  0.398640  0.074900  0.187330  1.0  0.1308
  C  C2621  1  0.331330  0.081280  0.164050  1.0  0.1488
  C  C2622  1  0.247190  0.007520  0.107690  1.0  0.0459
  C  C2623  1  0.183550  0.996660  0.144640  1.0  0.1132
  C  C2624  1  0.369910  0.055210  0.218100  1.0  0.0772
  C  C2625  1  0.569360  0.254360  0.598200  1.0  0.1059
  C  C2626  1  0.521940  0.204500  0.626790  1.0  0.1207
  C  C2627  1  0.402750  0.210920  0.651890  1.0  0.0719
  C  C2628  1  0.351360  0.175100  0.687330  1.0  0.1304
  C  C2629  1  0.418670  0.168720  0.664050  1.0  0.1494
  C  C2630  1  0.502810  0.242480  0.607690  1.0  0.0463
  C  C2631  1  0.566450  0.253340  0.644640  1.0  0.1132
  C  C2632  1  0.380090  0.194790  0.718100  1.0  0.0778
  C  C2633  1  0.569360  0.754360  0.098200  1.0  0.1059
  C  C2634  1  0.521940  0.704500  0.126790  1.0  0.1207
  C  C2635  1  0.402750  0.710920  0.151890  1.0  0.0719
  C  C2636  1  0.351360  0.675100  0.187330  1.0  0.1304
  C  C2637  1  0.418670  0.668720  0.164050  1.0  0.1494
  C  C2638  1  0.502810  0.742480  0.107690  1.0  0.0463
  C  C2639  1  0.566450  0.753340  0.144640  1.0  0.1132
  C  C2640  1  0.380090  0.694790  0.218100  1.0  0.0778
  C  C2641  1  0.069360  0.254360  0.098200  1.0  0.1059
  C  C2642  1  0.021940  0.204500  0.126790  1.0  0.1207
  C  C2643  1  0.902750  0.210920  0.151890  1.0  0.0719
  C  C2644  1  0.851360  0.175100  0.187330  1.0  0.1304
  C  C2645  1  0.918670  0.168720  0.164050  1.0  0.1494
  C  C2646  1  0.002810  0.242480  0.107690  1.0  0.0463
  C  C2647  1  0.066450  0.253340  0.144640  1.0  0.1132
  C  C2648  1  0.880090  0.194790  0.218100  1.0  0.0778
  C  C2649  1  0.069360  0.754360  0.598200  1.0  0.1059
  C  C2650  1  0.021940  0.704500  0.626790  1.0  0.1207
  C  C2651  1  0.902750  0.710920  0.651890  1.0  0.0719
  C  C2652  1  0.851360  0.675100  0.687330  1.0  0.1304
  C  C2653  1  0.918670  0.668720  0.664050  1.0  0.1494
  C  C2654  1  0.002810  0.742480  0.607690  1.0  0.0463
  C  C2655  1  0.066450  0.753340  0.644640  1.0  0.1132
  C  C2656  1  0.880090  0.694790  0.718100  1.0  0.0778
  C  C2657  1  0.069360  0.995640  0.151800  1.0  0.105
  C  C2658  1  0.021940  0.045500  0.123210  1.0  0.1214
  C  C2659  1  0.902750  0.039080  0.098110  1.0  0.0728
  C  C2660  1  0.851360  0.074900  0.062670  1.0  0.1301
  C  C2661  1  0.918670  0.081280  0.085950  1.0  0.149
  C  C2662  1  0.002810  0.007520  0.142310  1.0  0.0455
  C  C2663  1  0.066450  0.996660  0.105360  1.0  0.1147
  C  C2664  1  0.880090  0.055210  0.031900  1.0  0.0774
  C  C2665  1  0.069360  0.495640  0.651800  1.0  0.105
  C  C2666  1  0.021940  0.545500  0.623210  1.0  0.1214
  C  C2667  1  0.902750  0.539080  0.598110  1.0  0.0728
  C  C2668  1  0.851360  0.574900  0.562670  1.0  0.1301
  C  C2669  1  0.918670  0.581280  0.585950  1.0  0.149
  C  C2670  1  0.002810  0.507520  0.642310  1.0  0.0455
  C  C2671  1  0.066450  0.496660  0.605360  1.0  0.1147
  C  C2672  1  0.880090  0.555210  0.531900  1.0  0.0774
  C  C2673  1  0.569360  0.995640  0.651800  1.0  0.105
  C  C2674  1  0.521940  0.045500  0.623210  1.0  0.1214
  C  C2675  1  0.402750  0.039080  0.598110  1.0  0.0728
  C  C2676  1  0.351360  0.074900  0.562670  1.0  0.1301
  C  C2677  1  0.418670  0.081280  0.585950  1.0  0.149
  C  C2678  1  0.502810  0.007520  0.642310  1.0  0.0455
  C  C2679  1  0.566450  0.996660  0.605360  1.0  0.1147
  C  C2680  1  0.380090  0.055210  0.531900  1.0  0.0774
  C  C2681  1  0.569360  0.495640  0.151800  1.0  0.105
  C  C2682  1  0.521940  0.545500  0.123210  1.0  0.1214
  C  C2683  1  0.402750  0.539080  0.098110  1.0  0.0728
  C  C2684  1  0.351360  0.574900  0.062670  1.0  0.1301
  C  C2685  1  0.418670  0.581280  0.085950  1.0  0.149
  C  C2686  1  0.502810  0.507520  0.142310  1.0  0.0455
  C  C2687  1  0.566450  0.496660  0.105360  1.0  0.1147
  C  C2688  1  0.380090  0.555210  0.031900  1.0  0.0774
  C  C2689  1  0.651800  0.495640  0.569360  1.0  0.1029
  C  C2690  1  0.623210  0.545500  0.521940  1.0  0.1197
  C  C2691  1  0.598110  0.539080  0.402750  1.0  0.0725
  C  C2692  1  0.562670  0.574900  0.351360  1.0  0.1308
  C  C2693  1  0.585950  0.581280  0.418670  1.0  0.148
  C  C2694  1  0.642310  0.507520  0.502810  1.0  0.0461
  C  C2695  1  0.605360  0.496660  0.566450  1.0  0.1121
  C  C2696  1  0.531900  0.555210  0.380090  1.0  0.0766
  C  C2697  1  0.651800  0.995640  0.069360  1.0  0.1029
  C  C2698  1  0.623210  0.045500  0.021940  1.0  0.1197
  C  C2699  1  0.598110  0.039080  0.902750  1.0  0.0725
  C  C2700  1  0.562670  0.074900  0.851360  1.0  0.1308
  C  C2701  1  0.585950  0.081280  0.918670  1.0  0.148
  C  C2702  1  0.642310  0.007520  0.002810  1.0  0.0461
  C  C2703  1  0.605360  0.996660  0.066450  1.0  0.1121
  C  C2704  1  0.531900  0.055210  0.880090  1.0  0.0766
  C  C2705  1  0.151800  0.495640  0.069360  1.0  0.1029
  C  C2706  1  0.123210  0.545500  0.021940  1.0  0.1197
  C  C2707  1  0.098110  0.539080  0.902750  1.0  0.0725
  C  C2708  1  0.062670  0.574900  0.851360  1.0  0.1308
  C  C2709  1  0.085950  0.581280  0.918670  1.0  0.148
  C  C2710  1  0.142310  0.507520  0.002810  1.0  0.0461
  C  C2711  1  0.105360  0.496660  0.066450  1.0  0.1121
  C  C2712  1  0.031900  0.555210  0.880090  1.0  0.0766
  C  C2713  1  0.151800  0.995640  0.569360  1.0  0.1029
  C  C2714  1  0.123210  0.045500  0.521940  1.0  0.1197
  C  C2715  1  0.098110  0.039080  0.402750  1.0  0.0725
  C  C2716  1  0.062670  0.074900  0.351360  1.0  0.1308
  C  C2717  1  0.085950  0.081280  0.418670  1.0  0.148
  C  C2718  1  0.142310  0.007520  0.502810  1.0  0.0461
  C  C2719  1  0.105360  0.996660  0.566450  1.0  0.1121
  C  C2720  1  0.031900  0.055210  0.380090  1.0  0.0766
  C  C2721  1  0.098200  0.754360  0.069360  1.0  0.1029
  C  C2722  1  0.126790  0.704500  0.021940  1.0  0.1206
  C  C2723  1  0.151890  0.710920  0.902750  1.0  0.0727
  C  C2724  1  0.187330  0.675100  0.851360  1.0  0.1312
  C  C2725  1  0.164050  0.668720  0.918670  1.0  0.1487
  C  C2726  1  0.107690  0.742480  0.002810  1.0  0.0469
  C  C2727  1  0.144640  0.753340  0.066450  1.0  0.1128
  C  C2728  1  0.218100  0.694790  0.880090  1.0  0.0766
  C  C2729  1  0.098200  0.254360  0.569360  1.0  0.1029
  C  C2730  1  0.126790  0.204500  0.521940  1.0  0.1206
  C  C2731  1  0.151890  0.210920  0.402750  1.0  0.0727
  C  C2732  1  0.187330  0.175100  0.351360  1.0  0.1312
  C  C2733  1  0.164050  0.168720  0.418670  1.0  0.1487
  C  C2734  1  0.107690  0.242480  0.502810  1.0  0.0469
  C  C2735  1  0.144640  0.253340  0.566450  1.0  0.1128
  C  C2736  1  0.218100  0.194790  0.380090  1.0  0.0766
  C  C2737  1  0.598200  0.754360  0.569360  1.0  0.1029
  C  C2738  1  0.626790  0.704500  0.521940  1.0  0.1206
  C  C2739  1  0.651890  0.710920  0.402750  1.0  0.0727
  C  C2740  1  0.687330  0.675100  0.351360  1.0  0.1312
  C  C2741  1  0.664050  0.668720  0.418670  1.0  0.1487
  C  C2742  1  0.607690  0.742480  0.502810  1.0  0.0469
  C  C2743  1  0.644640  0.753340  0.566450  1.0  0.1128
  C  C2744  1  0.718100  0.694790  0.380090  1.0  0.0766
  C  C2745  1  0.598200  0.254360  0.069360  1.0  0.1029
  C  C2746  1  0.626790  0.204500  0.021940  1.0  0.1206
  C  C2747  1  0.651890  0.210920  0.902750  1.0  0.0727
  C  C2748  1  0.687330  0.175100  0.851360  1.0  0.1312
  C  C2749  1  0.664050  0.168720  0.918670  1.0  0.1487
  C  C2750  1  0.607690  0.242480  0.002810  1.0  0.0469
  C  C2751  1  0.644640  0.253340  0.066450  1.0  0.1128
  C  C2752  1  0.718100  0.194790  0.880090  1.0  0.0766
  C  C2753  1  0.598200  0.995640  0.180640  1.0  0.1025
  C  C2754  1  0.626790  0.045500  0.228060  1.0  0.1214
  C  C2755  1  0.651890  0.039080  0.347250  1.0  0.0726
  C  C2756  1  0.687330  0.074900  0.398640  1.0  0.1304
  C  C2757  1  0.664050  0.081280  0.331330  1.0  0.1495
  C  C2758  1  0.607690  0.007520  0.247190  1.0  0.0471
  C  C2759  1  0.644640  0.996660  0.183550  1.0  0.1123
  C  C2760  1  0.718100  0.055210  0.369910  1.0  0.0771
  C  C2761  1  0.598200  0.495640  0.680640  1.0  0.1025
  C  C2762  1  0.626790  0.545500  0.728060  1.0  0.1214
  C  C2763  1  0.651890  0.539080  0.847250  1.0  0.0726
  C  C2764  1  0.687330  0.574900  0.898640  1.0  0.1304
  C  C2765  1  0.664050  0.581280  0.831330  1.0  0.1495
  C  C2766  1  0.607690  0.507520  0.747190  1.0  0.0471
  C  C2767  1  0.644640  0.496660  0.683550  1.0  0.1123
  C  C2768  1  0.718100  0.555210  0.869910  1.0  0.0771
  C  C2769  1  0.098200  0.995640  0.680640  1.0  0.1025
  C  C2770  1  0.126790  0.045500  0.728060  1.0  0.1214
  C  C2771  1  0.151890  0.039080  0.847250  1.0  0.0726
  C  C2772  1  0.187330  0.074900  0.898640  1.0  0.1304
  C  C2773  1  0.164050  0.081280  0.831330  1.0  0.1495
  C  C2774  1  0.107690  0.007520  0.747190  1.0  0.0471
  C  C2775  1  0.144640  0.996660  0.683550  1.0  0.1123
  C  C2776  1  0.218100  0.055210  0.869910  1.0  0.0771
  C  C2777  1  0.098200  0.495640  0.180640  1.0  0.1025
  C  C2778  1  0.126790  0.545500  0.228060  1.0  0.1214
  C  C2779  1  0.151890  0.539080  0.347250  1.0  0.0726
  C  C2780  1  0.187330  0.574900  0.398640  1.0  0.1304
  C  C2781  1  0.164050  0.581280  0.331330  1.0  0.1495
  C  C2782  1  0.107690  0.507520  0.247190  1.0  0.0471
  C  C2783  1  0.144640  0.496660  0.183550  1.0  0.1123
  C  C2784  1  0.218100  0.555210  0.369910  1.0  0.0771
  C  C2785  1  0.151800  0.254360  0.680640  1.0  0.1033
  C  C2786  1  0.123210  0.204500  0.728060  1.0  0.1201
  C  C2787  1  0.098110  0.210920  0.847250  1.0  0.0727
  C  C2788  1  0.062670  0.175100  0.898640  1.0  0.1307
  C  C2789  1  0.085950  0.168720  0.831330  1.0  0.1492
  C  C2790  1  0.142310  0.242480  0.747190  1.0  0.0463
  C  C2791  1  0.105360  0.253340  0.683550  1.0  0.1118
  C  C2792  1  0.031900  0.194790  0.869910  1.0  0.0767
  C  C2793  1  0.151800  0.754360  0.180640  1.0  0.1033
  C  C2794  1  0.123210  0.704500  0.228060  1.0  0.1201
  C  C2795  1  0.098110  0.710920  0.347250  1.0  0.0727
  C  C2796  1  0.062670  0.675100  0.398640  1.0  0.1307
  C  C2797  1  0.085950  0.668720  0.331330  1.0  0.1492
  C  C2798  1  0.142310  0.742480  0.247190  1.0  0.0463
  C  C2799  1  0.105360  0.753340  0.183550  1.0  0.1118
  C  C2800  1  0.031900  0.694790  0.369910  1.0  0.0767
  C  C2801  1  0.651800  0.254360  0.180640  1.0  0.1033
  C  C2802  1  0.623210  0.204500  0.228060  1.0  0.1201
  C  C2803  1  0.598110  0.210920  0.347250  1.0  0.0727
  C  C2804  1  0.562670  0.175100  0.398640  1.0  0.1307
  C  C2805  1  0.585950  0.168720  0.331330  1.0  0.1492
  C  C2806  1  0.642310  0.242480  0.247190  1.0  0.0463
  C  C2807  1  0.605360  0.253340  0.183550  1.0  0.1118
  C  C2808  1  0.531900  0.194790  0.369910  1.0  0.0767
  C  C2809  1  0.651800  0.754360  0.680640  1.0  0.1033
  C  C2810  1  0.623210  0.704500  0.728060  1.0  0.1201
  C  C2811  1  0.598110  0.710920  0.847250  1.0  0.0727
  C  C2812  1  0.562670  0.675100  0.898640  1.0  0.1307
  C  C2813  1  0.585950  0.668720  0.831330  1.0  0.1492
  C  C2814  1  0.642310  0.742480  0.747190  1.0  0.0463
  C  C2815  1  0.605360  0.753340  0.683550  1.0  0.1118
  C  C2816  1  0.531900  0.694790  0.869910  1.0  0.0767
  C  C2817  1  0.569360  0.651800  0.495640  1.0  0.104
  C  C2818  1  0.521940  0.623210  0.545500  1.0  0.1214
  C  C2819  1  0.402750  0.598110  0.539080  1.0  0.0742
  C  C2820  1  0.351360  0.562670  0.574900  1.0  0.1295
  C  C2821  1  0.418670  0.585950  0.581280  1.0  0.1488
  C  C2822  1  0.502810  0.642310  0.507520  1.0  0.0454
  C  C2823  1  0.566450  0.605360  0.496660  1.0  0.1135
  C  C2824  1  0.380090  0.531900  0.555210  1.0  0.0763
  C  C2825  1  0.569360  0.151800  0.995640  1.0  0.104
  C  C2826  1  0.521940  0.123210  0.045500  1.0  0.1214
  C  C2827  1  0.402750  0.098110  0.039080  1.0  0.0742
  C  C2828  1  0.351360  0.062670  0.074900  1.0  0.1295
  C  C2829  1  0.418670  0.085950  0.081280  1.0  0.1488
  C  C2830  1  0.502810  0.142310  0.007520  1.0  0.0454
  C  C2831  1  0.566450  0.105360  0.996660  1.0  0.1135
  C  C2832  1  0.380090  0.031900  0.055210  1.0  0.0763
  C  C2833  1  0.069360  0.651800  0.995640  1.0  0.104
  C  C2834  1  0.021940  0.623210  0.045500  1.0  0.1214
  C  C2835  1  0.902750  0.598110  0.039080  1.0  0.0742
  C  C2836  1  0.851360  0.562670  0.074900  1.0  0.1295
  C  C2837  1  0.918670  0.585950  0.081280  1.0  0.1488
  C  C2838  1  0.002810  0.642310  0.007520  1.0  0.0454
  C  C2839  1  0.066450  0.605360  0.996660  1.0  0.1135
  C  C2840  1  0.880090  0.531900  0.055210  1.0  0.0763
  C  C2841  1  0.069360  0.151800  0.495640  1.0  0.104
  C  C2842  1  0.021940  0.123210  0.545500  1.0  0.1214
  C  C2843  1  0.902750  0.098110  0.539080  1.0  0.0742
  C  C2844  1  0.851360  0.062670  0.574900  1.0  0.1295
  C  C2845  1  0.918670  0.085950  0.581280  1.0  0.1488
  C  C2846  1  0.002810  0.142310  0.507520  1.0  0.0454
  C  C2847  1  0.066450  0.105360  0.496660  1.0  0.1135
  C  C2848  1  0.880090  0.031900  0.555210  1.0  0.0763
  C  C2849  1  0.069360  0.098200  0.754360  1.0  0.1031
  C  C2850  1  0.021940  0.126790  0.704500  1.0  0.1224
  C  C2851  1  0.902750  0.151890  0.710920  1.0  0.0712
  C  C2852  1  0.851360  0.187330  0.675100  1.0  0.131
  C  C2853  1  0.918670  0.164050  0.668720  1.0  0.1494
  C  C2854  1  0.002810  0.107690  0.742480  1.0  0.0452
  C  C2855  1  0.066450  0.144640  0.753340  1.0  0.1133
  C  C2856  1  0.880090  0.218100  0.694790  1.0  0.0762
  C  C2857  1  0.069360  0.598200  0.254360  1.0  0.1031
  C  C2858  1  0.021940  0.626790  0.204500  1.0  0.1224
  C  C2859  1  0.902750  0.651890  0.210920  1.0  0.0712
  C  C2860  1  0.851360  0.687330  0.175100  1.0  0.131
  C  C2861  1  0.918670  0.664050  0.168720  1.0  0.1494
  C  C2862  1  0.002810  0.607690  0.242480  1.0  0.0452
  C  C2863  1  0.066450  0.644640  0.253340  1.0  0.1133
  C  C2864  1  0.880090  0.718100  0.194790  1.0  0.0762
  C  C2865  1  0.569360  0.098200  0.254360  1.0  0.1031
  C  C2866  1  0.521940  0.126790  0.204500  1.0  0.1224
  C  C2867  1  0.402750  0.151890  0.210920  1.0  0.0712
  C  C2868  1  0.351360  0.187330  0.175100  1.0  0.131
  C  C2869  1  0.418670  0.164050  0.168720  1.0  0.1494
  C  C2870  1  0.502810  0.107690  0.242480  1.0  0.0452
  C  C2871  1  0.566450  0.144640  0.253340  1.0  0.1133
  C  C2872  1  0.380090  0.218100  0.194790  1.0  0.0762
  C  C2873  1  0.569360  0.598200  0.754360  1.0  0.1031
  C  C2874  1  0.521940  0.626790  0.704500  1.0  0.1224
  C  C2875  1  0.402750  0.651890  0.710920  1.0  0.0712
  C  C2876  1  0.351360  0.687330  0.675100  1.0  0.131
  C  C2877  1  0.418670  0.664050  0.668720  1.0  0.1494
  C  C2878  1  0.502810  0.607690  0.742480  1.0  0.0452
  C  C2879  1  0.566450  0.644640  0.753340  1.0  0.1133
  C  C2880  1  0.380090  0.718100  0.694790  1.0  0.0762
  C  C2881  1  0.180640  0.598200  0.995640  1.0  0.1032
  C  C2882  1  0.228060  0.626790  0.045500  1.0  0.1198
  C  C2883  1  0.347250  0.651890  0.039080  1.0  0.0725
  C  C2884  1  0.398640  0.687330  0.074900  1.0  0.1312
  C  C2885  1  0.331330  0.664050  0.081280  1.0  0.1473
  C  C2886  1  0.247190  0.607690  0.007520  1.0  0.0452
  C  C2887  1  0.183550  0.644640  0.996660  1.0  0.1141
  C  C2888  1  0.369910  0.718100  0.055210  1.0  0.0754
  C  C2889  1  0.180640  0.098200  0.495640  1.0  0.1032
  C  C2890  1  0.228060  0.126790  0.545500  1.0  0.1198
  C  C2891  1  0.347250  0.151890  0.539080  1.0  0.0725
  C  C2892  1  0.398640  0.187330  0.574900  1.0  0.1312
  C  C2893  1  0.331330  0.164050  0.581280  1.0  0.1473
  C  C2894  1  0.247190  0.107690  0.507520  1.0  0.0452
  C  C2895  1  0.183550  0.144640  0.496660  1.0  0.1141
  C  C2896  1  0.369910  0.218100  0.555210  1.0  0.0754
  C  C2897  1  0.680640  0.598200  0.495640  1.0  0.1032
  C  C2898  1  0.728060  0.626790  0.545500  1.0  0.1198
  C  C2899  1  0.847250  0.651890  0.539080  1.0  0.0725
  C  C2900  1  0.898640  0.687330  0.574900  1.0  0.1312
  C  C2901  1  0.831330  0.664050  0.581280  1.0  0.1473
  C  C2902  1  0.747190  0.607690  0.507520  1.0  0.0452
  C  C2903  1  0.683550  0.644640  0.496660  1.0  0.1141
  C  C2904  1  0.869910  0.718100  0.555210  1.0  0.0754
  C  C2905  1  0.680640  0.098200  0.995640  1.0  0.1032
  C  C2906  1  0.728060  0.126790  0.045500  1.0  0.1198
  C  C2907  1  0.847250  0.151890  0.039080  1.0  0.0725
  C  C2908  1  0.898640  0.187330  0.074900  1.0  0.1312
  C  C2909  1  0.831330  0.164050  0.081280  1.0  0.1473
  C  C2910  1  0.747190  0.107690  0.007520  1.0  0.0452
  C  C2911  1  0.683550  0.144640  0.996660  1.0  0.1141
  C  C2912  1  0.869910  0.218100  0.055210  1.0  0.0754
  C  C2913  1  0.680640  0.151800  0.254360  1.0  0.1039
  C  C2914  1  0.728060  0.123210  0.204500  1.0  0.1216
  C  C2915  1  0.847250  0.098110  0.210920  1.0  0.0724
  C  C2916  1  0.898640  0.062670  0.175100  1.0  0.1315
  C  C2917  1  0.831330  0.085950  0.168720  1.0  0.1489
  C  C2918  1  0.747190  0.142310  0.242480  1.0  0.0449
  C  C2919  1  0.683550  0.105360  0.253340  1.0  0.1129
  C  C2920  1  0.869910  0.031900  0.194790  1.0  0.0754
  C  C2921  1  0.680640  0.651800  0.754360  1.0  0.1039
  C  C2922  1  0.728060  0.623210  0.704500  1.0  0.1216
  C  C2923  1  0.847250  0.598110  0.710920  1.0  0.0724
  C  C2924  1  0.898640  0.562670  0.675100  1.0  0.1315
  C  C2925  1  0.831330  0.585950  0.668720  1.0  0.1489
  C  C2926  1  0.747190  0.642310  0.742480  1.0  0.0449
  C  C2927  1  0.683550  0.605360  0.753340  1.0  0.1129
  C  C2928  1  0.869910  0.531900  0.694790  1.0  0.0754
  C  C2929  1  0.180640  0.151800  0.754360  1.0  0.1039
  C  C2930  1  0.228060  0.123210  0.704500  1.0  0.1216
  C  C2931  1  0.347250  0.098110  0.710920  1.0  0.0724
  C  C2932  1  0.398640  0.062670  0.675100  1.0  0.1315
  C  C2933  1  0.331330  0.085950  0.668720  1.0  0.1489
  C  C2934  1  0.247190  0.142310  0.742480  1.0  0.0449
  C  C2935  1  0.183550  0.105360  0.753340  1.0  0.1129
  C  C2936  1  0.369910  0.031900  0.694790  1.0  0.0754
  C  C2937  1  0.180640  0.651800  0.254360  1.0  0.1039
  C  C2938  1  0.228060  0.623210  0.204500  1.0  0.1216
  C  C2939  1  0.347250  0.598110  0.210920  1.0  0.0724
  C  C2940  1  0.398640  0.562670  0.175100  1.0  0.1315
  C  C2941  1  0.331330  0.585950  0.168720  1.0  0.1489
  C  C2942  1  0.247190  0.642310  0.242480  1.0  0.0449
  C  C2943  1  0.183550  0.605360  0.253340  1.0  0.1129
  C  C2944  1  0.369910  0.531900  0.194790  1.0  0.0754
  C  C2945  1  0.495640  0.569360  0.651800  1.0  0.1062
  C  C2946  1  0.545500  0.521940  0.623210  1.0  0.1215
  C  C2947  1  0.539080  0.402750  0.598110  1.0  0.0705
  C  C2948  1  0.574900  0.351360  0.562670  1.0  0.1312
  C  C2949  1  0.581280  0.418670  0.585950  1.0  0.1483
  C  C2950  1  0.507520  0.502810  0.642310  1.0  0.0463
  C  C2951  1  0.496660  0.566450  0.605360  1.0  0.1142
  C  C2952  1  0.555210  0.380090  0.531900  1.0  0.0773
  C  C2953  1  0.495640  0.069360  0.151800  1.0  0.1062
  C  C2954  1  0.545500  0.021940  0.123210  1.0  0.1215
  C  C2955  1  0.539080  0.902750  0.098110  1.0  0.0705
  C  C2956  1  0.574900  0.851360  0.062670  1.0  0.1312
  C  C2957  1  0.581280  0.918670  0.085950  1.0  0.1483
  C  C2958  1  0.507520  0.002810  0.142310  1.0  0.0463
  C  C2959  1  0.496660  0.066450  0.105360  1.0  0.1142
  C  C2960  1  0.555210  0.880090  0.031900  1.0  0.0773
  C  C2961  1  0.995640  0.569360  0.151800  1.0  0.1062
  C  C2962  1  0.045500  0.521940  0.123210  1.0  0.1215
  C  C2963  1  0.039080  0.402750  0.098110  1.0  0.0705
  C  C2964  1  0.074900  0.351360  0.062670  1.0  0.1312
  C  C2965  1  0.081280  0.418670  0.085950  1.0  0.1483
  C  C2966  1  0.007520  0.502810  0.142310  1.0  0.0463
  C  C2967  1  0.996660  0.566450  0.105360  1.0  0.1142
  C  C2968  1  0.055210  0.380090  0.031900  1.0  0.0773
  C  C2969  1  0.995640  0.069360  0.651800  1.0  0.1062
  C  C2970  1  0.045500  0.021940  0.623210  1.0  0.1215
  C  C2971  1  0.039080  0.902750  0.598110  1.0  0.0705
  C  C2972  1  0.074900  0.851360  0.562670  1.0  0.1312
  C  C2973  1  0.081280  0.918670  0.585950  1.0  0.1483
  C  C2974  1  0.007520  0.002810  0.642310  1.0  0.0463
  C  C2975  1  0.996660  0.066450  0.605360  1.0  0.1142
  C  C2976  1  0.055210  0.880090  0.531900  1.0  0.0773
  C  C2977  1  0.754360  0.069360  0.098200  1.0  0.1069
  C  C2978  1  0.704500  0.021940  0.126790  1.0  0.1198
  C  C2979  1  0.710920  0.902750  0.151890  1.0  0.0691
  C  C2980  1  0.675100  0.851360  0.187330  1.0  0.1292
  C  C2981  1  0.668720  0.918670  0.164050  1.0  0.1477
  C  C2982  1  0.742480  0.002810  0.107690  1.0  0.0463
  C  C2983  1  0.753340  0.066450  0.144640  1.0  0.1129
  C  C2984  1  0.694790  0.880090  0.218100  1.0  0.077
  C  C2985  1  0.754360  0.569360  0.598200  1.0  0.1069
  C  C2986  1  0.704500  0.521940  0.626790  1.0  0.1198
  C  C2987  1  0.710920  0.402750  0.651890  1.0  0.0691
  C  C2988  1  0.675100  0.351360  0.687330  1.0  0.1292
  C  C2989  1  0.668720  0.418670  0.664050  1.0  0.1477
  C  C2990  1  0.742480  0.502810  0.607690  1.0  0.0463
  C  C2991  1  0.753340  0.566450  0.644640  1.0  0.1129
  C  C2992  1  0.694790  0.380090  0.718100  1.0  0.077
  C  C2993  1  0.254360  0.069360  0.598200  1.0  0.1069
  C  C2994  1  0.204500  0.021940  0.626790  1.0  0.1198
  C  C2995  1  0.210920  0.902750  0.651890  1.0  0.0691
  C  C2996  1  0.175100  0.851360  0.687330  1.0  0.1292
  C  C2997  1  0.168720  0.918670  0.664050  1.0  0.1477
  C  C2998  1  0.242480  0.002810  0.607690  1.0  0.0463
  C  C2999  1  0.253340  0.066450  0.644640  1.0  0.1129
  C  C3000  1  0.194790  0.880090  0.718100  1.0  0.077
  C  C3001  1  0.254360  0.569360  0.098200  1.0  0.1069
  C  C3002  1  0.204500  0.521940  0.126790  1.0  0.1198
  C  C3003  1  0.210920  0.402750  0.151890  1.0  0.0691
  C  C3004  1  0.175100  0.351360  0.187330  1.0  0.1292
  C  C3005  1  0.168720  0.418670  0.164050  1.0  0.1477
  C  C3006  1  0.242480  0.502810  0.107690  1.0  0.0463
  C  C3007  1  0.253340  0.566450  0.144640  1.0  0.1129
  C  C3008  1  0.194790  0.380090  0.218100  1.0  0.077
  C  C3009  1  0.995640  0.180640  0.598200  1.0  0.1059
  C  C3010  1  0.045500  0.228060  0.626790  1.0  0.1211
  C  C3011  1  0.039080  0.347250  0.651890  1.0  0.0699
  C  C3012  1  0.074900  0.398640  0.687330  1.0  0.1309
  C  C3013  1  0.081280  0.331330  0.664050  1.0  0.1486
  C  C3014  1  0.007520  0.247190  0.607690  1.0  0.0463
  C  C3015  1  0.996660  0.183550  0.644640  1.0  0.1128
  C  C3016  1  0.055210  0.369910  0.718100  1.0  0.0779
  C  C3017  1  0.995640  0.680640  0.098200  1.0  0.1059
  C  C3018  1  0.045500  0.728060  0.126790  1.0  0.1211
  C  C3019  1  0.039080  0.847250  0.151890  1.0  0.0699
  C  C3020  1  0.074900  0.898640  0.187330  1.0  0.1309
  C  C3021  1  0.081280  0.831330  0.164050  1.0  0.1486
  C  C3022  1  0.007520  0.747190  0.107690  1.0  0.0463
  C  C3023  1  0.996660  0.683550  0.144640  1.0  0.1128
  C  C3024  1  0.055210  0.869910  0.218100  1.0  0.0779
  C  C3025  1  0.495640  0.180640  0.098200  1.0  0.1059
  C  C3026  1  0.545500  0.228060  0.126790  1.0  0.1211
  C  C3027  1  0.539080  0.347250  0.151890  1.0  0.0699
  C  C3028  1  0.574900  0.398640  0.187330  1.0  0.1309
  C  C3029  1  0.581280  0.331330  0.164050  1.0  0.1486
  C  C3030  1  0.507520  0.247190  0.107690  1.0  0.0463
  C  C3031  1  0.496660  0.183550  0.144640  1.0  0.1128
  C  C3032  1  0.555210  0.369910  0.218100  1.0  0.0779
  C  C3033  1  0.495640  0.680640  0.598200  1.0  0.1059
  C  C3034  1  0.545500  0.728060  0.626790  1.0  0.1211
  C  C3035  1  0.539080  0.847250  0.651890  1.0  0.0699
  C  C3036  1  0.574900  0.898640  0.687330  1.0  0.1309
  C  C3037  1  0.581280  0.831330  0.664050  1.0  0.1486
  C  C3038  1  0.507520  0.747190  0.607690  1.0  0.0463
  C  C3039  1  0.496660  0.683550  0.644640  1.0  0.1128
  C  C3040  1  0.555210  0.869910  0.718100  1.0  0.0779
  C  C3041  1  0.254360  0.680640  0.151800  1.0  0.1055
  C  C3042  1  0.204500  0.728060  0.123210  1.0  0.1202
  C  C3043  1  0.210920  0.847250  0.098110  1.0  0.0689
  C  C3044  1  0.175100  0.898640  0.062670  1.0  0.129
  C  C3045  1  0.168720  0.831330  0.085950  1.0  0.1478
  C  C3046  1  0.242480  0.747190  0.142310  1.0  0.0462
  C  C3047  1  0.253340  0.683550  0.105360  1.0  0.1137
  C  C3048  1  0.194790  0.869910  0.031900  1.0  0.0764
  C  C3049  1  0.254360  0.180640  0.651800  1.0  0.1055
  C  C3050  1  0.204500  0.228060  0.623210  1.0  0.1202
  C  C3051  1  0.210920  0.347250  0.598110  1.0  0.0689
  C  C3052  1  0.175100  0.398640  0.562670  1.0  0.129
  C  C3053  1  0.168720  0.331330  0.585950  1.0  0.1478
  C  C3054  1  0.242480  0.247190  0.642310  1.0  0.0462
  C  C3055  1  0.253340  0.183550  0.605360  1.0  0.1137
  C  C3056  1  0.194790  0.369910  0.531900  1.0  0.0764
  C  C3057  1  0.754360  0.680640  0.651800  1.0  0.1055
  C  C3058  1  0.704500  0.728060  0.623210  1.0  0.1202
  C  C3059  1  0.710920  0.847250  0.598110  1.0  0.0689
  C  C3060  1  0.675100  0.898640  0.562670  1.0  0.129
  C  C3061  1  0.668720  0.831330  0.585950  1.0  0.1478
  C  C3062  1  0.742480  0.747190  0.642310  1.0  0.0462
  C  C3063  1  0.753340  0.683550  0.605360  1.0  0.1137
  C  C3064  1  0.694790  0.869910  0.531900  1.0  0.0764
  C  C3065  1  0.754360  0.180640  0.151800  1.0  0.1055
  C  C3066  1  0.704500  0.228060  0.123210  1.0  0.1202
  C  C3067  1  0.710920  0.347250  0.098110  1.0  0.0689
  C  C3068  1  0.675100  0.398640  0.062670  1.0  0.129
  C  C3069  1  0.668720  0.331330  0.085950  1.0  0.1478
  C  C3070  1  0.742480  0.247190  0.142310  1.0  0.0462
  C  C3071  1  0.753340  0.183550  0.105360  1.0  0.1137
  C  C3072  1  0.694790  0.369910  0.031900  1.0  0.0764
  C  C3073  1  0.745640  0.401800  0.430640  1.0  0.1044
  C  C3074  1  0.795500  0.373210  0.478060  1.0  0.1211
  C  C3075  1  0.789080  0.348110  0.597250  1.0  0.0702
  C  C3076  1  0.824900  0.312670  0.648640  1.0  0.1308
  C  C3077  1  0.831280  0.335950  0.581330  1.0  0.1482
  C  C3078  1  0.757520  0.392310  0.497190  1.0  0.0462
  C  C3079  1  0.746660  0.355360  0.433550  1.0  0.1131
  C  C3080  1  0.805210  0.281900  0.619910  1.0  0.0769
  C  C3081  1  0.745640  0.901800  0.930640  1.0  0.1044
  C  C3082  1  0.795500  0.873210  0.978060  1.0  0.1211
  C  C3083  1  0.789080  0.848110  0.097250  1.0  0.0702
  C  C3084  1  0.824900  0.812670  0.148640  1.0  0.1308
  C  C3085  1  0.831280  0.835950  0.081330  1.0  0.1482
  C  C3086  1  0.757520  0.892310  0.997190  1.0  0.0462
  C  C3087  1  0.746660  0.855360  0.933550  1.0  0.1131
  C  C3088  1  0.805210  0.781900  0.119910  1.0  0.0769
  C  C3089  1  0.245640  0.401800  0.930640  1.0  0.1044
  C  C3090  1  0.295500  0.373210  0.978060  1.0  0.1211
  C  C3091  1  0.289080  0.348110  0.097250  1.0  0.0702
  C  C3092  1  0.324900  0.312670  0.148640  1.0  0.1308
  C  C3093  1  0.331280  0.335950  0.081330  1.0  0.1482
  C  C3094  1  0.257520  0.392310  0.997190  1.0  0.0462
  C  C3095  1  0.246660  0.355360  0.933550  1.0  0.1131
  C  C3096  1  0.305210  0.281900  0.119910  1.0  0.0769
  C  C3097  1  0.245640  0.901800  0.430640  1.0  0.1044
  C  C3098  1  0.295500  0.873210  0.478060  1.0  0.1211
  C  C3099  1  0.289080  0.848110  0.597250  1.0  0.0702
  C  C3100  1  0.324900  0.812670  0.648640  1.0  0.1308
  C  C3101  1  0.331280  0.835950  0.581330  1.0  0.1482
  C  C3102  1  0.257520  0.892310  0.497190  1.0  0.0462
  C  C3103  1  0.246660  0.855360  0.433550  1.0  0.1131
  C  C3104  1  0.305210  0.781900  0.619910  1.0  0.0769
  C  C3105  1  0.004360  0.848200  0.930640  1.0  0.1036
  C  C3106  1  0.954500  0.876790  0.978060  1.0  0.1209
  C  C3107  1  0.960920  0.901890  0.097250  1.0  0.0687
  C  C3108  1  0.925100  0.937330  0.148640  1.0  0.1298
  C  C3109  1  0.918720  0.914050  0.081330  1.0  0.1478
  C  C3110  1  0.992480  0.857690  0.997190  1.0  0.046
  C  C3111  1  0.003340  0.894640  0.933550  1.0  0.1128
  C  C3112  1  0.944790  0.968100  0.119910  1.0  0.076
  C  C3113  1  0.004360  0.348200  0.430640  1.0  0.1036
  C  C3114  1  0.954500  0.376790  0.478060  1.0  0.1209
  C  C3115  1  0.960920  0.401890  0.597250  1.0  0.0687
  C  C3116  1  0.925100  0.437330  0.648640  1.0  0.1298
  C  C3117  1  0.918720  0.414050  0.581330  1.0  0.1478
  C  C3118  1  0.992480  0.357690  0.497190  1.0  0.046
  C  C3119  1  0.003340  0.394640  0.433550  1.0  0.1128
  C  C3120  1  0.944790  0.468100  0.619910  1.0  0.076
  C  C3121  1  0.504360  0.848200  0.430640  1.0  0.1036
  C  C3122  1  0.454500  0.876790  0.478060  1.0  0.1209
  C  C3123  1  0.460920  0.901890  0.597250  1.0  0.0687
  C  C3124  1  0.425100  0.937330  0.648640  1.0  0.1298
  C  C3125  1  0.418720  0.914050  0.581330  1.0  0.1478
  C  C3126  1  0.492480  0.857690  0.497190  1.0  0.046
  C  C3127  1  0.503340  0.894640  0.433550  1.0  0.1128
  C  C3128  1  0.444790  0.968100  0.619910  1.0  0.076
  C  C3129  1  0.504360  0.348200  0.930640  1.0  0.1036
  C  C3130  1  0.454500  0.376790  0.978060  1.0  0.1209
  C  C3131  1  0.460920  0.401890  0.097250  1.0  0.0687
  C  C3132  1  0.425100  0.437330  0.148640  1.0  0.1298
  C  C3133  1  0.418720  0.414050  0.081330  1.0  0.1478
  C  C3134  1  0.492480  0.357690  0.997190  1.0  0.046
  C  C3135  1  0.503340  0.394640  0.933550  1.0  0.1128
  C  C3136  1  0.444790  0.468100  0.119910  1.0  0.076
  C  C3137  1  0.245640  0.348200  0.819360  1.0  0.1032
  C  C3138  1  0.295500  0.376790  0.771940  1.0  0.1209
  C  C3139  1  0.289080  0.401890  0.652750  1.0  0.0693
  C  C3140  1  0.324900  0.437330  0.601360  1.0  0.1309
  C  C3141  1  0.331280  0.414050  0.668670  1.0  0.1478
  C  C3142  1  0.257520  0.357690  0.752810  1.0  0.046
  C  C3143  1  0.246660  0.394640  0.816450  1.0  0.1144
  C  C3144  1  0.305210  0.468100  0.630090  1.0  0.0757
  C  C3145  1  0.245640  0.848200  0.319360  1.0  0.1032
  C  C3146  1  0.295500  0.876790  0.271940  1.0  0.1209
  C  C3147  1  0.289080  0.901890  0.152750  1.0  0.0693
  C  C3148  1  0.324900  0.937330  0.101360  1.0  0.1309
  C  C3149  1  0.331280  0.914050  0.168670  1.0  0.1478
  C  C3150  1  0.257520  0.857690  0.252810  1.0  0.046
  C  C3151  1  0.246660  0.894640  0.316450  1.0  0.1144
  C  C3152  1  0.305210  0.968100  0.130090  1.0  0.0757
  C  C3153  1  0.745640  0.348200  0.319360  1.0  0.1032
  C  C3154  1  0.795500  0.376790  0.271940  1.0  0.1209
  C  C3155  1  0.789080  0.401890  0.152750  1.0  0.0693
  C  C3156  1  0.824900  0.437330  0.101360  1.0  0.1309
  C  C3157  1  0.831280  0.414050  0.168670  1.0  0.1478
  C  C3158  1  0.757520  0.357690  0.252810  1.0  0.046
  C  C3159  1  0.746660  0.394640  0.316450  1.0  0.1144
  C  C3160  1  0.805210  0.468100  0.130090  1.0  0.0757
  C  C3161  1  0.745640  0.848200  0.819360  1.0  0.1032
  C  C3162  1  0.795500  0.876790  0.771940  1.0  0.1209
  C  C3163  1  0.789080  0.901890  0.652750  1.0  0.0693
  C  C3164  1  0.824900  0.937330  0.601360  1.0  0.1309
  C  C3165  1  0.831280  0.914050  0.668670  1.0  0.1478
  C  C3166  1  0.757520  0.857690  0.752810  1.0  0.046
  C  C3167  1  0.746660  0.894640  0.816450  1.0  0.1144
  C  C3168  1  0.805210  0.968100  0.630090  1.0  0.0757
  C  C3169  1  0.504360  0.901800  0.319360  1.0  0.1049
  C  C3170  1  0.454500  0.873210  0.271940  1.0  0.1209
  C  C3171  1  0.460920  0.848110  0.152750  1.0  0.0687
  C  C3172  1  0.425100  0.812670  0.101360  1.0  0.1306
  C  C3173  1  0.418720  0.835950  0.168670  1.0  0.1477
  C  C3174  1  0.492480  0.892310  0.252810  1.0  0.0459
  C  C3175  1  0.503340  0.855360  0.316450  1.0  0.1133
  C  C3176  1  0.444790  0.781900  0.130090  1.0  0.0765
  C  C3177  1  0.504360  0.401800  0.819360  1.0  0.1049
  C  C3178  1  0.454500  0.373210  0.771940  1.0  0.1209
  C  C3179  1  0.460920  0.348110  0.652750  1.0  0.0687
  C  C3180  1  0.425100  0.312670  0.601360  1.0  0.1306
  C  C3181  1  0.418720  0.335950  0.668670  1.0  0.1477
  C  C3182  1  0.492480  0.392310  0.752810  1.0  0.0459
  C  C3183  1  0.503340  0.355360  0.816450  1.0  0.1133
  C  C3184  1  0.444790  0.281900  0.630090  1.0  0.0765
  C  C3185  1  0.004360  0.901800  0.819360  1.0  0.1049
  C  C3186  1  0.954500  0.873210  0.771940  1.0  0.1209
  C  C3187  1  0.960920  0.848110  0.652750  1.0  0.0687
  C  C3188  1  0.925100  0.812670  0.601360  1.0  0.1306
  C  C3189  1  0.918720  0.835950  0.668670  1.0  0.1477
  C  C3190  1  0.992480  0.892310  0.752810  1.0  0.0459
  C  C3191  1  0.003340  0.855360  0.816450  1.0  0.1133
  C  C3192  1  0.944790  0.781900  0.630090  1.0  0.0765
  C  C3193  1  0.004360  0.401800  0.319360  1.0  0.1049
  C  C3194  1  0.954500  0.373210  0.271940  1.0  0.1209
  C  C3195  1  0.960920  0.348110  0.152750  1.0  0.0687
  C  C3196  1  0.925100  0.312670  0.101360  1.0  0.1306
  C  C3197  1  0.918720  0.335950  0.168670  1.0  0.1477
  C  C3198  1  0.992480  0.392310  0.252810  1.0  0.0459
  C  C3199  1  0.003340  0.355360  0.316450  1.0  0.1133
  C  C3200  1  0.944790  0.281900  0.130090  1.0  0.0765
  C  C3201  1  0.901800  0.319360  0.504360  1.0  0.1035
  C  C3202  1  0.873210  0.271940  0.454500  1.0  0.1216
  C  C3203  1  0.848110  0.152750  0.460920  1.0  0.0739
  C  C3204  1  0.812670  0.101360  0.425100  1.0  0.1309
  C  C3205  1  0.835950  0.168670  0.418720  1.0  0.1495
  C  C3206  1  0.892310  0.252810  0.492480  1.0  0.0464
  C  C3207  1  0.855360  0.316450  0.503340  1.0  0.1118
  C  C3208  1  0.781900  0.130090  0.444790  1.0  0.0751
  C  C3209  1  0.901800  0.819360  0.004360  1.0  0.1035
  C  C3210  1  0.873210  0.771940  0.954500  1.0  0.1216
  C  C3211  1  0.848110  0.652750  0.960920  1.0  0.0739
  C  C3212  1  0.812670  0.601360  0.925100  1.0  0.1309
  C  C3213  1  0.835950  0.668670  0.918720  1.0  0.1495
  C  C3214  1  0.892310  0.752810  0.992480  1.0  0.0464
  C  C3215  1  0.855360  0.816450  0.003340  1.0  0.1118
  C  C3216  1  0.781900  0.630090  0.944790  1.0  0.0751
  C  C3217  1  0.401800  0.319360  0.004360  1.0  0.1035
  C  C3218  1  0.373210  0.271940  0.954500  1.0  0.1216
  C  C3219  1  0.348110  0.152750  0.960920  1.0  0.0739
  C  C3220  1  0.312670  0.101360  0.925100  1.0  0.1309
  C  C3221  1  0.335950  0.168670  0.918720  1.0  0.1495
  C  C3222  1  0.392310  0.252810  0.992480  1.0  0.0464
  C  C3223  1  0.355360  0.316450  0.003340  1.0  0.1118
  C  C3224  1  0.281900  0.130090  0.944790  1.0  0.0751
  C  C3225  1  0.401800  0.819360  0.504360  1.0  0.1035
  C  C3226  1  0.373210  0.771940  0.454500  1.0  0.1216
  C  C3227  1  0.348110  0.652750  0.460920  1.0  0.0739
  C  C3228  1  0.312670  0.601360  0.425100  1.0  0.1309
  C  C3229  1  0.335950  0.668670  0.418720  1.0  0.1495
  C  C3230  1  0.392310  0.752810  0.492480  1.0  0.0464
  C  C3231  1  0.355360  0.816450  0.503340  1.0  0.1118
  C  C3232  1  0.281900  0.630090  0.444790  1.0  0.0751
  C  C3233  1  0.348200  0.819360  0.245640  1.0  0.1033
  C  C3234  1  0.376790  0.771940  0.295500  1.0  0.1203
  C  C3235  1  0.401890  0.652750  0.289080  1.0  0.0744
  C  C3236  1  0.437330  0.601360  0.324900  1.0  0.1304
  C  C3237  1  0.414050  0.668670  0.331280  1.0  0.1487
  C  C3238  1  0.357690  0.752810  0.257520  1.0  0.047
  C  C3239  1  0.394640  0.816450  0.246660  1.0  0.1127
  C  C3240  1  0.468100  0.630090  0.305210  1.0  0.077
  C  C3241  1  0.348200  0.319360  0.745640  1.0  0.1033
  C  C3242  1  0.376790  0.271940  0.795500  1.0  0.1203
  C  C3243  1  0.401890  0.152750  0.789080  1.0  0.0744
  C  C3244  1  0.437330  0.101360  0.824900  1.0  0.1304
  C  C3245  1  0.414050  0.168670  0.831280  1.0  0.1487
  C  C3246  1  0.357690  0.252810  0.757520  1.0  0.047
  C  C3247  1  0.394640  0.316450  0.746660  1.0  0.1127
  C  C3248  1  0.468100  0.130090  0.805210  1.0  0.077
  C  C3249  1  0.848200  0.819360  0.745640  1.0  0.1033
  C  C3250  1  0.876790  0.771940  0.795500  1.0  0.1203
  C  C3251  1  0.901890  0.652750  0.789080  1.0  0.0744
  C  C3252  1  0.937330  0.601360  0.824900  1.0  0.1304
  C  C3253  1  0.914050  0.668670  0.831280  1.0  0.1487
  C  C3254  1  0.857690  0.752810  0.757520  1.0  0.047
  C  C3255  1  0.894640  0.816450  0.746660  1.0  0.1127
  C  C3256  1  0.968100  0.630090  0.805210  1.0  0.077
  C  C3257  1  0.848200  0.319360  0.245640  1.0  0.1033
  C  C3258  1  0.876790  0.271940  0.295500  1.0  0.1203
  C  C3259  1  0.901890  0.152750  0.289080  1.0  0.0744
  C  C3260  1  0.937330  0.101360  0.324900  1.0  0.1304
  C  C3261  1  0.914050  0.168670  0.331280  1.0  0.1487
  C  C3262  1  0.857690  0.252810  0.257520  1.0  0.047
  C  C3263  1  0.894640  0.316450  0.246660  1.0  0.1127
  C  C3264  1  0.968100  0.130090  0.305210  1.0  0.077
  C  C3265  1  0.848200  0.930640  0.004360  1.0  0.1026
  C  C3266  1  0.876790  0.978060  0.954500  1.0  0.1214
  C  C3267  1  0.901890  0.097250  0.960920  1.0  0.0728
  C  C3268  1  0.937330  0.148640  0.925100  1.0  0.1308
  C  C3269  1  0.914050  0.081330  0.918720  1.0  0.1495
  C  C3270  1  0.857690  0.997190  0.992480  1.0  0.0458
  C  C3271  1  0.894640  0.933550  0.003340  1.0  0.1119
  C  C3272  1  0.968100  0.119910  0.944790  1.0  0.0767
  C  C3273  1  0.848200  0.430640  0.504360  1.0  0.1026
  C  C3274  1  0.876790  0.478060  0.454500  1.0  0.1214
  C  C3275  1  0.901890  0.597250  0.460920  1.0  0.0728
  C  C3276  1  0.937330  0.648640  0.425100  1.0  0.1308
  C  C3277  1  0.914050  0.581330  0.418720  1.0  0.1495
  C  C3278  1  0.857690  0.497190  0.492480  1.0  0.0458
  C  C3279  1  0.894640  0.433550  0.503340  1.0  0.1119
  C  C3280  1  0.968100  0.619910  0.444790  1.0  0.0767
  C  C3281  1  0.348200  0.930640  0.504360  1.0  0.1026
  C  C3282  1  0.376790  0.978060  0.454500  1.0  0.1214
  C  C3283  1  0.401890  0.097250  0.460920  1.0  0.0728
  C  C3284  1  0.437330  0.148640  0.425100  1.0  0.1308
  C  C3285  1  0.414050  0.081330  0.418720  1.0  0.1495
  C  C3286  1  0.357690  0.997190  0.492480  1.0  0.0458
  C  C3287  1  0.394640  0.933550  0.503340  1.0  0.1119
  C  C3288  1  0.468100  0.119910  0.444790  1.0  0.0767
  C  C3289  1  0.348200  0.430640  0.004360  1.0  0.1026
  C  C3290  1  0.376790  0.478060  0.954500  1.0  0.1214
  C  C3291  1  0.401890  0.597250  0.960920  1.0  0.0728
  C  C3292  1  0.437330  0.648640  0.925100  1.0  0.1308
  C  C3293  1  0.414050  0.581330  0.918720  1.0  0.1495
  C  C3294  1  0.357690  0.497190  0.992480  1.0  0.0458
  C  C3295  1  0.394640  0.433550  0.003340  1.0  0.1119
  C  C3296  1  0.468100  0.619910  0.944790  1.0  0.0767
  C  C3297  1  0.401800  0.430640  0.745640  1.0  0.1028
  C  C3298  1  0.373210  0.478060  0.795500  1.0  0.1201
  C  C3299  1  0.348110  0.597250  0.789080  1.0  0.0743
  C  C3300  1  0.312670  0.648640  0.824900  1.0  0.13
  C  C3301  1  0.335950  0.581330  0.831280  1.0  0.1485
  C  C3302  1  0.392310  0.497190  0.757520  1.0  0.0458
  C  C3303  1  0.355360  0.433550  0.746660  1.0  0.1117
  C  C3304  1  0.281900  0.619910  0.805210  1.0  0.0758
  C  C3305  1  0.401800  0.930640  0.245640  1.0  0.1028
  C  C3306  1  0.373210  0.978060  0.295500  1.0  0.1201
  C  C3307  1  0.348110  0.097250  0.289080  1.0  0.0743
  C  C3308  1  0.312670  0.148640  0.324900  1.0  0.13
  C  C3309  1  0.335950  0.081330  0.331280  1.0  0.1485
  C  C3310  1  0.392310  0.997190  0.257520  1.0  0.0458
  C  C3311  1  0.355360  0.933550  0.246660  1.0  0.1117
  C  C3312  1  0.281900  0.119910  0.305210  1.0  0.0758
  C  C3313  1  0.901800  0.430640  0.245640  1.0  0.1028
  C  C3314  1  0.873210  0.478060  0.295500  1.0  0.1201
  C  C3315  1  0.848110  0.597250  0.289080  1.0  0.0743
  C  C3316  1  0.812670  0.648640  0.324900  1.0  0.13
  C  C3317  1  0.835950  0.581330  0.331280  1.0  0.1485
  C  C3318  1  0.892310  0.497190  0.257520  1.0  0.0458
  C  C3319  1  0.855360  0.433550  0.246660  1.0  0.1117
  C  C3320  1  0.781900  0.619910  0.305210  1.0  0.0758
  C  C3321  1  0.901800  0.930640  0.745640  1.0  0.1028
  C  C3322  1  0.873210  0.978060  0.795500  1.0  0.1201
  C  C3323  1  0.848110  0.097250  0.789080  1.0  0.0743
  C  C3324  1  0.812670  0.148640  0.824900  1.0  0.13
  C  C3325  1  0.835950  0.081330  0.831280  1.0  0.1485
  C  C3326  1  0.892310  0.997190  0.757520  1.0  0.0458
  C  C3327  1  0.855360  0.933550  0.746660  1.0  0.1117
  C  C3328  1  0.781900  0.119910  0.805210  1.0  0.0758
  C  C3329  1  0.819360  0.245640  0.348200  1.0  0.1057
  C  C3330  1  0.771940  0.295500  0.376790  1.0  0.1206
  C  C3331  1  0.652750  0.289080  0.401890  1.0  0.0728
  C  C3332  1  0.601360  0.324900  0.437330  1.0  0.1302
  C  C3333  1  0.668670  0.331280  0.414050  1.0  0.1492
  C  C3334  1  0.752810  0.257520  0.357690  1.0  0.0455
  C  C3335  1  0.816450  0.246660  0.394640  1.0  0.1126
  C  C3336  1  0.630090  0.305210  0.468100  1.0  0.0785
  C  C3337  1  0.819360  0.745640  0.848200  1.0  0.1057
  C  C3338  1  0.771940  0.795500  0.876790  1.0  0.1206
  C  C3339  1  0.652750  0.789080  0.901890  1.0  0.0728
  C  C3340  1  0.601360  0.824900  0.937330  1.0  0.1302
  C  C3341  1  0.668670  0.831280  0.914050  1.0  0.1492
  C  C3342  1  0.752810  0.757520  0.857690  1.0  0.0455
  C  C3343  1  0.816450  0.746660  0.894640  1.0  0.1126
  C  C3344  1  0.630090  0.805210  0.968100  1.0  0.0785
  C  C3345  1  0.319360  0.245640  0.848200  1.0  0.1057
  C  C3346  1  0.271940  0.295500  0.876790  1.0  0.1206
  C  C3347  1  0.152750  0.289080  0.901890  1.0  0.0728
  C  C3348  1  0.101360  0.324900  0.937330  1.0  0.1302
  C  C3349  1  0.168670  0.331280  0.914050  1.0  0.1492
  C  C3350  1  0.252810  0.257520  0.857690  1.0  0.0455
  C  C3351  1  0.316450  0.246660  0.894640  1.0  0.1126
  C  C3352  1  0.130090  0.305210  0.968100  1.0  0.0785
  C  C3353  1  0.319360  0.745640  0.348200  1.0  0.1057
  C  C3354  1  0.271940  0.795500  0.376790  1.0  0.1206
  C  C3355  1  0.152750  0.789080  0.401890  1.0  0.0728
  C  C3356  1  0.101360  0.824900  0.437330  1.0  0.1302
  C  C3357  1  0.168670  0.831280  0.414050  1.0  0.1492
  C  C3358  1  0.252810  0.757520  0.357690  1.0  0.0455
  C  C3359  1  0.316450  0.746660  0.394640  1.0  0.1126
  C  C3360  1  0.130090  0.805210  0.468100  1.0  0.0785
  C  C3361  1  0.319360  0.504360  0.901800  1.0  0.1055
  C  C3362  1  0.271940  0.454500  0.873210  1.0  0.1206
  C  C3363  1  0.152750  0.460920  0.848110  1.0  0.0718
  C  C3364  1  0.101360  0.425100  0.812670  1.0  0.1298
  C  C3365  1  0.168670  0.418720  0.835950  1.0  0.149
  C  C3366  1  0.252810  0.492480  0.892310  1.0  0.0452
  C  C3367  1  0.316450  0.503340  0.855360  1.0  0.1149
  C  C3368  1  0.130090  0.444790  0.781900  1.0  0.0772
  C  C3369  1  0.319360  0.004360  0.401800  1.0  0.1055
  C  C3370  1  0.271940  0.954500  0.373210  1.0  0.1206
  C  C3371  1  0.152750  0.960920  0.348110  1.0  0.0718
  C  C3372  1  0.101360  0.925100  0.312670  1.0  0.1298
  C  C3373  1  0.168670  0.918720  0.335950  1.0  0.149
  C  C3374  1  0.252810  0.992480  0.392310  1.0  0.0452
  C  C3375  1  0.316450  0.003340  0.355360  1.0  0.1149
  C  C3376  1  0.130090  0.944790  0.281900  1.0  0.0772
  C  C3377  1  0.819360  0.504360  0.401800  1.0  0.1055
  C  C3378  1  0.771940  0.454500  0.373210  1.0  0.1206
  C  C3379  1  0.652750  0.460920  0.348110  1.0  0.0718
  C  C3380  1  0.601360  0.425100  0.312670  1.0  0.1298
  C  C3381  1  0.668670  0.418720  0.335950  1.0  0.149
  C  C3382  1  0.752810  0.492480  0.392310  1.0  0.0452
  C  C3383  1  0.816450  0.503340  0.355360  1.0  0.1149
  C  C3384  1  0.630090  0.444790  0.281900  1.0  0.0772
  C  C3385  1  0.819360  0.004360  0.901800  1.0  0.1055
  C  C3386  1  0.771940  0.954500  0.873210  1.0  0.1206
  C  C3387  1  0.652750  0.960920  0.848110  1.0  0.0718
  C  C3388  1  0.601360  0.925100  0.812670  1.0  0.1298
  C  C3389  1  0.668670  0.918720  0.835950  1.0  0.149
  C  C3390  1  0.752810  0.992480  0.892310  1.0  0.0452
  C  C3391  1  0.816450  0.003340  0.855360  1.0  0.1149
  C  C3392  1  0.630090  0.944790  0.781900  1.0  0.0772
  C  C3393  1  0.430640  0.745640  0.401800  1.0  0.105
  C  C3394  1  0.478060  0.795500  0.373210  1.0  0.1208
  C  C3395  1  0.597250  0.789080  0.348110  1.0  0.0715
  C  C3396  1  0.648640  0.824900  0.312670  1.0  0.1313
  C  C3397  1  0.581330  0.831280  0.335950  1.0  0.1488
  C  C3398  1  0.497190  0.757520  0.392310  1.0  0.046
  C  C3399  1  0.433550  0.746660  0.355360  1.0  0.1146
  C  C3400  1  0.619910  0.805210  0.281900  1.0  0.0762
  C  C3401  1  0.430640  0.245640  0.901800  1.0  0.105
  C  C3402  1  0.478060  0.295500  0.873210  1.0  0.1208
  C  C3403  1  0.597250  0.289080  0.848110  1.0  0.0715
  C  C3404  1  0.648640  0.324900  0.812670  1.0  0.1313
  C  C3405  1  0.581330  0.331280  0.835950  1.0  0.1488
  C  C3406  1  0.497190  0.257520  0.892310  1.0  0.046
  C  C3407  1  0.433550  0.246660  0.855360  1.0  0.1146
  C  C3408  1  0.619910  0.305210  0.781900  1.0  0.0762
  C  C3409  1  0.930640  0.745640  0.901800  1.0  0.105
  C  C3410  1  0.978060  0.795500  0.873210  1.0  0.1208
  C  C3411  1  0.097250  0.789080  0.848110  1.0  0.0715
  C  C3412  1  0.148640  0.824900  0.812670  1.0  0.1313
  C  C3413  1  0.081330  0.831280  0.835950  1.0  0.1488
  C  C3414  1  0.997190  0.757520  0.892310  1.0  0.046
  C  C3415  1  0.933550  0.746660  0.855360  1.0  0.1146
  C  C3416  1  0.119910  0.805210  0.781900  1.0  0.0762
  C  C3417  1  0.930640  0.245640  0.401800  1.0  0.105
  C  C3418  1  0.978060  0.295500  0.373210  1.0  0.1208
  C  C3419  1  0.097250  0.289080  0.348110  1.0  0.0715
  C  C3420  1  0.148640  0.324900  0.312670  1.0  0.1313
  C  C3421  1  0.081330  0.331280  0.335950  1.0  0.1488
  C  C3422  1  0.997190  0.257520  0.392310  1.0  0.046
  C  C3423  1  0.933550  0.246660  0.355360  1.0  0.1146
  C  C3424  1  0.119910  0.305210  0.281900  1.0  0.0762
  C  C3425  1  0.930640  0.004360  0.848200  1.0  0.1054
  C  C3426  1  0.978060  0.954500  0.876790  1.0  0.1204
  C  C3427  1  0.097250  0.960920  0.901890  1.0  0.0718
  C  C3428  1  0.148640  0.925100  0.937330  1.0  0.131
  C  C3429  1  0.081330  0.918720  0.914050  1.0  0.1492
  C  C3430  1  0.997190  0.992480  0.857690  1.0  0.0462
  C  C3431  1  0.933550  0.003340  0.894640  1.0  0.1139
  C  C3432  1  0.119910  0.944790  0.968100  1.0  0.0765
  C  C3433  1  0.930640  0.504360  0.348200  1.0  0.1054
  C  C3434  1  0.978060  0.454500  0.376790  1.0  0.1204
  C  C3435  1  0.097250  0.460920  0.401890  1.0  0.0718
  C  C3436  1  0.148640  0.425100  0.437330  1.0  0.131
  C  C3437  1  0.081330  0.418720  0.414050  1.0  0.1492
  C  C3438  1  0.997190  0.492480  0.357690  1.0  0.0462
  C  C3439  1  0.933550  0.503340  0.394640  1.0  0.1139
  C  C3440  1  0.119910  0.444790  0.468100  1.0  0.0765
  C  C3441  1  0.430640  0.004360  0.348200  1.0  0.1054
  C  C3442  1  0.478060  0.954500  0.376790  1.0  0.1204
  C  C3443  1  0.597250  0.960920  0.401890  1.0  0.0718
  C  C3444  1  0.648640  0.925100  0.437330  1.0  0.131
  C  C3445  1  0.581330  0.918720  0.414050  1.0  0.1492
  C  C3446  1  0.497190  0.992480  0.357690  1.0  0.0462
  C  C3447  1  0.433550  0.003340  0.394640  1.0  0.1139
  C  C3448  1  0.619910  0.944790  0.468100  1.0  0.0765
  C  C3449  1  0.430640  0.504360  0.848200  1.0  0.1054
  C  C3450  1  0.478060  0.454500  0.876790  1.0  0.1204
  C  C3451  1  0.597250  0.460920  0.901890  1.0  0.0718
  C  C3452  1  0.648640  0.425100  0.937330  1.0  0.131
  C  C3453  1  0.581330  0.418720  0.914050  1.0  0.1492
  C  C3454  1  0.497190  0.492480  0.857690  1.0  0.0462
  C  C3455  1  0.433550  0.503340  0.894640  1.0  0.1139
  C  C3456  1  0.619910  0.444790  0.968100  1.0  0.0765
  N  N3457  1  0.358460  0.472810  0.516470  1.0  -0.2123
  N  N3458  1  0.370860  0.448800  0.504520  1.0  -0.2618
  N  N3459  1  0.393420  0.428070  0.565410  1.0  -0.2759
  N  N3460  1  0.385910  0.455140  0.575530  1.0  -0.2438
  N  N3461  1  0.358390  0.516770  0.407990  1.0  -0.2754
  N  N3462  1  0.387950  0.515730  0.409670  1.0  -0.2365
  N  N3463  1  0.370400  0.495690  0.447040  1.0  0.0164
  N  N3464  1  0.481530  0.438220  0.643240  1.0  -0.2542
  N  N3465  1  0.440460  0.436520  0.622320  1.0  0.0071
  N  N3466  1  0.461750  0.425720  0.661650  1.0  -0.2564
  N  N3467  1  0.420110  0.438770  0.601410  1.0  0.0022
  N  N3468  1  0.368560  0.481850  0.472710  1.0  0.0063
  N  N3469  1  0.358460  0.972810  0.016470  1.0  -0.2123
  N  N3470  1  0.370860  0.948800  0.004520  1.0  -0.2618
  N  N3471  1  0.393420  0.928070  0.065410  1.0  -0.2759
  N  N3472  1  0.385910  0.955140  0.075530  1.0  -0.2438
  N  N3473  1  0.358390  0.016770  0.907990  1.0  -0.2754
  N  N3474  1  0.387950  0.015730  0.909670  1.0  -0.2365
  N  N3475  1  0.370400  0.995690  0.947040  1.0  0.0164
  N  N3476  1  0.481530  0.938220  0.143240  1.0  -0.2542
  N  N3477  1  0.440460  0.936520  0.122320  1.0  0.0071
  N  N3478  1  0.461750  0.925720  0.161650  1.0  -0.2564
  N  N3479  1  0.420110  0.938770  0.101410  1.0  0.0022
  N  N3480  1  0.368560  0.981850  0.972710  1.0  0.0063
  N  N3481  1  0.858460  0.472810  0.016470  1.0  -0.2123
  N  N3482  1  0.870860  0.448800  0.004520  1.0  -0.2618
  N  N3483  1  0.893420  0.428070  0.065410  1.0  -0.2759
  N  N3484  1  0.885910  0.455140  0.075530  1.0  -0.2438
  N  N3485  1  0.858390  0.516770  0.907990  1.0  -0.2754
  N  N3486  1  0.887950  0.515730  0.909670  1.0  -0.2365
  N  N3487  1  0.870400  0.495690  0.947040  1.0  0.0164
  N  N3488  1  0.981530  0.438220  0.143240  1.0  -0.2542
  N  N3489  1  0.940460  0.436520  0.122320  1.0  0.0071
  N  N3490  1  0.961750  0.425720  0.161650  1.0  -0.2564
  N  N3491  1  0.920110  0.438770  0.101410  1.0  0.0022
  N  N3492  1  0.868560  0.481850  0.972710  1.0  0.0063
  N  N3493  1  0.858460  0.972810  0.516470  1.0  -0.2123
  N  N3494  1  0.870860  0.948800  0.504520  1.0  -0.2618
  N  N3495  1  0.893420  0.928070  0.565410  1.0  -0.2759
  N  N3496  1  0.885910  0.955140  0.575530  1.0  -0.2438
  N  N3497  1  0.858390  0.016770  0.407990  1.0  -0.2754
  N  N3498  1  0.887950  0.015730  0.409670  1.0  -0.2365
  N  N3499  1  0.870400  0.995690  0.447040  1.0  0.0164
  N  N3500  1  0.981530  0.938220  0.643240  1.0  -0.2542
  N  N3501  1  0.940460  0.936520  0.622320  1.0  0.0071
  N  N3502  1  0.961750  0.925720  0.661650  1.0  -0.2564
  N  N3503  1  0.920110  0.938770  0.601410  1.0  0.0022
  N  N3504  1  0.868560  0.981850  0.472710  1.0  0.0063
  N  N3505  1  0.891540  0.277190  0.016470  1.0  -0.2117
  N  N3506  1  0.879140  0.301200  0.004520  1.0  -0.2624
  N  N3507  1  0.856580  0.321930  0.065410  1.0  -0.2745
  N  N3508  1  0.864090  0.294860  0.075530  1.0  -0.2445
  N  N3509  1  0.891610  0.233230  0.907990  1.0  -0.2753
  N  N3510  1  0.862050  0.234270  0.909670  1.0  -0.2367
  N  N3511  1  0.879600  0.254310  0.947040  1.0  0.0166
  N  N3512  1  0.768470  0.311780  0.143240  1.0  -0.253
  N  N3513  1  0.809540  0.313480  0.122320  1.0  0.0081
  N  N3514  1  0.788250  0.324280  0.161650  1.0  -0.2568
  N  N3515  1  0.829890  0.311230  0.101410  1.0  0.0024
  N  N3516  1  0.881440  0.268150  0.972710  1.0  0.006
  N  N3517  1  0.891540  0.777190  0.516470  1.0  -0.2117
  N  N3518  1  0.879140  0.801200  0.504520  1.0  -0.2624
  N  N3519  1  0.856580  0.821930  0.565410  1.0  -0.2745
  N  N3520  1  0.864090  0.794860  0.575530  1.0  -0.2445
  N  N3521  1  0.891610  0.733230  0.407990  1.0  -0.2753
  N  N3522  1  0.862050  0.734270  0.409670  1.0  -0.2367
  N  N3523  1  0.879600  0.754310  0.447040  1.0  0.0166
  N  N3524  1  0.768470  0.811780  0.643240  1.0  -0.253
  N  N3525  1  0.809540  0.813480  0.622320  1.0  0.0081
  N  N3526  1  0.788250  0.824280  0.661650  1.0  -0.2568
  N  N3527  1  0.829890  0.811230  0.601410  1.0  0.0024
  N  N3528  1  0.881440  0.768150  0.472710  1.0  0.006
  N  N3529  1  0.391540  0.277190  0.516470  1.0  -0.2117
  N  N3530  1  0.379140  0.301200  0.504520  1.0  -0.2624
  N  N3531  1  0.356580  0.321930  0.565410  1.0  -0.2745
  N  N3532  1  0.364090  0.294860  0.575530  1.0  -0.2445
  N  N3533  1  0.391610  0.233230  0.407990  1.0  -0.2753
  N  N3534  1  0.362050  0.234270  0.409670  1.0  -0.2367
  N  N3535  1  0.379600  0.254310  0.447040  1.0  0.0166
  N  N3536  1  0.268470  0.311780  0.643240  1.0  -0.253
  N  N3537  1  0.309540  0.313480  0.622320  1.0  0.0081
  N  N3538  1  0.288250  0.324280  0.661650  1.0  -0.2568
  N  N3539  1  0.329890  0.311230  0.601410  1.0  0.0024
  N  N3540  1  0.381440  0.268150  0.472710  1.0  0.006
  N  N3541  1  0.391540  0.777190  0.016470  1.0  -0.2117
  N  N3542  1  0.379140  0.801200  0.004520  1.0  -0.2624
  N  N3543  1  0.356580  0.821930  0.065410  1.0  -0.2745
  N  N3544  1  0.364090  0.794860  0.075530  1.0  -0.2445
  N  N3545  1  0.391610  0.733230  0.907990  1.0  -0.2753
  N  N3546  1  0.362050  0.734270  0.909670  1.0  -0.2367
  N  N3547  1  0.379600  0.754310  0.947040  1.0  0.0166
  N  N3548  1  0.268470  0.811780  0.143240  1.0  -0.253
  N  N3549  1  0.309540  0.813480  0.122320  1.0  0.0081
  N  N3550  1  0.288250  0.824280  0.161650  1.0  -0.2568
  N  N3551  1  0.329890  0.811230  0.101410  1.0  0.0024
  N  N3552  1  0.381440  0.768150  0.972710  1.0  0.006
  N  N3553  1  0.391540  0.972810  0.733530  1.0  -0.2129
  N  N3554  1  0.379140  0.948800  0.745480  1.0  -0.2607
  N  N3555  1  0.356580  0.928070  0.684590  1.0  -0.2738
  N  N3556  1  0.364090  0.955140  0.674470  1.0  -0.2448
  N  N3557  1  0.391610  0.016770  0.842010  1.0  -0.274
  N  N3558  1  0.362050  0.015730  0.840330  1.0  -0.2364
  N  N3559  1  0.379600  0.995690  0.802960  1.0  0.0165
  N  N3560  1  0.268470  0.938220  0.606760  1.0  -0.252
  N  N3561  1  0.309540  0.936520  0.627680  1.0  0.0073
  N  N3562  1  0.288250  0.925720  0.588350  1.0  -0.2562
  N  N3563  1  0.329890  0.938770  0.648590  1.0  0.0026
  N  N3564  1  0.381440  0.981850  0.777290  1.0  0.0055
  N  N3565  1  0.391540  0.472810  0.233530  1.0  -0.2129
  N  N3566  1  0.379140  0.448800  0.245480  1.0  -0.2607
  N  N3567  1  0.356580  0.428070  0.184590  1.0  -0.2738
  N  N3568  1  0.364090  0.455140  0.174470  1.0  -0.2448
  N  N3569  1  0.391610  0.516770  0.342010  1.0  -0.274
  N  N3570  1  0.362050  0.515730  0.340330  1.0  -0.2364
  N  N3571  1  0.379600  0.495690  0.302960  1.0  0.0165
  N  N3572  1  0.268470  0.438220  0.106760  1.0  -0.252
  N  N3573  1  0.309540  0.436520  0.127680  1.0  0.0073
  N  N3574  1  0.288250  0.425720  0.088350  1.0  -0.2562
  N  N3575  1  0.329890  0.438770  0.148590  1.0  0.0026
  N  N3576  1  0.381440  0.481850  0.277290  1.0  0.0055
  N  N3577  1  0.891540  0.972810  0.233530  1.0  -0.2129
  N  N3578  1  0.879140  0.948800  0.245480  1.0  -0.2607
  N  N3579  1  0.856580  0.928070  0.184590  1.0  -0.2738
  N  N3580  1  0.864090  0.955140  0.174470  1.0  -0.2448
  N  N3581  1  0.891610  0.016770  0.342010  1.0  -0.274
  N  N3582  1  0.862050  0.015730  0.340330  1.0  -0.2364
  N  N3583  1  0.879600  0.995690  0.302960  1.0  0.0165
  N  N3584  1  0.768470  0.938220  0.106760  1.0  -0.252
  N  N3585  1  0.809540  0.936520  0.127680  1.0  0.0073
  N  N3586  1  0.788250  0.925720  0.088350  1.0  -0.2562
  N  N3587  1  0.829890  0.938770  0.148590  1.0  0.0026
  N  N3588  1  0.881440  0.981850  0.277290  1.0  0.0055
  N  N3589  1  0.891540  0.472810  0.733530  1.0  -0.2129
  N  N3590  1  0.879140  0.448800  0.745480  1.0  -0.2607
  N  N3591  1  0.856580  0.428070  0.684590  1.0  -0.2738
  N  N3592  1  0.864090  0.455140  0.674470  1.0  -0.2448
  N  N3593  1  0.891610  0.516770  0.842010  1.0  -0.274
  N  N3594  1  0.862050  0.515730  0.840330  1.0  -0.2364
  N  N3595  1  0.879600  0.495690  0.802960  1.0  0.0165
  N  N3596  1  0.768470  0.438220  0.606760  1.0  -0.252
  N  N3597  1  0.809540  0.436520  0.627680  1.0  0.0073
  N  N3598  1  0.788250  0.425720  0.588350  1.0  -0.2562
  N  N3599  1  0.829890  0.438770  0.648590  1.0  0.0026
  N  N3600  1  0.881440  0.481850  0.777290  1.0  0.0055
  N  N3601  1  0.858460  0.777190  0.233530  1.0  -0.2128
  N  N3602  1  0.870860  0.801200  0.245480  1.0  -0.2619
  N  N3603  1  0.893420  0.821930  0.184590  1.0  -0.2751
  N  N3604  1  0.885910  0.794860  0.174470  1.0  -0.2442
  N  N3605  1  0.858390  0.733230  0.342010  1.0  -0.2749
  N  N3606  1  0.887950  0.734270  0.340330  1.0  -0.2357
  N  N3607  1  0.870400  0.754310  0.302960  1.0  0.0166
  N  N3608  1  0.981530  0.811780  0.106760  1.0  -0.2541
  N  N3609  1  0.940460  0.813480  0.127680  1.0  0.0066
  N  N3610  1  0.961750  0.824280  0.088350  1.0  -0.2557
  N  N3611  1  0.920110  0.811230  0.148590  1.0  0.0029
  N  N3612  1  0.868560  0.768150  0.277290  1.0  0.0058
  N  N3613  1  0.858460  0.277190  0.733530  1.0  -0.2128
  N  N3614  1  0.870860  0.301200  0.745480  1.0  -0.2619
  N  N3615  1  0.893420  0.321930  0.684590  1.0  -0.2751
  N  N3616  1  0.885910  0.294860  0.674470  1.0  -0.2442
  N  N3617  1  0.858390  0.233230  0.842010  1.0  -0.2749
  N  N3618  1  0.887950  0.234270  0.840330  1.0  -0.2357
  N  N3619  1  0.870400  0.254310  0.802960  1.0  0.0166
  N  N3620  1  0.981530  0.311780  0.606760  1.0  -0.2541
  N  N3621  1  0.940460  0.313480  0.627680  1.0  0.0066
  N  N3622  1  0.961750  0.324280  0.588350  1.0  -0.2557
  N  N3623  1  0.920110  0.311230  0.648590  1.0  0.0029
  N  N3624  1  0.868560  0.268150  0.777290  1.0  0.0058
  N  N3625  1  0.358460  0.777190  0.733530  1.0  -0.2128
  N  N3626  1  0.370860  0.801200  0.745480  1.0  -0.2619
  N  N3627  1  0.393420  0.821930  0.684590  1.0  -0.2751
  N  N3628  1  0.385910  0.794860  0.674470  1.0  -0.2442
  N  N3629  1  0.358390  0.733230  0.842010  1.0  -0.2749
  N  N3630  1  0.387950  0.734270  0.840330  1.0  -0.2357
  N  N3631  1  0.370400  0.754310  0.802960  1.0  0.0166
  N  N3632  1  0.481530  0.811780  0.606760  1.0  -0.2541
  N  N3633  1  0.440460  0.813480  0.627680  1.0  0.0066
  N  N3634  1  0.461750  0.824280  0.588350  1.0  -0.2557
  N  N3635  1  0.420110  0.811230  0.648590  1.0  0.0029
  N  N3636  1  0.368560  0.768150  0.777290  1.0  0.0058
  N  N3637  1  0.358460  0.277190  0.233530  1.0  -0.2128
  N  N3638  1  0.370860  0.301200  0.245480  1.0  -0.2619
  N  N3639  1  0.393420  0.321930  0.184590  1.0  -0.2751
  N  N3640  1  0.385910  0.294860  0.174470  1.0  -0.2442
  N  N3641  1  0.358390  0.233230  0.342010  1.0  -0.2749
  N  N3642  1  0.387950  0.234270  0.340330  1.0  -0.2357
  N  N3643  1  0.370400  0.254310  0.302960  1.0  0.0166
  N  N3644  1  0.481530  0.311780  0.106760  1.0  -0.2541
  N  N3645  1  0.440460  0.313480  0.127680  1.0  0.0066
  N  N3646  1  0.461750  0.324280  0.088350  1.0  -0.2557
  N  N3647  1  0.420110  0.311230  0.148590  1.0  0.0029
  N  N3648  1  0.368560  0.268150  0.277290  1.0  0.0058
  N  N3649  1  0.516470  0.358460  0.472810  1.0  -0.216
  N  N3650  1  0.504520  0.370860  0.448800  1.0  -0.2625
  N  N3651  1  0.565410  0.393420  0.428070  1.0  -0.2766
  N  N3652  1  0.575530  0.385910  0.455140  1.0  -0.2438
  N  N3653  1  0.407990  0.358390  0.516770  1.0  -0.2751
  N  N3654  1  0.409670  0.387950  0.515730  1.0  -0.2383
  N  N3655  1  0.447040  0.370400  0.495690  1.0  0.0166
  N  N3656  1  0.643240  0.481530  0.438220  1.0  -0.2538
  N  N3657  1  0.622320  0.440460  0.436520  1.0  0.0069
  N  N3658  1  0.661650  0.461750  0.425720  1.0  -0.2593
  N  N3659  1  0.601410  0.420110  0.438770  1.0  0.0029
  N  N3660  1  0.472710  0.368560  0.481850  1.0  0.0048
  N  N3661  1  0.516470  0.858460  0.972810  1.0  -0.216
  N  N3662  1  0.504520  0.870860  0.948800  1.0  -0.2625
  N  N3663  1  0.565410  0.893420  0.928070  1.0  -0.2766
  N  N3664  1  0.575530  0.885910  0.955140  1.0  -0.2438
  N  N3665  1  0.407990  0.858390  0.016770  1.0  -0.2751
  N  N3666  1  0.409670  0.887950  0.015730  1.0  -0.2383
  N  N3667  1  0.447040  0.870400  0.995690  1.0  0.0166
  N  N3668  1  0.643240  0.981530  0.938220  1.0  -0.2538
  N  N3669  1  0.622320  0.940460  0.936520  1.0  0.0069
  N  N3670  1  0.661650  0.961750  0.925720  1.0  -0.2593
  N  N3671  1  0.601410  0.920110  0.938770  1.0  0.0029
  N  N3672  1  0.472710  0.868560  0.981850  1.0  0.0048
  N  N3673  1  0.016470  0.358460  0.972810  1.0  -0.216
  N  N3674  1  0.004520  0.370860  0.948800  1.0  -0.2625
  N  N3675  1  0.065410  0.393420  0.928070  1.0  -0.2766
  N  N3676  1  0.075530  0.385910  0.955140  1.0  -0.2438
  N  N3677  1  0.907990  0.358390  0.016770  1.0  -0.2751
  N  N3678  1  0.909670  0.387950  0.015730  1.0  -0.2383
  N  N3679  1  0.947040  0.370400  0.995690  1.0  0.0166
  N  N3680  1  0.143240  0.481530  0.938220  1.0  -0.2538
  N  N3681  1  0.122320  0.440460  0.936520  1.0  0.0069
  N  N3682  1  0.161650  0.461750  0.925720  1.0  -0.2593
  N  N3683  1  0.101410  0.420110  0.938770  1.0  0.0029
  N  N3684  1  0.972710  0.368560  0.981850  1.0  0.0048
  N  N3685  1  0.016470  0.858460  0.472810  1.0  -0.216
  N  N3686  1  0.004520  0.870860  0.448800  1.0  -0.2625
  N  N3687  1  0.065410  0.893420  0.428070  1.0  -0.2766
  N  N3688  1  0.075530  0.885910  0.455140  1.0  -0.2438
  N  N3689  1  0.907990  0.858390  0.516770  1.0  -0.2751
  N  N3690  1  0.909670  0.887950  0.515730  1.0  -0.2383
  N  N3691  1  0.947040  0.870400  0.495690  1.0  0.0166
  N  N3692  1  0.143240  0.981530  0.438220  1.0  -0.2538
  N  N3693  1  0.122320  0.940460  0.436520  1.0  0.0069
  N  N3694  1  0.161650  0.961750  0.425720  1.0  -0.2593
  N  N3695  1  0.101410  0.920110  0.438770  1.0  0.0029
  N  N3696  1  0.972710  0.868560  0.481850  1.0  0.0048
  N  N3697  1  0.016470  0.891540  0.277190  1.0  -0.2172
  N  N3698  1  0.004520  0.879140  0.301200  1.0  -0.2628
  N  N3699  1  0.065410  0.856580  0.321930  1.0  -0.2762
  N  N3700  1  0.075530  0.864090  0.294860  1.0  -0.2433
  N  N3701  1  0.907990  0.891610  0.233230  1.0  -0.2754
  N  N3702  1  0.909670  0.862050  0.234270  1.0  -0.237
  N  N3703  1  0.947040  0.879600  0.254310  1.0  0.0166
  N  N3704  1  0.143240  0.768470  0.311780  1.0  -0.2537
  N  N3705  1  0.122320  0.809540  0.313480  1.0  0.0069
  N  N3706  1  0.161650  0.788250  0.324280  1.0  -0.2601
  N  N3707  1  0.101410  0.829890  0.311230  1.0  0.0029
  N  N3708  1  0.972710  0.881440  0.268150  1.0  0.0047
  N  N3709  1  0.016470  0.391540  0.777190  1.0  -0.2172
  N  N3710  1  0.004520  0.379140  0.801200  1.0  -0.2628
  N  N3711  1  0.065410  0.356580  0.821930  1.0  -0.2762
  N  N3712  1  0.075530  0.364090  0.794860  1.0  -0.2433
  N  N3713  1  0.907990  0.391610  0.733230  1.0  -0.2754
  N  N3714  1  0.909670  0.362050  0.734270  1.0  -0.237
  N  N3715  1  0.947040  0.379600  0.754310  1.0  0.0166
  N  N3716  1  0.143240  0.268470  0.811780  1.0  -0.2537
  N  N3717  1  0.122320  0.309540  0.813480  1.0  0.0069
  N  N3718  1  0.161650  0.288250  0.824280  1.0  -0.2601
  N  N3719  1  0.101410  0.329890  0.811230  1.0  0.0029
  N  N3720  1  0.972710  0.381440  0.768150  1.0  0.0047
  N  N3721  1  0.516470  0.891540  0.777190  1.0  -0.2172
  N  N3722  1  0.504520  0.879140  0.801200  1.0  -0.2628
  N  N3723  1  0.565410  0.856580  0.821930  1.0  -0.2762
  N  N3724  1  0.575530  0.864090  0.794860  1.0  -0.2433
  N  N3725  1  0.407990  0.891610  0.733230  1.0  -0.2754
  N  N3726  1  0.409670  0.862050  0.734270  1.0  -0.237
  N  N3727  1  0.447040  0.879600  0.754310  1.0  0.0166
  N  N3728  1  0.643240  0.768470  0.811780  1.0  -0.2537
  N  N3729  1  0.622320  0.809540  0.813480  1.0  0.0069
  N  N3730  1  0.661650  0.788250  0.824280  1.0  -0.2601
  N  N3731  1  0.601410  0.829890  0.811230  1.0  0.0029
  N  N3732  1  0.472710  0.881440  0.768150  1.0  0.0047
  N  N3733  1  0.516470  0.391540  0.277190  1.0  -0.2172
  N  N3734  1  0.504520  0.379140  0.301200  1.0  -0.2628
  N  N3735  1  0.565410  0.356580  0.321930  1.0  -0.2762
  N  N3736  1  0.575530  0.364090  0.294860  1.0  -0.2433
  N  N3737  1  0.407990  0.391610  0.233230  1.0  -0.2754
  N  N3738  1  0.409670  0.362050  0.234270  1.0  -0.237
  N  N3739  1  0.447040  0.379600  0.254310  1.0  0.0166
  N  N3740  1  0.643240  0.268470  0.311780  1.0  -0.2537
  N  N3741  1  0.622320  0.309540  0.313480  1.0  0.0069
  N  N3742  1  0.661650  0.288250  0.324280  1.0  -0.2601
  N  N3743  1  0.601410  0.329890  0.311230  1.0  0.0029
  N  N3744  1  0.472710  0.381440  0.268150  1.0  0.0047
  N  N3745  1  0.733530  0.391540  0.972810  1.0  -0.2157
  N  N3746  1  0.745480  0.379140  0.948800  1.0  -0.2615
  N  N3747  1  0.684590  0.356580  0.928070  1.0  -0.2754
  N  N3748  1  0.674470  0.364090  0.955140  1.0  -0.2431
  N  N3749  1  0.842010  0.391610  0.016770  1.0  -0.2748
  N  N3750  1  0.840330  0.362050  0.015730  1.0  -0.2392
  N  N3751  1  0.802960  0.379600  0.995690  1.0  0.017
  N  N3752  1  0.606760  0.268470  0.938220  1.0  -0.2547
  N  N3753  1  0.627680  0.309540  0.936520  1.0  0.0067
  N  N3754  1  0.588350  0.288250  0.925720  1.0  -0.2583
  N  N3755  1  0.648590  0.329890  0.938770  1.0  0.003
  N  N3756  1  0.777290  0.381440  0.981850  1.0  0.0052
  N  N3757  1  0.733530  0.891540  0.472810  1.0  -0.2157
  N  N3758  1  0.745480  0.879140  0.448800  1.0  -0.2615
  N  N3759  1  0.684590  0.856580  0.428070  1.0  -0.2754
  N  N3760  1  0.674470  0.864090  0.455140  1.0  -0.2431
  N  N3761  1  0.842010  0.891610  0.516770  1.0  -0.2748
  N  N3762  1  0.840330  0.862050  0.515730  1.0  -0.2392
  N  N3763  1  0.802960  0.879600  0.495690  1.0  0.017
  N  N3764  1  0.606760  0.768470  0.438220  1.0  -0.2547
  N  N3765  1  0.627680  0.809540  0.436520  1.0  0.0067
  N  N3766  1  0.588350  0.788250  0.425720  1.0  -0.2583
  N  N3767  1  0.648590  0.829890  0.438770  1.0  0.003
  N  N3768  1  0.777290  0.881440  0.481850  1.0  0.0052
  N  N3769  1  0.233530  0.391540  0.472810  1.0  -0.2157
  N  N3770  1  0.245480  0.379140  0.448800  1.0  -0.2615
  N  N3771  1  0.184590  0.356580  0.428070  1.0  -0.2754
  N  N3772  1  0.174470  0.364090  0.455140  1.0  -0.2431
  N  N3773  1  0.342010  0.391610  0.516770  1.0  -0.2748
  N  N3774  1  0.340330  0.362050  0.515730  1.0  -0.2392
  N  N3775  1  0.302960  0.379600  0.495690  1.0  0.017
  N  N3776  1  0.106760  0.268470  0.438220  1.0  -0.2547
  N  N3777  1  0.127680  0.309540  0.436520  1.0  0.0067
  N  N3778  1  0.088350  0.288250  0.425720  1.0  -0.2583
  N  N3779  1  0.148590  0.329890  0.438770  1.0  0.003
  N  N3780  1  0.277290  0.381440  0.481850  1.0  0.0052
  N  N3781  1  0.233530  0.891540  0.972810  1.0  -0.2157
  N  N3782  1  0.245480  0.879140  0.948800  1.0  -0.2615
  N  N3783  1  0.184590  0.856580  0.928070  1.0  -0.2754
  N  N3784  1  0.174470  0.864090  0.955140  1.0  -0.2431
  N  N3785  1  0.342010  0.891610  0.016770  1.0  -0.2748
  N  N3786  1  0.340330  0.862050  0.015730  1.0  -0.2392
  N  N3787  1  0.302960  0.879600  0.995690  1.0  0.017
  N  N3788  1  0.106760  0.768470  0.938220  1.0  -0.2547
  N  N3789  1  0.127680  0.809540  0.936520  1.0  0.0067
  N  N3790  1  0.088350  0.788250  0.925720  1.0  -0.2583
  N  N3791  1  0.148590  0.829890  0.938770  1.0  0.003
  N  N3792  1  0.277290  0.881440  0.981850  1.0  0.0052
  N  N3793  1  0.233530  0.858460  0.777190  1.0  -0.2166
  N  N3794  1  0.245480  0.870860  0.801200  1.0  -0.2621
  N  N3795  1  0.184590  0.893420  0.821930  1.0  -0.2762
  N  N3796  1  0.174470  0.885910  0.794860  1.0  -0.2427
  N  N3797  1  0.342010  0.858390  0.733230  1.0  -0.2752
  N  N3798  1  0.340330  0.887950  0.734270  1.0  -0.2383
  N  N3799  1  0.302960  0.870400  0.754310  1.0  0.0171
  N  N3800  1  0.106760  0.981530  0.811780  1.0  -0.255
  N  N3801  1  0.127680  0.940460  0.813480  1.0  0.0066
  N  N3802  1  0.088350  0.961750  0.824280  1.0  -0.2577
  N  N3803  1  0.148590  0.920110  0.811230  1.0  0.0034
  N  N3804  1  0.277290  0.868560  0.768150  1.0  0.0053
  N  N3805  1  0.233530  0.358460  0.277190  1.0  -0.2166
  N  N3806  1  0.245480  0.370860  0.301200  1.0  -0.2621
  N  N3807  1  0.184590  0.393420  0.321930  1.0  -0.2762
  N  N3808  1  0.174470  0.385910  0.294860  1.0  -0.2427
  N  N3809  1  0.342010  0.358390  0.233230  1.0  -0.2752
  N  N3810  1  0.340330  0.387950  0.234270  1.0  -0.2383
  N  N3811  1  0.302960  0.370400  0.254310  1.0  0.0171
  N  N3812  1  0.106760  0.481530  0.311780  1.0  -0.255
  N  N3813  1  0.127680  0.440460  0.313480  1.0  0.0066
  N  N3814  1  0.088350  0.461750  0.324280  1.0  -0.2577
  N  N3815  1  0.148590  0.420110  0.311230  1.0  0.0034
  N  N3816  1  0.277290  0.368560  0.268150  1.0  0.0053
  N  N3817  1  0.733530  0.858460  0.277190  1.0  -0.2166
  N  N3818  1  0.745480  0.870860  0.301200  1.0  -0.2621
  N  N3819  1  0.684590  0.893420  0.321930  1.0  -0.2762
  N  N3820  1  0.674470  0.885910  0.294860  1.0  -0.2427
  N  N3821  1  0.842010  0.858390  0.233230  1.0  -0.2752
  N  N3822  1  0.840330  0.887950  0.234270  1.0  -0.2383
  N  N3823  1  0.802960  0.870400  0.254310  1.0  0.0171
  N  N3824  1  0.606760  0.981530  0.311780  1.0  -0.255
  N  N3825  1  0.627680  0.940460  0.313480  1.0  0.0066
  N  N3826  1  0.588350  0.961750  0.324280  1.0  -0.2577
  N  N3827  1  0.648590  0.920110  0.311230  1.0  0.0034
  N  N3828  1  0.777290  0.868560  0.268150  1.0  0.0053
  N  N3829  1  0.733530  0.358460  0.777190  1.0  -0.2166
  N  N3830  1  0.745480  0.370860  0.801200  1.0  -0.2621
  N  N3831  1  0.684590  0.393420  0.821930  1.0  -0.2762
  N  N3832  1  0.674470  0.385910  0.794860  1.0  -0.2427
  N  N3833  1  0.842010  0.358390  0.733230  1.0  -0.2752
  N  N3834  1  0.840330  0.387950  0.734270  1.0  -0.2383
  N  N3835  1  0.802960  0.370400  0.754310  1.0  0.0171
  N  N3836  1  0.606760  0.481530  0.811780  1.0  -0.255
  N  N3837  1  0.627680  0.440460  0.813480  1.0  0.0066
  N  N3838  1  0.588350  0.461750  0.824280  1.0  -0.2577
  N  N3839  1  0.648590  0.420110  0.811230  1.0  0.0034
  N  N3840  1  0.777290  0.368560  0.768150  1.0  0.0053
  N  N3841  1  0.472810  0.516470  0.358460  1.0  -0.2172
  N  N3842  1  0.448800  0.504520  0.370860  1.0  -0.2611
  N  N3843  1  0.428070  0.565410  0.393420  1.0  -0.2753
  N  N3844  1  0.455140  0.575530  0.385910  1.0  -0.2433
  N  N3845  1  0.516770  0.407990  0.358390  1.0  -0.2743
  N  N3846  1  0.515730  0.409670  0.387950  1.0  -0.2384
  N  N3847  1  0.495690  0.447040  0.370400  1.0  0.0162
  N  N3848  1  0.438220  0.643240  0.481530  1.0  -0.2517
  N  N3849  1  0.436520  0.622320  0.440460  1.0  0.0063
  N  N3850  1  0.425720  0.661650  0.461750  1.0  -0.2597
  N  N3851  1  0.438770  0.601410  0.420110  1.0  0.0012
  N  N3852  1  0.481850  0.472710  0.368560  1.0  0.0054
  N  N3853  1  0.472810  0.016470  0.858460  1.0  -0.2172
  N  N3854  1  0.448800  0.004520  0.870860  1.0  -0.2611
  N  N3855  1  0.428070  0.065410  0.893420  1.0  -0.2753
  N  N3856  1  0.455140  0.075530  0.885910  1.0  -0.2433
  N  N3857  1  0.516770  0.907990  0.858390  1.0  -0.2743
  N  N3858  1  0.515730  0.909670  0.887950  1.0  -0.2384
  N  N3859  1  0.495690  0.947040  0.870400  1.0  0.0162
  N  N3860  1  0.438220  0.143240  0.981530  1.0  -0.2517
  N  N3861  1  0.436520  0.122320  0.940460  1.0  0.0063
  N  N3862  1  0.425720  0.161650  0.961750  1.0  -0.2597
  N  N3863  1  0.438770  0.101410  0.920110  1.0  0.0012
  N  N3864  1  0.481850  0.972710  0.868560  1.0  0.0054
  N  N3865  1  0.972810  0.516470  0.858460  1.0  -0.2172
  N  N3866  1  0.948800  0.504520  0.870860  1.0  -0.2611
  N  N3867  1  0.928070  0.565410  0.893420  1.0  -0.2753
  N  N3868  1  0.955140  0.575530  0.885910  1.0  -0.2433
  N  N3869  1  0.016770  0.407990  0.858390  1.0  -0.2743
  N  N3870  1  0.015730  0.409670  0.887950  1.0  -0.2384
  N  N3871  1  0.995690  0.447040  0.870400  1.0  0.0162
  N  N3872  1  0.938220  0.643240  0.981530  1.0  -0.2517
  N  N3873  1  0.936520  0.622320  0.940460  1.0  0.0063
  N  N3874  1  0.925720  0.661650  0.961750  1.0  -0.2597
  N  N3875  1  0.938770  0.601410  0.920110  1.0  0.0012
  N  N3876  1  0.981850  0.472710  0.868560  1.0  0.0054
  N  N3877  1  0.972810  0.016470  0.358460  1.0  -0.2172
  N  N3878  1  0.948800  0.004520  0.370860  1.0  -0.2611
  N  N3879  1  0.928070  0.065410  0.393420  1.0  -0.2753
  N  N3880  1  0.955140  0.075530  0.385910  1.0  -0.2433
  N  N3881  1  0.016770  0.907990  0.358390  1.0  -0.2743
  N  N3882  1  0.015730  0.909670  0.387950  1.0  -0.2384
  N  N3883  1  0.995690  0.947040  0.370400  1.0  0.0162
  N  N3884  1  0.938220  0.143240  0.481530  1.0  -0.2517
  N  N3885  1  0.936520  0.122320  0.440460  1.0  0.0063
  N  N3886  1  0.925720  0.161650  0.461750  1.0  -0.2597
  N  N3887  1  0.938770  0.101410  0.420110  1.0  0.0012
  N  N3888  1  0.981850  0.972710  0.368560  1.0  0.0054
  N  N3889  1  0.277190  0.016470  0.891540  1.0  -0.2173
  N  N3890  1  0.301200  0.004520  0.879140  1.0  -0.2599
  N  N3891  1  0.321930  0.065410  0.856580  1.0  -0.2752
  N  N3892  1  0.294860  0.075530  0.864090  1.0  -0.2451
  N  N3893  1  0.233230  0.907990  0.891610  1.0  -0.2749
  N  N3894  1  0.234270  0.909670  0.862050  1.0  -0.2375
  N  N3895  1  0.254310  0.947040  0.879600  1.0  0.0158
  N  N3896  1  0.311780  0.143240  0.768470  1.0  -0.2527
  N  N3897  1  0.313480  0.122320  0.809540  1.0  0.0052
  N  N3898  1  0.324280  0.161650  0.788250  1.0  -0.26
  N  N3899  1  0.311230  0.101410  0.829890  1.0  0.0016
  N  N3900  1  0.268150  0.972710  0.881440  1.0  0.0049
  N  N3901  1  0.277190  0.516470  0.391540  1.0  -0.2173
  N  N3902  1  0.301200  0.504520  0.379140  1.0  -0.2599
  N  N3903  1  0.321930  0.565410  0.356580  1.0  -0.2752
  N  N3904  1  0.294860  0.575530  0.364090  1.0  -0.2451
  N  N3905  1  0.233230  0.407990  0.391610  1.0  -0.2749
  N  N3906  1  0.234270  0.409670  0.362050  1.0  -0.2375
  N  N3907  1  0.254310  0.447040  0.379600  1.0  0.0158
  N  N3908  1  0.311780  0.643240  0.268470  1.0  -0.2527
  N  N3909  1  0.313480  0.622320  0.309540  1.0  0.0052
  N  N3910  1  0.324280  0.661650  0.288250  1.0  -0.26
  N  N3911  1  0.311230  0.601410  0.329890  1.0  0.0016
  N  N3912  1  0.268150  0.472710  0.381440  1.0  0.0049
  N  N3913  1  0.777190  0.016470  0.391540  1.0  -0.2173
  N  N3914  1  0.801200  0.004520  0.379140  1.0  -0.2599
  N  N3915  1  0.821930  0.065410  0.356580  1.0  -0.2752
  N  N3916  1  0.794860  0.075530  0.364090  1.0  -0.2451
  N  N3917  1  0.733230  0.907990  0.391610  1.0  -0.2749
  N  N3918  1  0.734270  0.909670  0.362050  1.0  -0.2375
  N  N3919  1  0.754310  0.947040  0.379600  1.0  0.0158
  N  N3920  1  0.811780  0.143240  0.268470  1.0  -0.2527
  N  N3921  1  0.813480  0.122320  0.309540  1.0  0.0052
  N  N3922  1  0.824280  0.161650  0.288250  1.0  -0.26
  N  N3923  1  0.811230  0.101410  0.329890  1.0  0.0016
  N  N3924  1  0.768150  0.972710  0.381440  1.0  0.0049
  N  N3925  1  0.777190  0.516470  0.891540  1.0  -0.2173
  N  N3926  1  0.801200  0.504520  0.879140  1.0  -0.2599
  N  N3927  1  0.821930  0.565410  0.856580  1.0  -0.2752
  N  N3928  1  0.794860  0.575530  0.864090  1.0  -0.2451
  N  N3929  1  0.733230  0.407990  0.891610  1.0  -0.2749
  N  N3930  1  0.734270  0.409670  0.862050  1.0  -0.2375
  N  N3931  1  0.754310  0.447040  0.879600  1.0  0.0158
  N  N3932  1  0.811780  0.643240  0.768470  1.0  -0.2527
  N  N3933  1  0.813480  0.622320  0.809540  1.0  0.0052
  N  N3934  1  0.824280  0.661650  0.788250  1.0  -0.26
  N  N3935  1  0.811230  0.601410  0.829890  1.0  0.0016
  N  N3936  1  0.768150  0.472710  0.881440  1.0  0.0049
  N  N3937  1  0.972810  0.733530  0.391540  1.0  -0.2177
  N  N3938  1  0.948800  0.745480  0.379140  1.0  -0.2619
  N  N3939  1  0.928070  0.684590  0.356580  1.0  -0.2759
  N  N3940  1  0.955140  0.674470  0.364090  1.0  -0.2442
  N  N3941  1  0.016770  0.842010  0.391610  1.0  -0.2749
  N  N3942  1  0.015730  0.840330  0.362050  1.0  -0.2393
  N  N3943  1  0.995690  0.802960  0.379600  1.0  0.0159
  N  N3944  1  0.938220  0.606760  0.268470  1.0  -0.2533
  N  N3945  1  0.936520  0.627680  0.309540  1.0  0.0052
  N  N3946  1  0.925720  0.588350  0.288250  1.0  -0.2598
  N  N3947  1  0.938770  0.648590  0.329890  1.0  0.0019
  N  N3948  1  0.981850  0.777290  0.381440  1.0  0.0047
  N  N3949  1  0.972810  0.233530  0.891540  1.0  -0.2177
  N  N3950  1  0.948800  0.245480  0.879140  1.0  -0.2619
  N  N3951  1  0.928070  0.184590  0.856580  1.0  -0.2759
  N  N3952  1  0.955140  0.174470  0.864090  1.0  -0.2442
  N  N3953  1  0.016770  0.342010  0.891610  1.0  -0.2749
  N  N3954  1  0.015730  0.340330  0.862050  1.0  -0.2393
  N  N3955  1  0.995690  0.302960  0.879600  1.0  0.0159
  N  N3956  1  0.938220  0.106760  0.768470  1.0  -0.2533
  N  N3957  1  0.936520  0.127680  0.809540  1.0  0.0052
  N  N3958  1  0.925720  0.088350  0.788250  1.0  -0.2598
  N  N3959  1  0.938770  0.148590  0.829890  1.0  0.0019
  N  N3960  1  0.981850  0.277290  0.881440  1.0  0.0047
  N  N3961  1  0.472810  0.733530  0.891540  1.0  -0.2177
  N  N3962  1  0.448800  0.745480  0.879140  1.0  -0.2619
  N  N3963  1  0.428070  0.684590  0.856580  1.0  -0.2759
  N  N3964  1  0.455140  0.674470  0.864090  1.0  -0.2442
  N  N3965  1  0.516770  0.842010  0.891610  1.0  -0.2749
  N  N3966  1  0.515730  0.840330  0.862050  1.0  -0.2393
  N  N3967  1  0.495690  0.802960  0.879600  1.0  0.0159
  N  N3968  1  0.438220  0.606760  0.768470  1.0  -0.2533
  N  N3969  1  0.436520  0.627680  0.809540  1.0  0.0052
  N  N3970  1  0.425720  0.588350  0.788250  1.0  -0.2598
  N  N3971  1  0.438770  0.648590  0.829890  1.0  0.0019
  N  N3972  1  0.481850  0.777290  0.881440  1.0  0.0047
  N  N3973  1  0.472810  0.233530  0.391540  1.0  -0.2177
  N  N3974  1  0.448800  0.245480  0.379140  1.0  -0.2619
  N  N3975  1  0.428070  0.184590  0.356580  1.0  -0.2759
  N  N3976  1  0.455140  0.174470  0.364090  1.0  -0.2442
  N  N3977  1  0.516770  0.342010  0.391610  1.0  -0.2749
  N  N3978  1  0.515730  0.340330  0.362050  1.0  -0.2393
  N  N3979  1  0.495690  0.302960  0.379600  1.0  0.0159
  N  N3980  1  0.438220  0.106760  0.268470  1.0  -0.2533
  N  N3981  1  0.436520  0.127680  0.309540  1.0  0.0052
  N  N3982  1  0.425720  0.088350  0.288250  1.0  -0.2598
  N  N3983  1  0.438770  0.148590  0.329890  1.0  0.0019
  N  N3984  1  0.481850  0.277290  0.381440  1.0  0.0047
  N  N3985  1  0.777190  0.233530  0.858460  1.0  -0.2181
  N  N3986  1  0.801200  0.245480  0.870860  1.0  -0.2606
  N  N3987  1  0.821930  0.184590  0.893420  1.0  -0.2751
  N  N3988  1  0.794860  0.174470  0.885910  1.0  -0.2446
  N  N3989  1  0.733230  0.342010  0.858390  1.0  -0.2756
  N  N3990  1  0.734270  0.340330  0.887950  1.0  -0.24
  N  N3991  1  0.754310  0.302960  0.870400  1.0  0.0154
  N  N3992  1  0.811780  0.106760  0.981530  1.0  -0.2521
  N  N3993  1  0.813480  0.127680  0.940460  1.0  0.006
  N  N3994  1  0.824280  0.088350  0.961750  1.0  -0.2592
  N  N3995  1  0.811230  0.148590  0.920110  1.0  0.0022
  N  N3996  1  0.768150  0.277290  0.868560  1.0  0.0043
  N  N3997  1  0.777190  0.733530  0.358460  1.0  -0.2181
  N  N3998  1  0.801200  0.745480  0.370860  1.0  -0.2606
  N  N3999  1  0.821930  0.684590  0.393420  1.0  -0.2751
  N  N4000  1  0.794860  0.674470  0.385910  1.0  -0.2446
  N  N4001  1  0.733230  0.842010  0.358390  1.0  -0.2756
  N  N4002  1  0.734270  0.840330  0.387950  1.0  -0.24
  N  N4003  1  0.754310  0.802960  0.370400  1.0  0.0154
  N  N4004  1  0.811780  0.606760  0.481530  1.0  -0.2521
  N  N4005  1  0.813480  0.627680  0.440460  1.0  0.006
  N  N4006  1  0.824280  0.588350  0.461750  1.0  -0.2592
  N  N4007  1  0.811230  0.648590  0.420110  1.0  0.0022
  N  N4008  1  0.768150  0.777290  0.368560  1.0  0.0043
  N  N4009  1  0.277190  0.233530  0.358460  1.0  -0.2181
  N  N4010  1  0.301200  0.245480  0.370860  1.0  -0.2606
  N  N4011  1  0.321930  0.184590  0.393420  1.0  -0.2751
  N  N4012  1  0.294860  0.174470  0.385910  1.0  -0.2446
  N  N4013  1  0.233230  0.342010  0.358390  1.0  -0.2756
  N  N4014  1  0.234270  0.340330  0.387950  1.0  -0.24
  N  N4015  1  0.254310  0.302960  0.370400  1.0  0.0154
  N  N4016  1  0.311780  0.106760  0.481530  1.0  -0.2521
  N  N4017  1  0.313480  0.127680  0.440460  1.0  0.006
  N  N4018  1  0.324280  0.088350  0.461750  1.0  -0.2592
  N  N4019  1  0.311230  0.148590  0.420110  1.0  0.0022
  N  N4020  1  0.268150  0.277290  0.368560  1.0  0.0043
  N  N4021  1  0.277190  0.733530  0.858460  1.0  -0.2181
  N  N4022  1  0.301200  0.745480  0.870860  1.0  -0.2606
  N  N4023  1  0.321930  0.684590  0.893420  1.0  -0.2751
  N  N4024  1  0.294860  0.674470  0.885910  1.0  -0.2446
  N  N4025  1  0.233230  0.842010  0.858390  1.0  -0.2756
  N  N4026  1  0.234270  0.840330  0.887950  1.0  -0.24
  N  N4027  1  0.254310  0.802960  0.870400  1.0  0.0154
  N  N4028  1  0.311780  0.606760  0.981530  1.0  -0.2521
  N  N4029  1  0.313480  0.627680  0.940460  1.0  0.006
  N  N4030  1  0.324280  0.588350  0.961750  1.0  -0.2592
  N  N4031  1  0.311230  0.648590  0.920110  1.0  0.0022
  N  N4032  1  0.268150  0.777290  0.868560  1.0  0.0043
  N  N4033  1  0.222810  0.608460  0.483530  1.0  -0.2159
  N  N4034  1  0.198800  0.620860  0.495480  1.0  -0.2613
  N  N4035  1  0.178070  0.643420  0.434590  1.0  -0.2751
  N  N4036  1  0.205140  0.635910  0.424470  1.0  -0.2422
  N  N4037  1  0.266770  0.608390  0.592010  1.0  -0.2737
  N  N4038  1  0.265730  0.637950  0.590330  1.0  -0.2363
  N  N4039  1  0.245690  0.620400  0.552960  1.0  0.0172
  N  N4040  1  0.188220  0.731530  0.356760  1.0  -0.2554
  N  N4041  1  0.186520  0.690460  0.377680  1.0  0.0054
  N  N4042  1  0.175720  0.711750  0.338350  1.0  -0.2571
  N  N4043  1  0.188770  0.670110  0.398590  1.0  0.0018
  N  N4044  1  0.231850  0.618560  0.527290  1.0  0.006
  N  N4045  1  0.222810  0.108460  0.983530  1.0  -0.2159
  N  N4046  1  0.198800  0.120860  0.995480  1.0  -0.2613
  N  N4047  1  0.178070  0.143420  0.934590  1.0  -0.2751
  N  N4048  1  0.205140  0.135910  0.924470  1.0  -0.2422
  N  N4049  1  0.266770  0.108390  0.092010  1.0  -0.2737
  N  N4050  1  0.265730  0.137950  0.090330  1.0  -0.2363
  N  N4051  1  0.245690  0.120400  0.052960  1.0  0.0172
  N  N4052  1  0.188220  0.231530  0.856760  1.0  -0.2554
  N  N4053  1  0.186520  0.190460  0.877680  1.0  0.0054
  N  N4054  1  0.175720  0.211750  0.838350  1.0  -0.2571
  N  N4055  1  0.188770  0.170110  0.898590  1.0  0.0018
  N  N4056  1  0.231850  0.118560  0.027290  1.0  0.006
  N  N4057  1  0.722810  0.608460  0.983530  1.0  -0.2159
  N  N4058  1  0.698800  0.620860  0.995480  1.0  -0.2613
  N  N4059  1  0.678070  0.643420  0.934590  1.0  -0.2751
  N  N4060  1  0.705140  0.635910  0.924470  1.0  -0.2422
  N  N4061  1  0.766770  0.608390  0.092010  1.0  -0.2737
  N  N4062  1  0.765730  0.637950  0.090330  1.0  -0.2363
  N  N4063  1  0.745690  0.620400  0.052960  1.0  0.0172
  N  N4064  1  0.688220  0.731530  0.856760  1.0  -0.2554
  N  N4065  1  0.686520  0.690460  0.877680  1.0  0.0054
  N  N4066  1  0.675720  0.711750  0.838350  1.0  -0.2571
  N  N4067  1  0.688770  0.670110  0.898590  1.0  0.0018
  N  N4068  1  0.731850  0.618560  0.027290  1.0  0.006
  N  N4069  1  0.722810  0.108460  0.483530  1.0  -0.2159
  N  N4070  1  0.698800  0.120860  0.495480  1.0  -0.2613
  N  N4071  1  0.678070  0.143420  0.434590  1.0  -0.2751
  N  N4072  1  0.705140  0.135910  0.424470  1.0  -0.2422
  N  N4073  1  0.766770  0.108390  0.592010  1.0  -0.2737
  N  N4074  1  0.765730  0.137950  0.590330  1.0  -0.2363
  N  N4075  1  0.745690  0.120400  0.552960  1.0  0.0172
  N  N4076  1  0.688220  0.231530  0.356760  1.0  -0.2554
  N  N4077  1  0.686520  0.190460  0.377680  1.0  0.0054
  N  N4078  1  0.675720  0.211750  0.338350  1.0  -0.2571
  N  N4079  1  0.688770  0.170110  0.398590  1.0  0.0018
  N  N4080  1  0.731850  0.118560  0.527290  1.0  0.006
  N  N4081  1  0.027190  0.141540  0.983530  1.0  -0.215
  N  N4082  1  0.051200  0.129140  0.995480  1.0  -0.2602
  N  N4083  1  0.071930  0.106580  0.934590  1.0  -0.2735
  N  N4084  1  0.044860  0.114090  0.924470  1.0  -0.2435
  N  N4085  1  0.983230  0.141610  0.092010  1.0  -0.2747
  N  N4086  1  0.984270  0.112050  0.090330  1.0  -0.2364
  N  N4087  1  0.004310  0.129600  0.052960  1.0  0.0166
  N  N4088  1  0.061780  0.018470  0.856760  1.0  -0.2561
  N  N4089  1  0.063480  0.059540  0.877680  1.0  0.0054
  N  N4090  1  0.074280  0.038250  0.838350  1.0  -0.2574
  N  N4091  1  0.061230  0.079890  0.898590  1.0  0.0022
  N  N4092  1  0.018150  0.131440  0.027290  1.0  0.0055
  N  N4093  1  0.027190  0.641540  0.483530  1.0  -0.215
  N  N4094  1  0.051200  0.629140  0.495480  1.0  -0.2602
  N  N4095  1  0.071930  0.606580  0.434590  1.0  -0.2735
  N  N4096  1  0.044860  0.614090  0.424470  1.0  -0.2435
  N  N4097  1  0.983230  0.641610  0.592010  1.0  -0.2747
  N  N4098  1  0.984270  0.612050  0.590330  1.0  -0.2364
  N  N4099  1  0.004310  0.629600  0.552960  1.0  0.0166
  N  N4100  1  0.061780  0.518470  0.356760  1.0  -0.2561
  N  N4101  1  0.063480  0.559540  0.377680  1.0  0.0054
  N  N4102  1  0.074280  0.538250  0.338350  1.0  -0.2574
  N  N4103  1  0.061230  0.579890  0.398590  1.0  0.0022
  N  N4104  1  0.018150  0.631440  0.527290  1.0  0.0055
  N  N4105  1  0.527190  0.141540  0.483530  1.0  -0.215
  N  N4106  1  0.551200  0.129140  0.495480  1.0  -0.2602
  N  N4107  1  0.571930  0.106580  0.434590  1.0  -0.2735
  N  N4108  1  0.544860  0.114090  0.424470  1.0  -0.2435
  N  N4109  1  0.483230  0.141610  0.592010  1.0  -0.2747
  N  N4110  1  0.484270  0.112050  0.590330  1.0  -0.2364
  N  N4111  1  0.504310  0.129600  0.552960  1.0  0.0166
  N  N4112  1  0.561780  0.018470  0.356760  1.0  -0.2561
  N  N4113  1  0.563480  0.059540  0.377680  1.0  0.0054
  N  N4114  1  0.574280  0.038250  0.338350  1.0  -0.2574
  N  N4115  1  0.561230  0.079890  0.398590  1.0  0.0022
  N  N4116  1  0.518150  0.131440  0.527290  1.0  0.0055
  N  N4117  1  0.527190  0.641540  0.983530  1.0  -0.215
  N  N4118  1  0.551200  0.629140  0.995480  1.0  -0.2602
  N  N4119  1  0.571930  0.606580  0.934590  1.0  -0.2735
  N  N4120  1  0.544860  0.614090  0.924470  1.0  -0.2435
  N  N4121  1  0.483230  0.641610  0.092010  1.0  -0.2747
  N  N4122  1  0.484270  0.612050  0.090330  1.0  -0.2364
  N  N4123  1  0.504310  0.629600  0.052960  1.0  0.0166
  N  N4124  1  0.561780  0.518470  0.856760  1.0  -0.2561
  N  N4125  1  0.563480  0.559540  0.877680  1.0  0.0054
  N  N4126  1  0.574280  0.538250  0.838350  1.0  -0.2574
  N  N4127  1  0.561230  0.579890  0.898590  1.0  0.0022
  N  N4128  1  0.518150  0.631440  0.027290  1.0  0.0055
  N  N4129  1  0.722810  0.641540  0.266470  1.0  -0.2154
  N  N4130  1  0.698800  0.629140  0.254520  1.0  -0.2629
  N  N4131  1  0.678070  0.606580  0.315410  1.0  -0.2745
  N  N4132  1  0.705140  0.614090  0.325530  1.0  -0.2422
  N  N4133  1  0.766770  0.641610  0.157990  1.0  -0.2749
  N  N4134  1  0.765730  0.612050  0.159670  1.0  -0.2374
  N  N4135  1  0.745690  0.629600  0.197040  1.0  0.0171
  N  N4136  1  0.688220  0.518470  0.393240  1.0  -0.2549
  N  N4137  1  0.686520  0.559540  0.372320  1.0  0.0062
  N  N4138  1  0.675720  0.538250  0.411650  1.0  -0.2571
  N  N4139  1  0.688770  0.579890  0.351410  1.0  0.0013
  N  N4140  1  0.731850  0.631440  0.222710  1.0  0.0062
  N  N4141  1  0.722810  0.141540  0.766470  1.0  -0.2154
  N  N4142  1  0.698800  0.129140  0.754520  1.0  -0.2629
  N  N4143  1  0.678070  0.106580  0.815410  1.0  -0.2745
  N  N4144  1  0.705140  0.114090  0.825530  1.0  -0.2422
  N  N4145  1  0.766770  0.141610  0.657990  1.0  -0.2749
  N  N4146  1  0.765730  0.112050  0.659670  1.0  -0.2374
  N  N4147  1  0.745690  0.129600  0.697040  1.0  0.0171
  N  N4148  1  0.688220  0.018470  0.893240  1.0  -0.2549
  N  N4149  1  0.686520  0.059540  0.872320  1.0  0.0062
  N  N4150  1  0.675720  0.038250  0.911650  1.0  -0.2571
  N  N4151  1  0.688770  0.079890  0.851410  1.0  0.0013
  N  N4152  1  0.731850  0.131440  0.722710  1.0  0.0062
  N  N4153  1  0.222810  0.641540  0.766470  1.0  -0.2154
  N  N4154  1  0.198800  0.629140  0.754520  1.0  -0.2629
  N  N4155  1  0.178070  0.606580  0.815410  1.0  -0.2745
  N  N4156  1  0.205140  0.614090  0.825530  1.0  -0.2422
  N  N4157  1  0.266770  0.641610  0.657990  1.0  -0.2749
  N  N4158  1  0.265730  0.612050  0.659670  1.0  -0.2374
  N  N4159  1  0.245690  0.629600  0.697040  1.0  0.0171
  N  N4160  1  0.188220  0.518470  0.893240  1.0  -0.2549
  N  N4161  1  0.186520  0.559540  0.872320  1.0  0.0062
  N  N4162  1  0.175720  0.538250  0.911650  1.0  -0.2571
  N  N4163  1  0.188770  0.579890  0.851410  1.0  0.0013
  N  N4164  1  0.231850  0.631440  0.722710  1.0  0.0062
  N  N4165  1  0.222810  0.141540  0.266470  1.0  -0.2154
  N  N4166  1  0.198800  0.129140  0.254520  1.0  -0.2629
  N  N4167  1  0.178070  0.106580  0.315410  1.0  -0.2745
  N  N4168  1  0.205140  0.114090  0.325530  1.0  -0.2422
  N  N4169  1  0.266770  0.141610  0.157990  1.0  -0.2749
  N  N4170  1  0.265730  0.112050  0.159670  1.0  -0.2374
  N  N4171  1  0.245690  0.129600  0.197040  1.0  0.0171
  N  N4172  1  0.188220  0.018470  0.393240  1.0  -0.2549
  N  N4173  1  0.186520  0.059540  0.372320  1.0  0.0062
  N  N4174  1  0.175720  0.038250  0.411650  1.0  -0.2571
  N  N4175  1  0.188770  0.079890  0.351410  1.0  0.0013
  N  N4176  1  0.231850  0.131440  0.222710  1.0  0.0062
  N  N4177  1  0.527190  0.108460  0.766470  1.0  -0.2153
  N  N4178  1  0.551200  0.120860  0.754520  1.0  -0.2614
  N  N4179  1  0.571930  0.143420  0.815410  1.0  -0.275
  N  N4180  1  0.544860  0.135910  0.825530  1.0  -0.2433
  N  N4181  1  0.483230  0.108390  0.657990  1.0  -0.2757
  N  N4182  1  0.484270  0.137950  0.659670  1.0  -0.2368
  N  N4183  1  0.504310  0.120400  0.697040  1.0  0.0166
  N  N4184  1  0.561780  0.231530  0.893240  1.0  -0.2561
  N  N4185  1  0.563480  0.190460  0.872320  1.0  0.0055
  N  N4186  1  0.574280  0.211750  0.911650  1.0  -0.2581
  N  N4187  1  0.561230  0.170110  0.851410  1.0  0.0019
  N  N4188  1  0.518150  0.118560  0.722710  1.0  0.006
  N  N4189  1  0.527190  0.608460  0.266470  1.0  -0.2153
  N  N4190  1  0.551200  0.620860  0.254520  1.0  -0.2614
  N  N4191  1  0.571930  0.643420  0.315410  1.0  -0.275
  N  N4192  1  0.544860  0.635910  0.325530  1.0  -0.2433
  N  N4193  1  0.483230  0.608390  0.157990  1.0  -0.2757
  N  N4194  1  0.484270  0.637950  0.159670  1.0  -0.2368
  N  N4195  1  0.504310  0.620400  0.197040  1.0  0.0166
  N  N4196  1  0.561780  0.731530  0.393240  1.0  -0.2561
  N  N4197  1  0.563480  0.690460  0.372320  1.0  0.0055
  N  N4198  1  0.574280  0.711750  0.411650  1.0  -0.2581
  N  N4199  1  0.561230  0.670110  0.351410  1.0  0.0019
  N  N4200  1  0.518150  0.618560  0.222710  1.0  0.006
  N  N4201  1  0.027190  0.108460  0.266470  1.0  -0.2153
  N  N4202  1  0.051200  0.120860  0.254520  1.0  -0.2614
  N  N4203  1  0.071930  0.143420  0.315410  1.0  -0.275
  N  N4204  1  0.044860  0.135910  0.325530  1.0  -0.2433
  N  N4205  1  0.983230  0.108390  0.157990  1.0  -0.2757
  N  N4206  1  0.984270  0.137950  0.159670  1.0  -0.2368
  N  N4207  1  0.004310  0.120400  0.197040  1.0  0.0166
  N  N4208  1  0.061780  0.231530  0.393240  1.0  -0.2561
  N  N4209  1  0.063480  0.190460  0.372320  1.0  0.0055
  N  N4210  1  0.074280  0.211750  0.411650  1.0  -0.2581
  N  N4211  1  0.061230  0.170110  0.351410  1.0  0.0019
  N  N4212  1  0.018150  0.118560  0.222710  1.0  0.006
  N  N4213  1  0.027190  0.608460  0.766470  1.0  -0.2153
  N  N4214  1  0.051200  0.620860  0.754520  1.0  -0.2614
  N  N4215  1  0.071930  0.643420  0.815410  1.0  -0.275
  N  N4216  1  0.044860  0.635910  0.825530  1.0  -0.2433
  N  N4217  1  0.983230  0.608390  0.657990  1.0  -0.2757
  N  N4218  1  0.984270  0.637950  0.659670  1.0  -0.2368
  N  N4219  1  0.004310  0.620400  0.697040  1.0  0.0166
  N  N4220  1  0.061780  0.731530  0.893240  1.0  -0.2561
  N  N4221  1  0.063480  0.690460  0.872320  1.0  0.0055
  N  N4222  1  0.074280  0.711750  0.911650  1.0  -0.2581
  N  N4223  1  0.061230  0.670110  0.851410  1.0  0.0019
  N  N4224  1  0.018150  0.618560  0.722710  1.0  0.006
  N  N4225  1  0.108460  0.766470  0.527190  1.0  -0.216
  N  N4226  1  0.120860  0.754520  0.551200  1.0  -0.2605
  N  N4227  1  0.143420  0.815410  0.571930  1.0  -0.2755
  N  N4228  1  0.135910  0.825530  0.544860  1.0  -0.2442
  N  N4229  1  0.108390  0.657990  0.483230  1.0  -0.2747
  N  N4230  1  0.137950  0.659670  0.484270  1.0  -0.2362
  N  N4231  1  0.120400  0.697040  0.504310  1.0  0.0162
  N  N4232  1  0.231530  0.893240  0.561780  1.0  -0.2548
  N  N4233  1  0.190460  0.872320  0.563480  1.0  0.0068
  N  N4234  1  0.211750  0.911650  0.574280  1.0  -0.2586
  N  N4235  1  0.170110  0.851410  0.561230  1.0  0.0018
  N  N4236  1  0.118560  0.722710  0.518150  1.0  0.0056
  N  N4237  1  0.108460  0.266470  0.027190  1.0  -0.216
  N  N4238  1  0.120860  0.254520  0.051200  1.0  -0.2605
  N  N4239  1  0.143420  0.315410  0.071930  1.0  -0.2755
  N  N4240  1  0.135910  0.325530  0.044860  1.0  -0.2442
  N  N4241  1  0.108390  0.157990  0.983230  1.0  -0.2747
  N  N4242  1  0.137950  0.159670  0.984270  1.0  -0.2362
  N  N4243  1  0.120400  0.197040  0.004310  1.0  0.0162
  N  N4244  1  0.231530  0.393240  0.061780  1.0  -0.2548
  N  N4245  1  0.190460  0.372320  0.063480  1.0  0.0068
  N  N4246  1  0.211750  0.411650  0.074280  1.0  -0.2586
  N  N4247  1  0.170110  0.351410  0.061230  1.0  0.0018
  N  N4248  1  0.118560  0.222710  0.018150  1.0  0.0056
  N  N4249  1  0.608460  0.766470  0.027190  1.0  -0.216
  N  N4250  1  0.620860  0.754520  0.051200  1.0  -0.2605
  N  N4251  1  0.643420  0.815410  0.071930  1.0  -0.2755
  N  N4252  1  0.635910  0.825530  0.044860  1.0  -0.2442
  N  N4253  1  0.608390  0.657990  0.983230  1.0  -0.2747
  N  N4254  1  0.637950  0.659670  0.984270  1.0  -0.2362
  N  N4255  1  0.620400  0.697040  0.004310  1.0  0.0162
  N  N4256  1  0.731530  0.893240  0.061780  1.0  -0.2548
  N  N4257  1  0.690460  0.872320  0.063480  1.0  0.0068
  N  N4258  1  0.711750  0.911650  0.074280  1.0  -0.2586
  N  N4259  1  0.670110  0.851410  0.061230  1.0  0.0018
  N  N4260  1  0.618560  0.722710  0.018150  1.0  0.0056
  N  N4261  1  0.608460  0.266470  0.527190  1.0  -0.216
  N  N4262  1  0.620860  0.254520  0.551200  1.0  -0.2605
  N  N4263  1  0.643420  0.315410  0.571930  1.0  -0.2755
  N  N4264  1  0.635910  0.325530  0.544860  1.0  -0.2442
  N  N4265  1  0.608390  0.157990  0.483230  1.0  -0.2747
  N  N4266  1  0.637950  0.159670  0.484270  1.0  -0.2362
  N  N4267  1  0.620400  0.197040  0.504310  1.0  0.0162
  N  N4268  1  0.731530  0.393240  0.561780  1.0  -0.2548
  N  N4269  1  0.690460  0.372320  0.563480  1.0  0.0068
  N  N4270  1  0.711750  0.411650  0.574280  1.0  -0.2586
  N  N4271  1  0.670110  0.351410  0.561230  1.0  0.0018
  N  N4272  1  0.618560  0.222710  0.518150  1.0  0.0056
  N  N4273  1  0.641540  0.266470  0.722810  1.0  -0.2157
  N  N4274  1  0.629140  0.254520  0.698800  1.0  -0.2602
  N  N4275  1  0.606580  0.315410  0.678070  1.0  -0.2748
  N  N4276  1  0.614090  0.325530  0.705140  1.0  -0.2449
  N  N4277  1  0.641610  0.157990  0.766770  1.0  -0.2739
  N  N4278  1  0.612050  0.159670  0.765730  1.0  -0.2378
  N  N4279  1  0.629600  0.197040  0.745690  1.0  0.0162
  N  N4280  1  0.518470  0.393240  0.688220  1.0  -0.2533
  N  N4281  1  0.559540  0.372320  0.686520  1.0  0.0074
  N  N4282  1  0.538250  0.411650  0.675720  1.0  -0.2582
  N  N4283  1  0.579890  0.351410  0.688770  1.0  0.0017
  N  N4284  1  0.631440  0.222710  0.731850  1.0  0.0053
  N  N4285  1  0.641540  0.766470  0.222810  1.0  -0.2157
  N  N4286  1  0.629140  0.754520  0.198800  1.0  -0.2602
  N  N4287  1  0.606580  0.815410  0.178070  1.0  -0.2748
  N  N4288  1  0.614090  0.825530  0.205140  1.0  -0.2449
  N  N4289  1  0.641610  0.657990  0.266770  1.0  -0.2739
  N  N4290  1  0.612050  0.659670  0.265730  1.0  -0.2378
  N  N4291  1  0.629600  0.697040  0.245690  1.0  0.0162
  N  N4292  1  0.518470  0.893240  0.188220  1.0  -0.2533
  N  N4293  1  0.559540  0.872320  0.186520  1.0  0.0074
  N  N4294  1  0.538250  0.911650  0.175720  1.0  -0.2582
  N  N4295  1  0.579890  0.851410  0.188770  1.0  0.0017
  N  N4296  1  0.631440  0.722710  0.231850  1.0  0.0053
  N  N4297  1  0.141540  0.266470  0.222810  1.0  -0.2157
  N  N4298  1  0.129140  0.254520  0.198800  1.0  -0.2602
  N  N4299  1  0.106580  0.315410  0.178070  1.0  -0.2748
  N  N4300  1  0.114090  0.325530  0.205140  1.0  -0.2449
  N  N4301  1  0.141610  0.157990  0.266770  1.0  -0.2739
  N  N4302  1  0.112050  0.159670  0.265730  1.0  -0.2378
  N  N4303  1  0.129600  0.197040  0.245690  1.0  0.0162
  N  N4304  1  0.018470  0.393240  0.188220  1.0  -0.2533
  N  N4305  1  0.059540  0.372320  0.186520  1.0  0.0074
  N  N4306  1  0.038250  0.411650  0.175720  1.0  -0.2582
  N  N4307  1  0.079890  0.351410  0.188770  1.0  0.0017
  N  N4308  1  0.131440  0.222710  0.231850  1.0  0.0053
  N  N4309  1  0.141540  0.766470  0.722810  1.0  -0.2157
  N  N4310  1  0.129140  0.754520  0.698800  1.0  -0.2602
  N  N4311  1  0.106580  0.815410  0.678070  1.0  -0.2748
  N  N4312  1  0.114090  0.825530  0.705140  1.0  -0.2449
  N  N4313  1  0.141610  0.657990  0.766770  1.0  -0.2739
  N  N4314  1  0.112050  0.659670  0.765730  1.0  -0.2378
  N  N4315  1  0.129600  0.697040  0.745690  1.0  0.0162
  N  N4316  1  0.018470  0.893240  0.688220  1.0  -0.2533
  N  N4317  1  0.059540  0.872320  0.686520  1.0  0.0074
  N  N4318  1  0.038250  0.911650  0.675720  1.0  -0.2582
  N  N4319  1  0.079890  0.851410  0.688770  1.0  0.0017
  N  N4320  1  0.131440  0.722710  0.731850  1.0  0.0053
  N  N4321  1  0.141540  0.983530  0.027190  1.0  -0.2171
  N  N4322  1  0.129140  0.995480  0.051200  1.0  -0.2616
  N  N4323  1  0.106580  0.934590  0.071930  1.0  -0.2754
  N  N4324  1  0.114090  0.924470  0.044860  1.0  -0.2443
  N  N4325  1  0.141610  0.092010  0.983230  1.0  -0.2749
  N  N4326  1  0.112050  0.090330  0.984270  1.0  -0.2386
  N  N4327  1  0.129600  0.052960  0.004310  1.0  0.0158
  N  N4328  1  0.018470  0.856760  0.061780  1.0  -0.2544
  N  N4329  1  0.059540  0.877680  0.063480  1.0  0.0075
  N  N4330  1  0.038250  0.838350  0.074280  1.0  -0.2589
  N  N4331  1  0.079890  0.898590  0.061230  1.0  0.0021
  N  N4332  1  0.131440  0.027290  0.018150  1.0  0.0046
  N  N4333  1  0.141540  0.483530  0.527190  1.0  -0.2171
  N  N4334  1  0.129140  0.495480  0.551200  1.0  -0.2616
  N  N4335  1  0.106580  0.434590  0.571930  1.0  -0.2754
  N  N4336  1  0.114090  0.424470  0.544860  1.0  -0.2443
  N  N4337  1  0.141610  0.592010  0.483230  1.0  -0.2749
  N  N4338  1  0.112050  0.590330  0.484270  1.0  -0.2386
  N  N4339  1  0.129600  0.552960  0.504310  1.0  0.0158
  N  N4340  1  0.018470  0.356760  0.561780  1.0  -0.2544
  N  N4341  1  0.059540  0.377680  0.563480  1.0  0.0075
  N  N4342  1  0.038250  0.338350  0.574280  1.0  -0.2589
  N  N4343  1  0.079890  0.398590  0.561230  1.0  0.0021
  N  N4344  1  0.131440  0.527290  0.518150  1.0  0.0046
  N  N4345  1  0.641540  0.983530  0.527190  1.0  -0.2171
  N  N4346  1  0.629140  0.995480  0.551200  1.0  -0.2616
  N  N4347  1  0.606580  0.934590  0.571930  1.0  -0.2754
  N  N4348  1  0.614090  0.924470  0.544860  1.0  -0.2443
  N  N4349  1  0.641610  0.092010  0.483230  1.0  -0.2749
  N  N4350  1  0.612050  0.090330  0.484270  1.0  -0.2386
  N  N4351  1  0.629600  0.052960  0.504310  1.0  0.0158
  N  N4352  1  0.518470  0.856760  0.561780  1.0  -0.2544
  N  N4353  1  0.559540  0.877680  0.563480  1.0  0.0075
  N  N4354  1  0.538250  0.838350  0.574280  1.0  -0.2589
  N  N4355  1  0.579890  0.898590  0.561230  1.0  0.0021
  N  N4356  1  0.631440  0.027290  0.518150  1.0  0.0046
  N  N4357  1  0.641540  0.483530  0.027190  1.0  -0.2171
  N  N4358  1  0.629140  0.495480  0.051200  1.0  -0.2616
  N  N4359  1  0.606580  0.434590  0.071930  1.0  -0.2754
  N  N4360  1  0.614090  0.424470  0.044860  1.0  -0.2443
  N  N4361  1  0.641610  0.592010  0.983230  1.0  -0.2749
  N  N4362  1  0.612050  0.590330  0.984270  1.0  -0.2386
  N  N4363  1  0.629600  0.552960  0.004310  1.0  0.0158
  N  N4364  1  0.518470  0.356760  0.061780  1.0  -0.2544
  N  N4365  1  0.559540  0.377680  0.063480  1.0  0.0075
  N  N4366  1  0.538250  0.338350  0.074280  1.0  -0.2589
  N  N4367  1  0.579890  0.398590  0.061230  1.0  0.0021
  N  N4368  1  0.631440  0.527290  0.018150  1.0  0.0046
  N  N4369  1  0.608460  0.483530  0.222810  1.0  -0.217
  N  N4370  1  0.620860  0.495480  0.198800  1.0  -0.2613
  N  N4371  1  0.643420  0.434590  0.178070  1.0  -0.276
  N  N4372  1  0.635910  0.424470  0.205140  1.0  -0.2448
  N  N4373  1  0.608390  0.592010  0.266770  1.0  -0.2751
  N  N4374  1  0.637950  0.590330  0.265730  1.0  -0.2389
  N  N4375  1  0.620400  0.552960  0.245690  1.0  0.0159
  N  N4376  1  0.731530  0.356760  0.188220  1.0  -0.2545
  N  N4377  1  0.690460  0.377680  0.186520  1.0  0.0069
  N  N4378  1  0.711750  0.338350  0.175720  1.0  -0.2575
  N  N4379  1  0.670110  0.398590  0.188770  1.0  0.0021
  N  N4380  1  0.618560  0.527290  0.231850  1.0  0.0048
  N  N4381  1  0.608460  0.983530  0.722810  1.0  -0.217
  N  N4382  1  0.620860  0.995480  0.698800  1.0  -0.2613
  N  N4383  1  0.643420  0.934590  0.678070  1.0  -0.276
  N  N4384  1  0.635910  0.924470  0.705140  1.0  -0.2448
  N  N4385  1  0.608390  0.092010  0.766770  1.0  -0.2751
  N  N4386  1  0.637950  0.090330  0.765730  1.0  -0.2389
  N  N4387  1  0.620400  0.052960  0.745690  1.0  0.0159
  N  N4388  1  0.731530  0.856760  0.688220  1.0  -0.2545
  N  N4389  1  0.690460  0.877680  0.686520  1.0  0.0069
  N  N4390  1  0.711750  0.838350  0.675720  1.0  -0.2575
  N  N4391  1  0.670110  0.898590  0.688770  1.0  0.0021
  N  N4392  1  0.618560  0.027290  0.731850  1.0  0.0048
  N  N4393  1  0.108460  0.483530  0.722810  1.0  -0.217
  N  N4394  1  0.120860  0.495480  0.698800  1.0  -0.2613
  N  N4395  1  0.143420  0.434590  0.678070  1.0  -0.276
  N  N4396  1  0.135910  0.424470  0.705140  1.0  -0.2448
  N  N4397  1  0.108390  0.592010  0.766770  1.0  -0.2751
  N  N4398  1  0.137950  0.590330  0.765730  1.0  -0.2389
  N  N4399  1  0.120400  0.552960  0.745690  1.0  0.0159
  N  N4400  1  0.231530  0.356760  0.688220  1.0  -0.2545
  N  N4401  1  0.190460  0.377680  0.686520  1.0  0.0069
  N  N4402  1  0.211750  0.338350  0.675720  1.0  -0.2575
  N  N4403  1  0.170110  0.398590  0.688770  1.0  0.0021
  N  N4404  1  0.118560  0.527290  0.731850  1.0  0.0048
  N  N4405  1  0.108460  0.983530  0.222810  1.0  -0.217
  N  N4406  1  0.120860  0.995480  0.198800  1.0  -0.2613
  N  N4407  1  0.143420  0.934590  0.178070  1.0  -0.276
  N  N4408  1  0.135910  0.924470  0.205140  1.0  -0.2448
  N  N4409  1  0.108390  0.092010  0.266770  1.0  -0.2751
  N  N4410  1  0.137950  0.090330  0.265730  1.0  -0.2389
  N  N4411  1  0.120400  0.052960  0.245690  1.0  0.0159
  N  N4412  1  0.231530  0.856760  0.188220  1.0  -0.2545
  N  N4413  1  0.190460  0.877680  0.186520  1.0  0.0069
  N  N4414  1  0.211750  0.838350  0.175720  1.0  -0.2575
  N  N4415  1  0.170110  0.898590  0.188770  1.0  0.0021
  N  N4416  1  0.118560  0.027290  0.231850  1.0  0.0048
  N  N4417  1  0.266470  0.722810  0.641540  1.0  -0.2144
  N  N4418  1  0.254520  0.698800  0.629140  1.0  -0.2619
  N  N4419  1  0.315410  0.678070  0.606580  1.0  -0.2767
  N  N4420  1  0.325530  0.705140  0.614090  1.0  -0.2456
  N  N4421  1  0.157990  0.766770  0.641610  1.0  -0.276
  N  N4422  1  0.159670  0.765730  0.612050  1.0  -0.2376
  N  N4423  1  0.197040  0.745690  0.629600  1.0  0.0162
  N  N4424  1  0.393240  0.688220  0.518470  1.0  -0.2509
  N  N4425  1  0.372320  0.686520  0.559540  1.0  0.0065
  N  N4426  1  0.411650  0.675720  0.538250  1.0  -0.26
  N  N4427  1  0.351410  0.688770  0.579890  1.0  0.0035
  N  N4428  1  0.222710  0.731850  0.631440  1.0  0.0045
  N  N4429  1  0.266470  0.222810  0.141540  1.0  -0.2144
  N  N4430  1  0.254520  0.198800  0.129140  1.0  -0.2619
  N  N4431  1  0.315410  0.178070  0.106580  1.0  -0.2767
  N  N4432  1  0.325530  0.205140  0.114090  1.0  -0.2456
  N  N4433  1  0.157990  0.266770  0.141610  1.0  -0.276
  N  N4434  1  0.159670  0.265730  0.112050  1.0  -0.2376
  N  N4435  1  0.197040  0.245690  0.129600  1.0  0.0162
  N  N4436  1  0.393240  0.188220  0.018470  1.0  -0.2509
  N  N4437  1  0.372320  0.186520  0.059540  1.0  0.0065
  N  N4438  1  0.411650  0.175720  0.038250  1.0  -0.26
  N  N4439  1  0.351410  0.188770  0.079890  1.0  0.0035
  N  N4440  1  0.222710  0.231850  0.131440  1.0  0.0045
  N  N4441  1  0.766470  0.722810  0.141540  1.0  -0.2144
  N  N4442  1  0.754520  0.698800  0.129140  1.0  -0.2619
  N  N4443  1  0.815410  0.678070  0.106580  1.0  -0.2767
  N  N4444  1  0.825530  0.705140  0.114090  1.0  -0.2456
  N  N4445  1  0.657990  0.766770  0.141610  1.0  -0.276
  N  N4446  1  0.659670  0.765730  0.112050  1.0  -0.2376
  N  N4447  1  0.697040  0.745690  0.129600  1.0  0.0162
  N  N4448  1  0.893240  0.688220  0.018470  1.0  -0.2509
  N  N4449  1  0.872320  0.686520  0.059540  1.0  0.0065
  N  N4450  1  0.911650  0.675720  0.038250  1.0  -0.26
  N  N4451  1  0.851410  0.688770  0.079890  1.0  0.0035
  N  N4452  1  0.722710  0.731850  0.131440  1.0  0.0045
  N  N4453  1  0.766470  0.222810  0.641540  1.0  -0.2144
  N  N4454  1  0.754520  0.198800  0.629140  1.0  -0.2619
  N  N4455  1  0.815410  0.178070  0.606580  1.0  -0.2767
  N  N4456  1  0.825530  0.205140  0.614090  1.0  -0.2456
  N  N4457  1  0.657990  0.266770  0.641610  1.0  -0.276
  N  N4458  1  0.659670  0.265730  0.612050  1.0  -0.2376
  N  N4459  1  0.697040  0.245690  0.629600  1.0  0.0162
  N  N4460  1  0.893240  0.188220  0.518470  1.0  -0.2509
  N  N4461  1  0.872320  0.186520  0.559540  1.0  0.0065
  N  N4462  1  0.911650  0.175720  0.538250  1.0  -0.26
  N  N4463  1  0.851410  0.188770  0.579890  1.0  0.0035
  N  N4464  1  0.722710  0.231850  0.631440  1.0  0.0045
  N  N4465  1  0.766470  0.527190  0.108460  1.0  -0.2145
  N  N4466  1  0.754520  0.551200  0.120860  1.0  -0.2632
  N  N4467  1  0.815410  0.571930  0.143420  1.0  -0.2761
  N  N4468  1  0.825530  0.544860  0.135910  1.0  -0.2451
  N  N4469  1  0.657990  0.483230  0.108390  1.0  -0.2762
  N  N4470  1  0.659670  0.484270  0.137950  1.0  -0.2381
  N  N4471  1  0.697040  0.504310  0.120400  1.0  0.016
  N  N4472  1  0.893240  0.561780  0.231530  1.0  -0.2496
  N  N4473  1  0.872320  0.563480  0.190460  1.0  0.0074
  N  N4474  1  0.911650  0.574280  0.211750  1.0  -0.2595
  N  N4475  1  0.851410  0.561230  0.170110  1.0  0.0036
  N  N4476  1  0.722710  0.518150  0.118560  1.0  0.0046
  N  N4477  1  0.766470  0.027190  0.608460  1.0  -0.2145
  N  N4478  1  0.754520  0.051200  0.620860  1.0  -0.2632
  N  N4479  1  0.815410  0.071930  0.643420  1.0  -0.2761
  N  N4480  1  0.825530  0.044860  0.635910  1.0  -0.2451
  N  N4481  1  0.657990  0.983230  0.608390  1.0  -0.2762
  N  N4482  1  0.659670  0.984270  0.637950  1.0  -0.2381
  N  N4483  1  0.697040  0.004310  0.620400  1.0  0.016
  N  N4484  1  0.893240  0.061780  0.731530  1.0  -0.2496
  N  N4485  1  0.872320  0.063480  0.690460  1.0  0.0074
  N  N4486  1  0.911650  0.074280  0.711750  1.0  -0.2595
  N  N4487  1  0.851410  0.061230  0.670110  1.0  0.0036
  N  N4488  1  0.722710  0.018150  0.618560  1.0  0.0046
  N  N4489  1  0.266470  0.527190  0.608460  1.0  -0.2145
  N  N4490  1  0.254520  0.551200  0.620860  1.0  -0.2632
  N  N4491  1  0.315410  0.571930  0.643420  1.0  -0.2761
  N  N4492  1  0.325530  0.544860  0.635910  1.0  -0.2451
  N  N4493  1  0.157990  0.483230  0.608390  1.0  -0.2762
  N  N4494  1  0.159670  0.484270  0.637950  1.0  -0.2381
  N  N4495  1  0.197040  0.504310  0.620400  1.0  0.016
  N  N4496  1  0.393240  0.561780  0.731530  1.0  -0.2496
  N  N4497  1  0.372320  0.563480  0.690460  1.0  0.0074
  N  N4498  1  0.411650  0.574280  0.711750  1.0  -0.2595
  N  N4499  1  0.351410  0.561230  0.670110  1.0  0.0036
  N  N4500  1  0.222710  0.518150  0.618560  1.0  0.0046
  N  N4501  1  0.266470  0.027190  0.108460  1.0  -0.2145
  N  N4502  1  0.254520  0.051200  0.120860  1.0  -0.2632
  N  N4503  1  0.315410  0.071930  0.143420  1.0  -0.2761
  N  N4504  1  0.325530  0.044860  0.135910  1.0  -0.2451
  N  N4505  1  0.157990  0.983230  0.108390  1.0  -0.2762
  N  N4506  1  0.159670  0.984270  0.137950  1.0  -0.2381
  N  N4507  1  0.197040  0.004310  0.120400  1.0  0.016
  N  N4508  1  0.393240  0.061780  0.231530  1.0  -0.2496
  N  N4509  1  0.372320  0.063480  0.190460  1.0  0.0074
  N  N4510  1  0.411650  0.074280  0.211750  1.0  -0.2595
  N  N4511  1  0.351410  0.061230  0.170110  1.0  0.0036
  N  N4512  1  0.222710  0.018150  0.118560  1.0  0.0046
  N  N4513  1  0.483530  0.222810  0.608460  1.0  -0.2138
  N  N4514  1  0.495480  0.198800  0.620860  1.0  -0.2613
  N  N4515  1  0.434590  0.178070  0.643420  1.0  -0.276
  N  N4516  1  0.424470  0.205140  0.635910  1.0  -0.2444
  N  N4517  1  0.592010  0.266770  0.608390  1.0  -0.2755
  N  N4518  1  0.590330  0.265730  0.637950  1.0  -0.2399
  N  N4519  1  0.552960  0.245690  0.620400  1.0  0.0164
  N  N4520  1  0.356760  0.188220  0.731530  1.0  -0.2508
  N  N4521  1  0.377680  0.186520  0.690460  1.0  0.0071
  N  N4522  1  0.338350  0.175720  0.711750  1.0  -0.2581
  N  N4523  1  0.398590  0.188770  0.670110  1.0  0.0037
  N  N4524  1  0.527290  0.231850  0.618560  1.0  0.005
  N  N4525  1  0.483530  0.722810  0.108460  1.0  -0.2138
  N  N4526  1  0.495480  0.698800  0.120860  1.0  -0.2613
  N  N4527  1  0.434590  0.678070  0.143420  1.0  -0.276
  N  N4528  1  0.424470  0.705140  0.135910  1.0  -0.2444
  N  N4529  1  0.592010  0.766770  0.108390  1.0  -0.2755
  N  N4530  1  0.590330  0.765730  0.137950  1.0  -0.2399
  N  N4531  1  0.552960  0.745690  0.120400  1.0  0.0164
  N  N4532  1  0.356760  0.688220  0.231530  1.0  -0.2508
  N  N4533  1  0.377680  0.686520  0.190460  1.0  0.0071
  N  N4534  1  0.338350  0.675720  0.211750  1.0  -0.2581
  N  N4535  1  0.398590  0.688770  0.170110  1.0  0.0037
  N  N4536  1  0.527290  0.731850  0.118560  1.0  0.005
  N  N4537  1  0.983530  0.222810  0.108460  1.0  -0.2138
  N  N4538  1  0.995480  0.198800  0.120860  1.0  -0.2613
  N  N4539  1  0.934590  0.178070  0.143420  1.0  -0.276
  N  N4540  1  0.924470  0.205140  0.135910  1.0  -0.2444
  N  N4541  1  0.092010  0.266770  0.108390  1.0  -0.2755
  N  N4542  1  0.090330  0.265730  0.137950  1.0  -0.2399
  N  N4543  1  0.052960  0.245690  0.120400  1.0  0.0164
  N  N4544  1  0.856760  0.188220  0.231530  1.0  -0.2508
  N  N4545  1  0.877680  0.186520  0.190460  1.0  0.0071
  N  N4546  1  0.838350  0.175720  0.211750  1.0  -0.2581
  N  N4547  1  0.898590  0.188770  0.170110  1.0  0.0037
  N  N4548  1  0.027290  0.231850  0.118560  1.0  0.005
  N  N4549  1  0.983530  0.722810  0.608460  1.0  -0.2138
  N  N4550  1  0.995480  0.698800  0.620860  1.0  -0.2613
  N  N4551  1  0.934590  0.678070  0.643420  1.0  -0.276
  N  N4552  1  0.924470  0.705140  0.635910  1.0  -0.2444
  N  N4553  1  0.092010  0.766770  0.608390  1.0  -0.2755
  N  N4554  1  0.090330  0.765730  0.637950  1.0  -0.2399
  N  N4555  1  0.052960  0.745690  0.620400  1.0  0.0164
  N  N4556  1  0.856760  0.688220  0.731530  1.0  -0.2508
  N  N4557  1  0.877680  0.686520  0.690460  1.0  0.0071
  N  N4558  1  0.838350  0.675720  0.711750  1.0  -0.2581
  N  N4559  1  0.898590  0.688770  0.670110  1.0  0.0037
  N  N4560  1  0.027290  0.731850  0.618560  1.0  0.005
  N  N4561  1  0.983530  0.027190  0.141540  1.0  -0.2137
  N  N4562  1  0.995480  0.051200  0.129140  1.0  -0.2623
  N  N4563  1  0.934590  0.071930  0.106580  1.0  -0.2766
  N  N4564  1  0.924470  0.044860  0.114090  1.0  -0.2442
  N  N4565  1  0.092010  0.983230  0.141610  1.0  -0.2752
  N  N4566  1  0.090330  0.984270  0.112050  1.0  -0.2387
  N  N4567  1  0.052960  0.004310  0.129600  1.0  0.0165
  N  N4568  1  0.856760  0.061780  0.018470  1.0  -0.2521
  N  N4569  1  0.877680  0.063480  0.059540  1.0  0.0065
  N  N4570  1  0.838350  0.074280  0.038250  1.0  -0.258
  N  N4571  1  0.898590  0.061230  0.079890  1.0  0.0042
  N  N4572  1  0.027290  0.018150  0.131440  1.0  0.0051
  N  N4573  1  0.983530  0.527190  0.641540  1.0  -0.2137
  N  N4574  1  0.995480  0.551200  0.629140  1.0  -0.2623
  N  N4575  1  0.934590  0.571930  0.606580  1.0  -0.2766
  N  N4576  1  0.924470  0.544860  0.614090  1.0  -0.2442
  N  N4577  1  0.092010  0.483230  0.641610  1.0  -0.2752
  N  N4578  1  0.090330  0.484270  0.612050  1.0  -0.2387
  N  N4579  1  0.052960  0.504310  0.629600  1.0  0.0165
  N  N4580  1  0.856760  0.561780  0.518470  1.0  -0.2521
  N  N4581  1  0.877680  0.563480  0.559540  1.0  0.0065
  N  N4582  1  0.838350  0.574280  0.538250  1.0  -0.258
  N  N4583  1  0.898590  0.561230  0.579890  1.0  0.0042
  N  N4584  1  0.027290  0.518150  0.631440  1.0  0.0051
  N  N4585  1  0.483530  0.027190  0.641540  1.0  -0.2137
  N  N4586  1  0.495480  0.051200  0.629140  1.0  -0.2623
  N  N4587  1  0.434590  0.071930  0.606580  1.0  -0.2766
  N  N4588  1  0.424470  0.044860  0.614090  1.0  -0.2442
  N  N4589  1  0.592010  0.983230  0.641610  1.0  -0.2752
  N  N4590  1  0.590330  0.984270  0.612050  1.0  -0.2387
  N  N4591  1  0.552960  0.004310  0.629600  1.0  0.0165
  N  N4592  1  0.356760  0.061780  0.518470  1.0  -0.2521
  N  N4593  1  0.377680  0.063480  0.559540  1.0  0.0065
  N  N4594  1  0.338350  0.074280  0.538250  1.0  -0.258
  N  N4595  1  0.398590  0.061230  0.579890  1.0  0.0042
  N  N4596  1  0.527290  0.018150  0.631440  1.0  0.0051
  N  N4597  1  0.483530  0.527190  0.141540  1.0  -0.2137
  N  N4598  1  0.495480  0.551200  0.129140  1.0  -0.2623
  N  N4599  1  0.434590  0.571930  0.106580  1.0  -0.2766
  N  N4600  1  0.424470  0.544860  0.114090  1.0  -0.2442
  N  N4601  1  0.592010  0.483230  0.141610  1.0  -0.2752
  N  N4602  1  0.590330  0.484270  0.112050  1.0  -0.2387
  N  N4603  1  0.552960  0.504310  0.129600  1.0  0.0165
  N  N4604  1  0.356760  0.561780  0.018470  1.0  -0.2521
  N  N4605  1  0.377680  0.563480  0.059540  1.0  0.0065
  N  N4606  1  0.338350  0.574280  0.038250  1.0  -0.258
  N  N4607  1  0.398590  0.561230  0.079890  1.0  0.0042
  N  N4608  1  0.527290  0.518150  0.131440  1.0  0.0051
  N  N4609  1  0.641540  0.527190  0.483530  1.0  -0.2123
  N  N4610  1  0.629140  0.551200  0.495480  1.0  -0.2617
  N  N4611  1  0.606580  0.571930  0.434590  1.0  -0.2742
  N  N4612  1  0.614090  0.544860  0.424470  1.0  -0.2443
  N  N4613  1  0.641610  0.483230  0.592010  1.0  -0.2745
  N  N4614  1  0.612050  0.484270  0.590330  1.0  -0.2362
  N  N4615  1  0.629600  0.504310  0.552960  1.0  0.0167
  N  N4616  1  0.518470  0.561780  0.356760  1.0  -0.2524
  N  N4617  1  0.559540  0.563480  0.377680  1.0  0.0076
  N  N4618  1  0.538250  0.574280  0.338350  1.0  -0.2566
  N  N4619  1  0.579890  0.561230  0.398590  1.0  0.0027
  N  N4620  1  0.631440  0.518150  0.527290  1.0  0.0056
  N  N4621  1  0.641540  0.027190  0.983530  1.0  -0.2123
  N  N4622  1  0.629140  0.051200  0.995480  1.0  -0.2617
  N  N4623  1  0.606580  0.071930  0.934590  1.0  -0.2742
  N  N4624  1  0.614090  0.044860  0.924470  1.0  -0.2443
  N  N4625  1  0.641610  0.983230  0.092010  1.0  -0.2745
  N  N4626  1  0.612050  0.984270  0.090330  1.0  -0.2362
  N  N4627  1  0.629600  0.004310  0.052960  1.0  0.0167
  N  N4628  1  0.518470  0.061780  0.856760  1.0  -0.2524
  N  N4629  1  0.559540  0.063480  0.877680  1.0  0.0076
  N  N4630  1  0.538250  0.074280  0.838350  1.0  -0.2566
  N  N4631  1  0.579890  0.061230  0.898590  1.0  0.0027
  N  N4632  1  0.631440  0.018150  0.027290  1.0  0.0056
  N  N4633  1  0.141540  0.527190  0.983530  1.0  -0.2123
  N  N4634  1  0.129140  0.551200  0.995480  1.0  -0.2617
  N  N4635  1  0.106580  0.571930  0.934590  1.0  -0.2742
  N  N4636  1  0.114090  0.544860  0.924470  1.0  -0.2443
  N  N4637  1  0.141610  0.483230  0.092010  1.0  -0.2745
  N  N4638  1  0.112050  0.484270  0.090330  1.0  -0.2362
  N  N4639  1  0.129600  0.504310  0.052960  1.0  0.0167
  N  N4640  1  0.018470  0.561780  0.856760  1.0  -0.2524
  N  N4641  1  0.059540  0.563480  0.877680  1.0  0.0076
  N  N4642  1  0.038250  0.574280  0.838350  1.0  -0.2566
  N  N4643  1  0.079890  0.561230  0.898590  1.0  0.0027
  N  N4644  1  0.131440  0.518150  0.027290  1.0  0.0056
  N  N4645  1  0.141540  0.027190  0.483530  1.0  -0.2123
  N  N4646  1  0.129140  0.051200  0.495480  1.0  -0.2617
  N  N4647  1  0.106580  0.071930  0.434590  1.0  -0.2742
  N  N4648  1  0.114090  0.044860  0.424470  1.0  -0.2443
  N  N4649  1  0.141610  0.983230  0.592010  1.0  -0.2745
  N  N4650  1  0.112050  0.984270  0.590330  1.0  -0.2362
  N  N4651  1  0.129600  0.004310  0.552960  1.0  0.0167
  N  N4652  1  0.018470  0.061780  0.356760  1.0  -0.2524
  N  N4653  1  0.059540  0.063480  0.377680  1.0  0.0076
  N  N4654  1  0.038250  0.074280  0.338350  1.0  -0.2566
  N  N4655  1  0.079890  0.061230  0.398590  1.0  0.0027
  N  N4656  1  0.131440  0.018150  0.527290  1.0  0.0056
  N  N4657  1  0.108460  0.722810  0.983530  1.0  -0.2127
  N  N4658  1  0.120860  0.698800  0.995480  1.0  -0.2606
  N  N4659  1  0.143420  0.678070  0.934590  1.0  -0.2748
  N  N4660  1  0.135910  0.705140  0.924470  1.0  -0.2444
  N  N4661  1  0.108390  0.766770  0.092010  1.0  -0.2745
  N  N4662  1  0.137950  0.765730  0.090330  1.0  -0.2356
  N  N4663  1  0.120400  0.745690  0.052960  1.0  0.0164
  N  N4664  1  0.231530  0.688220  0.856760  1.0  -0.2541
  N  N4665  1  0.190460  0.686520  0.877680  1.0  0.0066
  N  N4666  1  0.211750  0.675720  0.838350  1.0  -0.2558
  N  N4667  1  0.170110  0.688770  0.898590  1.0  0.0026
  N  N4668  1  0.118560  0.731850  0.027290  1.0  0.0058
  N  N4669  1  0.108460  0.222810  0.483530  1.0  -0.2127
  N  N4670  1  0.120860  0.198800  0.495480  1.0  -0.2606
  N  N4671  1  0.143420  0.178070  0.434590  1.0  -0.2748
  N  N4672  1  0.135910  0.205140  0.424470  1.0  -0.2444
  N  N4673  1  0.108390  0.266770  0.592010  1.0  -0.2745
  N  N4674  1  0.137950  0.265730  0.590330  1.0  -0.2356
  N  N4675  1  0.120400  0.245690  0.552960  1.0  0.0164
  N  N4676  1  0.231530  0.188220  0.356760  1.0  -0.2541
  N  N4677  1  0.190460  0.186520  0.377680  1.0  0.0066
  N  N4678  1  0.211750  0.175720  0.338350  1.0  -0.2558
  N  N4679  1  0.170110  0.188770  0.398590  1.0  0.0026
  N  N4680  1  0.118560  0.231850  0.527290  1.0  0.0058
  N  N4681  1  0.608460  0.722810  0.483530  1.0  -0.2127
  N  N4682  1  0.620860  0.698800  0.495480  1.0  -0.2606
  N  N4683  1  0.643420  0.678070  0.434590  1.0  -0.2748
  N  N4684  1  0.635910  0.705140  0.424470  1.0  -0.2444
  N  N4685  1  0.608390  0.766770  0.592010  1.0  -0.2745
  N  N4686  1  0.637950  0.765730  0.590330  1.0  -0.2356
  N  N4687  1  0.620400  0.745690  0.552960  1.0  0.0164
  N  N4688  1  0.731530  0.688220  0.356760  1.0  -0.2541
  N  N4689  1  0.690460  0.686520  0.377680  1.0  0.0066
  N  N4690  1  0.711750  0.675720  0.338350  1.0  -0.2558
  N  N4691  1  0.670110  0.688770  0.398590  1.0  0.0026
  N  N4692  1  0.618560  0.731850  0.527290  1.0  0.0058
  N  N4693  1  0.608460  0.222810  0.983530  1.0  -0.2127
  N  N4694  1  0.620860  0.198800  0.995480  1.0  -0.2606
  N  N4695  1  0.643420  0.178070  0.934590  1.0  -0.2748
  N  N4696  1  0.635910  0.205140  0.924470  1.0  -0.2444
  N  N4697  1  0.608390  0.266770  0.092010  1.0  -0.2745
  N  N4698  1  0.637950  0.265730  0.090330  1.0  -0.2356
  N  N4699  1  0.620400  0.245690  0.052960  1.0  0.0164
  N  N4700  1  0.731530  0.188220  0.856760  1.0  -0.2541
  N  N4701  1  0.690460  0.186520  0.877680  1.0  0.0066
  N  N4702  1  0.711750  0.175720  0.838350  1.0  -0.2558
  N  N4703  1  0.670110  0.188770  0.898590  1.0  0.0026
  N  N4704  1  0.618560  0.231850  0.027290  1.0  0.0058
  N  N4705  1  0.608460  0.027190  0.266470  1.0  -0.2124
  N  N4706  1  0.620860  0.051200  0.254520  1.0  -0.2626
  N  N4707  1  0.643420  0.071930  0.315410  1.0  -0.2754
  N  N4708  1  0.635910  0.044860  0.325530  1.0  -0.2443
  N  N4709  1  0.608390  0.983230  0.157990  1.0  -0.2757
  N  N4710  1  0.637950  0.984270  0.159670  1.0  -0.2366
  N  N4711  1  0.620400  0.004310  0.197040  1.0  0.0166
  N  N4712  1  0.731530  0.061780  0.393240  1.0  -0.2538
  N  N4713  1  0.690460  0.063480  0.372320  1.0  0.0071
  N  N4714  1  0.711750  0.074280  0.411650  1.0  -0.256
  N  N4715  1  0.670110  0.061230  0.351410  1.0  0.0024
  N  N4716  1  0.618560  0.018150  0.222710  1.0  0.0063
  N  N4717  1  0.608460  0.527190  0.766470  1.0  -0.2124
  N  N4718  1  0.620860  0.551200  0.754520  1.0  -0.2626
  N  N4719  1  0.643420  0.571930  0.815410  1.0  -0.2754
  N  N4720  1  0.635910  0.544860  0.825530  1.0  -0.2443
  N  N4721  1  0.608390  0.483230  0.657990  1.0  -0.2757
  N  N4722  1  0.637950  0.484270  0.659670  1.0  -0.2366
  N  N4723  1  0.620400  0.504310  0.697040  1.0  0.0166
  N  N4724  1  0.731530  0.561780  0.893240  1.0  -0.2538
  N  N4725  1  0.690460  0.563480  0.872320  1.0  0.0071
  N  N4726  1  0.711750  0.574280  0.911650  1.0  -0.256
  N  N4727  1  0.670110  0.561230  0.851410  1.0  0.0024
  N  N4728  1  0.618560  0.518150  0.722710  1.0  0.0063
  N  N4729  1  0.108460  0.027190  0.766470  1.0  -0.2124
  N  N4730  1  0.120860  0.051200  0.754520  1.0  -0.2626
  N  N4731  1  0.143420  0.071930  0.815410  1.0  -0.2754
  N  N4732  1  0.135910  0.044860  0.825530  1.0  -0.2443
  N  N4733  1  0.108390  0.983230  0.657990  1.0  -0.2757
  N  N4734  1  0.137950  0.984270  0.659670  1.0  -0.2366
  N  N4735  1  0.120400  0.004310  0.697040  1.0  0.0166
  N  N4736  1  0.231530  0.061780  0.893240  1.0  -0.2538
  N  N4737  1  0.190460  0.063480  0.872320  1.0  0.0071
  N  N4738  1  0.211750  0.074280  0.911650  1.0  -0.256
  N  N4739  1  0.170110  0.061230  0.851410  1.0  0.0024
  N  N4740  1  0.118560  0.018150  0.722710  1.0  0.0063
  N  N4741  1  0.108460  0.527190  0.266470  1.0  -0.2124
  N  N4742  1  0.120860  0.551200  0.254520  1.0  -0.2626
  N  N4743  1  0.143420  0.571930  0.315410  1.0  -0.2754
  N  N4744  1  0.135910  0.544860  0.325530  1.0  -0.2443
  N  N4745  1  0.108390  0.483230  0.157990  1.0  -0.2757
  N  N4746  1  0.137950  0.484270  0.159670  1.0  -0.2366
  N  N4747  1  0.120400  0.504310  0.197040  1.0  0.0166
  N  N4748  1  0.231530  0.561780  0.393240  1.0  -0.2538
  N  N4749  1  0.190460  0.563480  0.372320  1.0  0.0071
  N  N4750  1  0.211750  0.574280  0.411650  1.0  -0.256
  N  N4751  1  0.170110  0.561230  0.351410  1.0  0.0024
  N  N4752  1  0.118560  0.518150  0.222710  1.0  0.0063
  N  N4753  1  0.141540  0.222810  0.766470  1.0  -0.2123
  N  N4754  1  0.129140  0.198800  0.754520  1.0  -0.2617
  N  N4755  1  0.106580  0.178070  0.815410  1.0  -0.2749
  N  N4756  1  0.114090  0.205140  0.825530  1.0  -0.2446
  N  N4757  1  0.141610  0.266770  0.657990  1.0  -0.275
  N  N4758  1  0.112050  0.265730  0.659670  1.0  -0.2368
  N  N4759  1  0.129600  0.245690  0.697040  1.0  0.0165
  N  N4760  1  0.018470  0.188220  0.893240  1.0  -0.2531
  N  N4761  1  0.059540  0.186520  0.872320  1.0  0.0076
  N  N4762  1  0.038250  0.175720  0.911650  1.0  -0.2567
  N  N4763  1  0.079890  0.188770  0.851410  1.0  0.0022
  N  N4764  1  0.131440  0.231850  0.722710  1.0  0.0061
  N  N4765  1  0.141540  0.722810  0.266470  1.0  -0.2123
  N  N4766  1  0.129140  0.698800  0.254520  1.0  -0.2617
  N  N4767  1  0.106580  0.678070  0.315410  1.0  -0.2749
  N  N4768  1  0.114090  0.705140  0.325530  1.0  -0.2446
  N  N4769  1  0.141610  0.766770  0.157990  1.0  -0.275
  N  N4770  1  0.112050  0.765730  0.159670  1.0  -0.2368
  N  N4771  1  0.129600  0.745690  0.197040  1.0  0.0165
  N  N4772  1  0.018470  0.688220  0.393240  1.0  -0.2531
  N  N4773  1  0.059540  0.686520  0.372320  1.0  0.0076
  N  N4774  1  0.038250  0.675720  0.411650  1.0  -0.2567
  N  N4775  1  0.079890  0.688770  0.351410  1.0  0.0022
  N  N4776  1  0.131440  0.731850  0.222710  1.0  0.0061
  N  N4777  1  0.641540  0.222810  0.266470  1.0  -0.2123
  N  N4778  1  0.629140  0.198800  0.254520  1.0  -0.2617
  N  N4779  1  0.606580  0.178070  0.315410  1.0  -0.2749
  N  N4780  1  0.614090  0.205140  0.325530  1.0  -0.2446
  N  N4781  1  0.641610  0.266770  0.157990  1.0  -0.275
  N  N4782  1  0.612050  0.265730  0.159670  1.0  -0.2368
  N  N4783  1  0.629600  0.245690  0.197040  1.0  0.0165
  N  N4784  1  0.518470  0.188220  0.393240  1.0  -0.2531
  N  N4785  1  0.559540  0.186520  0.372320  1.0  0.0076
  N  N4786  1  0.538250  0.175720  0.411650  1.0  -0.2567
  N  N4787  1  0.579890  0.188770  0.351410  1.0  0.0022
  N  N4788  1  0.631440  0.231850  0.222710  1.0  0.0061
  N  N4789  1  0.641540  0.722810  0.766470  1.0  -0.2123
  N  N4790  1  0.629140  0.698800  0.754520  1.0  -0.2617
  N  N4791  1  0.606580  0.678070  0.815410  1.0  -0.2749
  N  N4792  1  0.614090  0.705140  0.825530  1.0  -0.2446
  N  N4793  1  0.641610  0.766770  0.657990  1.0  -0.275
  N  N4794  1  0.612050  0.765730  0.659670  1.0  -0.2368
  N  N4795  1  0.629600  0.745690  0.697040  1.0  0.0165
  N  N4796  1  0.518470  0.688220  0.893240  1.0  -0.2531
  N  N4797  1  0.559540  0.686520  0.872320  1.0  0.0076
  N  N4798  1  0.538250  0.675720  0.911650  1.0  -0.2567
  N  N4799  1  0.579890  0.688770  0.851410  1.0  0.0022
  N  N4800  1  0.631440  0.731850  0.722710  1.0  0.0061
  N  N4801  1  0.483530  0.641540  0.527190  1.0  -0.2165
  N  N4802  1  0.495480  0.629140  0.551200  1.0  -0.262
  N  N4803  1  0.434590  0.606580  0.571930  1.0  -0.2758
  N  N4804  1  0.424470  0.614090  0.544860  1.0  -0.2427
  N  N4805  1  0.592010  0.641610  0.483230  1.0  -0.2751
  N  N4806  1  0.590330  0.612050  0.484270  1.0  -0.2383
  N  N4807  1  0.552960  0.629600  0.504310  1.0  0.0171
  N  N4808  1  0.356760  0.518470  0.561780  1.0  -0.2552
  N  N4809  1  0.377680  0.559540  0.563480  1.0  0.0068
  N  N4810  1  0.338350  0.538250  0.574280  1.0  -0.2587
  N  N4811  1  0.398590  0.579890  0.561230  1.0  0.0033
  N  N4812  1  0.527290  0.631440  0.518150  1.0  0.0052
  N  N4813  1  0.483530  0.141540  0.027190  1.0  -0.2165
  N  N4814  1  0.495480  0.129140  0.051200  1.0  -0.262
  N  N4815  1  0.434590  0.106580  0.071930  1.0  -0.2758
  N  N4816  1  0.424470  0.114090  0.044860  1.0  -0.2427
  N  N4817  1  0.592010  0.141610  0.983230  1.0  -0.2751
  N  N4818  1  0.590330  0.112050  0.984270  1.0  -0.2383
  N  N4819  1  0.552960  0.129600  0.004310  1.0  0.0171
  N  N4820  1  0.356760  0.018470  0.061780  1.0  -0.2552
  N  N4821  1  0.377680  0.059540  0.063480  1.0  0.0068
  N  N4822  1  0.338350  0.038250  0.074280  1.0  -0.2587
  N  N4823  1  0.398590  0.079890  0.061230  1.0  0.0033
  N  N4824  1  0.527290  0.131440  0.018150  1.0  0.0052
  N  N4825  1  0.983530  0.641540  0.027190  1.0  -0.2165
  N  N4826  1  0.995480  0.629140  0.051200  1.0  -0.262
  N  N4827  1  0.934590  0.606580  0.071930  1.0  -0.2758
  N  N4828  1  0.924470  0.614090  0.044860  1.0  -0.2427
  N  N4829  1  0.092010  0.641610  0.983230  1.0  -0.2751
  N  N4830  1  0.090330  0.612050  0.984270  1.0  -0.2383
  N  N4831  1  0.052960  0.629600  0.004310  1.0  0.0171
  N  N4832  1  0.856760  0.518470  0.061780  1.0  -0.2552
  N  N4833  1  0.877680  0.559540  0.063480  1.0  0.0068
  N  N4834  1  0.838350  0.538250  0.074280  1.0  -0.2587
  N  N4835  1  0.898590  0.579890  0.061230  1.0  0.0033
  N  N4836  1  0.027290  0.631440  0.018150  1.0  0.0052
  N  N4837  1  0.983530  0.141540  0.527190  1.0  -0.2165
  N  N4838  1  0.995480  0.129140  0.551200  1.0  -0.262
  N  N4839  1  0.934590  0.106580  0.571930  1.0  -0.2758
  N  N4840  1  0.924470  0.114090  0.544860  1.0  -0.2427
  N  N4841  1  0.092010  0.141610  0.483230  1.0  -0.2751
  N  N4842  1  0.090330  0.112050  0.484270  1.0  -0.2383
  N  N4843  1  0.052960  0.129600  0.504310  1.0  0.0171
  N  N4844  1  0.856760  0.018470  0.561780  1.0  -0.2552
  N  N4845  1  0.877680  0.059540  0.563480  1.0  0.0068
  N  N4846  1  0.838350  0.038250  0.574280  1.0  -0.2587
  N  N4847  1  0.898590  0.079890  0.561230  1.0  0.0033
  N  N4848  1  0.027290  0.131440  0.518150  1.0  0.0052
  N  N4849  1  0.983530  0.108460  0.722810  1.0  -0.2154
  N  N4850  1  0.995480  0.120860  0.698800  1.0  -0.2615
  N  N4851  1  0.934590  0.143420  0.678070  1.0  -0.2758
  N  N4852  1  0.924470  0.135910  0.705140  1.0  -0.243
  N  N4853  1  0.092010  0.108390  0.766770  1.0  -0.2744
  N  N4854  1  0.090330  0.137950  0.765730  1.0  -0.2394
  N  N4855  1  0.052960  0.120400  0.745690  1.0  0.0171
  N  N4856  1  0.856760  0.231530  0.688220  1.0  -0.2548
  N  N4857  1  0.877680  0.190460  0.686520  1.0  0.0065
  N  N4858  1  0.838350  0.211750  0.675720  1.0  -0.2573
  N  N4859  1  0.898590  0.170110  0.688770  1.0  0.0033
  N  N4860  1  0.027290  0.118560  0.731850  1.0  0.0053
  N  N4861  1  0.983530  0.608460  0.222810  1.0  -0.2154
  N  N4862  1  0.995480  0.620860  0.198800  1.0  -0.2615
  N  N4863  1  0.934590  0.643420  0.178070  1.0  -0.2758
  N  N4864  1  0.924470  0.635910  0.205140  1.0  -0.243
  N  N4865  1  0.092010  0.608390  0.266770  1.0  -0.2744
  N  N4866  1  0.090330  0.637950  0.265730  1.0  -0.2394
  N  N4867  1  0.052960  0.620400  0.245690  1.0  0.0171
  N  N4868  1  0.856760  0.731530  0.188220  1.0  -0.2548
  N  N4869  1  0.877680  0.690460  0.186520  1.0  0.0065
  N  N4870  1  0.838350  0.711750  0.175720  1.0  -0.2573
  N  N4871  1  0.898590  0.670110  0.188770  1.0  0.0033
  N  N4872  1  0.027290  0.618560  0.231850  1.0  0.0053
  N  N4873  1  0.483530  0.108460  0.222810  1.0  -0.2154
  N  N4874  1  0.495480  0.120860  0.198800  1.0  -0.2615
  N  N4875  1  0.434590  0.143420  0.178070  1.0  -0.2758
  N  N4876  1  0.424470  0.135910  0.205140  1.0  -0.243
  N  N4877  1  0.592010  0.108390  0.266770  1.0  -0.2744
  N  N4878  1  0.590330  0.137950  0.265730  1.0  -0.2394
  N  N4879  1  0.552960  0.120400  0.245690  1.0  0.0171
  N  N4880  1  0.356760  0.231530  0.188220  1.0  -0.2548
  N  N4881  1  0.377680  0.190460  0.186520  1.0  0.0065
  N  N4882  1  0.338350  0.211750  0.175720  1.0  -0.2573
  N  N4883  1  0.398590  0.170110  0.188770  1.0  0.0033
  N  N4884  1  0.527290  0.118560  0.231850  1.0  0.0053
  N  N4885  1  0.483530  0.608460  0.722810  1.0  -0.2154
  N  N4886  1  0.495480  0.620860  0.698800  1.0  -0.2615
  N  N4887  1  0.434590  0.643420  0.678070  1.0  -0.2758
  N  N4888  1  0.424470  0.635910  0.705140  1.0  -0.243
  N  N4889  1  0.592010  0.608390  0.766770  1.0  -0.2744
  N  N4890  1  0.590330  0.637950  0.765730  1.0  -0.2394
  N  N4891  1  0.552960  0.620400  0.745690  1.0  0.0171
  N  N4892  1  0.356760  0.731530  0.688220  1.0  -0.2548
  N  N4893  1  0.377680  0.690460  0.686520  1.0  0.0065
  N  N4894  1  0.338350  0.711750  0.675720  1.0  -0.2573
  N  N4895  1  0.398590  0.670110  0.688770  1.0  0.0033
  N  N4896  1  0.527290  0.618560  0.731850  1.0  0.0053
  N  N4897  1  0.266470  0.608460  0.027190  1.0  -0.2167
  N  N4898  1  0.254520  0.620860  0.051200  1.0  -0.2627
  N  N4899  1  0.315410  0.643420  0.071930  1.0  -0.2767
  N  N4900  1  0.325530  0.635910  0.044860  1.0  -0.2436
  N  N4901  1  0.157990  0.608390  0.983230  1.0  -0.2757
  N  N4902  1  0.159670  0.637950  0.984270  1.0  -0.2369
  N  N4903  1  0.197040  0.620400  0.004310  1.0  0.0166
  N  N4904  1  0.393240  0.731530  0.061780  1.0  -0.2543
  N  N4905  1  0.372320  0.690460  0.063480  1.0  0.0067
  N  N4906  1  0.411650  0.711750  0.074280  1.0  -0.2599
  N  N4907  1  0.351410  0.670110  0.061230  1.0  0.0032
  N  N4908  1  0.222710  0.618560  0.018150  1.0  0.0048
  N  N4909  1  0.266470  0.108460  0.527190  1.0  -0.2167
  N  N4910  1  0.254520  0.120860  0.551200  1.0  -0.2627
  N  N4911  1  0.315410  0.143420  0.571930  1.0  -0.2767
  N  N4912  1  0.325530  0.135910  0.544860  1.0  -0.2436
  N  N4913  1  0.157990  0.108390  0.483230  1.0  -0.2757
  N  N4914  1  0.159670  0.137950  0.484270  1.0  -0.2369
  N  N4915  1  0.197040  0.120400  0.504310  1.0  0.0166
  N  N4916  1  0.393240  0.231530  0.561780  1.0  -0.2543
  N  N4917  1  0.372320  0.190460  0.563480  1.0  0.0067
  N  N4918  1  0.411650  0.211750  0.574280  1.0  -0.2599
  N  N4919  1  0.351410  0.170110  0.561230  1.0  0.0032
  N  N4920  1  0.222710  0.118560  0.518150  1.0  0.0048
  N  N4921  1  0.766470  0.608460  0.527190  1.0  -0.2167
  N  N4922  1  0.754520  0.620860  0.551200  1.0  -0.2627
  N  N4923  1  0.815410  0.643420  0.571930  1.0  -0.2767
  N  N4924  1  0.825530  0.635910  0.544860  1.0  -0.2436
  N  N4925  1  0.657990  0.608390  0.483230  1.0  -0.2757
  N  N4926  1  0.659670  0.637950  0.484270  1.0  -0.2369
  N  N4927  1  0.697040  0.620400  0.504310  1.0  0.0166
  N  N4928  1  0.893240  0.731530  0.561780  1.0  -0.2543
  N  N4929  1  0.872320  0.690460  0.563480  1.0  0.0067
  N  N4930  1  0.911650  0.711750  0.574280  1.0  -0.2599
  N  N4931  1  0.851410  0.670110  0.561230  1.0  0.0032
  N  N4932  1  0.722710  0.618560  0.518150  1.0  0.0048
  N  N4933  1  0.766470  0.108460  0.027190  1.0  -0.2167
  N  N4934  1  0.754520  0.120860  0.051200  1.0  -0.2627
  N  N4935  1  0.815410  0.143420  0.071930  1.0  -0.2767
  N  N4936  1  0.825530  0.135910  0.044860  1.0  -0.2436
  N  N4937  1  0.657990  0.108390  0.983230  1.0  -0.2757
  N  N4938  1  0.659670  0.137950  0.984270  1.0  -0.2369
  N  N4939  1  0.697040  0.120400  0.004310  1.0  0.0166
  N  N4940  1  0.893240  0.231530  0.061780  1.0  -0.2543
  N  N4941  1  0.872320  0.190460  0.063480  1.0  0.0067
  N  N4942  1  0.911650  0.211750  0.074280  1.0  -0.2599
  N  N4943  1  0.851410  0.170110  0.061230  1.0  0.0032
  N  N4944  1  0.722710  0.118560  0.018150  1.0  0.0048
  N  N4945  1  0.766470  0.141540  0.222810  1.0  -0.2168
  N  N4946  1  0.754520  0.129140  0.198800  1.0  -0.2624
  N  N4947  1  0.815410  0.106580  0.178070  1.0  -0.2756
  N  N4948  1  0.825530  0.114090  0.205140  1.0  -0.2439
  N  N4949  1  0.657990  0.141610  0.266770  1.0  -0.2755
  N  N4950  1  0.659670  0.112050  0.265730  1.0  -0.2383
  N  N4951  1  0.697040  0.129600  0.245690  1.0  0.0166
  N  N4952  1  0.893240  0.018470  0.188220  1.0  -0.2532
  N  N4953  1  0.872320  0.059540  0.186520  1.0  0.007
  N  N4954  1  0.911650  0.038250  0.175720  1.0  -0.2593
  N  N4955  1  0.851410  0.079890  0.188770  1.0  0.0027
  N  N4956  1  0.722710  0.131440  0.231850  1.0  0.0047
  N  N4957  1  0.766470  0.641540  0.722810  1.0  -0.2168
  N  N4958  1  0.754520  0.629140  0.698800  1.0  -0.2624
  N  N4959  1  0.815410  0.606580  0.678070  1.0  -0.2756
  N  N4960  1  0.825530  0.614090  0.705140  1.0  -0.2439
  N  N4961  1  0.657990  0.641610  0.766770  1.0  -0.2755
  N  N4962  1  0.659670  0.612050  0.765730  1.0  -0.2383
  N  N4963  1  0.697040  0.629600  0.745690  1.0  0.0166
  N  N4964  1  0.893240  0.518470  0.688220  1.0  -0.2532
  N  N4965  1  0.872320  0.559540  0.686520  1.0  0.007
  N  N4966  1  0.911650  0.538250  0.675720  1.0  -0.2593
  N  N4967  1  0.851410  0.579890  0.688770  1.0  0.0027
  N  N4968  1  0.722710  0.631440  0.731850  1.0  0.0047
  N  N4969  1  0.266470  0.141540  0.722810  1.0  -0.2168
  N  N4970  1  0.254520  0.129140  0.698800  1.0  -0.2624
  N  N4971  1  0.315410  0.106580  0.678070  1.0  -0.2756
  N  N4972  1  0.325530  0.114090  0.705140  1.0  -0.2439
  N  N4973  1  0.157990  0.141610  0.766770  1.0  -0.2755
  N  N4974  1  0.159670  0.112050  0.765730  1.0  -0.2383
  N  N4975  1  0.197040  0.129600  0.745690  1.0  0.0166
  N  N4976  1  0.393240  0.018470  0.688220  1.0  -0.2532
  N  N4977  1  0.372320  0.059540  0.686520  1.0  0.007
  N  N4978  1  0.411650  0.038250  0.675720  1.0  -0.2593
  N  N4979  1  0.351410  0.079890  0.688770  1.0  0.0027
  N  N4980  1  0.222710  0.131440  0.731850  1.0  0.0047
  N  N4981  1  0.266470  0.641540  0.222810  1.0  -0.2168
  N  N4982  1  0.254520  0.629140  0.198800  1.0  -0.2624
  N  N4983  1  0.315410  0.606580  0.178070  1.0  -0.2756
  N  N4984  1  0.325530  0.614090  0.205140  1.0  -0.2439
  N  N4985  1  0.157990  0.641610  0.266770  1.0  -0.2755
  N  N4986  1  0.159670  0.612050  0.265730  1.0  -0.2383
  N  N4987  1  0.197040  0.629600  0.245690  1.0  0.0166
  N  N4988  1  0.393240  0.518470  0.188220  1.0  -0.2532
  N  N4989  1  0.372320  0.559540  0.186520  1.0  0.007
  N  N4990  1  0.411650  0.538250  0.175720  1.0  -0.2593
  N  N4991  1  0.351410  0.579890  0.188770  1.0  0.0027
  N  N4992  1  0.222710  0.631440  0.231850  1.0  0.0047
  N  N4993  1  0.527190  0.483530  0.641540  1.0  -0.2178
  N  N4994  1  0.551200  0.495480  0.629140  1.0  -0.2607
  N  N4995  1  0.571930  0.434590  0.606580  1.0  -0.2755
  N  N4996  1  0.544860  0.424470  0.614090  1.0  -0.2453
  N  N4997  1  0.483230  0.592010  0.641610  1.0  -0.2758
  N  N4998  1  0.484270  0.590330  0.612050  1.0  -0.2391
  N  N4999  1  0.504310  0.552960  0.629600  1.0  0.0155
  N  N5000  1  0.561780  0.356760  0.518470  1.0  -0.2536
  N  N5001  1  0.563480  0.377680  0.559540  1.0  0.0052
  N  N5002  1  0.574280  0.338350  0.538250  1.0  -0.2591
  N  N5003  1  0.561230  0.398590  0.579890  1.0  0.0021
  N  N5004  1  0.518150  0.527290  0.631440  1.0  0.0043
  N  N5005  1  0.527190  0.983530  0.141540  1.0  -0.2178
  N  N5006  1  0.551200  0.995480  0.129140  1.0  -0.2607
  N  N5007  1  0.571930  0.934590  0.106580  1.0  -0.2755
  N  N5008  1  0.544860  0.924470  0.114090  1.0  -0.2453
  N  N5009  1  0.483230  0.092010  0.141610  1.0  -0.2758
  N  N5010  1  0.484270  0.090330  0.112050  1.0  -0.2391
  N  N5011  1  0.504310  0.052960  0.129600  1.0  0.0155
  N  N5012  1  0.561780  0.856760  0.018470  1.0  -0.2536
  N  N5013  1  0.563480  0.877680  0.059540  1.0  0.0052
  N  N5014  1  0.574280  0.838350  0.038250  1.0  -0.2591
  N  N5015  1  0.561230  0.898590  0.079890  1.0  0.0021
  N  N5016  1  0.518150  0.027290  0.131440  1.0  0.0043
  N  N5017  1  0.027190  0.483530  0.141540  1.0  -0.2178
  N  N5018  1  0.051200  0.495480  0.129140  1.0  -0.2607
  N  N5019  1  0.071930  0.434590  0.106580  1.0  -0.2755
  N  N5020  1  0.044860  0.424470  0.114090  1.0  -0.2453
  N  N5021  1  0.983230  0.592010  0.141610  1.0  -0.2758
  N  N5022  1  0.984270  0.590330  0.112050  1.0  -0.2391
  N  N5023  1  0.004310  0.552960  0.129600  1.0  0.0155
  N  N5024  1  0.061780  0.356760  0.018470  1.0  -0.2536
  N  N5025  1  0.063480  0.377680  0.059540  1.0  0.0052
  N  N5026  1  0.074280  0.338350  0.038250  1.0  -0.2591
  N  N5027  1  0.061230  0.398590  0.079890  1.0  0.0021
  N  N5028  1  0.018150  0.527290  0.131440  1.0  0.0043
  N  N5029  1  0.027190  0.983530  0.641540  1.0  -0.2178
  N  N5030  1  0.051200  0.995480  0.629140  1.0  -0.2607
  N  N5031  1  0.071930  0.934590  0.606580  1.0  -0.2755
  N  N5032  1  0.044860  0.924470  0.614090  1.0  -0.2453
  N  N5033  1  0.983230  0.092010  0.641610  1.0  -0.2758
  N  N5034  1  0.984270  0.090330  0.612050  1.0  -0.2391
  N  N5035  1  0.004310  0.052960  0.629600  1.0  0.0155
  N  N5036  1  0.061780  0.856760  0.518470  1.0  -0.2536
  N  N5037  1  0.063480  0.877680  0.559540  1.0  0.0052
  N  N5038  1  0.074280  0.838350  0.538250  1.0  -0.2591
  N  N5039  1  0.061230  0.898590  0.579890  1.0  0.0021
  N  N5040  1  0.018150  0.027290  0.631440  1.0  0.0043
  N  N5041  1  0.722810  0.983530  0.108460  1.0  -0.2184
  N  N5042  1  0.698800  0.995480  0.120860  1.0  -0.2619
  N  N5043  1  0.678070  0.934590  0.143420  1.0  -0.2754
  N  N5044  1  0.705140  0.924470  0.135910  1.0  -0.2438
  N  N5045  1  0.766770  0.092010  0.108390  1.0  -0.2748
  N  N5046  1  0.765730  0.090330  0.137950  1.0  -0.2403
  N  N5047  1  0.745690  0.052960  0.120400  1.0  0.0159
  N  N5048  1  0.688220  0.856760  0.231530  1.0  -0.2521
  N  N5049  1  0.686520  0.877680  0.190460  1.0  0.0063
  N  N5050  1  0.675720  0.838350  0.211750  1.0  -0.2601
  N  N5051  1  0.688770  0.898590  0.170110  1.0  0.0018
  N  N5052  1  0.731850  0.027290  0.118560  1.0  0.0047
  N  N5053  1  0.722810  0.483530  0.608460  1.0  -0.2184
  N  N5054  1  0.698800  0.495480  0.620860  1.0  -0.2619
  N  N5055  1  0.678070  0.434590  0.643420  1.0  -0.2754
  N  N5056  1  0.705140  0.424470  0.635910  1.0  -0.2438
  N  N5057  1  0.766770  0.592010  0.608390  1.0  -0.2748
  N  N5058  1  0.765730  0.590330  0.637950  1.0  -0.2403
  N  N5059  1  0.745690  0.552960  0.620400  1.0  0.0159
  N  N5060  1  0.688220  0.356760  0.731530  1.0  -0.2521
  N  N5061  1  0.686520  0.377680  0.690460  1.0  0.0063
  N  N5062  1  0.675720  0.338350  0.711750  1.0  -0.2601
  N  N5063  1  0.688770  0.398590  0.670110  1.0  0.0018
  N  N5064  1  0.731850  0.527290  0.618560  1.0  0.0047
  N  N5065  1  0.222810  0.983530  0.608460  1.0  -0.2184
  N  N5066  1  0.198800  0.995480  0.620860  1.0  -0.2619
  N  N5067  1  0.178070  0.934590  0.643420  1.0  -0.2754
  N  N5068  1  0.205140  0.924470  0.635910  1.0  -0.2438
  N  N5069  1  0.266770  0.092010  0.608390  1.0  -0.2748
  N  N5070  1  0.265730  0.090330  0.637950  1.0  -0.2403
  N  N5071  1  0.245690  0.052960  0.620400  1.0  0.0159
  N  N5072  1  0.188220  0.856760  0.731530  1.0  -0.2521
  N  N5073  1  0.186520  0.877680  0.690460  1.0  0.0063
  N  N5074  1  0.175720  0.838350  0.711750  1.0  -0.2601
  N  N5075  1  0.188770  0.898590  0.670110  1.0  0.0018
  N  N5076  1  0.231850  0.027290  0.618560  1.0  0.0047
  N  N5077  1  0.222810  0.483530  0.108460  1.0  -0.2184
  N  N5078  1  0.198800  0.495480  0.120860  1.0  -0.2619
  N  N5079  1  0.178070  0.434590  0.143420  1.0  -0.2754
  N  N5080  1  0.205140  0.424470  0.135910  1.0  -0.2438
  N  N5081  1  0.266770  0.592010  0.108390  1.0  -0.2748
  N  N5082  1  0.265730  0.590330  0.137950  1.0  -0.2403
  N  N5083  1  0.245690  0.552960  0.120400  1.0  0.0159
  N  N5084  1  0.188220  0.356760  0.231530  1.0  -0.2521
  N  N5085  1  0.186520  0.377680  0.190460  1.0  0.0063
  N  N5086  1  0.175720  0.338350  0.211750  1.0  -0.2601
  N  N5087  1  0.188770  0.398590  0.170110  1.0  0.0018
  N  N5088  1  0.231850  0.527290  0.118560  1.0  0.0047
  N  N5089  1  0.027190  0.266470  0.608460  1.0  -0.2172
  N  N5090  1  0.051200  0.254520  0.620860  1.0  -0.2598
  N  N5091  1  0.071930  0.315410  0.643420  1.0  -0.2749
  N  N5092  1  0.044860  0.325530  0.635910  1.0  -0.2444
  N  N5093  1  0.983230  0.157990  0.608390  1.0  -0.2751
  N  N5094  1  0.984270  0.159670  0.637950  1.0  -0.2383
  N  N5095  1  0.004310  0.197040  0.620400  1.0  0.0157
  N  N5096  1  0.061780  0.393240  0.731530  1.0  -0.2518
  N  N5097  1  0.063480  0.372320  0.690460  1.0  0.0059
  N  N5098  1  0.074280  0.411650  0.711750  1.0  -0.2599
  N  N5099  1  0.061230  0.351410  0.670110  1.0  0.0017
  N  N5100  1  0.018150  0.222710  0.618560  1.0  0.0049
  N  N5101  1  0.027190  0.766470  0.108460  1.0  -0.2172
  N  N5102  1  0.051200  0.754520  0.120860  1.0  -0.2598
  N  N5103  1  0.071930  0.815410  0.143420  1.0  -0.2749
  N  N5104  1  0.044860  0.825530  0.135910  1.0  -0.2444
  N  N5105  1  0.983230  0.657990  0.108390  1.0  -0.2751
  N  N5106  1  0.984270  0.659670  0.137950  1.0  -0.2383
  N  N5107  1  0.004310  0.697040  0.120400  1.0  0.0157
  N  N5108  1  0.061780  0.893240  0.231530  1.0  -0.2518
  N  N5109  1  0.063480  0.872320  0.190460  1.0  0.0059
  N  N5110  1  0.074280  0.911650  0.211750  1.0  -0.2599
  N  N5111  1  0.061230  0.851410  0.170110  1.0  0.0017
  N  N5112  1  0.018150  0.722710  0.118560  1.0  0.0049
  N  N5113  1  0.527190  0.266470  0.108460  1.0  -0.2172
  N  N5114  1  0.551200  0.254520  0.120860  1.0  -0.2598
  N  N5115  1  0.571930  0.315410  0.143420  1.0  -0.2749
  N  N5116  1  0.544860  0.325530  0.135910  1.0  -0.2444
  N  N5117  1  0.483230  0.157990  0.108390  1.0  -0.2751
  N  N5118  1  0.484270  0.159670  0.137950  1.0  -0.2383
  N  N5119  1  0.504310  0.197040  0.120400  1.0  0.0157
  N  N5120  1  0.561780  0.393240  0.231530  1.0  -0.2518
  N  N5121  1  0.563480  0.372320  0.190460  1.0  0.0059
  N  N5122  1  0.574280  0.411650  0.211750  1.0  -0.2599
  N  N5123  1  0.561230  0.351410  0.170110  1.0  0.0017
  N  N5124  1  0.518150  0.222710  0.118560  1.0  0.0049
  N  N5125  1  0.527190  0.766470  0.608460  1.0  -0.2172
  N  N5126  1  0.551200  0.754520  0.620860  1.0  -0.2598
  N  N5127  1  0.571930  0.815410  0.643420  1.0  -0.2749
  N  N5128  1  0.544860  0.825530  0.635910  1.0  -0.2444
  N  N5129  1  0.483230  0.657990  0.608390  1.0  -0.2751
  N  N5130  1  0.484270  0.659670  0.637950  1.0  -0.2383
  N  N5131  1  0.504310  0.697040  0.620400  1.0  0.0157
  N  N5132  1  0.561780  0.893240  0.731530  1.0  -0.2518
  N  N5133  1  0.563480  0.872320  0.690460  1.0  0.0059
  N  N5134  1  0.574280  0.911650  0.711750  1.0  -0.2599
  N  N5135  1  0.561230  0.851410  0.670110  1.0  0.0017
  N  N5136  1  0.518150  0.722710  0.618560  1.0  0.0049
  N  N5137  1  0.222810  0.766470  0.141540  1.0  -0.2166
  N  N5138  1  0.198800  0.754520  0.129140  1.0  -0.2611
  N  N5139  1  0.178070  0.815410  0.106580  1.0  -0.2756
  N  N5140  1  0.205140  0.825530  0.114090  1.0  -0.244
  N  N5141  1  0.266770  0.657990  0.141610  1.0  -0.2741
  N  N5142  1  0.265730  0.659670  0.112050  1.0  -0.2378
  N  N5143  1  0.245690  0.697040  0.129600  1.0  0.0162
  N  N5144  1  0.188220  0.893240  0.018470  1.0  -0.2525
  N  N5145  1  0.186520  0.872320  0.059540  1.0  0.0053
  N  N5146  1  0.175720  0.911650  0.038250  1.0  -0.2597
  N  N5147  1  0.188770  0.851410  0.079890  1.0  0.0013
  N  N5148  1  0.231850  0.722710  0.131440  1.0  0.0054
  N  N5149  1  0.222810  0.266470  0.641540  1.0  -0.2166
  N  N5150  1  0.198800  0.254520  0.629140  1.0  -0.2611
  N  N5151  1  0.178070  0.315410  0.606580  1.0  -0.2756
  N  N5152  1  0.205140  0.325530  0.614090  1.0  -0.244
  N  N5153  1  0.266770  0.157990  0.641610  1.0  -0.2741
  N  N5154  1  0.265730  0.159670  0.612050  1.0  -0.2378
  N  N5155  1  0.245690  0.197040  0.629600  1.0  0.0162
  N  N5156  1  0.188220  0.393240  0.518470  1.0  -0.2525
  N  N5157  1  0.186520  0.372320  0.559540  1.0  0.0053
  N  N5158  1  0.175720  0.411650  0.538250  1.0  -0.2597
  N  N5159  1  0.188770  0.351410  0.579890  1.0  0.0013
  N  N5160  1  0.231850  0.222710  0.631440  1.0  0.0054
  N  N5161  1  0.722810  0.766470  0.641540  1.0  -0.2166
  N  N5162  1  0.698800  0.754520  0.629140  1.0  -0.2611
  N  N5163  1  0.678070  0.815410  0.606580  1.0  -0.2756
  N  N5164  1  0.705140  0.825530  0.614090  1.0  -0.244
  N  N5165  1  0.766770  0.657990  0.641610  1.0  -0.2741
  N  N5166  1  0.765730  0.659670  0.612050  1.0  -0.2378
  N  N5167  1  0.745690  0.697040  0.629600  1.0  0.0162
  N  N5168  1  0.688220  0.893240  0.518470  1.0  -0.2525
  N  N5169  1  0.686520  0.872320  0.559540  1.0  0.0053
  N  N5170  1  0.675720  0.911650  0.538250  1.0  -0.2597
  N  N5171  1  0.688770  0.851410  0.579890  1.0  0.0013
  N  N5172  1  0.731850  0.722710  0.631440  1.0  0.0054
  N  N5173  1  0.722810  0.266470  0.141540  1.0  -0.2166
  N  N5174  1  0.698800  0.254520  0.129140  1.0  -0.2611
  N  N5175  1  0.678070  0.315410  0.106580  1.0  -0.2756
  N  N5176  1  0.705140  0.325530  0.114090  1.0  -0.244
  N  N5177  1  0.766770  0.157990  0.141610  1.0  -0.2741
  N  N5178  1  0.765730  0.159670  0.112050  1.0  -0.2378
  N  N5179  1  0.745690  0.197040  0.129600  1.0  0.0162
  N  N5180  1  0.688220  0.393240  0.018470  1.0  -0.2525
  N  N5181  1  0.686520  0.372320  0.059540  1.0  0.0053
  N  N5182  1  0.675720  0.411650  0.038250  1.0  -0.2597
  N  N5183  1  0.688770  0.351410  0.079890  1.0  0.0013
  N  N5184  1  0.731850  0.222710  0.131440  1.0  0.0054
  N  N5185  1  0.777190  0.391540  0.516470  1.0  -0.215
  N  N5186  1  0.801200  0.379140  0.504520  1.0  -0.2614
  N  N5187  1  0.821930  0.356580  0.565410  1.0  -0.274
  N  N5188  1  0.794860  0.364090  0.575530  1.0  -0.2434
  N  N5189  1  0.733230  0.391610  0.407990  1.0  -0.2755
  N  N5190  1  0.734270  0.362050  0.409670  1.0  -0.2375
  N  N5191  1  0.754310  0.379600  0.447040  1.0  0.0166
  N  N5192  1  0.811780  0.268470  0.643240  1.0  -0.2553
  N  N5193  1  0.813480  0.309540  0.622320  1.0  0.0058
  N  N5194  1  0.824280  0.288250  0.661650  1.0  -0.2579
  N  N5195  1  0.811230  0.329890  0.601410  1.0  0.0018
  N  N5196  1  0.768150  0.381440  0.472710  1.0  0.0059
  N  N5197  1  0.777190  0.891540  0.016470  1.0  -0.215
  N  N5198  1  0.801200  0.879140  0.004520  1.0  -0.2614
  N  N5199  1  0.821930  0.856580  0.065410  1.0  -0.274
  N  N5200  1  0.794860  0.864090  0.075530  1.0  -0.2434
  N  N5201  1  0.733230  0.891610  0.907990  1.0  -0.2755
  N  N5202  1  0.734270  0.862050  0.909670  1.0  -0.2375
  N  N5203  1  0.754310  0.879600  0.947040  1.0  0.0166
  N  N5204  1  0.811780  0.768470  0.143240  1.0  -0.2553
  N  N5205  1  0.813480  0.809540  0.122320  1.0  0.0058
  N  N5206  1  0.824280  0.788250  0.161650  1.0  -0.2579
  N  N5207  1  0.811230  0.829890  0.101410  1.0  0.0018
  N  N5208  1  0.768150  0.881440  0.972710  1.0  0.0059
  N  N5209  1  0.277190  0.391540  0.016470  1.0  -0.215
  N  N5210  1  0.301200  0.379140  0.004520  1.0  -0.2614
  N  N5211  1  0.321930  0.356580  0.065410  1.0  -0.274
  N  N5212  1  0.294860  0.364090  0.075530  1.0  -0.2434
  N  N5213  1  0.233230  0.391610  0.907990  1.0  -0.2755
  N  N5214  1  0.234270  0.362050  0.909670  1.0  -0.2375
  N  N5215  1  0.254310  0.379600  0.947040  1.0  0.0166
  N  N5216  1  0.311780  0.268470  0.143240  1.0  -0.2553
  N  N5217  1  0.313480  0.309540  0.122320  1.0  0.0058
  N  N5218  1  0.324280  0.288250  0.161650  1.0  -0.2579
  N  N5219  1  0.311230  0.329890  0.101410  1.0  0.0018
  N  N5220  1  0.268150  0.381440  0.972710  1.0  0.0059
  N  N5221  1  0.277190  0.891540  0.516470  1.0  -0.215
  N  N5222  1  0.301200  0.879140  0.504520  1.0  -0.2614
  N  N5223  1  0.321930  0.856580  0.565410  1.0  -0.274
  N  N5224  1  0.294860  0.864090  0.575530  1.0  -0.2434
  N  N5225  1  0.233230  0.891610  0.407990  1.0  -0.2755
  N  N5226  1  0.234270  0.862050  0.409670  1.0  -0.2375
  N  N5227  1  0.254310  0.879600  0.447040  1.0  0.0166
  N  N5228  1  0.311780  0.768470  0.643240  1.0  -0.2553
  N  N5229  1  0.313480  0.809540  0.622320  1.0  0.0058
  N  N5230  1  0.324280  0.788250  0.661650  1.0  -0.2579
  N  N5231  1  0.311230  0.829890  0.601410  1.0  0.0018
  N  N5232  1  0.268150  0.881440  0.472710  1.0  0.0059
  N  N5233  1  0.972810  0.858460  0.016470  1.0  -0.2155
  N  N5234  1  0.948800  0.870860  0.004520  1.0  -0.2625
  N  N5235  1  0.928070  0.893420  0.065410  1.0  -0.2755
  N  N5236  1  0.955140  0.885910  0.075530  1.0  -0.2421
  N  N5237  1  0.016770  0.858390  0.907990  1.0  -0.2751
  N  N5238  1  0.015730  0.887950  0.909670  1.0  -0.2369
  N  N5239  1  0.995690  0.870400  0.947040  1.0  0.0171
  N  N5240  1  0.938220  0.981530  0.143240  1.0  -0.2552
  N  N5241  1  0.936520  0.940460  0.122320  1.0  0.006
  N  N5242  1  0.925720  0.961750  0.161650  1.0  -0.2574
  N  N5243  1  0.938770  0.920110  0.101410  1.0  0.0014
  N  N5244  1  0.981850  0.868560  0.972710  1.0  0.0064
  N  N5245  1  0.972810  0.358460  0.516470  1.0  -0.2155
  N  N5246  1  0.948800  0.370860  0.504520  1.0  -0.2625
  N  N5247  1  0.928070  0.393420  0.565410  1.0  -0.2755
  N  N5248  1  0.955140  0.385910  0.575530  1.0  -0.2421
  N  N5249  1  0.016770  0.358390  0.407990  1.0  -0.2751
  N  N5250  1  0.015730  0.387950  0.409670  1.0  -0.2369
  N  N5251  1  0.995690  0.370400  0.447040  1.0  0.0171
  N  N5252  1  0.938220  0.481530  0.643240  1.0  -0.2552
  N  N5253  1  0.936520  0.440460  0.622320  1.0  0.006
  N  N5254  1  0.925720  0.461750  0.661650  1.0  -0.2574
  N  N5255  1  0.938770  0.420110  0.601410  1.0  0.0014
  N  N5256  1  0.981850  0.368560  0.472710  1.0  0.0064
  N  N5257  1  0.472810  0.858460  0.516470  1.0  -0.2155
  N  N5258  1  0.448800  0.870860  0.504520  1.0  -0.2625
  N  N5259  1  0.428070  0.893420  0.565410  1.0  -0.2755
  N  N5260  1  0.455140  0.885910  0.575530  1.0  -0.2421
  N  N5261  1  0.516770  0.858390  0.407990  1.0  -0.2751
  N  N5262  1  0.515730  0.887950  0.409670  1.0  -0.2369
  N  N5263  1  0.495690  0.870400  0.447040  1.0  0.0171
  N  N5264  1  0.438220  0.981530  0.643240  1.0  -0.2552
  N  N5265  1  0.436520  0.940460  0.622320  1.0  0.006
  N  N5266  1  0.425720  0.961750  0.661650  1.0  -0.2574
  N  N5267  1  0.438770  0.920110  0.601410  1.0  0.0014
  N  N5268  1  0.481850  0.868560  0.472710  1.0  0.0064
  N  N5269  1  0.472810  0.358460  0.016470  1.0  -0.2155
  N  N5270  1  0.448800  0.370860  0.004520  1.0  -0.2625
  N  N5271  1  0.428070  0.393420  0.065410  1.0  -0.2755
  N  N5272  1  0.455140  0.385910  0.075530  1.0  -0.2421
  N  N5273  1  0.516770  0.358390  0.907990  1.0  -0.2751
  N  N5274  1  0.515730  0.387950  0.909670  1.0  -0.2369
  N  N5275  1  0.495690  0.370400  0.947040  1.0  0.0171
  N  N5276  1  0.438220  0.481530  0.143240  1.0  -0.2552
  N  N5277  1  0.436520  0.440460  0.122320  1.0  0.006
  N  N5278  1  0.425720  0.461750  0.161650  1.0  -0.2574
  N  N5279  1  0.438770  0.420110  0.101410  1.0  0.0014
  N  N5280  1  0.481850  0.368560  0.972710  1.0  0.0064
  N  N5281  1  0.277190  0.358460  0.733530  1.0  -0.2157
  N  N5282  1  0.301200  0.370860  0.745480  1.0  -0.2606
  N  N5283  1  0.321930  0.393420  0.684590  1.0  -0.2747
  N  N5284  1  0.294860  0.385910  0.674470  1.0  -0.243
  N  N5285  1  0.233230  0.358390  0.842010  1.0  -0.2744
  N  N5286  1  0.234270  0.387950  0.840330  1.0  -0.2365
  N  N5287  1  0.254310  0.370400  0.802960  1.0  0.0167
  N  N5288  1  0.311780  0.481530  0.606760  1.0  -0.2558
  N  N5289  1  0.313480  0.440460  0.627680  1.0  0.0051
  N  N5290  1  0.324280  0.461750  0.588350  1.0  -0.2563
  N  N5291  1  0.311230  0.420110  0.648590  1.0  0.0023
  N  N5292  1  0.268150  0.368560  0.777290  1.0  0.0055
  N  N5293  1  0.277190  0.858460  0.233530  1.0  -0.2157
  N  N5294  1  0.301200  0.870860  0.245480  1.0  -0.2606
  N  N5295  1  0.321930  0.893420  0.184590  1.0  -0.2747
  N  N5296  1  0.294860  0.885910  0.174470  1.0  -0.243
  N  N5297  1  0.233230  0.858390  0.342010  1.0  -0.2744
  N  N5298  1  0.234270  0.887950  0.340330  1.0  -0.2365
  N  N5299  1  0.254310  0.870400  0.302960  1.0  0.0167
  N  N5300  1  0.311780  0.981530  0.106760  1.0  -0.2558
  N  N5301  1  0.313480  0.940460  0.127680  1.0  0.0051
  N  N5302  1  0.324280  0.961750  0.088350  1.0  -0.2563
  N  N5303  1  0.311230  0.920110  0.148590  1.0  0.0023
  N  N5304  1  0.268150  0.868560  0.277290  1.0  0.0055
  N  N5305  1  0.777190  0.358460  0.233530  1.0  -0.2157
  N  N5306  1  0.801200  0.370860  0.245480  1.0  -0.2606
  N  N5307  1  0.821930  0.393420  0.184590  1.0  -0.2747
  N  N5308  1  0.794860  0.385910  0.174470  1.0  -0.243
  N  N5309  1  0.733230  0.358390  0.342010  1.0  -0.2744
  N  N5310  1  0.734270  0.387950  0.340330  1.0  -0.2365
  N  N5311  1  0.754310  0.370400  0.302960  1.0  0.0167
  N  N5312  1  0.811780  0.481530  0.106760  1.0  -0.2558
  N  N5313  1  0.813480  0.440460  0.127680  1.0  0.0051
  N  N5314  1  0.824280  0.461750  0.088350  1.0  -0.2563
  N  N5315  1  0.811230  0.420110  0.148590  1.0  0.0023
  N  N5316  1  0.768150  0.368560  0.277290  1.0  0.0055
  N  N5317  1  0.777190  0.858460  0.733530  1.0  -0.2157
  N  N5318  1  0.801200  0.870860  0.745480  1.0  -0.2606
  N  N5319  1  0.821930  0.893420  0.684590  1.0  -0.2747
  N  N5320  1  0.794860  0.885910  0.674470  1.0  -0.243
  N  N5321  1  0.733230  0.858390  0.842010  1.0  -0.2744
  N  N5322  1  0.734270  0.887950  0.840330  1.0  -0.2365
  N  N5323  1  0.754310  0.870400  0.802960  1.0  0.0167
  N  N5324  1  0.811780  0.981530  0.606760  1.0  -0.2558
  N  N5325  1  0.813480  0.940460  0.627680  1.0  0.0051
  N  N5326  1  0.824280  0.961750  0.588350  1.0  -0.2563
  N  N5327  1  0.811230  0.920110  0.648590  1.0  0.0023
  N  N5328  1  0.768150  0.868560  0.777290  1.0  0.0055
  N  N5329  1  0.472810  0.891540  0.233530  1.0  -0.2156
  N  N5330  1  0.448800  0.879140  0.245480  1.0  -0.2615
  N  N5331  1  0.428070  0.856580  0.184590  1.0  -0.2742
  N  N5332  1  0.455140  0.864090  0.174470  1.0  -0.2422
  N  N5333  1  0.516770  0.891610  0.342010  1.0  -0.2737
  N  N5334  1  0.515730  0.862050  0.340330  1.0  -0.2361
  N  N5335  1  0.495690  0.879600  0.302960  1.0  0.0171
  N  N5336  1  0.438220  0.768470  0.106760  1.0  -0.2555
  N  N5337  1  0.436520  0.809540  0.127680  1.0  0.0056
  N  N5338  1  0.425720  0.788250  0.088350  1.0  -0.2581
  N  N5339  1  0.438770  0.829890  0.148590  1.0  0.0017
  N  N5340  1  0.481850  0.881440  0.277290  1.0  0.0059
  N  N5341  1  0.472810  0.391540  0.733530  1.0  -0.2156
  N  N5342  1  0.448800  0.379140  0.745480  1.0  -0.2615
  N  N5343  1  0.428070  0.356580  0.684590  1.0  -0.2742
  N  N5344  1  0.455140  0.364090  0.674470  1.0  -0.2422
  N  N5345  1  0.516770  0.391610  0.842010  1.0  -0.2737
  N  N5346  1  0.515730  0.362050  0.840330  1.0  -0.2361
  N  N5347  1  0.495690  0.379600  0.802960  1.0  0.0171
  N  N5348  1  0.438220  0.268470  0.606760  1.0  -0.2555
  N  N5349  1  0.436520  0.309540  0.627680  1.0  0.0056
  N  N5350  1  0.425720  0.288250  0.588350  1.0  -0.2581
  N  N5351  1  0.438770  0.329890  0.648590  1.0  0.0017
  N  N5352  1  0.481850  0.381440  0.777290  1.0  0.0059
  N  N5353  1  0.972810  0.891540  0.733530  1.0  -0.2156
  N  N5354  1  0.948800  0.879140  0.745480  1.0  -0.2615
  N  N5355  1  0.928070  0.856580  0.684590  1.0  -0.2742
  N  N5356  1  0.955140  0.864090  0.674470  1.0  -0.2422
  N  N5357  1  0.016770  0.891610  0.842010  1.0  -0.2737
  N  N5358  1  0.015730  0.862050  0.840330  1.0  -0.2361
  N  N5359  1  0.995690  0.879600  0.802960  1.0  0.0171
  N  N5360  1  0.938220  0.768470  0.606760  1.0  -0.2555
  N  N5361  1  0.936520  0.809540  0.627680  1.0  0.0056
  N  N5362  1  0.925720  0.788250  0.588350  1.0  -0.2581
  N  N5363  1  0.938770  0.829890  0.648590  1.0  0.0017
  N  N5364  1  0.981850  0.881440  0.777290  1.0  0.0059
  N  N5365  1  0.972810  0.391540  0.233530  1.0  -0.2156
  N  N5366  1  0.948800  0.379140  0.245480  1.0  -0.2615
  N  N5367  1  0.928070  0.356580  0.184590  1.0  -0.2742
  N  N5368  1  0.955140  0.364090  0.174470  1.0  -0.2422
  N  N5369  1  0.016770  0.391610  0.342010  1.0  -0.2737
  N  N5370  1  0.015730  0.362050  0.340330  1.0  -0.2361
  N  N5371  1  0.995690  0.379600  0.302960  1.0  0.0171
  N  N5372  1  0.938220  0.268470  0.106760  1.0  -0.2555
  N  N5373  1  0.936520  0.309540  0.127680  1.0  0.0056
  N  N5374  1  0.925720  0.288250  0.088350  1.0  -0.2581
  N  N5375  1  0.938770  0.329890  0.148590  1.0  0.0017
  N  N5376  1  0.981850  0.381440  0.277290  1.0  0.0059
  N  N5377  1  0.891540  0.233530  0.472810  1.0  -0.2167
  N  N5378  1  0.879140  0.245480  0.448800  1.0  -0.2609
  N  N5379  1  0.856580  0.184590  0.428070  1.0  -0.2749
  N  N5380  1  0.864090  0.174470  0.455140  1.0  -0.2453
  N  N5381  1  0.891610  0.342010  0.516770  1.0  -0.2744
  N  N5382  1  0.862050  0.340330  0.515730  1.0  -0.2395
  N  N5383  1  0.879600  0.302960  0.495690  1.0  0.0159
  N  N5384  1  0.768470  0.106760  0.438220  1.0  -0.254
  N  N5385  1  0.809540  0.127680  0.436520  1.0  0.0072
  N  N5386  1  0.788250  0.088350  0.425720  1.0  -0.2589
  N  N5387  1  0.829890  0.148590  0.438770  1.0  0.002
  N  N5388  1  0.881440  0.277290  0.481850  1.0  0.0046
  N  N5389  1  0.891540  0.733530  0.972810  1.0  -0.2167
  N  N5390  1  0.879140  0.745480  0.948800  1.0  -0.2609
  N  N5391  1  0.856580  0.684590  0.928070  1.0  -0.2749
  N  N5392  1  0.864090  0.674470  0.955140  1.0  -0.2453
  N  N5393  1  0.891610  0.842010  0.016770  1.0  -0.2744
  N  N5394  1  0.862050  0.840330  0.015730  1.0  -0.2395
  N  N5395  1  0.879600  0.802960  0.995690  1.0  0.0159
  N  N5396  1  0.768470  0.606760  0.938220  1.0  -0.254
  N  N5397  1  0.809540  0.627680  0.936520  1.0  0.0072
  N  N5398  1  0.788250  0.588350  0.925720  1.0  -0.2589
  N  N5399  1  0.829890  0.648590  0.938770  1.0  0.002
  N  N5400  1  0.881440  0.777290  0.981850  1.0  0.0046
  N  N5401  1  0.391540  0.233530  0.972810  1.0  -0.2167
  N  N5402  1  0.379140  0.245480  0.948800  1.0  -0.2609
  N  N5403  1  0.356580  0.184590  0.928070  1.0  -0.2749
  N  N5404  1  0.364090  0.174470  0.955140  1.0  -0.2453
  N  N5405  1  0.391610  0.342010  0.016770  1.0  -0.2744
  N  N5406  1  0.362050  0.340330  0.015730  1.0  -0.2395
  N  N5407  1  0.379600  0.302960  0.995690  1.0  0.0159
  N  N5408  1  0.268470  0.106760  0.938220  1.0  -0.254
  N  N5409  1  0.309540  0.127680  0.936520  1.0  0.0072
  N  N5410  1  0.288250  0.088350  0.925720  1.0  -0.2589
  N  N5411  1  0.329890  0.148590  0.938770  1.0  0.002
  N  N5412  1  0.381440  0.277290  0.981850  1.0  0.0046
  N  N5413  1  0.391540  0.733530  0.472810  1.0  -0.2167
  N  N5414  1  0.379140  0.745480  0.448800  1.0  -0.2609
  N  N5415  1  0.356580  0.684590  0.428070  1.0  -0.2749
  N  N5416  1  0.364090  0.674470  0.455140  1.0  -0.2453
  N  N5417  1  0.391610  0.842010  0.516770  1.0  -0.2744
  N  N5418  1  0.362050  0.840330  0.515730  1.0  -0.2395
  N  N5419  1  0.379600  0.802960  0.495690  1.0  0.0159
  N  N5420  1  0.268470  0.606760  0.438220  1.0  -0.254
  N  N5421  1  0.309540  0.627680  0.436520  1.0  0.0072
  N  N5422  1  0.288250  0.588350  0.425720  1.0  -0.2589
  N  N5423  1  0.329890  0.648590  0.438770  1.0  0.002
  N  N5424  1  0.381440  0.777290  0.481850  1.0  0.0046
  N  N5425  1  0.358460  0.733530  0.277190  1.0  -0.2174
  N  N5426  1  0.370860  0.745480  0.301200  1.0  -0.2616
  N  N5427  1  0.393420  0.684590  0.321930  1.0  -0.2763
  N  N5428  1  0.385910  0.674470  0.294860  1.0  -0.2436
  N  N5429  1  0.358390  0.842010  0.233230  1.0  -0.2753
  N  N5430  1  0.387950  0.840330  0.234270  1.0  -0.2381
  N  N5431  1  0.370400  0.802960  0.254310  1.0  0.0158
  N  N5432  1  0.481530  0.606760  0.311780  1.0  -0.2552
  N  N5433  1  0.440460  0.627680  0.313480  1.0  0.0068
  N  N5434  1  0.461750  0.588350  0.324280  1.0  -0.2575
  N  N5435  1  0.420110  0.648590  0.311230  1.0  0.0024
  N  N5436  1  0.368560  0.777290  0.268150  1.0  0.0049
  N  N5437  1  0.358460  0.233530  0.777190  1.0  -0.2174
  N  N5438  1  0.370860  0.245480  0.801200  1.0  -0.2616
  N  N5439  1  0.393420  0.184590  0.821930  1.0  -0.2763
  N  N5440  1  0.385910  0.174470  0.794860  1.0  -0.2436
  N  N5441  1  0.358390  0.342010  0.733230  1.0  -0.2753
  N  N5442  1  0.387950  0.340330  0.734270  1.0  -0.2381
  N  N5443  1  0.370400  0.302960  0.754310  1.0  0.0158
  N  N5444  1  0.481530  0.106760  0.811780  1.0  -0.2552
  N  N5445  1  0.440460  0.127680  0.813480  1.0  0.0068
  N  N5446  1  0.461750  0.088350  0.824280  1.0  -0.2575
  N  N5447  1  0.420110  0.148590  0.811230  1.0  0.0024
  N  N5448  1  0.368560  0.277290  0.768150  1.0  0.0049
  N  N5449  1  0.858460  0.733530  0.777190  1.0  -0.2174
  N  N5450  1  0.870860  0.745480  0.801200  1.0  -0.2616
  N  N5451  1  0.893420  0.684590  0.821930  1.0  -0.2763
  N  N5452  1  0.885910  0.674470  0.794860  1.0  -0.2436
  N  N5453  1  0.858390  0.842010  0.733230  1.0  -0.2753
  N  N5454  1  0.887950  0.840330  0.734270  1.0  -0.2381
  N  N5455  1  0.870400  0.802960  0.754310  1.0  0.0158
  N  N5456  1  0.981530  0.606760  0.811780  1.0  -0.2552
  N  N5457  1  0.940460  0.627680  0.813480  1.0  0.0068
  N  N5458  1  0.961750  0.588350  0.824280  1.0  -0.2575
  N  N5459  1  0.920110  0.648590  0.811230  1.0  0.0024
  N  N5460  1  0.868560  0.777290  0.768150  1.0  0.0049
  N  N5461  1  0.858460  0.233530  0.277190  1.0  -0.2174
  N  N5462  1  0.870860  0.245480  0.301200  1.0  -0.2616
  N  N5463  1  0.893420  0.184590  0.321930  1.0  -0.2763
  N  N5464  1  0.885910  0.174470  0.294860  1.0  -0.2436
  N  N5465  1  0.858390  0.342010  0.233230  1.0  -0.2753
  N  N5466  1  0.887950  0.340330  0.234270  1.0  -0.2381
  N  N5467  1  0.870400  0.302960  0.254310  1.0  0.0158
  N  N5468  1  0.981530  0.106760  0.311780  1.0  -0.2552
  N  N5469  1  0.940460  0.127680  0.313480  1.0  0.0068
  N  N5470  1  0.961750  0.088350  0.324280  1.0  -0.2575
  N  N5471  1  0.920110  0.148590  0.311230  1.0  0.0024
  N  N5472  1  0.868560  0.277290  0.268150  1.0  0.0049
  N  N5473  1  0.858460  0.016470  0.972810  1.0  -0.216
  N  N5474  1  0.870860  0.004520  0.948800  1.0  -0.2605
  N  N5475  1  0.893420  0.065410  0.928070  1.0  -0.2758
  N  N5476  1  0.885910  0.075530  0.955140  1.0  -0.2445
  N  N5477  1  0.858390  0.907990  0.016770  1.0  -0.2746
  N  N5478  1  0.887950  0.909670  0.015730  1.0  -0.2373
  N  N5479  1  0.870400  0.947040  0.995690  1.0  0.0161
  N  N5480  1  0.981530  0.143240  0.938220  1.0  -0.2544
  N  N5481  1  0.940460  0.122320  0.936520  1.0  0.0071
  N  N5482  1  0.961750  0.161650  0.925720  1.0  -0.2575
  N  N5483  1  0.920110  0.101410  0.938770  1.0  0.0016
  N  N5484  1  0.868560  0.972710  0.981850  1.0  0.0055
  N  N5485  1  0.858460  0.516470  0.472810  1.0  -0.216
  N  N5486  1  0.870860  0.504520  0.448800  1.0  -0.2605
  N  N5487  1  0.893420  0.565410  0.428070  1.0  -0.2758
  N  N5488  1  0.885910  0.575530  0.455140  1.0  -0.2445
  N  N5489  1  0.858390  0.407990  0.516770  1.0  -0.2746
  N  N5490  1  0.887950  0.409670  0.515730  1.0  -0.2373
  N  N5491  1  0.870400  0.447040  0.495690  1.0  0.0161
  N  N5492  1  0.981530  0.643240  0.438220  1.0  -0.2544
  N  N5493  1  0.940460  0.622320  0.436520  1.0  0.0071
  N  N5494  1  0.961750  0.661650  0.425720  1.0  -0.2575
  N  N5495  1  0.920110  0.601410  0.438770  1.0  0.0016
  N  N5496  1  0.868560  0.472710  0.481850  1.0  0.0055
  N  N5497  1  0.358460  0.016470  0.472810  1.0  -0.216
  N  N5498  1  0.370860  0.004520  0.448800  1.0  -0.2605
  N  N5499  1  0.393420  0.065410  0.428070  1.0  -0.2758
  N  N5500  1  0.385910  0.075530  0.455140  1.0  -0.2445
  N  N5501  1  0.358390  0.907990  0.516770  1.0  -0.2746
  N  N5502  1  0.387950  0.909670  0.515730  1.0  -0.2373
  N  N5503  1  0.370400  0.947040  0.495690  1.0  0.0161
  N  N5504  1  0.481530  0.143240  0.438220  1.0  -0.2544
  N  N5505  1  0.440460  0.122320  0.436520  1.0  0.0071
  N  N5506  1  0.461750  0.161650  0.425720  1.0  -0.2575
  N  N5507  1  0.420110  0.101410  0.438770  1.0  0.0016
  N  N5508  1  0.368560  0.972710  0.481850  1.0  0.0055
  N  N5509  1  0.358460  0.516470  0.972810  1.0  -0.216
  N  N5510  1  0.370860  0.504520  0.948800  1.0  -0.2605
  N  N5511  1  0.393420  0.565410  0.928070  1.0  -0.2758
  N  N5512  1  0.385910  0.575530  0.955140  1.0  -0.2445
  N  N5513  1  0.358390  0.407990  0.016770  1.0  -0.2746
  N  N5514  1  0.387950  0.409670  0.015730  1.0  -0.2373
  N  N5515  1  0.370400  0.447040  0.995690  1.0  0.0161
  N  N5516  1  0.481530  0.643240  0.938220  1.0  -0.2544
  N  N5517  1  0.440460  0.622320  0.936520  1.0  0.0071
  N  N5518  1  0.461750  0.661650  0.925720  1.0  -0.2575
  N  N5519  1  0.420110  0.601410  0.938770  1.0  0.0016
  N  N5520  1  0.368560  0.472710  0.981850  1.0  0.0055
  N  N5521  1  0.391540  0.516470  0.777190  1.0  -0.2158
  N  N5522  1  0.379140  0.504520  0.801200  1.0  -0.2607
  N  N5523  1  0.356580  0.565410  0.821930  1.0  -0.2747
  N  N5524  1  0.364090  0.575530  0.794860  1.0  -0.2445
  N  N5525  1  0.391610  0.407990  0.733230  1.0  -0.2742
  N  N5526  1  0.362050  0.409670  0.734270  1.0  -0.2367
  N  N5527  1  0.379600  0.447040  0.754310  1.0  0.0162
  N  N5528  1  0.268470  0.643240  0.811780  1.0  -0.2532
  N  N5529  1  0.309540  0.622320  0.813480  1.0  0.0075
  N  N5530  1  0.288250  0.661650  0.824280  1.0  -0.2592
  N  N5531  1  0.329890  0.601410  0.811230  1.0  0.0016
  N  N5532  1  0.381440  0.472710  0.768150  1.0  0.0053
  N  N5533  1  0.391540  0.016470  0.277190  1.0  -0.2158
  N  N5534  1  0.379140  0.004520  0.301200  1.0  -0.2607
  N  N5535  1  0.356580  0.065410  0.321930  1.0  -0.2747
  N  N5536  1  0.364090  0.075530  0.294860  1.0  -0.2445
  N  N5537  1  0.391610  0.907990  0.233230  1.0  -0.2742
  N  N5538  1  0.362050  0.909670  0.234270  1.0  -0.2367
  N  N5539  1  0.379600  0.947040  0.254310  1.0  0.0162
  N  N5540  1  0.268470  0.143240  0.311780  1.0  -0.2532
  N  N5541  1  0.309540  0.122320  0.313480  1.0  0.0075
  N  N5542  1  0.288250  0.161650  0.324280  1.0  -0.2592
  N  N5543  1  0.329890  0.101410  0.311230  1.0  0.0016
  N  N5544  1  0.381440  0.972710  0.268150  1.0  0.0053
  N  N5545  1  0.891540  0.516470  0.277190  1.0  -0.2158
  N  N5546  1  0.879140  0.504520  0.301200  1.0  -0.2607
  N  N5547  1  0.856580  0.565410  0.321930  1.0  -0.2747
  N  N5548  1  0.864090  0.575530  0.294860  1.0  -0.2445
  N  N5549  1  0.891610  0.407990  0.233230  1.0  -0.2742
  N  N5550  1  0.862050  0.409670  0.234270  1.0  -0.2367
  N  N5551  1  0.879600  0.447040  0.254310  1.0  0.0162
  N  N5552  1  0.768470  0.643240  0.311780  1.0  -0.2532
  N  N5553  1  0.809540  0.622320  0.313480  1.0  0.0075
  N  N5554  1  0.788250  0.661650  0.324280  1.0  -0.2592
  N  N5555  1  0.829890  0.601410  0.311230  1.0  0.0016
  N  N5556  1  0.881440  0.472710  0.268150  1.0  0.0053
  N  N5557  1  0.891540  0.016470  0.777190  1.0  -0.2158
  N  N5558  1  0.879140  0.004520  0.801200  1.0  -0.2607
  N  N5559  1  0.856580  0.065410  0.821930  1.0  -0.2747
  N  N5560  1  0.864090  0.075530  0.794860  1.0  -0.2445
  N  N5561  1  0.891610  0.907990  0.733230  1.0  -0.2742
  N  N5562  1  0.862050  0.909670  0.734270  1.0  -0.2367
  N  N5563  1  0.879600  0.947040  0.754310  1.0  0.0162
  N  N5564  1  0.768470  0.143240  0.811780  1.0  -0.2532
  N  N5565  1  0.809540  0.122320  0.813480  1.0  0.0075
  N  N5566  1  0.788250  0.161650  0.824280  1.0  -0.2592
  N  N5567  1  0.829890  0.101410  0.811230  1.0  0.0016
  N  N5568  1  0.881440  0.972710  0.768150  1.0  0.0053
  N  N5569  1  0.733530  0.277190  0.358460  1.0  -0.2141
  N  N5570  1  0.745480  0.301200  0.370860  1.0  -0.2623
  N  N5571  1  0.684590  0.321930  0.393420  1.0  -0.276
  N  N5572  1  0.674470  0.294860  0.385910  1.0  -0.244
  N  N5573  1  0.842010  0.233230  0.358390  1.0  -0.2755
  N  N5574  1  0.840330  0.234270  0.387950  1.0  -0.2395
  N  N5575  1  0.802960  0.254310  0.370400  1.0  0.0165
  N  N5576  1  0.606760  0.311780  0.481530  1.0  -0.2507
  N  N5577  1  0.627680  0.313480  0.440460  1.0  0.0074
  N  N5578  1  0.588350  0.324280  0.461750  1.0  -0.2583
  N  N5579  1  0.648590  0.311230  0.420110  1.0  0.004
  N  N5580  1  0.777290  0.268150  0.368560  1.0  0.0051
  N  N5581  1  0.733530  0.777190  0.858460  1.0  -0.2141
  N  N5582  1  0.745480  0.801200  0.870860  1.0  -0.2623
  N  N5583  1  0.684590  0.821930  0.893420  1.0  -0.276
  N  N5584  1  0.674470  0.794860  0.885910  1.0  -0.244
  N  N5585  1  0.842010  0.733230  0.858390  1.0  -0.2755
  N  N5586  1  0.840330  0.734270  0.887950  1.0  -0.2395
  N  N5587  1  0.802960  0.754310  0.870400  1.0  0.0165
  N  N5588  1  0.606760  0.811780  0.981530  1.0  -0.2507
  N  N5589  1  0.627680  0.813480  0.940460  1.0  0.0074
  N  N5590  1  0.588350  0.824280  0.961750  1.0  -0.2583
  N  N5591  1  0.648590  0.811230  0.920110  1.0  0.004
  N  N5592  1  0.777290  0.768150  0.868560  1.0  0.0051
  N  N5593  1  0.233530  0.277190  0.858460  1.0  -0.2141
  N  N5594  1  0.245480  0.301200  0.870860  1.0  -0.2623
  N  N5595  1  0.184590  0.321930  0.893420  1.0  -0.276
  N  N5596  1  0.174470  0.294860  0.885910  1.0  -0.244
  N  N5597  1  0.342010  0.233230  0.858390  1.0  -0.2755
  N  N5598  1  0.340330  0.234270  0.887950  1.0  -0.2395
  N  N5599  1  0.302960  0.254310  0.870400  1.0  0.0165
  N  N5600  1  0.106760  0.311780  0.981530  1.0  -0.2507
  N  N5601  1  0.127680  0.313480  0.940460  1.0  0.0074
  N  N5602  1  0.088350  0.324280  0.961750  1.0  -0.2583
  N  N5603  1  0.148590  0.311230  0.920110  1.0  0.004
  N  N5604  1  0.277290  0.268150  0.868560  1.0  0.0051
  N  N5605  1  0.233530  0.777190  0.358460  1.0  -0.2141
  N  N5606  1  0.245480  0.801200  0.370860  1.0  -0.2623
  N  N5607  1  0.184590  0.821930  0.393420  1.0  -0.276
  N  N5608  1  0.174470  0.794860  0.385910  1.0  -0.244
  N  N5609  1  0.342010  0.733230  0.358390  1.0  -0.2755
  N  N5610  1  0.340330  0.734270  0.387950  1.0  -0.2395
  N  N5611  1  0.302960  0.754310  0.370400  1.0  0.0165
  N  N5612  1  0.106760  0.811780  0.481530  1.0  -0.2507
  N  N5613  1  0.127680  0.813480  0.440460  1.0  0.0074
  N  N5614  1  0.088350  0.824280  0.461750  1.0  -0.2583
  N  N5615  1  0.148590  0.811230  0.420110  1.0  0.004
  N  N5616  1  0.277290  0.768150  0.368560  1.0  0.0051
  N  N5617  1  0.233530  0.472810  0.891540  1.0  -0.2136
  N  N5618  1  0.245480  0.448800  0.879140  1.0  -0.2615
  N  N5619  1  0.184590  0.428070  0.856580  1.0  -0.2762
  N  N5620  1  0.174470  0.455140  0.864090  1.0  -0.245
  N  N5621  1  0.342010  0.516770  0.891610  1.0  -0.2755
  N  N5622  1  0.340330  0.515730  0.862050  1.0  -0.2391
  N  N5623  1  0.302960  0.495690  0.879600  1.0  0.0165
  N  N5624  1  0.106760  0.438220  0.768470  1.0  -0.2519
  N  N5625  1  0.127680  0.436520  0.809540  1.0  0.0063
  N  N5626  1  0.088350  0.425720  0.788250  1.0  -0.2578
  N  N5627  1  0.148590  0.438770  0.829890  1.0  0.0039
  N  N5628  1  0.277290  0.481850  0.881440  1.0  0.005
  N  N5629  1  0.233530  0.972810  0.391540  1.0  -0.2136
  N  N5630  1  0.245480  0.948800  0.379140  1.0  -0.2615
  N  N5631  1  0.184590  0.928070  0.356580  1.0  -0.2762
  N  N5632  1  0.174470  0.955140  0.364090  1.0  -0.245
  N  N5633  1  0.342010  0.016770  0.391610  1.0  -0.2755
  N  N5634  1  0.340330  0.015730  0.362050  1.0  -0.2391
  N  N5635  1  0.302960  0.995690  0.379600  1.0  0.0165
  N  N5636  1  0.106760  0.938220  0.268470  1.0  -0.2519
  N  N5637  1  0.127680  0.936520  0.309540  1.0  0.0063
  N  N5638  1  0.088350  0.925720  0.288250  1.0  -0.2578
  N  N5639  1  0.148590  0.938770  0.329890  1.0  0.0039
  N  N5640  1  0.277290  0.981850  0.381440  1.0  0.005
  N  N5641  1  0.733530  0.472810  0.391540  1.0  -0.2136
  N  N5642  1  0.745480  0.448800  0.379140  1.0  -0.2615
  N  N5643  1  0.684590  0.428070  0.356580  1.0  -0.2762
  N  N5644  1  0.674470  0.455140  0.364090  1.0  -0.245
  N  N5645  1  0.842010  0.516770  0.391610  1.0  -0.2755
  N  N5646  1  0.840330  0.515730  0.362050  1.0  -0.2391
  N  N5647  1  0.802960  0.495690  0.379600  1.0  0.0165
  N  N5648  1  0.606760  0.438220  0.268470  1.0  -0.2519
  N  N5649  1  0.627680  0.436520  0.309540  1.0  0.0063
  N  N5650  1  0.588350  0.425720  0.288250  1.0  -0.2578
  N  N5651  1  0.648590  0.438770  0.329890  1.0  0.0039
  N  N5652  1  0.777290  0.481850  0.381440  1.0  0.005
  N  N5653  1  0.733530  0.972810  0.891540  1.0  -0.2136
  N  N5654  1  0.745480  0.948800  0.879140  1.0  -0.2615
  N  N5655  1  0.684590  0.928070  0.856580  1.0  -0.2762
  N  N5656  1  0.674470  0.955140  0.864090  1.0  -0.245
  N  N5657  1  0.842010  0.016770  0.891610  1.0  -0.2755
  N  N5658  1  0.840330  0.015730  0.862050  1.0  -0.2391
  N  N5659  1  0.802960  0.995690  0.879600  1.0  0.0165
  N  N5660  1  0.606760  0.938220  0.768470  1.0  -0.2519
  N  N5661  1  0.627680  0.936520  0.809540  1.0  0.0063
  N  N5662  1  0.588350  0.925720  0.788250  1.0  -0.2578
  N  N5663  1  0.648590  0.938770  0.829890  1.0  0.0039
  N  N5664  1  0.777290  0.981850  0.881440  1.0  0.005
  N  N5665  1  0.516470  0.777190  0.391540  1.0  -0.2141
  N  N5666  1  0.504520  0.801200  0.379140  1.0  -0.2632
  N  N5667  1  0.565410  0.821930  0.356580  1.0  -0.2768
  N  N5668  1  0.575530  0.794860  0.364090  1.0  -0.2453
  N  N5669  1  0.407990  0.733230  0.391610  1.0  -0.276
  N  N5670  1  0.409670  0.734270  0.362050  1.0  -0.2373
  N  N5671  1  0.447040  0.754310  0.379600  1.0  0.0161
  N  N5672  1  0.643240  0.811780  0.268470  1.0  -0.2509
  N  N5673  1  0.622320  0.813480  0.309540  1.0  0.0065
  N  N5674  1  0.661650  0.824280  0.288250  1.0  -0.2597
  N  N5675  1  0.601410  0.811230  0.329890  1.0  0.0038
  N  N5676  1  0.472710  0.768150  0.381440  1.0  0.0047
  N  N5677  1  0.516470  0.277190  0.891540  1.0  -0.2141
  N  N5678  1  0.504520  0.301200  0.879140  1.0  -0.2632
  N  N5679  1  0.565410  0.321930  0.856580  1.0  -0.2768
  N  N5680  1  0.575530  0.294860  0.864090  1.0  -0.2453
  N  N5681  1  0.407990  0.233230  0.891610  1.0  -0.276
  N  N5682  1  0.409670  0.234270  0.862050  1.0  -0.2373
  N  N5683  1  0.447040  0.254310  0.879600  1.0  0.0161
  N  N5684  1  0.643240  0.311780  0.768470  1.0  -0.2509
  N  N5685  1  0.622320  0.313480  0.809540  1.0  0.0065
  N  N5686  1  0.661650  0.324280  0.788250  1.0  -0.2597
  N  N5687  1  0.601410  0.311230  0.829890  1.0  0.0038
  N  N5688  1  0.472710  0.268150  0.881440  1.0  0.0047
  N  N5689  1  0.016470  0.777190  0.891540  1.0  -0.2141
  N  N5690  1  0.004520  0.801200  0.879140  1.0  -0.2632
  N  N5691  1  0.065410  0.821930  0.856580  1.0  -0.2768
  N  N5692  1  0.075530  0.794860  0.864090  1.0  -0.2453
  N  N5693  1  0.907990  0.733230  0.891610  1.0  -0.276
  N  N5694  1  0.909670  0.734270  0.862050  1.0  -0.2373
  N  N5695  1  0.947040  0.754310  0.879600  1.0  0.0161
  N  N5696  1  0.143240  0.811780  0.768470  1.0  -0.2509
  N  N5697  1  0.122320  0.813480  0.809540  1.0  0.0065
  N  N5698  1  0.161650  0.824280  0.788250  1.0  -0.2597
  N  N5699  1  0.101410  0.811230  0.829890  1.0  0.0038
  N  N5700  1  0.972710  0.768150  0.881440  1.0  0.0047
  N  N5701  1  0.016470  0.277190  0.391540  1.0  -0.2141
  N  N5702  1  0.004520  0.301200  0.379140  1.0  -0.2632
  N  N5703  1  0.065410  0.321930  0.356580  1.0  -0.2768
  N  N5704  1  0.075530  0.294860  0.364090  1.0  -0.2453
  N  N5705  1  0.907990  0.233230  0.391610  1.0  -0.276
  N  N5706  1  0.909670  0.234270  0.362050  1.0  -0.2373
  N  N5707  1  0.947040  0.254310  0.379600  1.0  0.0161
  N  N5708  1  0.143240  0.311780  0.268470  1.0  -0.2509
  N  N5709  1  0.122320  0.313480  0.309540  1.0  0.0065
  N  N5710  1  0.161650  0.324280  0.288250  1.0  -0.2597
  N  N5711  1  0.101410  0.311230  0.329890  1.0  0.0038
  N  N5712  1  0.972710  0.268150  0.381440  1.0  0.0047
  N  N5713  1  0.016470  0.972810  0.858460  1.0  -0.2148
  N  N5714  1  0.004520  0.948800  0.870860  1.0  -0.2618
  N  N5715  1  0.065410  0.928070  0.893420  1.0  -0.2764
  N  N5716  1  0.075530  0.955140  0.885910  1.0  -0.2448
  N  N5717  1  0.907990  0.016770  0.858390  1.0  -0.2759
  N  N5718  1  0.909670  0.015730  0.887950  1.0  -0.2386
  N  N5719  1  0.947040  0.995690  0.870400  1.0  0.0161
  N  N5720  1  0.143240  0.938220  0.981530  1.0  -0.2498
  N  N5721  1  0.122320  0.936520  0.940460  1.0  0.0073
  N  N5722  1  0.161650  0.925720  0.961750  1.0  -0.2596
  N  N5723  1  0.101410  0.938770  0.920110  1.0  0.0032
  N  N5724  1  0.972710  0.981850  0.868560  1.0  0.0045
  N  N5725  1  0.016470  0.472810  0.358460  1.0  -0.2148
  N  N5726  1  0.004520  0.448800  0.370860  1.0  -0.2618
  N  N5727  1  0.065410  0.428070  0.393420  1.0  -0.2764
  N  N5728  1  0.075530  0.455140  0.385910  1.0  -0.2448
  N  N5729  1  0.907990  0.516770  0.358390  1.0  -0.2759
  N  N5730  1  0.909670  0.515730  0.387950  1.0  -0.2386
  N  N5731  1  0.947040  0.495690  0.370400  1.0  0.0161
  N  N5732  1  0.143240  0.438220  0.481530  1.0  -0.2498
  N  N5733  1  0.122320  0.436520  0.440460  1.0  0.0073
  N  N5734  1  0.161650  0.425720  0.461750  1.0  -0.2596
  N  N5735  1  0.101410  0.438770  0.420110  1.0  0.0032
  N  N5736  1  0.972710  0.481850  0.368560  1.0  0.0045
  N  N5737  1  0.516470  0.972810  0.358460  1.0  -0.2148
  N  N5738  1  0.504520  0.948800  0.370860  1.0  -0.2618
  N  N5739  1  0.565410  0.928070  0.393420  1.0  -0.2764
  N  N5740  1  0.575530  0.955140  0.385910  1.0  -0.2448
  N  N5741  1  0.407990  0.016770  0.358390  1.0  -0.2759
  N  N5742  1  0.409670  0.015730  0.387950  1.0  -0.2386
  N  N5743  1  0.447040  0.995690  0.370400  1.0  0.0161
  N  N5744  1  0.643240  0.938220  0.481530  1.0  -0.2498
  N  N5745  1  0.622320  0.936520  0.440460  1.0  0.0073
  N  N5746  1  0.661650  0.925720  0.461750  1.0  -0.2596
  N  N5747  1  0.601410  0.938770  0.420110  1.0  0.0032
  N  N5748  1  0.472710  0.981850  0.368560  1.0  0.0045
  N  N5749  1  0.516470  0.472810  0.858460  1.0  -0.2148
  N  N5750  1  0.504520  0.448800  0.870860  1.0  -0.2618
  N  N5751  1  0.565410  0.428070  0.893420  1.0  -0.2764
  N  N5752  1  0.575530  0.455140  0.885910  1.0  -0.2448
  N  N5753  1  0.407990  0.516770  0.858390  1.0  -0.2759
  N  N5754  1  0.409670  0.515730  0.887950  1.0  -0.2386
  N  N5755  1  0.447040  0.495690  0.870400  1.0  0.0161
  N  N5756  1  0.643240  0.438220  0.981530  1.0  -0.2498
  N  N5757  1  0.622320  0.436520  0.940460  1.0  0.0073
  N  N5758  1  0.661650  0.425720  0.961750  1.0  -0.2596
  N  N5759  1  0.601410  0.438770  0.920110  1.0  0.0032
  N  N5760  1  0.472710  0.481850  0.868560  1.0  0.0045
