# generated using pymatgen
data_Ba13Fe14H28C44O87
_symmetry_space_group_name_H-M   'P 1'
_cell_length_a   16.62000000
_cell_length_b   30.52600000
_cell_length_c   28.36200000
_cell_angle_alpha   90.00000000
_cell_angle_beta   98.31700000
_cell_angle_gamma   90.00000000
_symmetry_Int_Tables_number   1
_chemical_formula_structural   Ba13Fe14H28C44O87
_chemical_formula_sum   'Ba52 Fe56 H112 C176 O348'
_cell_volume   14237.90436465
_cell_formula_units_Z   4
loop_
 _symmetry_equiv_pos_site_id
 _symmetry_equiv_pos_as_xyz
  1  'x, y, z'
loop_
 _atom_site_type_symbol
 _atom_site_label
 _atom_site_symmetry_multiplicity
 _atom_site_fract_x
 _atom_site_fract_y
 _atom_site_fract_z
 _atom_site_occupancy
 _atom_site_charge
  Ba  Ba1  1  0.594480  0.016390  0.409210  1.0  1.6692
  Ba  Ba2  1  0.739680  0.227040  0.365230  1.0  1.6586
  Ba  Ba3  1  0.253600  0.170750  0.747160  1.0  1.6785
  Ba  Ba4  1  0.922300  0.119160  0.093670  1.0  1.6424
  Ba  Ba5  1  0.588900  0.026110  0.162300  1.0  1.6454
  Ba  Ba6  1  0.607500  0.862900  0.288100  1.0  1.6238
  Ba  Ba7  1  0.397700  0.529130  0.208100  1.0  1.4214
  Ba  Ba8  1  0.202700  0.025320  0.789760  1.0  1.6161
  Ba  Ba9  1  0.141800  0.662660  0.492880  1.0  1.5948
  Ba  Ba10  1  0.111000  0.874200  0.802300  1.0  1.6337
  Ba  Ba11  1  0.771800  0.914500  0.267370  1.0  1.5739
  Ba  Ba12  1  0.608900  0.798570  0.245700  1.0  1.6572
  Ba  Ba13  1  0.930100  0.033000  0.314400  1.0  1.4992
  Ba  Ba14  1  0.790700  0.372100  0.194000  1.0  1.6216
  Ba  Ba15  1  0.790300  0.230700  0.177700  1.0  1.5138
  Ba  Ba16  1  0.779300  0.245000  0.131800  1.0  1.5725
  Ba  Ba17  1  0.831100  0.390200  0.241900  1.0  1.6205
  Ba  Ba18  1  0.687100  0.008900  0.111300  1.0  1.6169
  Ba  Ba19  1  0.943700  0.228900  0.178600  1.0  1.6433
  Ba  Ba20  1  0.873300  0.203900  0.084400  1.0  1.5609
  Ba  Ba21  1  0.332500  0.477500  0.978300  1.0  1.5858
  Ba  Ba22  1  0.898500  0.951600  0.240900  1.0  1.5837
  Ba  Ba23  1  0.013100  0.095400  0.298500  1.0  1.4246
  Ba  Ba24  1  0.310900  0.536000  0.046300  1.0  1.5785
  Ba  Ba25  1  0.218000  0.660400  0.340000  1.0  1.5728
  Ba  Ba26  1  0.634500  0.053200  0.566100  1.0  1.6444
  Ba  Ba27  1  0.405520  0.516390  0.590790  1.0  1.6687
  Ba  Ba28  1  0.260320  0.727040  0.634770  1.0  1.6603
  Ba  Ba29  1  0.746400  0.670750  0.252840  1.0  1.6783
  Ba  Ba30  1  0.077700  0.619160  0.906330  1.0  1.6433
  Ba  Ba31  1  0.411100  0.526110  0.837700  1.0  1.6422
  Ba  Ba32  1  0.392500  0.362900  0.711900  1.0  1.6248
  Ba  Ba33  1  0.602300  0.029130  0.791900  1.0  1.4219
  Ba  Ba34  1  0.797300  0.525320  0.210240  1.0  1.6161
  Ba  Ba35  1  0.858200  0.162660  0.507120  1.0  1.595
  Ba  Ba36  1  0.889000  0.374200  0.197700  1.0  1.6323
  Ba  Ba37  1  0.228200  0.414500  0.732630  1.0  1.5747
  Ba  Ba38  1  0.391100  0.298570  0.754300  1.0  1.6567
  Ba  Ba39  1  0.069900  0.533000  0.685600  1.0  1.4991
  Ba  Ba40  1  0.209300  0.872100  0.806000  1.0  1.6179
  Ba  Ba41  1  0.209700  0.730700  0.822300  1.0  1.5171
  Ba  Ba42  1  0.220700  0.745000  0.868200  1.0  1.5779
  Ba  Ba43  1  0.168900  0.890200  0.758100  1.0  1.6202
  Ba  Ba44  1  0.312900  0.508900  0.888700  1.0  1.6155
  Ba  Ba45  1  0.056300  0.728900  0.821400  1.0  1.6414
  Ba  Ba46  1  0.126700  0.703900  0.915600  1.0  1.5585
  Ba  Ba47  1  0.667500  0.977500  0.021700  1.0  1.586
  Ba  Ba48  1  0.101500  0.451600  0.759100  1.0  1.5863
  Ba  Ba49  1  0.986900  0.595400  0.701500  1.0  1.4239
  Ba  Ba50  1  0.689100  0.036000  0.953700  1.0  1.5789
  Ba  Ba51  1  0.782000  0.160400  0.660000  1.0  1.5753
  Ba  Ba52  1  0.365500  0.553200  0.433900  1.0  1.6431
  Fe  Fe53  1  0.345000  0.369260  0.049820  1.0  1.01
  Fe  Fe54  1  0.230100  0.211860  0.912670  1.0  1.1169
  Fe  Fe55  1  0.305200  0.887560  0.408250  1.0  0.8742
  Fe  Fe56  1  0.125500  0.876460  0.409250  1.0  1.0106
  Fe  Fe57  1  0.247100  0.823390  0.496550  1.0  1.0927
  Fe  Fe58  1  0.230600  0.941400  0.506670  1.0  0.6406
  Fe  Fe59  1  0.166500  0.053790  0.523550  1.0  1.0107
  Fe  Fe60  1  0.340300  0.035530  0.562580  1.0  0.9892
  Fe  Fe61  1  0.200200  0.987650  0.622120  1.0  1.0984
  Fe  Fe62  1  0.375800  0.214100  0.509450  1.0  0.9553
  Fe  Fe63  1  0.204700  0.240950  0.512180  1.0  1.048
  Fe  Fe64  1  0.347500  0.303900  0.577020  1.0  1.0781
  Fe  Fe65  1  0.321300  0.315530  0.446820  1.0  0.7095
  Fe  Fe66  1  0.241200  0.342700  0.323610  1.0  1.0273
  Fe  Fe67  1  0.423100  0.344600  0.343860  1.0  0.9891
  Fe  Fe68  1  0.329300  0.424750  0.396450  1.0  1.0893
  Fe  Fe69  1  0.385200  0.299790  0.144960  1.0  1.0316
  Fe  Fe70  1  0.213200  0.330330  0.119490  1.0  1.0397
  Fe  Fe71  1  0.282300  0.254360  0.034060  1.0  0.7012
  Fe  Fe72  1  0.172100  0.151970  0.005120  1.0  1.0024
  Fe  Fe73  1  0.347300  0.148480  0.993500  1.0  1.012
  Fe  Fe74  1  0.130600  0.964660  0.015860  1.0  1.0192
  Fe  Fe75  1  0.309300  0.969630  0.048040  1.0  1.0821
  Fe  Fe76  1  0.242600  0.886270  0.972880  1.0  1.1011
  Fe  Fe77  1  0.214900  0.877590  0.097730  1.0  0.6905
  Fe  Fe78  1  0.302300  0.834770  0.213480  1.0  0.9978
  Fe  Fe79  1  0.128200  0.859710  0.207350  1.0  1.0569
  Fe  Fe80  1  0.173500  0.769490  0.144150  1.0  1.1457
  Fe  Fe81  1  0.655000  0.869260  0.950180  1.0  1.0121
  Fe  Fe82  1  0.769900  0.711860  0.087330  1.0  1.12
  Fe  Fe83  1  0.694800  0.387560  0.591750  1.0  0.877
  Fe  Fe84  1  0.874500  0.376460  0.590750  1.0  1.015
  Fe  Fe85  1  0.752900  0.323390  0.503450  1.0  1.0953
  Fe  Fe86  1  0.769400  0.441400  0.493330  1.0  0.6388
  Fe  Fe87  1  0.833500  0.553790  0.476450  1.0  1.0055
  Fe  Fe88  1  0.659700  0.535530  0.437420  1.0  0.9864
  Fe  Fe89  1  0.799800  0.487650  0.377880  1.0  1.0994
  Fe  Fe90  1  0.624200  0.714100  0.490550  1.0  0.9537
  Fe  Fe91  1  0.795300  0.740950  0.487820  1.0  1.0507
  Fe  Fe92  1  0.652500  0.803900  0.422980  1.0  1.0786
  Fe  Fe93  1  0.678700  0.815530  0.553180  1.0  0.7072
  Fe  Fe94  1  0.758800  0.842700  0.676390  1.0  1.0266
  Fe  Fe95  1  0.576900  0.844600  0.656140  1.0  0.9853
  Fe  Fe96  1  0.670700  0.924750  0.603550  1.0  1.0896
  Fe  Fe97  1  0.614800  0.799790  0.855040  1.0  1.0312
  Fe  Fe98  1  0.786800  0.830330  0.880510  1.0  1.0418
  Fe  Fe99  1  0.717700  0.754360  0.965940  1.0  0.7013
  Fe  Fe100  1  0.827900  0.651970  0.994880  1.0  1.0052
  Fe  Fe101  1  0.652700  0.648480  0.006500  1.0  1.0077
  Fe  Fe102  1  0.869400  0.464660  0.984140  1.0  1.0231
  Fe  Fe103  1  0.690700  0.469630  0.951960  1.0  1.0869
  Fe  Fe104  1  0.757400  0.386270  0.027120  1.0  1.0991
  Fe  Fe105  1  0.785100  0.377590  0.902270  1.0  0.6908
  Fe  Fe106  1  0.697700  0.334770  0.786520  1.0  0.9937
  Fe  Fe107  1  0.871800  0.359710  0.792650  1.0  1.0538
  Fe  Fe108  1  0.826500  0.269490  0.855850  1.0  1.1466
  H  H109  1  0.140200  0.954900  0.137900  1.0  0.1234
  H  H110  1  0.043900  0.960500  0.476800  1.0  0.1152
  H  H111  1  0.260100  0.390700  0.511100  1.0  0.1232
  H  H112  1  0.155500  0.988400  0.417900  1.0  0.1154
  H  H113  1  0.378500  0.425800  0.137100  1.0  0.0775
  H  H114  1  0.293500  0.893000  0.600100  1.0  0.1356
  H  H115  1  0.129100  0.883200  0.563300  1.0  0.1275
  H  H116  1  0.431600  0.388800  0.501400  1.0  0.0996
  H  H117  1  0.978100  0.025600  0.579900  1.0  0.0638
  H  H118  1  0.422800  0.971900  0.671600  1.0  0.0351
  H  H119  1  0.208600  0.083200  0.652900  1.0  0.0868
  H  H120  1  0.337400  0.116200  0.480100  1.0  0.1194
  H  H121  1  0.203500  0.138100  0.465000  1.0  0.1163
  H  H122  1  0.098700  0.434800  0.349000  1.0  0.0655
  H  H123  1  0.568600  0.415600  0.422300  1.0  0.0768
  H  H124  1  0.370100  0.275200  0.252200  1.0  0.1142
  H  H125  1  0.213800  0.319500  0.956700  1.0  0.1162
  H  H126  1  0.373000  0.288500  0.956400  1.0  0.1251
  H  H127  1  0.002600  0.204800  0.911400  1.0  0.0445
  H  H128  1  0.469800  0.201300  0.902000  1.0  0.1575
  H  H129  1  0.314600  0.070500  0.075300  1.0  0.1176
  H  H130  1  0.170000  0.065800  0.067300  1.0  0.1128
  H  H131  1  0.308600  0.939600  0.172100  1.0  0.1204
  H  H132  1  0.408200  0.884000  0.126100  1.0  0.119
  H  H133  1  0.126400  0.813400  0.022300  1.0  0.1099
  H  H134  1  0.294200  0.795600  0.056200  1.0  0.1209
  H  H135  1  0.946300  0.787200  0.151000  1.0  0.0539
  H  H136  1  0.391000  0.733300  0.169200  1.0  0.0429
  H  H137  1  0.291300  0.911800  0.302200  1.0  0.1245
  H  H138  1  0.148700  0.919400  0.301900  1.0  0.1081
  H  H139  1  0.211700  0.726200  0.254800  1.0  0.1056
  H  H140  1  0.202100  0.120700  0.884100  1.0  0.0863
  H  H141  1  0.391100  0.448000  0.308100  1.0  0.0636
  H  H142  1  0.028500  0.894800  0.092100  1.0  0.1138
  H  H143  1  0.475300  0.899400  0.001400  1.0  0.0879
  H  H144  1  0.009700  0.883300  0.933000  1.0  0.0488
  H  H145  1  0.228600  0.965600  0.909900  1.0  0.0733
  H  H146  1  0.471400  0.230000  0.061700  1.0  0.1224
  H  H147  1  0.358300  0.182200  0.107900  1.0  0.1211
  H  H148  1  0.199300  0.217700  0.114000  1.0  0.1181
  H  H149  1  0.096500  0.256100  0.037600  1.0  0.1174
  H  H150  1  0.109100  0.411300  0.025600  1.0  0.0979
  H  H151  1  0.562100  0.338900  0.085500  1.0  0.0779
  H  H152  1  0.228500  0.284800  0.231500  1.0  0.1191
  H  H153  1  0.505100  0.277300  0.448000  1.0  0.1149
  H  H154  1  0.368200  0.245800  0.385500  1.0  0.1076
  H  H155  1  0.215500  0.247100  0.392200  1.0  0.11
  H  H156  1  0.127500  0.318200  0.422100  1.0  0.1165
  H  H157  1  0.126300  0.330000  0.584900  1.0  0.0435
  H  H158  1  0.571000  0.261400  0.590500  1.0  0.0919
  H  H159  1  0.316300  0.220400  0.629500  1.0  0.0832
  H  H160  1  0.423900  0.943600  0.500300  1.0  0.1162
  H  H161  1  0.312900  0.000700  0.444600  1.0  0.1151
  H  H162  1  0.011800  0.804500  0.486000  1.0  0.0485
  H  H163  1  0.476100  0.834500  0.491100  1.0  0.0723
  H  H164  1  0.243300  0.766000  0.404000  1.0  0.0864
  H  H165  1  0.859800  0.454900  0.862100  1.0  0.1249
  H  H166  1  0.956100  0.460500  0.523200  1.0  0.1149
  H  H167  1  0.739900  0.890700  0.488900  1.0  0.1238
  H  H168  1  0.844500  0.488400  0.582100  1.0  0.1156
  H  H169  1  0.621500  0.925800  0.862900  1.0  0.077
  H  H170  1  0.706500  0.393000  0.399900  1.0  0.1354
  H  H171  1  0.870900  0.383200  0.436700  1.0  0.1274
  H  H172  1  0.568400  0.888800  0.498600  1.0  0.0992
  H  H173  1  0.021900  0.525600  0.420100  1.0  0.064
  H  H174  1  0.577200  0.471900  0.328400  1.0  0.034
  H  H175  1  0.791400  0.583200  0.347100  1.0  0.0856
  H  H176  1  0.662600  0.616200  0.519900  1.0  0.1201
  H  H177  1  0.796500  0.638100  0.535000  1.0  0.1169
  H  H178  1  0.901300  0.934800  0.651000  1.0  0.0653
  H  H179  1  0.431400  0.915600  0.577700  1.0  0.0758
  H  H180  1  0.629900  0.775200  0.747800  1.0  0.1137
  H  H181  1  0.786200  0.819500  0.043300  1.0  0.1158
  H  H182  1  0.627000  0.788500  0.043600  1.0  0.1252
  H  H183  1  0.997400  0.704800  0.088600  1.0  0.0445
  H  H184  1  0.530200  0.701300  0.098000  1.0  0.1584
  H  H185  1  0.685400  0.570500  0.924700  1.0  0.1164
  H  H186  1  0.830000  0.565800  0.932700  1.0  0.1119
  H  H187  1  0.691400  0.439600  0.827900  1.0  0.1199
  H  H188  1  0.591800  0.384000  0.873900  1.0  0.1192
  H  H189  1  0.873600  0.313400  0.977700  1.0  0.11
  H  H190  1  0.705800  0.295600  0.943800  1.0  0.121
  H  H191  1  0.053700  0.287200  0.849000  1.0  0.0532
  H  H192  1  0.609000  0.233300  0.830800  1.0  0.0416
  H  H193  1  0.708700  0.411800  0.697800  1.0  0.124
  H  H194  1  0.851300  0.419400  0.698100  1.0  0.1084
  H  H195  1  0.788300  0.226200  0.745200  1.0  0.1047
  H  H196  1  0.797900  0.620700  0.115900  1.0  0.0869
  H  H197  1  0.608900  0.948000  0.691900  1.0  0.063
  H  H198  1  0.971500  0.394800  0.907900  1.0  0.1151
  H  H199  1  0.524700  0.399400  0.998600  1.0  0.0867
  H  H200  1  0.990300  0.383300  0.067000  1.0  0.0494
  H  H201  1  0.771400  0.465600  0.090100  1.0  0.0738
  H  H202  1  0.528600  0.730000  0.938300  1.0  0.122
  H  H203  1  0.641700  0.682200  0.892100  1.0  0.1218
  H  H204  1  0.800700  0.717700  0.886000  1.0  0.1179
  H  H205  1  0.903500  0.756100  0.962400  1.0  0.1176
  H  H206  1  0.890900  0.911300  0.974400  1.0  0.0977
  H  H207  1  0.437900  0.838900  0.914500  1.0  0.0758
  H  H208  1  0.771500  0.784800  0.768500  1.0  0.12
  H  H209  1  0.494900  0.777300  0.552000  1.0  0.1142
  H  H210  1  0.631800  0.745800  0.614500  1.0  0.1089
  H  H211  1  0.784500  0.747100  0.607800  1.0  0.1098
  H  H212  1  0.872500  0.818200  0.577900  1.0  0.1161
  H  H213  1  0.873700  0.830000  0.415100  1.0  0.0419
  H  H214  1  0.429000  0.761400  0.409500  1.0  0.0917
  H  H215  1  0.683700  0.720400  0.370500  1.0  0.0822
  H  H216  1  0.576100  0.443600  0.499700  1.0  0.1155
  H  H217  1  0.687100  0.500700  0.555400  1.0  0.1138
  H  H218  1  0.988200  0.304500  0.514000  1.0  0.0484
  H  H219  1  0.523900  0.334500  0.508900  1.0  0.0709
  H  H220  1  0.756700  0.266000  0.596000  1.0  0.0862
  C  C221  1  0.103700  0.930200  0.141000  1.0  0.0442
  C  C222  1  0.071700  0.954800  0.449300  1.0  0.0516
  C  C223  1  0.300500  0.845800  0.314000  1.0  0.6069
  C  C224  1  0.006500  0.943500  0.408300  1.0  0.6457
  C  C225  1  0.305900  0.400100  0.495300  1.0  0.0371
  C  C226  1  0.122700  0.995000  0.443100  1.0  0.0842
  C  C227  1  0.128600  0.853900  0.310600  1.0  0.5965
  C  C228  1  0.081700  0.039000  0.431000  1.0  0.6798
  C  C229  1  0.371000  0.445500  0.111800  1.0  0.577
  C  C230  1  0.251900  0.875300  0.580800  1.0  0.0591
  C  C231  1  0.309100  0.449400  0.489600  1.0  0.6524
  C  C232  1  0.172000  0.897900  0.585000  1.0  0.0662
  C  C233  1  0.386000  0.379900  0.517600  1.0  0.0901
  C  C234  1  0.268400  0.828700  0.597700  1.0  0.6857
  C  C235  1  0.148700  0.896700  0.634700  1.0  0.6231
  C  C236  1  0.033700  0.023600  0.579200  1.0  0.7539
  C  C237  1  0.380700  0.984600  0.650900  1.0  0.6748
  C  C238  1  0.210000  0.067500  0.681100  1.0  0.529
  C  C239  1  0.304400  0.114800  0.506000  1.0  0.052
  C  C240  1  0.361200  0.126000  0.551000  1.0  0.6691
  C  C241  1  0.237300  0.148600  0.494000  1.0  0.0466
  C  C242  1  0.182400  0.149700  0.532500  1.0  0.6997
  C  C243  1  0.399500  0.391600  0.570400  1.0  0.7032
  C  C244  1  0.148900  0.420900  0.352200  1.0  0.5904
  C  C245  1  0.517100  0.409800  0.405900  1.0  0.5459
  C  C246  1  0.345400  0.304000  0.255400  1.0  0.0238
  C  C247  1  0.404600  0.337600  0.240800  1.0  0.6251
  C  C248  1  0.250300  0.298000  0.945200  1.0  0.0727
  C  C249  1  0.235000  0.299700  0.891300  1.0  0.613
  C  C250  1  0.336200  0.311600  0.964400  1.0  0.0435
  C  C251  1  0.371000  0.355200  0.952100  1.0  0.5574
  C  C252  1  0.056000  0.198600  0.924100  1.0  0.6829
  C  C253  1  0.423000  0.194000  0.914400  1.0  0.5177
  C  C254  1  0.280200  0.076000  0.044700  1.0  0.059
  C  C255  1  0.201100  0.051800  0.044600  1.0  0.0778
  C  C256  1  0.340000  0.935200  0.145800  1.0  0.0417
  C  C257  1  0.390600  0.976300  0.143100  1.0  0.6683
  C  C258  1  0.378100  0.889700  0.152800  1.0  0.0661
  C  C259  1  0.168200  0.799200  0.045200  1.0  0.092
  C  C260  1  0.252100  0.809400  0.033200  1.0  0.094
  C  C261  1  0.257000  0.792900  0.982900  1.0  0.4873
  C  C262  1  0.156000  0.750000  0.044300  1.0  0.6811
  C  C263  1  0.001000  0.794200  0.157000  1.0  0.7065
  C  C264  1  0.351000  0.754400  0.170600  1.0  0.6682
  C  C265  1  0.254700  0.886800  0.295100  1.0  0.0091
  C  C266  1  0.179300  0.895200  0.318600  1.0  -0.0679
  C  C267  1  0.206000  0.705000  0.230900  1.0  0.5483
  C  C268  1  0.214000  0.133200  0.856100  1.0  0.5212
  C  C269  1  0.377000  0.474800  0.320000  1.0  0.6209
  C  C270  1  0.058700  0.922300  0.091100  1.0  0.0606
  C  C271  1  0.997800  0.957100  0.070900  1.0  0.4678
  C  C272  1  0.056200  0.942900  0.180700  1.0  0.6579
  C  C273  1  0.437100  0.885700  0.198600  1.0  0.6853
  C  C274  1  0.422000  0.907100  0.003000  1.0  0.6509
  C  C275  1  0.057400  0.894800  0.949600  1.0  0.6721
  C  C276  1  0.218000  0.942400  0.888800  1.0  0.5997
  C  C277  1  0.323700  0.058600  0.005100  1.0  0.5915
  C  C278  1  0.151500  0.053300  0.995000  1.0  0.5406
  C  C279  1  0.436100  0.204400  0.063000  1.0  0.0427
  C  C280  1  0.395500  0.207100  0.107200  1.0  -0.0154
  C  C281  1  0.447300  0.212000  0.155700  1.0  0.6486
  C  C282  1  0.105000  0.177000  0.086500  1.0  0.6528
  C  C283  1  0.162400  0.215200  0.083900  1.0  0.0329
  C  C284  1  0.125800  0.259600  0.069900  1.0  0.0156
  C  C285  1  0.063600  0.276100  0.100100  1.0  0.4699
  C  C286  1  0.153000  0.395900  0.041800  1.0  0.4639
  C  C287  1  0.508000  0.337900  0.089700  1.0  0.6763
  C  C288  1  0.267200  0.305000  0.220000  1.0  0.0344
  C  C289  1  0.231400  0.350700  0.219500  1.0  0.6308
  C  C290  1  0.472700  0.276800  0.416300  1.0  0.0534
  C  C291  1  0.528800  0.273100  0.378800  1.0  0.6628
  C  C292  1  0.405500  0.242800  0.415400  1.0  0.0809
  C  C293  1  0.437200  0.196200  0.419600  1.0  0.5723
  C  C294  1  0.136200  0.270800  0.337500  1.0  0.6784
  C  C295  1  0.190600  0.275900  0.384700  1.0  0.0592
  C  C296  1  0.149200  0.288500  0.427300  1.0  0.0668
  C  C297  1  0.080600  0.258800  0.437700  1.0  0.7123
  C  C298  1  0.165800  0.314200  0.572100  1.0  0.6826
  C  C299  1  0.516000  0.260100  0.578400  1.0  0.5644
  C  C300  1  0.319000  0.242100  0.652600  1.0  0.2843
  C  C301  1  0.396500  0.972100  0.496100  1.0  0.0578
  C  C302  1  0.344000  0.973300  0.447600  1.0  0.0862
  C  C303  1  0.385400  0.967600  0.403700  1.0  0.7116
  C  C304  1  0.459600  0.008400  0.505300  1.0  0.6596
  C  C305  1  0.056900  0.817800  0.476100  1.0  0.688
  C  C306  1  0.421300  0.838600  0.479800  1.0  0.5581
  C  C307  1  0.230000  0.747700  0.427800  1.0  0.5964
  C  C308  1  0.485700  0.163000  0.060200  1.0  0.5854
  C  C309  1  0.896300  0.430200  0.859000  1.0  0.0432
  C  C310  1  0.928300  0.454800  0.550700  1.0  0.0513
  C  C311  1  0.699500  0.345800  0.686000  1.0  0.6073
  C  C312  1  0.993500  0.443500  0.591700  1.0  0.6458
  C  C313  1  0.694100  0.900100  0.504700  1.0  0.0368
  C  C314  1  0.877300  0.495000  0.556900  1.0  0.0851
  C  C315  1  0.871400  0.353900  0.689400  1.0  0.5951
  C  C316  1  0.918300  0.539000  0.569000  1.0  0.678
  C  C317  1  0.629000  0.945500  0.888200  1.0  0.5782
  C  C318  1  0.748100  0.375300  0.419200  1.0  0.0588
  C  C319  1  0.690900  0.949400  0.510400  1.0  0.6506
  C  C320  1  0.828000  0.397900  0.415000  1.0  0.0665
  C  C321  1  0.614000  0.879900  0.482400  1.0  0.0908
  C  C322  1  0.731600  0.328700  0.402300  1.0  0.6837
  C  C323  1  0.851300  0.396700  0.365300  1.0  0.6232
  C  C324  1  0.966300  0.523600  0.420800  1.0  0.7551
  C  C325  1  0.619300  0.484600  0.349100  1.0  0.676
  C  C326  1  0.790000  0.567500  0.318900  1.0  0.5272
  C  C327  1  0.695600  0.614800  0.494000  1.0  0.0493
  C  C328  1  0.638800  0.626000  0.449000  1.0  0.6729
  C  C329  1  0.762700  0.648600  0.506000  1.0  0.045
  C  C330  1  0.817600  0.649700  0.467500  1.0  0.6993
  C  C331  1  0.600500  0.891600  0.429600  1.0  0.699
  C  C332  1  0.851100  0.920900  0.647800  1.0  0.5914
  C  C333  1  0.482900  0.909800  0.594100  1.0  0.5461
  C  C334  1  0.654600  0.804000  0.744600  1.0  0.0231
  C  C335  1  0.595400  0.837600  0.759200  1.0  0.625
  C  C336  1  0.749700  0.798000  0.054800  1.0  0.0721
  C  C337  1  0.765000  0.799700  0.108700  1.0  0.6117
  C  C338  1  0.663800  0.811600  0.035600  1.0  0.0436
  C  C339  1  0.629000  0.855200  0.047900  1.0  0.5572
  C  C340  1  0.944000  0.698600  0.075900  1.0  0.6805
  C  C341  1  0.577000  0.694000  0.085600  1.0  0.5179
  C  C342  1  0.719800  0.576000  0.955300  1.0  0.0598
  C  C343  1  0.798900  0.551800  0.955400  1.0  0.0772
  C  C344  1  0.660000  0.435200  0.854200  1.0  0.0424
  C  C345  1  0.609400  0.476300  0.856900  1.0  0.6693
  C  C346  1  0.621900  0.389700  0.847200  1.0  0.0685
  C  C347  1  0.831800  0.299200  0.954800  1.0  0.0931
  C  C348  1  0.747900  0.309400  0.966800  1.0  0.0959
  C  C349  1  0.743000  0.292900  0.017100  1.0  0.4882
  C  C350  1  0.844000  0.250000  0.955700  1.0  0.6804
  C  C351  1  0.999000  0.294200  0.843000  1.0  0.7071
  C  C352  1  0.649000  0.254400  0.829400  1.0  0.6677
  C  C353  1  0.745300  0.386800  0.704900  1.0  0.0098
  C  C354  1  0.820700  0.395200  0.681400  1.0  -0.0683
  C  C355  1  0.794000  0.205000  0.769100  1.0  0.5469
  C  C356  1  0.786000  0.633200  0.143900  1.0  0.5202
  C  C357  1  0.623000  0.974800  0.680000  1.0  0.6183
  C  C358  1  0.941300  0.422300  0.908900  1.0  0.0616
  C  C359  1  0.002200  0.457100  0.929100  1.0  0.4666
  C  C360  1  0.943800  0.442900  0.819300  1.0  0.6573
  C  C361  1  0.562900  0.385700  0.801400  1.0  0.6855
  C  C362  1  0.578000  0.407100  0.997000  1.0  0.6497
  C  C363  1  0.942600  0.394800  0.050400  1.0  0.6714
  C  C364  1  0.782000  0.442400  0.111200  1.0  0.6
  C  C365  1  0.676300  0.558600  0.994900  1.0  0.593
  C  C366  1  0.848500  0.553300  0.005000  1.0  0.5415
  C  C367  1  0.563900  0.704400  0.937000  1.0  0.0437
  C  C368  1  0.604500  0.707100  0.892800  1.0  -0.0152
  C  C369  1  0.552700  0.712000  0.844300  1.0  0.6472
  C  C370  1  0.895000  0.677000  0.913500  1.0  0.6499
  C  C371  1  0.837600  0.715200  0.916100  1.0  0.0315
  C  C372  1  0.874200  0.759600  0.930100  1.0  0.0124
  C  C373  1  0.936400  0.776100  0.899900  1.0  0.4692
  C  C374  1  0.847000  0.895900  0.958200  1.0  0.4642
  C  C375  1  0.492000  0.837900  0.910300  1.0  0.6771
  C  C376  1  0.732800  0.805000  0.780000  1.0  0.0346
  C  C377  1  0.768600  0.850700  0.780500  1.0  0.6273
  C  C378  1  0.527300  0.776800  0.583700  1.0  0.0542
  C  C379  1  0.471200  0.773100  0.621200  1.0  0.6627
  C  C380  1  0.594500  0.742800  0.584600  1.0  0.0824
  C  C381  1  0.562800  0.696200  0.580400  1.0  0.5708
  C  C382  1  0.863800  0.770800  0.662500  1.0  0.6777
  C  C383  1  0.809400  0.775900  0.615300  1.0  0.0608
  C  C384  1  0.850800  0.788500  0.572700  1.0  0.0661
  C  C385  1  0.919400  0.758800  0.562300  1.0  0.7154
  C  C386  1  0.834200  0.814200  0.427900  1.0  0.683
  C  C387  1  0.484000  0.760100  0.421600  1.0  0.563
  C  C388  1  0.681000  0.742100  0.347400  1.0  0.2847
  C  C389  1  0.603500  0.472100  0.503900  1.0  0.0583
  C  C390  1  0.656000  0.473300  0.552400  1.0  0.0867
  C  C391  1  0.614600  0.467600  0.596300  1.0  0.7136
  C  C392  1  0.540400  0.508400  0.494700  1.0  0.6613
  C  C393  1  0.943100  0.317800  0.523900  1.0  0.6866
  C  C394  1  0.578700  0.338600  0.520200  1.0  0.559
  C  C395  1  0.770000  0.247700  0.572200  1.0  0.5959
  C  C396  1  0.514300  0.663000  0.939800  1.0  0.5832
  O  O397  1  0.587000  0.939000  0.137100  1.0  -0.6203
  O  O398  1  0.356100  0.431700  0.069700  1.0  -0.617
  O  O399  1  0.376000  0.486900  0.119800  1.0  -0.6263
  O  O400  1  0.211800  0.087700  0.720900  1.0  -0.6777
  O  O401  1  0.208700  0.025800  0.680500  1.0  -0.6175
  O  O402  1  0.177000  0.714500  0.186600  1.0  -0.6156
  O  O403  1  0.227000  0.665000  0.239400  1.0  -0.66
  O  O404  1  0.227200  0.175200  0.852900  1.0  -0.6689
  O  O405  1  0.219000  0.110000  0.819000  1.0  -0.7201
  O  O406  1  0.219800  0.903500  0.904600  1.0  -0.6392
  O  O407  1  0.200100  0.949900  0.844000  1.0  -0.6758
  O  O408  1  0.227600  0.762300  0.470000  1.0  -0.6102
  O  O409  1  0.212000  0.707200  0.419100  1.0  -0.694
  O  O410  1  0.558900  0.161100  0.086000  1.0  -0.4877
  O  O411  1  0.224900  0.852700  0.439500  1.0  -0.9077
  O  O412  1  0.266900  0.881000  0.532200  1.0  -0.6773
  O  O413  1  0.125300  0.920100  0.462100  1.0  -0.6987
  O  O414  1  0.031600  0.914700  0.382000  1.0  -0.5958
  O  O415  1  0.942800  0.963000  0.400600  1.0  -0.5316
  O  O416  1  0.176800  0.999800  0.485800  1.0  -0.7074
  O  O417  1  0.234100  0.029300  0.578500  1.0  -0.8962
  O  O418  1  0.180200  0.943000  0.567600  1.0  -0.7288
  O  O419  1  0.262200  0.799000  0.564300  1.0  -0.6485
  O  O420  1  0.277300  0.819400  0.639500  1.0  -0.5852
  O  O421  1  0.167400  0.935400  0.657400  1.0  -0.6731
  O  O422  1  0.119600  0.867800  0.652400  1.0  -0.5797
  O  O423  1  0.074600  0.003800  0.612500  1.0  -0.6062
  O  O424  1  0.059500  0.040700  0.545800  1.0  -0.6192
  O  O425  1  0.316600  0.967600  0.650000  1.0  -0.5915
  O  O426  1  0.401500  0.018000  0.627500  1.0  -0.6092
  O  O427  1  0.277100  0.070900  0.507100  1.0  -0.6718
  O  O428  1  0.367800  0.098300  0.586300  1.0  -0.5524
  O  O429  1  0.388700  0.164300  0.558200  1.0  -0.595
  O  O430  1  0.312600  0.251300  0.544000  1.0  -0.8747
  O  O431  1  0.371800  0.333400  0.515100  1.0  -0.6521
  O  O432  1  0.256500  0.305900  0.382200  1.0  -0.682
  O  O433  1  0.333100  0.378300  0.352600  1.0  -0.895
  O  O434  1  0.301700  0.381300  0.445400  1.0  -0.7852
  O  O435  1  0.321600  0.465600  0.450300  1.0  -0.6533
  O  O436  1  0.294200  0.470100  0.523800  1.0  -0.5746
  O  O437  1  0.386500  0.363100  0.601600  1.0  -0.6724
  O  O438  1  0.427200  0.428000  0.583400  1.0  -0.6233
  O  O439  1  0.357300  0.476400  0.358900  1.0  -0.5927
  O  O440  1  0.378000  0.509400  0.294500  1.0  -0.7374
  O  O441  1  0.209700  0.443000  0.372500  1.0  -0.608
  O  O442  1  0.149600  0.383500  0.336600  1.0  -0.5844
  O  O443  1  0.453600  0.422300  0.425400  1.0  -0.5817
  O  O444  1  0.512300  0.390300  0.366000  1.0  -0.5986
  O  O445  1  0.336400  0.308400  0.302300  1.0  -0.677
  O  O446  1  0.441400  0.361800  0.275300  1.0  -0.5568
  O  O447  1  0.423500  0.339500  0.202300  1.0  -0.5607
  O  O448  1  0.318400  0.342700  0.107300  1.0  -0.9339
  O  O449  1  0.335200  0.310400  0.016800  1.0  -0.7337
  O  O450  1  0.210000  0.203600  0.044500  1.0  -0.7621
  O  O451  1  0.246700  0.166700  0.960700  1.0  -0.9134
  O  O452  1  0.234600  0.257700  0.964900  1.0  -0.7101
  O  O453  1  0.223300  0.264600  0.871800  1.0  -0.5483
  O  O454  1  0.216300  0.339500  0.871700  1.0  -0.5331
  O  O455  1  0.369300  0.386700  0.985900  1.0  -0.6309
  O  O456  1  0.396300  0.363100  0.912000  1.0  -0.5289
  O  O457  1  0.107500  0.209900  0.902100  1.0  -0.6024
  O  O458  1  0.068700  0.177900  0.965100  1.0  -0.6141
  O  O459  1  0.361800  0.216700  0.908600  1.0  -0.6192
  O  O460  1  0.416000  0.157700  0.939900  1.0  -0.5824
  O  O461  1  0.273300  0.122700  0.037900  1.0  -0.6532
  O  O462  1  0.211500  0.007800  0.056100  1.0  -0.6649
  O  O463  1  0.228100  0.940400  0.001000  1.0  -0.8961
  O  O464  1  0.256000  0.856300  0.037600  1.0  -0.672
  O  O465  1  0.279400  0.933500  0.101000  1.0  -0.7907
  O  O466  1  0.392700  0.993800  0.101500  1.0  -0.6022
  O  O467  1  0.439900  0.984700  0.178300  1.0  -0.6046
  O  O468  1  0.311400  0.859300  0.149400  1.0  -0.6867
  O  O469  1  0.198800  0.812500  0.191600  1.0  -0.9206
  O  O470  1  0.166100  0.816100  0.092500  1.0  -0.67
  O  O471  1  0.252300  0.822600  0.951400  1.0  -0.6177
  O  O472  1  0.275000  0.758000  0.981200  1.0  -0.5519
  O  O473  1  0.148200  0.732100  0.085000  1.0  -0.5795
  O  O474  1  0.141000  0.731200  0.006000  1.0  -0.6409
  O  O475  1  0.048000  0.768600  0.145500  1.0  -0.5986
  O  O476  1  0.020800  0.830500  0.176700  1.0  -0.6429
  O  O477  1  0.294900  0.752500  0.139500  1.0  -0.579
  O  O478  1  0.364300  0.779600  0.203700  1.0  -0.5757
  O  O479  1  0.235900  0.882800  0.241700  1.0  -0.7487
  O  O480  1  0.198000  0.905900  0.363800  1.0  -0.6851
  O  O481  1  0.101400  0.838300  0.349000  1.0  -0.5682
  O  O482  1  0.103700  0.837300  0.270800  1.0  -0.5916
  O  O483  1  0.322300  0.843800  0.358300  1.0  -0.5775
  O  O484  1  0.320000  0.815300  0.283000  1.0  -0.5519
  O  O485  1  0.154400  0.894200  0.151500  1.0  -0.7117
  O  O486  1  0.120300  0.914900  0.061600  1.0  -0.6733
  O  O487  1  0.031100  0.985200  0.043500  1.0  -0.5676
  O  O488  1  0.933100  0.963300  0.079500  1.0  -0.4062
  O  O489  1  0.060900  0.914200  0.215500  1.0  -0.6448
  O  O490  1  0.012100  0.974500  0.178600  1.0  -0.6103
  O  O491  1  0.407200  0.868200  0.231200  1.0  -0.5831
  O  O492  1  0.507600  0.897100  0.198200  1.0  -0.6173
  O  O493  1  0.366400  0.892700  0.975100  1.0  -0.5859
  O  O494  1  0.403200  0.933300  0.034800  1.0  -0.6328
  O  O495  1  0.117300  0.870300  0.957100  1.0  -0.5877
  O  O496  1  0.056400  0.935800  0.963300  1.0  -0.5845
  O  O497  1  0.340100  0.015600  0.001700  1.0  -0.5855
  O  O498  1  0.348000  0.084500  0.974700  1.0  -0.5694
  O  O499  1  0.119300  0.021400  0.973400  1.0  -0.5603
  O  O500  1  0.130100  0.092800  0.974400  1.0  -0.5985
  O  O501  1  0.368900  0.206300  0.023000  1.0  -0.7577
  O  O502  1  0.344600  0.251100  0.098900  1.0  -0.7914
  O  O503  1  0.446800  0.248200  0.178200  1.0  -0.5937
  O  O504  1  0.472500  0.178600  0.170800  1.0  -0.3564
  O  O505  1  0.449200  0.133100  0.036700  1.0  -0.5542
  O  O506  1  0.103300  0.146500  0.057800  1.0  -0.6037
  O  O507  1  0.051000  0.179900  0.115500  1.0  -0.741
  O  O508  1  0.190000  0.286700  0.066000  1.0  -0.666
  O  O509  1  0.109500  0.305700  0.132900  1.0  -0.5944
  O  O510  1  0.993100  0.265800  0.100700  1.0  -0.6022
  O  O511  1  0.223600  0.386800  0.020900  1.0  -0.6345
  O  O512  1  0.152800  0.381400  0.084900  1.0  -0.5691
  O  O513  1  0.464300  0.366200  0.064000  1.0  -0.6252
  O  O514  1  0.494200  0.309500  0.118800  1.0  -0.602
  O  O515  1  0.275600  0.292300  0.171400  1.0  -0.69
  O  O516  1  0.223100  0.369800  0.258900  1.0  -0.5794
  O  O517  1  0.214000  0.370100  0.178300  1.0  -0.5689
  O  O518  1  0.424100  0.317000  0.409300  1.0  -0.7151
  O  O519  1  0.507100  0.297100  0.341400  1.0  -0.5767
  O  O520  1  0.585400  0.247500  0.384300  1.0  -0.589
  O  O521  1  0.363700  0.254400  0.453800  1.0  -0.694
  O  O522  1  0.433100  0.177500  0.462600  1.0  -0.548
  O  O523  1  0.471900  0.174800  0.390400  1.0  -0.5244
  O  O524  1  0.152400  0.298600  0.305500  1.0  -0.5654
  O  O525  1  0.089300  0.242300  0.330000  1.0  -0.438
  O  O526  1  0.212300  0.289700  0.464700  1.0  -0.6509
  O  O527  1  0.099200  0.229800  0.469600  1.0  -0.5603
  O  O528  1  0.010300  0.264300  0.418100  1.0  -0.5156
  O  O529  1  0.230200  0.332100  0.572900  1.0  -0.595
  O  O530  1  0.143800  0.274800  0.555500  1.0  -0.5727
  O  O531  1  0.466500  0.282300  0.596600  1.0  -0.5791
  O  O532  1  0.489100  0.233100  0.539300  1.0  -0.6147
  O  O533  1  0.335300  0.287000  0.644200  1.0  -0.6701
  O  O534  1  0.310000  0.235400  0.696000  1.0  -0.7433
  O  O535  1  0.262700  0.189700  0.483800  1.0  -0.673
  O  O536  1  0.153600  0.115400  0.548900  1.0  -0.5865
  O  O537  1  0.170100  0.186200  0.552800  1.0  -0.6086
  O  O538  1  0.337500  0.975600  0.530000  1.0  -0.7123
  O  O539  1  0.289800  0.937900  0.449400  1.0  -0.7095
  O  O540  1  0.378800  0.932100  0.383300  1.0  -0.5501
  O  O541  1  0.430500  0.998000  0.392400  1.0  -0.676
  O  O542  1  0.445200  0.039300  0.535300  1.0  -0.6619
  O  O543  1  0.523900  0.005800  0.490100  1.0  -0.6462
  O  O544  1  0.098200  0.070100  0.461900  1.0  -0.5602
  O  O545  1  0.039500  0.043900  0.391600  1.0  -0.7012
  O  O546  1  0.123500  0.819500  0.507300  1.0  -0.6153
  O  O547  1  0.048300  0.832200  0.434800  1.0  -0.5762
  O  O548  1  0.369300  0.813300  0.498500  1.0  -0.5828
  O  O549  1  0.405000  0.866800  0.449100  1.0  -0.5874
  O  O550  1  0.642000  0.097900  0.142200  1.0  -0.5883
  O  O551  1  0.619000  0.958400  0.240900  1.0  -0.717
  O  O552  1  0.698000  0.197200  0.454600  1.0  -0.6249
  O  O553  1  0.667000  0.870400  0.193000  1.0  -0.7827
  O  O554  1  0.527000  0.048400  0.079300  1.0  -0.5343
  O  O555  1  0.903200  0.151000  0.997500  1.0  -0.5833
  O  O556  1  0.490400  0.794800  0.305200  1.0  -0.4802
  O  O557  1  0.129200  0.731200  0.555600  1.0  -0.588
  O  O558  1  0.778000  0.832000  0.279900  1.0  -0.6651
  O  O559  1  0.250000  0.258800  0.782100  1.0  -0.6152
  O  O560  1  0.286000  0.945800  0.756400  1.0  -0.7183
  O  O561  1  0.137900  0.798400  0.760900  1.0  -0.675
  O  O562  1  0.967900  0.809700  0.782200  1.0  -0.6229
  O  O563  1  0.143300  0.800200  0.874600  1.0  -0.67
  O  O564  1  0.277000  0.629300  0.452800  1.0  -0.7818
  O  O565  1  0.706900  0.078600  0.661200  1.0  -0.7145
  O  O566  1  0.666000  0.232800  0.106600  1.0  -0.6736
  O  O567  1  0.830000  0.078800  0.957100  1.0  -0.4756
  O  O568  1  0.805000  0.093900  0.994000  1.0  -0.507
  O  O569  1  0.596000  0.114700  0.175300  1.0  -0.5658
  O  O570  1  0.315100  0.631100  0.396400  1.0  -0.7917
  O  O571  1  0.413000  0.439000  0.862900  1.0  -0.6225
  O  O572  1  0.643900  0.931700  0.930300  1.0  -0.6174
  O  O573  1  0.624000  0.986900  0.880200  1.0  -0.6268
  O  O574  1  0.788200  0.587700  0.279100  1.0  -0.6798
  O  O575  1  0.791300  0.525800  0.319500  1.0  -0.6145
  O  O576  1  0.823000  0.214500  0.813400  1.0  -0.6146
  O  O577  1  0.773000  0.165000  0.760600  1.0  -0.6601
  O  O578  1  0.772800  0.675200  0.147100  1.0  -0.6675
  O  O579  1  0.781000  0.610000  0.181000  1.0  -0.7182
  O  O580  1  0.780200  0.403500  0.095400  1.0  -0.6387
  O  O581  1  0.799900  0.449900  0.156000  1.0  -0.677
  O  O582  1  0.772400  0.262300  0.530000  1.0  -0.6094
  O  O583  1  0.788000  0.207200  0.580900  1.0  -0.6931
  O  O584  1  0.441100  0.661100  0.914000  1.0  -0.4919
  O  O585  1  0.775100  0.352700  0.560500  1.0  -0.9088
  O  O586  1  0.733100  0.381000  0.467800  1.0  -0.6759
  O  O587  1  0.874700  0.420100  0.537900  1.0  -0.6986
  O  O588  1  0.968400  0.414700  0.618000  1.0  -0.5963
  O  O589  1  0.057200  0.463000  0.599400  1.0  -0.5308
  O  O590  1  0.823200  0.499800  0.514200  1.0  -0.7059
  O  O591  1  0.765900  0.529300  0.421500  1.0  -0.8933
  O  O592  1  0.819800  0.443000  0.432400  1.0  -0.7299
  O  O593  1  0.737800  0.299000  0.435700  1.0  -0.648
  O  O594  1  0.722700  0.319400  0.360500  1.0  -0.5874
  O  O595  1  0.832600  0.435400  0.342600  1.0  -0.6706
  O  O596  1  0.880400  0.367800  0.347600  1.0  -0.5784
  O  O597  1  0.925400  0.503800  0.387500  1.0  -0.6092
  O  O598  1  0.940500  0.540700  0.454200  1.0  -0.6184
  O  O599  1  0.683400  0.467600  0.350000  1.0  -0.5933
  O  O600  1  0.598500  0.518000  0.372500  1.0  -0.6112
  O  O601  1  0.722900  0.570900  0.492900  1.0  -0.6714
  O  O602  1  0.632200  0.598300  0.413700  1.0  -0.5525
  O  O603  1  0.611300  0.664300  0.441800  1.0  -0.5933
  O  O604  1  0.687400  0.751300  0.456000  1.0  -0.8734
  O  O605  1  0.628200  0.833400  0.484900  1.0  -0.6524
  O  O606  1  0.743500  0.805900  0.617800  1.0  -0.681
  O  O607  1  0.666900  0.878300  0.647400  1.0  -0.8945
  O  O608  1  0.698300  0.881300  0.554600  1.0  -0.7827
  O  O609  1  0.678400  0.965600  0.549700  1.0  -0.6521
  O  O610  1  0.705800  0.970100  0.476200  1.0  -0.5769
  O  O611  1  0.613500  0.863100  0.398400  1.0  -0.6731
  O  O612  1  0.572800  0.928000  0.416600  1.0  -0.6214
  O  O613  1  0.642700  0.976400  0.641100  1.0  -0.5928
  O  O614  1  0.622000  0.009400  0.705500  1.0  -0.7346
  O  O615  1  0.790300  0.943000  0.627500  1.0  -0.606
  O  O616  1  0.850400  0.883500  0.663400  1.0  -0.5828
  O  O617  1  0.546400  0.922300  0.574600  1.0  -0.581
  O  O618  1  0.487700  0.890300  0.634000  1.0  -0.5992
  O  O619  1  0.663600  0.808400  0.697700  1.0  -0.6799
  O  O620  1  0.558600  0.861800  0.724700  1.0  -0.5582
  O  O621  1  0.576500  0.839500  0.797700  1.0  -0.5629
  O  O622  1  0.681600  0.842700  0.892700  1.0  -0.9331
  O  O623  1  0.664800  0.810400  0.983200  1.0  -0.7324
  O  O624  1  0.790000  0.703600  0.955500  1.0  -0.763
  O  O625  1  0.753300  0.666667  0.039300  1.0  -0.9149
  O  O626  1  0.765400  0.757700  0.035100  1.0  -0.7116
  O  O627  1  0.776700  0.764600  0.128200  1.0  -0.546
  O  O628  1  0.783700  0.839500  0.128300  1.0  -0.5317
  O  O629  1  0.630700  0.886700  0.014100  1.0  -0.6305
  O  O630  1  0.603700  0.863100  0.088000  1.0  -0.529
  O  O631  1  0.892500  0.709900  0.097900  1.0  -0.6016
  O  O632  1  0.931300  0.677900  0.034900  1.0  -0.6142
  O  O633  1  0.638200  0.716700  0.091400  1.0  -0.6188
  O  O634  1  0.584000  0.657700  0.060100  1.0  -0.5825
  O  O635  1  0.726700  0.622700  0.962100  1.0  -0.6536
  O  O636  1  0.788500  0.507800  0.943900  1.0  -0.6638
  O  O637  1  0.771900  0.440400  0.999000  1.0  -0.8972
  O  O638  1  0.744000  0.356300  0.962400  1.0  -0.6713
  O  O639  1  0.720600  0.433500  0.899000  1.0  -0.7911
  O  O640  1  0.607300  0.493800  0.898500  1.0  -0.6039
  O  O641  1  0.560100  0.484700  0.821700  1.0  -0.6039
  O  O642  1  0.688600  0.359300  0.850600  1.0  -0.6861
  O  O643  1  0.801200  0.312500  0.808400  1.0  -0.9203
  O  O644  1  0.833900  0.316100  0.907500  1.0  -0.6708
  O  O645  1  0.747700  0.322600  0.048600  1.0  -0.6223
  O  O646  1  0.725000  0.258000  0.018800  1.0  -0.5519
  O  O647  1  0.851800  0.232100  0.915000  1.0  -0.5799
  O  O648  1  0.859000  0.231200  0.994000  1.0  -0.6387
  O  O649  1  0.952000  0.268600  0.854500  1.0  -0.5994
  O  O650  1  0.979200  0.330500  0.823300  1.0  -0.64
  O  O651  1  0.705100  0.252500  0.860500  1.0  -0.5804
  O  O652  1  0.635700  0.279600  0.796300  1.0  -0.5745
  O  O653  1  0.764100  0.382800  0.758300  1.0  -0.7511
  O  O654  1  0.802000  0.405900  0.636200  1.0  -0.6852
  O  O655  1  0.898600  0.338300  0.651000  1.0  -0.5687
  O  O656  1  0.896300  0.337300  0.729200  1.0  -0.5892
  O  O657  1  0.677700  0.343800  0.641700  1.0  -0.5771
  O  O658  1  0.680000  0.315300  0.717000  1.0  -0.5508
  O  O659  1  0.845600  0.394200  0.848500  1.0  -0.7116
  O  O660  1  0.879700  0.414900  0.938400  1.0  -0.6756
  O  O661  1  0.968900  0.485200  0.956500  1.0  -0.5644
  O  O662  1  0.066900  0.463300  0.920500  1.0  -0.4005
  O  O663  1  0.939100  0.414200  0.784500  1.0  -0.6466
  O  O664  1  0.987900  0.474500  0.821400  1.0  -0.611
  O  O665  1  0.592800  0.368200  0.768800  1.0  -0.5857
  O  O666  1  0.492400  0.397100  0.801800  1.0  -0.6179
  O  O667  1  0.633600  0.392700  0.024900  1.0  -0.5862
  O  O668  1  0.596800  0.433300  0.965200  1.0  -0.6331
  O  O669  1  0.882700  0.370300  0.042900  1.0  -0.5872
  O  O670  1  0.943600  0.435800  0.036700  1.0  -0.5825
  O  O671  1  0.659900  0.515600  0.998300  1.0  -0.5836
  O  O672  1  0.652000  0.584500  0.025300  1.0  -0.5665
  O  O673  1  0.880700  0.521400  0.026600  1.0  -0.5592
  O  O674  1  0.869900  0.592800  0.025600  1.0  -0.5976
  O  O675  1  0.631100  0.706300  0.977000  1.0  -0.7572
  O  O676  1  0.655400  0.751100  0.901100  1.0  -0.7915
  O  O677  1  0.553200  0.748200  0.821800  1.0  -0.5911
  O  O678  1  0.527500  0.678600  0.829200  1.0  -0.3567
  O  O679  1  0.550800  0.633100  0.963300  1.0  -0.5559
  O  O680  1  0.896700  0.646500  0.942200  1.0  -0.6037
  O  O681  1  0.949000  0.679900  0.884500  1.0  -0.735
  O  O682  1  0.810000  0.786700  0.934000  1.0  -0.6642
  O  O683  1  0.890500  0.805700  0.867100  1.0  -0.5933
  O  O684  1  0.006900  0.765800  0.899300  1.0  -0.6015
  O  O685  1  0.776400  0.886800  0.979100  1.0  -0.6352
  O  O686  1  0.847200  0.881400  0.915100  1.0  -0.57
  O  O687  1  0.535700  0.866200  0.936000  1.0  -0.6267
  O  O688  1  0.505800  0.809500  0.881200  1.0  -0.6052
  O  O689  1  0.724400  0.792300  0.828600  1.0  -0.689
  O  O690  1  0.776900  0.869800  0.741100  1.0  -0.5795
  O  O691  1  0.786000  0.870100  0.821700  1.0  -0.5684
  O  O692  1  0.575900  0.817000  0.590700  1.0  -0.7139
  O  O693  1  0.492900  0.797100  0.658600  1.0  -0.5777
  O  O694  1  0.414600  0.747500  0.615700  1.0  -0.589
  O  O695  1  0.636300  0.754400  0.546200  1.0  -0.6942
  O  O696  1  0.566900  0.677500  0.537400  1.0  -0.5469
  O  O697  1  0.528100  0.674800  0.609600  1.0  -0.5264
  O  O698  1  0.847600  0.798600  0.694500  1.0  -0.5677
  O  O699  1  0.910700  0.742300  0.670000  1.0  -0.4379
  O  O700  1  0.787700  0.789700  0.535300  1.0  -0.6504
  O  O701  1  0.900800  0.729800  0.530400  1.0  -0.558
  O  O702  1  0.989700  0.764300  0.581900  1.0  -0.5162
  O  O703  1  0.769800  0.832100  0.427100  1.0  -0.5925
  O  O704  1  0.856200  0.774800  0.444500  1.0  -0.5735
  O  O705  1  0.533500  0.782300  0.403400  1.0  -0.5799
  O  O706  1  0.510900  0.733100  0.460700  1.0  -0.6145
  O  O707  1  0.664700  0.787000  0.355800  1.0  -0.6662
  O  O708  1  0.690000  0.735400  0.304000  1.0  -0.7435
  O  O709  1  0.737300  0.689700  0.516200  1.0  -0.6734
  O  O710  1  0.846400  0.615400  0.451100  1.0  -0.5875
  O  O711  1  0.829900  0.686200  0.447200  1.0  -0.6108
  O  O712  1  0.662500  0.475600  0.470000  1.0  -0.71
  O  O713  1  0.710200  0.437900  0.550600  1.0  -0.7083
  O  O714  1  0.621200  0.432100  0.616700  1.0  -0.5486
  O  O715  1  0.569500  0.498000  0.607600  1.0  -0.67
  O  O716  1  0.554800  0.539300  0.464700  1.0  -0.6623
  O  O717  1  0.476100  0.505800  0.509900  1.0  -0.6468
  O  O718  1  0.901800  0.570100  0.538100  1.0  -0.5581
  O  O719  1  0.960500  0.543900  0.608400  1.0  -0.7002
  O  O720  1  0.876500  0.319500  0.492700  1.0  -0.6145
  O  O721  1  0.951700  0.332200  0.565200  1.0  -0.5757
  O  O722  1  0.630700  0.313300  0.501500  1.0  -0.5829
  O  O723  1  0.595000  0.366800  0.550900  1.0  -0.5868
  O  O724  1  0.358000  0.597900  0.857800  1.0  -0.5889
  O  O725  1  0.381000  0.458400  0.759100  1.0  -0.7172
  O  O726  1  0.302000  0.697200  0.545400  1.0  -0.6261
  O  O727  1  0.333000  0.370400  0.807000  1.0  -0.783
  O  O728  1  0.473000  0.548400  0.920700  1.0  -0.5341
  O  O729  1  0.096800  0.651000  0.002500  1.0  -0.583
  O  O730  1  0.509600  0.294800  0.694800  1.0  -0.482
  O  O731  1  0.870800  0.231200  0.444400  1.0  -0.5883
  O  O732  1  0.222000  0.332000  0.720100  1.0  -0.6649
  O  O733  1  0.750000  0.758800  0.217900  1.0  -0.6169
  O  O734  1  0.714000  0.445800  0.243600  1.0  -0.7182
  O  O735  1  0.862100  0.298400  0.239100  1.0  -0.6758
  O  O736  1  0.032100  0.309700  0.217800  1.0  -0.6238
  O  O737  1  0.856700  0.300200  0.125400  1.0  -0.6692
  O  O738  1  0.723000  0.129300  0.547200  1.0  -0.7808
  O  O739  1  0.293100  0.578600  0.338800  1.0  -0.7148
  O  O740  1  0.334000  0.732800  0.893400  1.0  -0.672
  O  O741  1  0.170000  0.578800  0.042900  1.0  -0.4747
  O  O742  1  0.195000  0.593900  0.006000  1.0  -0.5066
  O  O743  1  0.404000  0.614700  0.824700  1.0  -0.5635
  O  O744  1  0.684900  0.131100  0.603600  1.0  -0.7913
