# generated using pymatgen
data_Zn4H33C45N3O13
_symmetry_space_group_name_H-M   'P 1'
_cell_length_a   19.16800000
_cell_length_b   19.16800000
_cell_length_c   67.69500000
_cell_angle_alpha   90.00000000
_cell_angle_beta   90.00000000
_cell_angle_gamma   120.00000000
_symmetry_Int_Tables_number   1
_chemical_formula_structural   Zn4H33C45N3O13
_chemical_formula_sum   'Zn48 H396 C540 N36 O156'
_cell_volume   21539.75829836
_cell_formula_units_Z   12
loop_
 _symmetry_equiv_pos_site_id
 _symmetry_equiv_pos_as_xyz
  1  'x, y, z'
loop_
 _atom_site_type_symbol
 _atom_site_label
 _atom_site_symmetry_multiplicity
 _atom_site_fract_x
 _atom_site_fract_y
 _atom_site_fract_z
 _atom_site_occupancy
 _atom_site_charge
  Zn  Zn1  1  0.356490  0.585190  0.331710  1.0  1.1109
  Zn  Zn2  1  0.103080  0.086770  0.150760  1.0  1.0415
  Zn  Zn3  1  0.023160  0.918520  0.665040  1.0  1.1114
  Zn  Zn4  1  0.769750  0.420100  0.484090  1.0  1.0414
  Zn  Zn5  1  0.689820  0.251860  0.998370  1.0  1.111
  Zn  Zn6  1  0.436410  0.753440  0.817420  1.0  1.0414
  Zn  Zn7  1  0.414810  0.771300  0.331710  1.0  1.1106
  Zn  Zn8  1  0.913230  0.016310  0.150760  1.0  1.0413
  Zn  Zn9  1  0.081480  0.104630  0.665040  1.0  1.111
  Zn  Zn10  1  0.579900  0.349640  0.484090  1.0  1.0412
  Zn  Zn11  1  0.748140  0.437970  0.998370  1.0  1.1105
  Zn  Zn12  1  0.246560  0.682980  0.817420  1.0  1.0412
  Zn  Zn13  1  0.228700  0.643510  0.331710  1.0  1.111
  Zn  Zn14  1  0.983690  0.896920  0.150760  1.0  1.0417
  Zn  Zn15  1  0.895370  0.976840  0.665040  1.0  1.1115
  Zn  Zn16  1  0.650360  0.230250  0.484090  1.0  1.0417
  Zn  Zn17  1  0.562030  0.310180  0.998370  1.0  1.1108
  Zn  Zn18  1  0.317020  0.563590  0.817420  1.0  1.0415
  Zn  Zn19  1  0.333333  0.666667  0.293480  1.0  1.0521
  Zn  Zn20  1  0.000000  0.000000  0.626810  1.0  1.0519
  Zn  Zn21  1  0.666667  0.333333  0.960140  1.0  1.0515
  Zn  Zn22  1  0.000000  0.000000  0.188450  1.0  1.119
  Zn  Zn23  1  0.666667  0.333333  0.521790  1.0  1.1187
  Zn  Zn24  1  0.333333  0.666667  0.855120  1.0  1.1187
  Zn  Zn25  1  0.585190  0.356490  0.668290  1.0  1.1107
  Zn  Zn26  1  0.086770  0.103080  0.849240  1.0  1.041
  Zn  Zn27  1  0.251860  0.689820  0.001630  1.0  1.1106
  Zn  Zn28  1  0.753440  0.436410  0.182580  1.0  1.0408
  Zn  Zn29  1  0.918520  0.023160  0.334960  1.0  1.1112
  Zn  Zn30  1  0.420100  0.769750  0.515910  1.0  1.0409
  Zn  Zn31  1  0.771300  0.414810  0.668290  1.0  1.1104
  Zn  Zn32  1  0.016310  0.913230  0.849240  1.0  1.041
  Zn  Zn33  1  0.437970  0.748140  0.001630  1.0  1.1105
  Zn  Zn34  1  0.682980  0.246560  0.182580  1.0  1.0408
  Zn  Zn35  1  0.104630  0.081480  0.334960  1.0  1.1109
  Zn  Zn36  1  0.349640  0.579900  0.515910  1.0  1.0409
  Zn  Zn37  1  0.643510  0.228700  0.668290  1.0  1.1107
  Zn  Zn38  1  0.896920  0.983690  0.849240  1.0  1.041
  Zn  Zn39  1  0.310180  0.562030  0.001630  1.0  1.1107
  Zn  Zn40  1  0.563590  0.317020  0.182580  1.0  1.0408
  Zn  Zn41  1  0.976840  0.895370  0.334960  1.0  1.1112
  Zn  Zn42  1  0.230250  0.650360  0.515910  1.0  1.041
  Zn  Zn43  1  0.666667  0.333333  0.706520  1.0  1.0524
  Zn  Zn44  1  0.333333  0.666667  0.039860  1.0  1.0518
  Zn  Zn45  1  0.000000  0.000000  0.373190  1.0  1.0523
  Zn  Zn46  1  0.000000  0.000000  0.811550  1.0  1.12
  Zn  Zn47  1  0.666667  0.333333  0.144880  1.0  1.1199
  Zn  Zn48  1  0.333333  0.666667  0.478210  1.0  1.1198
  H  H49  1  0.441200  0.451000  0.300000  1.0  0.108
  H  H50  1  0.463600  0.364200  0.280200  1.0  0.1216
  H  H51  1  0.345700  0.399200  0.235000  1.0  0.1159
  H  H52  1  0.323300  0.486000  0.254900  1.0  0.1086
  H  H53  1  0.541400  0.364100  0.244000  1.0  0.1211
  H  H54  1  0.488400  0.273200  0.236400  1.0  0.1128
  H  H55  1  0.491000  0.293400  0.259500  1.0  0.1014
  H  H56  1  0.324300  0.230100  0.183300  1.0  0.0899
  H  H57  1  0.427200  0.316600  0.204600  1.0  0.1076
  H  H58  1  0.268300  0.229400  0.249600  1.0  0.1282
  H  H59  1  0.174200  0.141200  0.228200  1.0  0.088
  H  H60  1  0.131700  0.843100  0.114900  1.0  0.1021
  H  H61  1  0.221300  0.829100  0.094100  1.0  0.1013
  H  H62  1  0.370700  0.071000  0.094800  1.0  0.1157
  H  H63  1  0.281100  0.085000  0.115700  1.0  0.0893
  H  H64  1  0.314700  0.827000  0.090700  1.0  0.0859
  H  H65  1  0.405700  0.870100  0.082900  1.0  0.0756
  H  H66  1  0.332800  0.835800  0.067500  1.0  0.104
  H  H67  1  0.572700  0.071300  0.041200  1.0  0.1099
  H  H68  1  0.496400  0.976000  0.065300  1.0  0.1038
  H  H69  1  0.324900  0.040100  0.061100  1.0  0.1127
  H  H70  1  0.401300  0.135400  0.037000  1.0  0.1097
  H  H71  1  0.107870  0.784330  0.633330  1.0  0.108
  H  H72  1  0.130270  0.697530  0.613530  1.0  0.1215
  H  H73  1  0.012370  0.732530  0.568330  1.0  0.1159
  H  H74  1  0.989970  0.819330  0.588230  1.0  0.1088
  H  H75  1  0.208070  0.697430  0.577330  1.0  0.1252
  H  H76  1  0.155070  0.606530  0.569730  1.0  0.1127
  H  H77  1  0.157670  0.626730  0.592830  1.0  0.1014
  H  H78  1  0.990970  0.563430  0.516630  1.0  0.0899
  H  H79  1  0.093870  0.649930  0.537930  1.0  0.1077
  H  H80  1  0.934970  0.562730  0.582930  1.0  0.1282
  H  H81  1  0.840870  0.474530  0.561530  1.0  0.0872
  H  H82  1  0.798370  0.176430  0.448230  1.0  0.102
  H  H83  1  0.887970  0.162430  0.427430  1.0  0.101
  H  H84  1  0.037370  0.404330  0.428130  1.0  0.1157
  H  H85  1  0.947770  0.418330  0.449030  1.0  0.0893
  H  H86  1  0.981370  0.160330  0.424030  1.0  0.0885
  H  H87  1  0.072370  0.203430  0.416230  1.0  0.0755
  H  H88  1  0.999470  0.169130  0.400830  1.0  0.104
  H  H89  1  0.239370  0.404630  0.374530  1.0  0.11
  H  H90  1  0.163070  0.309330  0.398630  1.0  0.1039
  H  H91  1  0.991570  0.373430  0.394430  1.0  0.1126
  H  H92  1  0.067970  0.468730  0.370330  1.0  0.1097
  H  H93  1  0.774530  0.117670  0.966670  1.0  0.108
  H  H94  1  0.796930  0.030870  0.946870  1.0  0.1234
  H  H95  1  0.679030  0.065870  0.901670  1.0  0.1159
  H  H96  1  0.656630  0.152670  0.921570  1.0  0.1086
  H  H97  1  0.874730  0.030770  0.910670  1.0  0.1211
  H  H98  1  0.821730  0.939870  0.903070  1.0  0.1128
  H  H99  1  0.824330  0.960070  0.926170  1.0  0.1014
  H  H100  1  0.657630  0.896770  0.849970  1.0  0.0899
  H  H101  1  0.760530  0.983270  0.871270  1.0  0.1076
  H  H102  1  0.601630  0.896070  0.916270  1.0  0.1282
  H  H103  1  0.507530  0.807870  0.894870  1.0  0.088
  H  H104  1  0.465030  0.509770  0.781570  1.0  0.1021
  H  H105  1  0.554630  0.495770  0.760770  1.0  0.1013
  H  H106  1  0.704030  0.737670  0.761470  1.0  0.1157
  H  H107  1  0.614430  0.751670  0.782370  1.0  0.0893
  H  H108  1  0.648030  0.493670  0.757370  1.0  0.0859
  H  H109  1  0.739030  0.536770  0.749570  1.0  0.0756
  H  H110  1  0.666130  0.502470  0.734170  1.0  0.104
  H  H111  1  0.906030  0.737970  0.707870  1.0  0.1099
  H  H112  1  0.829730  0.642670  0.731970  1.0  0.1038
  H  H113  1  0.658230  0.706770  0.727770  1.0  0.1127
  H  H114  1  0.734630  0.802070  0.703670  1.0  0.1097
  H  H115  1  0.549000  0.990200  0.300000  1.0  0.1081
  H  H116  1  0.635800  0.099400  0.280200  1.0  0.1246
  H  H117  1  0.600800  0.946500  0.235000  1.0  0.1167
  H  H118  1  0.514000  0.837300  0.254900  1.0  0.1082
  H  H119  1  0.635900  0.177300  0.244000  1.0  0.1193
  H  H120  1  0.726800  0.215200  0.236400  1.0  0.1129
  H  H121  1  0.706600  0.197600  0.259500  1.0  0.1012
  H  H122  1  0.769900  0.094200  0.183300  1.0  0.09
  H  H123  1  0.683400  0.110600  0.204600  1.0  0.1072
  H  H124  1  0.770600  0.038900  0.249600  1.0  0.1277
  H  H125  1  0.858800  0.033000  0.228200  1.0  0.0865
  H  H126  1  0.156900  0.288600  0.114900  1.0  0.1025
  H  H127  1  0.170900  0.392200  0.094100  1.0  0.102
  H  H128  1  0.929000  0.299700  0.094800  1.0  0.1162
  H  H129  1  0.915000  0.196100  0.115700  1.0  0.09
  H  H130  1  0.173000  0.487700  0.090700  1.0  0.0905
  H  H131  1  0.129900  0.535600  0.082900  1.0  0.0773
  H  H132  1  0.164200  0.497000  0.067500  1.0  0.1043
  H  H133  1  0.928700  0.501400  0.041200  1.0  0.1102
  H  H134  1  0.024000  0.520400  0.065300  1.0  0.1039
  H  H135  1  0.959900  0.284800  0.061100  1.0  0.1143
  H  H136  1  0.864600  0.265900  0.037000  1.0  0.1099
  H  H137  1  0.215670  0.323530  0.633330  1.0  0.1081
  H  H138  1  0.302470  0.432730  0.613530  1.0  0.1245
  H  H139  1  0.267470  0.279830  0.568330  1.0  0.1165
  H  H140  1  0.180670  0.170630  0.588230  1.0  0.1081
  H  H141  1  0.302570  0.510630  0.577330  1.0  0.1158
  H  H142  1  0.393470  0.548530  0.569730  1.0  0.1128
  H  H143  1  0.373270  0.530930  0.592830  1.0  0.1012
  H  H144  1  0.436570  0.427530  0.516630  1.0  0.09
  H  H145  1  0.350070  0.443930  0.537930  1.0  0.1072
  H  H146  1  0.437270  0.372230  0.582930  1.0  0.1277
  H  H147  1  0.525470  0.366330  0.561530  1.0  0.0878
  H  H148  1  0.823570  0.621930  0.448230  1.0  0.1025
  H  H149  1  0.837570  0.725530  0.427430  1.0  0.1017
  H  H150  1  0.595670  0.633030  0.428130  1.0  0.1161
  H  H151  1  0.581670  0.529430  0.449030  1.0  0.09
  H  H152  1  0.839670  0.821030  0.424030  1.0  0.0861
  H  H153  1  0.796570  0.868930  0.416230  1.0  0.0773
  H  H154  1  0.830870  0.830330  0.400830  1.0  0.1044
  H  H155  1  0.595370  0.834730  0.374530  1.0  0.1102
  H  H156  1  0.690670  0.853730  0.398630  1.0  0.1041
  H  H157  1  0.626570  0.618130  0.394430  1.0  0.1143
  H  H158  1  0.531270  0.599230  0.370330  1.0  0.1099
  H  H159  1  0.882330  0.656870  0.966670  1.0  0.108
  H  H160  1  0.969130  0.766070  0.946870  1.0  0.1241
  H  H161  1  0.934130  0.613170  0.901670  1.0  0.1167
  H  H162  1  0.847330  0.503970  0.921570  1.0  0.1082
  H  H163  1  0.969230  0.843970  0.910670  1.0  0.1193
  H  H164  1  0.060130  0.881870  0.903070  1.0  0.1129
  H  H165  1  0.039930  0.864270  0.926170  1.0  0.1012
  H  H166  1  0.103230  0.760870  0.849970  1.0  0.09
  H  H167  1  0.016730  0.777270  0.871270  1.0  0.1072
  H  H168  1  0.103930  0.705570  0.916270  1.0  0.1277
  H  H169  1  0.192130  0.699670  0.894870  1.0  0.0865
  H  H170  1  0.490230  0.955270  0.781570  1.0  0.1025
  H  H171  1  0.504230  0.058870  0.760770  1.0  0.102
  H  H172  1  0.262330  0.966370  0.761470  1.0  0.1162
  H  H173  1  0.248330  0.862770  0.782370  1.0  0.09
  H  H174  1  0.506330  0.154370  0.757370  1.0  0.0905
  H  H175  1  0.463230  0.202270  0.749570  1.0  0.0773
  H  H176  1  0.497530  0.163670  0.734170  1.0  0.1043
  H  H177  1  0.262030  0.168070  0.707870  1.0  0.1102
  H  H178  1  0.357330  0.187070  0.731970  1.0  0.1039
  H  H179  1  0.293230  0.951470  0.727770  1.0  0.1143
  H  H180  1  0.197930  0.932570  0.703670  1.0  0.1099
  H  H181  1  0.009800  0.558800  0.300000  1.0  0.1081
  H  H182  1  0.900600  0.536400  0.280200  1.0  0.1236
  H  H183  1  0.053500  0.654300  0.235000  1.0  0.116
  H  H184  1  0.162700  0.676700  0.254900  1.0  0.109
  H  H185  1  0.822700  0.458600  0.244000  1.0  0.1202
  H  H186  1  0.784800  0.511600  0.236400  1.0  0.1116
  H  H187  1  0.802400  0.509000  0.259500  1.0  0.1007
  H  H188  1  0.905800  0.675700  0.183300  1.0  0.0895
  H  H189  1  0.889400  0.572800  0.204600  1.0  0.108
  H  H190  1  0.961100  0.731700  0.249600  1.0  0.128
  H  H191  1  0.967000  0.825800  0.228200  1.0  0.088
  H  H192  1  0.711400  0.868300  0.114900  1.0  0.1016
  H  H193  1  0.607800  0.778700  0.094100  1.0  0.1011
  H  H194  1  0.700300  0.629300  0.094800  1.0  0.117
  H  H195  1  0.803900  0.718900  0.115700  1.0  0.0885
  H  H196  1  0.512300  0.685300  0.090700  1.0  0.0879
  H  H197  1  0.464400  0.594300  0.082900  1.0  0.0754
  H  H198  1  0.503000  0.667200  0.067500  1.0  0.104
  H  H199  1  0.498600  0.427300  0.041200  1.0  0.1103
  H  H200  1  0.479600  0.503600  0.065300  1.0  0.1028
  H  H201  1  0.715200  0.675100  0.061100  1.0  0.1139
  H  H202  1  0.734100  0.598700  0.037000  1.0  0.1099
  H  H203  1  0.676470  0.892130  0.633330  1.0  0.1081
  H  H204  1  0.567270  0.869730  0.613530  1.0  0.1235
  H  H205  1  0.720170  0.987630  0.568330  1.0  0.1159
  H  H206  1  0.829370  0.010030  0.588230  1.0  0.109
  H  H207  1  0.489370  0.791930  0.577330  1.0  0.1186
  H  H208  1  0.451470  0.844930  0.569730  1.0  0.1115
  H  H209  1  0.469070  0.842330  0.592830  1.0  0.1007
  H  H210  1  0.572470  0.009030  0.516630  1.0  0.0896
  H  H211  1  0.556070  0.906130  0.537930  1.0  0.1081
  H  H212  1  0.627770  0.065030  0.582930  1.0  0.128
  H  H213  1  0.633670  0.159130  0.561530  1.0  0.088
  H  H214  1  0.378070  0.201630  0.448230  1.0  0.1016
  H  H215  1  0.274470  0.112030  0.427430  1.0  0.101
  H  H216  1  0.366970  0.962630  0.428130  1.0  0.117
  H  H217  1  0.470570  0.052230  0.449030  1.0  0.0885
  H  H218  1  0.178970  0.018630  0.424030  1.0  0.0854
  H  H219  1  0.131070  0.927630  0.416230  1.0  0.0754
  H  H220  1  0.169670  0.000530  0.400830  1.0  0.104
  H  H221  1  0.165270  0.760630  0.374530  1.0  0.1104
  H  H222  1  0.146270  0.836930  0.398630  1.0  0.103
  H  H223  1  0.381870  0.008430  0.394430  1.0  0.1139
  H  H224  1  0.400770  0.932030  0.370330  1.0  0.11
  H  H225  1  0.343130  0.225470  0.966670  1.0  0.1081
  H  H226  1  0.233930  0.203070  0.946870  1.0  0.1206
  H  H227  1  0.386830  0.320970  0.901670  1.0  0.116
  H  H228  1  0.496030  0.343370  0.921570  1.0  0.109
  H  H229  1  0.156030  0.125270  0.910670  1.0  0.1202
  H  H230  1  0.118130  0.178270  0.903070  1.0  0.1116
  H  H231  1  0.135730  0.175670  0.926170  1.0  0.1007
  H  H232  1  0.239130  0.342370  0.849970  1.0  0.0895
  H  H233  1  0.222730  0.239470  0.871270  1.0  0.108
  H  H234  1  0.294430  0.398370  0.916270  1.0  0.128
  H  H235  1  0.300330  0.492470  0.894870  1.0  0.088
  H  H236  1  0.044730  0.534970  0.781570  1.0  0.1016
  H  H237  1  0.941130  0.445370  0.760770  1.0  0.1011
  H  H238  1  0.033630  0.295970  0.761470  1.0  0.117
  H  H239  1  0.137230  0.385570  0.782370  1.0  0.0885
  H  H240  1  0.845630  0.351970  0.757370  1.0  0.0879
  H  H241  1  0.797730  0.260970  0.749570  1.0  0.0754
  H  H242  1  0.836330  0.333870  0.734170  1.0  0.104
  H  H243  1  0.831930  0.093970  0.707870  1.0  0.1103
  H  H244  1  0.812930  0.170270  0.731970  1.0  0.1028
  H  H245  1  0.048530  0.341770  0.727770  1.0  0.1139
  H  H246  1  0.067430  0.265370  0.703670  1.0  0.1099
  H  H247  1  0.451000  0.441200  0.700000  1.0  0.1078
  H  H248  1  0.364200  0.463600  0.719800  1.0  0.1209
  H  H249  1  0.399200  0.345700  0.765000  1.0  0.1142
  H  H250  1  0.486000  0.323300  0.745100  1.0  0.1074
  H  H251  1  0.364100  0.541400  0.756000  1.0  0.1197
  H  H252  1  0.273200  0.488400  0.763600  1.0  0.1114
  H  H253  1  0.293400  0.491000  0.740500  1.0  0.0998
  H  H254  1  0.230100  0.324300  0.816700  1.0  0.0893
  H  H255  1  0.316600  0.427200  0.795400  1.0  0.1079
  H  H256  1  0.229400  0.268300  0.750400  1.0  0.1285
  H  H257  1  0.141200  0.174200  0.771800  1.0  0.0882
  H  H258  1  0.843100  0.131700  0.885100  1.0  0.1016
  H  H259  1  0.829100  0.221300  0.905900  1.0  0.1013
  H  H260  1  0.071000  0.370700  0.905200  1.0  0.1169
  H  H261  1  0.085000  0.281100  0.884300  1.0  0.0886
  H  H262  1  0.827000  0.314700  0.909300  1.0  0.0844
  H  H263  1  0.870100  0.405700  0.917100  1.0  0.0764
  H  H264  1  0.835800  0.332800  0.932500  1.0  0.1049
  H  H265  1  0.071300  0.572700  0.958800  1.0  0.1106
  H  H266  1  0.976000  0.496400  0.934700  1.0  0.1034
  H  H267  1  0.040100  0.324900  0.938900  1.0  0.114
  H  H268  1  0.135400  0.401300  0.963000  1.0  0.1097
  H  H269  1  0.117670  0.774530  0.033330  1.0  0.1077
  H  H270  1  0.030870  0.796930  0.053130  1.0  0.1223
  H  H271  1  0.065870  0.679030  0.098330  1.0  0.1142
  H  H272  1  0.152670  0.656630  0.078430  1.0  0.1074
  H  H273  1  0.030770  0.874730  0.089330  1.0  0.1197
  H  H274  1  0.939870  0.821730  0.096930  1.0  0.1114
  H  H275  1  0.960070  0.824330  0.073830  1.0  0.0998
  H  H276  1  0.896770  0.657630  0.150030  1.0  0.0893
  H  H277  1  0.983270  0.760530  0.128730  1.0  0.1079
  H  H278  1  0.896070  0.601630  0.083730  1.0  0.1285
  H  H279  1  0.807870  0.507530  0.105130  1.0  0.0882
  H  H280  1  0.509770  0.465030  0.218430  1.0  0.1016
  H  H281  1  0.495770  0.554630  0.239230  1.0  0.1013
  H  H282  1  0.737670  0.704030  0.238530  1.0  0.1169
  H  H283  1  0.751670  0.614430  0.217630  1.0  0.0886
  H  H284  1  0.493670  0.648030  0.242630  1.0  0.0844
  H  H285  1  0.536770  0.739030  0.250430  1.0  0.0764
  H  H286  1  0.502470  0.666130  0.265830  1.0  0.1049
  H  H287  1  0.737970  0.906030  0.292130  1.0  0.1105
  H  H288  1  0.642670  0.829730  0.268030  1.0  0.1034
  H  H289  1  0.706770  0.658230  0.272230  1.0  0.114
  H  H290  1  0.802070  0.734630  0.296330  1.0  0.1098
  H  H291  1  0.784330  0.107870  0.366670  1.0  0.1078
  H  H292  1  0.697530  0.130270  0.386470  1.0  0.1209
  H  H293  1  0.732530  0.012370  0.431670  1.0  0.1142
  H  H294  1  0.819330  0.989970  0.411770  1.0  0.1076
  H  H295  1  0.697430  0.208070  0.422670  1.0  0.1242
  H  H296  1  0.606530  0.155070  0.430270  1.0  0.1113
  H  H297  1  0.626730  0.157670  0.407170  1.0  0.0999
  H  H298  1  0.563430  0.990970  0.483370  1.0  0.0893
  H  H299  1  0.649930  0.093870  0.462070  1.0  0.108
  H  H300  1  0.562730  0.934970  0.417070  1.0  0.1285
  H  H301  1  0.474530  0.840870  0.438470  1.0  0.0877
  H  H302  1  0.176430  0.798370  0.551770  1.0  0.1016
  H  H303  1  0.162430  0.887970  0.572570  1.0  0.101
  H  H304  1  0.404330  0.037370  0.571870  1.0  0.1169
  H  H305  1  0.418330  0.947770  0.550970  1.0  0.0885
  H  H306  1  0.160330  0.981370  0.575970  1.0  0.0872
  H  H307  1  0.203430  0.072370  0.583770  1.0  0.0763
  H  H308  1  0.169130  0.999470  0.599170  1.0  0.1049
  H  H309  1  0.404630  0.239370  0.625470  1.0  0.1106
  H  H310  1  0.309330  0.163070  0.601370  1.0  0.1035
  H  H311  1  0.373430  0.991570  0.605570  1.0  0.114
  H  H312  1  0.468730  0.067970  0.629670  1.0  0.1098
  H  H313  1  0.990200  0.549000  0.700000  1.0  0.1088
  H  H314  1  0.099400  0.635800  0.719800  1.0  0.1232
  H  H315  1  0.946500  0.600800  0.765000  1.0  0.1151
  H  H316  1  0.837300  0.514000  0.745100  1.0  0.1074
  H  H317  1  0.177300  0.635900  0.756000  1.0  0.1257
  H  H318  1  0.215200  0.726800  0.763600  1.0  0.1129
  H  H319  1  0.197600  0.706600  0.740500  1.0  0.1026
  H  H320  1  0.094200  0.769900  0.816700  1.0  0.0899
  H  H321  1  0.110600  0.683400  0.795400  1.0  0.1084
  H  H322  1  0.038900  0.770600  0.750400  1.0  0.1288
  H  H323  1  0.033000  0.858800  0.771800  1.0  0.0875
  H  H324  1  0.288600  0.156900  0.885100  1.0  0.1024
  H  H325  1  0.392200  0.170900  0.905900  1.0  0.1027
  H  H326  1  0.299700  0.929000  0.905200  1.0  0.1162
  H  H327  1  0.196100  0.915000  0.884300  1.0  0.0894
  H  H328  1  0.487700  0.173000  0.909300  1.0  0.0886
  H  H329  1  0.535600  0.129900  0.917100  1.0  0.076
  H  H330  1  0.497000  0.164200  0.932500  1.0  0.1043
  H  H331  1  0.501400  0.928700  0.958800  1.0  0.11
  H  H332  1  0.520400  0.024000  0.934700  1.0  0.1039
  H  H333  1  0.284800  0.959900  0.938900  1.0  0.1123
  H  H334  1  0.265900  0.864600  0.963000  1.0  0.11
  H  H335  1  0.656870  0.882330  0.033330  1.0  0.1087
  H  H336  1  0.766070  0.969130  0.053130  1.0  0.1226
  H  H337  1  0.613170  0.934130  0.098330  1.0  0.1151
  H  H338  1  0.503970  0.847330  0.078430  1.0  0.1074
  H  H339  1  0.843970  0.969230  0.089330  1.0  0.1257
  H  H340  1  0.881870  0.060130  0.096930  1.0  0.1129
  H  H341  1  0.864270  0.039930  0.073830  1.0  0.1026
  H  H342  1  0.760870  0.103230  0.150030  1.0  0.0899
  H  H343  1  0.777270  0.016730  0.128730  1.0  0.1084
  H  H344  1  0.705570  0.103930  0.083730  1.0  0.1288
  H  H345  1  0.699670  0.192130  0.105130  1.0  0.0875
  H  H346  1  0.955270  0.490230  0.218430  1.0  0.1024
  H  H347  1  0.058870  0.504230  0.239230  1.0  0.1027
  H  H348  1  0.966370  0.262330  0.238530  1.0  0.1162
  H  H349  1  0.862770  0.248330  0.217630  1.0  0.0894
  H  H350  1  0.154370  0.506330  0.242630  1.0  0.0886
  H  H351  1  0.202270  0.463230  0.250430  1.0  0.076
  H  H352  1  0.163670  0.497530  0.265830  1.0  0.1043
  H  H353  1  0.168070  0.262030  0.292130  1.0  0.11
  H  H354  1  0.187070  0.357330  0.268030  1.0  0.1039
  H  H355  1  0.951470  0.293230  0.272230  1.0  0.1123
  H  H356  1  0.932570  0.197930  0.296330  1.0  0.11
  H  H357  1  0.323530  0.215670  0.366670  1.0  0.1088
  H  H358  1  0.432730  0.302470  0.386470  1.0  0.1232
  H  H359  1  0.279830  0.267470  0.431670  1.0  0.1149
  H  H360  1  0.170630  0.180670  0.411770  1.0  0.1073
  H  H361  1  0.510630  0.302570  0.422670  1.0  0.123
  H  H362  1  0.548530  0.393470  0.430270  1.0  0.1128
  H  H363  1  0.530930  0.373270  0.407170  1.0  0.1026
  H  H364  1  0.427530  0.436570  0.483370  1.0  0.0899
  H  H365  1  0.443930  0.350070  0.462070  1.0  0.1084
  H  H366  1  0.372230  0.437270  0.417070  1.0  0.1288
  H  H367  1  0.366330  0.525470  0.438470  1.0  0.0888
  H  H368  1  0.621930  0.823570  0.551770  1.0  0.1024
  H  H369  1  0.725530  0.837570  0.572570  1.0  0.1024
  H  H370  1  0.633030  0.595670  0.571870  1.0  0.1161
  H  H371  1  0.529430  0.581670  0.550970  1.0  0.0895
  H  H372  1  0.821030  0.839670  0.575970  1.0  0.0853
  H  H373  1  0.868930  0.796570  0.583770  1.0  0.076
  H  H374  1  0.830330  0.830870  0.599170  1.0  0.1044
  H  H375  1  0.834730  0.595370  0.625470  1.0  0.11
  H  H376  1  0.853730  0.690670  0.601370  1.0  0.1041
  H  H377  1  0.618130  0.626570  0.605570  1.0  0.1123
  H  H378  1  0.599230  0.531270  0.629670  1.0  0.11
  H  H379  1  0.558800  0.009800  0.700000  1.0  0.108
  H  H380  1  0.536400  0.900600  0.719800  1.0  0.1241
  H  H381  1  0.654300  0.053500  0.765000  1.0  0.1149
  H  H382  1  0.676700  0.162700  0.745100  1.0  0.1081
  H  H383  1  0.458600  0.822700  0.756000  1.0  0.1164
  H  H384  1  0.511600  0.784800  0.763600  1.0  0.1117
  H  H385  1  0.509000  0.802400  0.740500  1.0  0.1012
  H  H386  1  0.675700  0.905800  0.816700  1.0  0.0898
  H  H387  1  0.572800  0.889400  0.795400  1.0  0.1074
  H  H388  1  0.731700  0.961100  0.750400  1.0  0.1291
  H  H389  1  0.825800  0.967000  0.771800  1.0  0.0885
  H  H390  1  0.868300  0.711400  0.885100  1.0  0.1022
  H  H391  1  0.778700  0.607800  0.905900  1.0  0.1018
  H  H392  1  0.629300  0.700300  0.905200  1.0  0.1163
  H  H393  1  0.718900  0.803900  0.884300  1.0  0.09
  H  H394  1  0.685300  0.512300  0.909300  1.0  0.0867
  H  H395  1  0.594300  0.464400  0.917100  1.0  0.0768
  H  H396  1  0.667200  0.503000  0.932500  1.0  0.1048
  H  H397  1  0.427300  0.498600  0.958800  1.0  0.1098
  H  H398  1  0.503600  0.479600  0.934700  1.0  0.1036
  H  H399  1  0.675100  0.715200  0.938900  1.0  0.1141
  H  H400  1  0.598700  0.734100  0.963000  1.0  0.1104
  H  H401  1  0.225470  0.343130  0.033330  1.0  0.1079
  H  H402  1  0.203070  0.233930  0.053130  1.0  0.1219
  H  H403  1  0.320970  0.386830  0.098330  1.0  0.1149
  H  H404  1  0.343370  0.496030  0.078430  1.0  0.1081
  H  H405  1  0.125270  0.156030  0.089330  1.0  0.1164
  H  H406  1  0.178270  0.118130  0.096930  1.0  0.1117
  H  H407  1  0.175670  0.135730  0.073830  1.0  0.1012
  H  H408  1  0.342370  0.239130  0.150030  1.0  0.0898
  H  H409  1  0.239470  0.222730  0.128730  1.0  0.1075
  H  H410  1  0.398370  0.294430  0.083730  1.0  0.1291
  H  H411  1  0.492470  0.300330  0.105130  1.0  0.0885
  H  H412  1  0.534970  0.044730  0.218430  1.0  0.1022
  H  H413  1  0.445370  0.941130  0.239230  1.0  0.1018
  H  H414  1  0.295970  0.033630  0.238530  1.0  0.1163
  H  H415  1  0.385570  0.137230  0.217630  1.0  0.09
  H  H416  1  0.351970  0.845630  0.242630  1.0  0.0867
  H  H417  1  0.260970  0.797730  0.250430  1.0  0.0768
  H  H418  1  0.333870  0.836330  0.265830  1.0  0.1048
  H  H419  1  0.093970  0.831930  0.292130  1.0  0.1098
  H  H420  1  0.170270  0.812930  0.268030  1.0  0.1036
  H  H421  1  0.341770  0.048530  0.272230  1.0  0.1141
  H  H422  1  0.265370  0.067430  0.296330  1.0  0.1104
  H  H423  1  0.892130  0.676470  0.366670  1.0  0.1079
  H  H424  1  0.869730  0.567270  0.386470  1.0  0.124
  H  H425  1  0.987630  0.720170  0.431670  1.0  0.1147
  H  H426  1  0.010030  0.829370  0.411770  1.0  0.1081
  H  H427  1  0.791930  0.489370  0.422670  1.0  0.1148
  H  H428  1  0.844930  0.451470  0.430270  1.0  0.1117
  H  H429  1  0.842330  0.469070  0.407170  1.0  0.1012
  H  H430  1  0.009030  0.572470  0.483370  1.0  0.0898
  H  H431  1  0.906130  0.556070  0.462070  1.0  0.1075
  H  H432  1  0.065030  0.627770  0.417070  1.0  0.1291
  H  H433  1  0.159130  0.633670  0.438470  1.0  0.0874
  H  H434  1  0.201630  0.378070  0.551770  1.0  0.1022
  H  H435  1  0.112030  0.274470  0.572570  1.0  0.1017
  H  H436  1  0.962630  0.366970  0.571870  1.0  0.1164
  H  H437  1  0.052230  0.470570  0.550970  1.0  0.0901
  H  H438  1  0.018630  0.178970  0.575970  1.0  0.084
  H  H439  1  0.927630  0.131070  0.583770  1.0  0.0767
  H  H440  1  0.000530  0.169670  0.599170  1.0  0.1049
  H  H441  1  0.760630  0.165270  0.625470  1.0  0.1099
  H  H442  1  0.836930  0.146270  0.601370  1.0  0.1038
  H  H443  1  0.008430  0.381870  0.605570  1.0  0.114
  H  H444  1  0.932030  0.400770  0.629670  1.0  0.1104
  C  C445  1  0.366300  0.535100  0.291900  1.0  0.6664
  C  C446  1  0.380200  0.476700  0.279330  1.0  -0.1052
  C  C447  1  0.421800  0.440500  0.286840  1.0  -0.0453
  C  C448  1  0.435100  0.388900  0.275050  1.0  -0.2119
  C  C449  1  0.406800  0.373500  0.255730  1.0  0.1913
  C  C450  1  0.365100  0.409700  0.248210  1.0  -0.1316
  C  C451  1  0.351800  0.461300  0.260010  1.0  -0.1014
  C  C452  1  0.491500  0.312900  0.246050  1.0  -0.1714
  C  C453  1  0.170000  0.129600  0.190150  1.0  0.7172
  C  C454  1  0.237000  0.182500  0.203420  1.0  -0.1074
  C  C455  1  0.312900  0.230500  0.196960  1.0  -0.0664
  C  C456  1  0.375000  0.280400  0.209640  1.0  -0.1624
  C  C457  1  0.359800  0.276500  0.229200  1.0  0.1873
  C  C458  1  0.281400  0.228100  0.236130  1.0  -0.2448
  C  C459  1  0.225500  0.179900  0.223170  1.0  -0.0715
  C  C460  1  0.137000  0.972800  0.129840  1.0  0.7218
  C  C461  1  0.198000  0.965400  0.117250  1.0  -0.1362
  C  C462  1  0.180200  0.889340  0.110830  1.0  -0.0094
  C  C463  1  0.233400  0.881000  0.098440  1.0  -0.19
  C  C464  1  0.304400  0.948700  0.092470  1.0  0.1999
  C  C465  1  0.322200  0.024700  0.098890  1.0  -0.1988
  C  C466  1  0.268900  0.033050  0.111280  1.0  -0.0336
  C  C467  1  0.351700  0.861600  0.080400  1.0  -0.1447
  C  C468  1  0.541400  0.170600  0.020710  1.0  0.6997
  C  C469  1  0.494200  0.112300  0.036820  1.0  -0.1318
  C  C470  1  0.522400  0.065000  0.045240  1.0  -0.0558
  C  C471  1  0.477100  0.008400  0.059570  1.0  -0.1427
  C  C472  1  0.403500  0.999100  0.065500  1.0  0.1075
  C  C473  1  0.375200  0.046400  0.057080  1.0  -0.1552
  C  C474  1  0.420600  0.103100  0.042740  1.0  -0.0614
  C  C475  1  0.032970  0.868430  0.625230  1.0  0.6668
  C  C476  1  0.046870  0.810030  0.612660  1.0  -0.1053
  C  C477  1  0.088470  0.773830  0.620170  1.0  -0.0455
  C  C478  1  0.101770  0.722230  0.608380  1.0  -0.2116
  C  C479  1  0.073470  0.706830  0.589060  1.0  0.1913
  C  C480  1  0.031770  0.743030  0.581540  1.0  -0.1316
  C  C481  1  0.018470  0.794630  0.593340  1.0  -0.1014
  C  C482  1  0.158170  0.646230  0.579380  1.0  -0.1714
  C  C483  1  0.836670  0.462930  0.523480  1.0  0.7173
  C  C484  1  0.903670  0.515830  0.536750  1.0  -0.1073
  C  C485  1  0.979570  0.563830  0.530290  1.0  -0.0663
  C  C486  1  0.041670  0.613730  0.542970  1.0  -0.1624
  C  C487  1  0.026470  0.609830  0.562530  1.0  0.1873
  C  C488  1  0.948070  0.561430  0.569460  1.0  -0.245
  C  C489  1  0.892170  0.513230  0.556500  1.0  -0.0716
  C  C490  1  0.803670  0.306130  0.463170  1.0  0.7216
  C  C491  1  0.864670  0.298730  0.450580  1.0  -0.1362
  C  C492  1  0.846870  0.222670  0.444160  1.0  -0.0093
  C  C493  1  0.900070  0.214330  0.431770  1.0  -0.1899
  C  C494  1  0.971070  0.282030  0.425800  1.0  0.1999
  C  C495  1  0.988870  0.358030  0.432220  1.0  -0.1988
  C  C496  1  0.935570  0.366380  0.444610  1.0  -0.0336
  C  C497  1  0.018370  0.194930  0.413730  1.0  -0.1447
  C  C498  1  0.208070  0.503930  0.354040  1.0  0.6995
  C  C499  1  0.160870  0.445630  0.370150  1.0  -0.1318
  C  C500  1  0.189070  0.398330  0.378570  1.0  -0.0558
  C  C501  1  0.143770  0.341730  0.392900  1.0  -0.1427
  C  C502  1  0.070170  0.332430  0.398830  1.0  0.1077
  C  C503  1  0.041870  0.379730  0.390410  1.0  -0.1553
  C  C504  1  0.087270  0.436430  0.376070  1.0  -0.0614
  C  C505  1  0.699630  0.201770  0.958570  1.0  0.6664
  C  C506  1  0.713530  0.143370  0.946000  1.0  -0.1052
  C  C507  1  0.755130  0.107170  0.953510  1.0  -0.0453
  C  C508  1  0.768430  0.055570  0.941720  1.0  -0.2119
  C  C509  1  0.740130  0.040170  0.922400  1.0  0.1913
  C  C510  1  0.698430  0.076370  0.914880  1.0  -0.1316
  C  C511  1  0.685130  0.127970  0.926680  1.0  -0.1014
  C  C512  1  0.824830  0.979570  0.912720  1.0  -0.1715
  C  C513  1  0.503330  0.796270  0.856820  1.0  0.7172
  C  C514  1  0.570330  0.849170  0.870090  1.0  -0.1074
  C  C515  1  0.646230  0.897170  0.863630  1.0  -0.0664
  C  C516  1  0.708330  0.947070  0.876310  1.0  -0.1624
  C  C517  1  0.693130  0.943170  0.895870  1.0  0.1873
  C  C518  1  0.614730  0.894770  0.902800  1.0  -0.2448
  C  C519  1  0.558830  0.846570  0.889840  1.0  -0.0715
  C  C520  1  0.470330  0.639470  0.796510  1.0  0.7216
  C  C521  1  0.531330  0.632070  0.783920  1.0  -0.1362
  C  C522  1  0.513530  0.556010  0.777500  1.0  -0.0094
  C  C523  1  0.566730  0.547670  0.765110  1.0  -0.19
  C  C524  1  0.637730  0.615370  0.759140  1.0  0.1999
  C  C525  1  0.655530  0.691370  0.765560  1.0  -0.1988
  C  C526  1  0.602230  0.699720  0.777950  1.0  -0.0336
  C  C527  1  0.685030  0.528270  0.747070  1.0  -0.1447
  C  C528  1  0.874730  0.837270  0.687380  1.0  0.6997
  C  C529  1  0.827530  0.778970  0.703490  1.0  -0.1318
  C  C530  1  0.855730  0.731670  0.711910  1.0  -0.0558
  C  C531  1  0.810430  0.675070  0.726240  1.0  -0.1427
  C  C532  1  0.736830  0.665770  0.732170  1.0  0.1075
  C  C533  1  0.708530  0.713070  0.723750  1.0  -0.1552
  C  C534  1  0.753930  0.769770  0.709410  1.0  -0.0614
  C  C535  1  0.464900  0.831200  0.291900  1.0  0.6685
  C  C536  1  0.523300  0.903500  0.279330  1.0  -0.1036
  C  C537  1  0.559500  0.981300  0.286840  1.0  -0.0458
  C  C538  1  0.611100  0.046200  0.275050  1.0  -0.2122
  C  C539  1  0.626500  0.033300  0.255730  1.0  0.1895
  C  C540  1  0.590300  0.955400  0.248210  1.0  -0.1327
  C  C541  1  0.538700  0.890500  0.260010  1.0  -0.1035
  C  C542  1  0.687100  0.178600  0.246050  1.0  -0.1738
  C  C543  1  0.870400  0.040400  0.190150  1.0  0.7176
  C  C544  1  0.817500  0.054500  0.203420  1.0  -0.1095
  C  C545  1  0.769500  0.082400  0.196960  1.0  -0.0656
  C  C546  1  0.719600  0.094600  0.209640  1.0  -0.1644
  C  C547  1  0.723500  0.083300  0.229200  1.0  0.1884
  C  C548  1  0.771900  0.053300  0.236130  1.0  -0.2434
  C  C549  1  0.820100  0.045600  0.223170  1.0  -0.0666
  C  C550  1  0.027200  0.164200  0.129840  1.0  0.7236
  C  C551  1  0.034600  0.232600  0.117250  1.0  -0.1336
  C  C552  1  0.110660  0.290860  0.110830  1.0  -0.0101
  C  C553  1  0.119000  0.352400  0.098440  1.0  -0.1895
  C  C554  1  0.051300  0.355700  0.092470  1.0  0.1997
  C  C555  1  0.975300  0.297500  0.098890  1.0  -0.1966
  C  C556  1  0.966950  0.235850  0.111280  1.0  -0.0335
  C  C557  1  0.138400  0.490100  0.080400  1.0  -0.1434
  C  C558  1  0.829400  0.370800  0.020710  1.0  0.7114
  C  C559  1  0.887700  0.381900  0.036820  1.0  -0.1333
  C  C560  1  0.935000  0.457400  0.045240  1.0  -0.057
  C  C561  1  0.991600  0.468700  0.059570  1.0  -0.1447
  C  C562  1  0.000900  0.404400  0.065500  1.0  0.1067
  C  C563  1  0.953600  0.328800  0.057080  1.0  -0.1626
  C  C564  1  0.896900  0.317500  0.042740  1.0  -0.0617
  C  C565  1  0.131570  0.164530  0.625230  1.0  0.669
  C  C566  1  0.189970  0.236830  0.612660  1.0  -0.1036
  C  C567  1  0.226170  0.314630  0.620170  1.0  -0.0459
  C  C568  1  0.277770  0.379530  0.608380  1.0  -0.2115
  C  C569  1  0.293170  0.366630  0.589060  1.0  0.1896
  C  C570  1  0.256970  0.288730  0.581540  1.0  -0.1324
  C  C571  1  0.205370  0.223830  0.593340  1.0  -0.1034
  C  C572  1  0.353770  0.511930  0.579380  1.0  -0.1738
  C  C573  1  0.537070  0.373730  0.523480  1.0  0.7177
  C  C574  1  0.484170  0.387830  0.536750  1.0  -0.1095
  C  C575  1  0.436170  0.415730  0.530290  1.0  -0.0656
  C  C576  1  0.386270  0.427930  0.542970  1.0  -0.1644
  C  C577  1  0.390170  0.416630  0.562530  1.0  0.1884
  C  C578  1  0.438570  0.386630  0.569460  1.0  -0.2434
  C  C579  1  0.486770  0.378930  0.556500  1.0  -0.0667
  C  C580  1  0.693870  0.497530  0.463170  1.0  0.7235
  C  C581  1  0.701270  0.565930  0.450580  1.0  -0.1337
  C  C582  1  0.777330  0.624190  0.444160  1.0  -0.0101
  C  C583  1  0.785670  0.685730  0.431770  1.0  -0.1893
  C  C584  1  0.717970  0.689030  0.425800  1.0  0.1997
  C  C585  1  0.641970  0.630830  0.432220  1.0  -0.1965
  C  C586  1  0.633620  0.569180  0.444610  1.0  -0.0334
  C  C587  1  0.805070  0.823430  0.413730  1.0  -0.1434
  C  C588  1  0.496070  0.704130  0.354040  1.0  0.7
  C  C589  1  0.554370  0.715230  0.370150  1.0  -0.1333
  C  C590  1  0.601670  0.790730  0.378570  1.0  -0.057
  C  C591  1  0.658270  0.802030  0.392900  1.0  -0.1447
  C  C592  1  0.667570  0.737730  0.398830  1.0  0.1067
  C  C593  1  0.620270  0.662130  0.390410  1.0  -0.1626
  C  C594  1  0.563570  0.650830  0.376070  1.0  -0.0617
  C  C595  1  0.798230  0.497870  0.958570  1.0  0.6685
  C  C596  1  0.856630  0.570170  0.946000  1.0  -0.1036
  C  C597  1  0.892830  0.647970  0.953510  1.0  -0.0458
  C  C598  1  0.944430  0.712870  0.941720  1.0  -0.2122
  C  C599  1  0.959830  0.699970  0.922400  1.0  0.1895
  C  C600  1  0.923630  0.622070  0.914880  1.0  -0.1327
  C  C601  1  0.872030  0.557170  0.926680  1.0  -0.1035
  C  C602  1  0.020430  0.845270  0.912720  1.0  -0.1738
  C  C603  1  0.203730  0.707070  0.856820  1.0  0.7176
  C  C604  1  0.150830  0.721170  0.870090  1.0  -0.1096
  C  C605  1  0.102830  0.749070  0.863630  1.0  -0.0656
  C  C606  1  0.052930  0.761270  0.876310  1.0  -0.1644
  C  C607  1  0.056830  0.749970  0.895870  1.0  0.1884
  C  C608  1  0.105230  0.719970  0.902800  1.0  -0.2434
  C  C609  1  0.153430  0.712270  0.889840  1.0  -0.0666
  C  C610  1  0.360530  0.830870  0.796510  1.0  0.7234
  C  C611  1  0.367930  0.899270  0.783920  1.0  -0.1336
  C  C612  1  0.443990  0.957530  0.777500  1.0  -0.0101
  C  C613  1  0.452330  0.019070  0.765110  1.0  -0.1895
  C  C614  1  0.384630  0.022370  0.759140  1.0  0.1997
  C  C615  1  0.308630  0.964170  0.765560  1.0  -0.1966
  C  C616  1  0.300280  0.902520  0.777950  1.0  -0.0335
  C  C617  1  0.471730  0.156770  0.747070  1.0  -0.1434
  C  C618  1  0.162730  0.037470  0.687380  1.0  0.7114
  C  C619  1  0.221030  0.048570  0.703490  1.0  -0.1333
  C  C620  1  0.268330  0.124070  0.711910  1.0  -0.057
  C  C621  1  0.324930  0.135370  0.726240  1.0  -0.1447
  C  C622  1  0.334230  0.071070  0.732170  1.0  0.1067
  C  C623  1  0.286930  0.995470  0.723750  1.0  -0.1626
  C  C624  1  0.230230  0.984170  0.709410  1.0  -0.0617
  C  C625  1  0.168800  0.633700  0.291900  1.0  0.6667
  C  C626  1  0.096500  0.619800  0.279330  1.0  -0.1052
  C  C627  1  0.018700  0.578200  0.286840  1.0  -0.0453
  C  C628  1  0.953800  0.564900  0.275050  1.0  -0.2113
  C  C629  1  0.966700  0.593200  0.255730  1.0  0.189
  C  C630  1  0.044600  0.634900  0.248210  1.0  -0.1318
  C  C631  1  0.109500  0.648200  0.260010  1.0  -0.1026
  C  C632  1  0.821400  0.508500  0.246050  1.0  -0.1718
  C  C633  1  0.959600  0.830000  0.190150  1.0  0.7167
  C  C634  1  0.945500  0.763000  0.203420  1.0  -0.1067
  C  C635  1  0.917600  0.687100  0.196960  1.0  -0.066
  C  C636  1  0.905400  0.625000  0.209640  1.0  -0.1659
  C  C637  1  0.916700  0.640200  0.229200  1.0  0.1885
  C  C638  1  0.946700  0.718600  0.236130  1.0  -0.2431
  C  C639  1  0.954400  0.774500  0.223170  1.0  -0.0742
  C  C640  1  0.835800  0.863000  0.129840  1.0  0.7224
  C  C641  1  0.767400  0.802000  0.117250  1.0  -0.1361
  C  C642  1  0.709140  0.819800  0.110830  1.0  -0.01
  C  C643  1  0.647600  0.766600  0.098440  1.0  -0.1952
  C  C644  1  0.644300  0.695600  0.092470  1.0  0.2006
  C  C645  1  0.702500  0.677800  0.098890  1.0  -0.1983
  C  C646  1  0.764150  0.731100  0.111280  1.0  -0.0318
  C  C647  1  0.509900  0.648300  0.080400  1.0  -0.1425
  C  C648  1  0.629200  0.458600  0.020710  1.0  0.6994
  C  C649  1  0.618100  0.505800  0.036820  1.0  -0.1337
  C  C650  1  0.542600  0.477600  0.045240  1.0  -0.0548
  C  C651  1  0.531300  0.522900  0.059570  1.0  -0.1432
  C  C652  1  0.595600  0.596500  0.065500  1.0  0.1068
  C  C653  1  0.671200  0.624800  0.057080  1.0  -0.1594
  C  C654  1  0.682500  0.579400  0.042740  1.0  -0.0606
  C  C655  1  0.835470  0.967030  0.625230  1.0  0.6673
  C  C656  1  0.763170  0.953130  0.612660  1.0  -0.1053
  C  C657  1  0.685370  0.911530  0.620170  1.0  -0.0455
  C  C658  1  0.620470  0.898230  0.608380  1.0  -0.2102
  C  C659  1  0.633370  0.926530  0.589060  1.0  0.189
  C  C660  1  0.711270  0.968230  0.581540  1.0  -0.1323
  C  C661  1  0.776170  0.981530  0.593340  1.0  -0.1026
  C  C662  1  0.488070  0.841830  0.579380  1.0  -0.1718
  C  C663  1  0.626270  0.163330  0.523480  1.0  0.7168
  C  C664  1  0.612170  0.096330  0.536750  1.0  -0.1066
  C  C665  1  0.584270  0.020430  0.530290  1.0  -0.066
  C  C666  1  0.572070  0.958330  0.542970  1.0  -0.1659
  C  C667  1  0.583370  0.973530  0.562530  1.0  0.1885
  C  C668  1  0.613370  0.051930  0.569460  1.0  -0.2431
  C  C669  1  0.621070  0.107830  0.556500  1.0  -0.0742
  C  C670  1  0.502470  0.196330  0.463170  1.0  0.7222
  C  C671  1  0.434070  0.135330  0.450580  1.0  -0.1361
  C  C672  1  0.375810  0.153130  0.444160  1.0  -0.01
  C  C673  1  0.314270  0.099930  0.431770  1.0  -0.1951
  C  C674  1  0.310970  0.028930  0.425800  1.0  0.2006
  C  C675  1  0.369170  0.011130  0.432220  1.0  -0.1982
  C  C676  1  0.430820  0.064430  0.444610  1.0  -0.0317
  C  C677  1  0.176570  0.981630  0.413730  1.0  -0.1424
  C  C678  1  0.295870  0.791930  0.354040  1.0  0.7099
  C  C679  1  0.284770  0.839130  0.370150  1.0  -0.1337
  C  C680  1  0.209270  0.810930  0.378570  1.0  -0.0548
  C  C681  1  0.197970  0.856230  0.392900  1.0  -0.1432
  C  C682  1  0.262270  0.929830  0.398830  1.0  0.1068
  C  C683  1  0.337870  0.958130  0.390410  1.0  -0.1601
  C  C684  1  0.349170  0.912730  0.376070  1.0  -0.0606
  C  C685  1  0.502130  0.300370  0.958570  1.0  0.6667
  C  C686  1  0.429830  0.286470  0.946000  1.0  -0.1052
  C  C687  1  0.352030  0.244870  0.953510  1.0  -0.0453
  C  C688  1  0.287130  0.231570  0.941720  1.0  -0.2113
  C  C689  1  0.300030  0.259870  0.922400  1.0  0.189
  C  C690  1  0.377930  0.301570  0.914880  1.0  -0.1318
  C  C691  1  0.442830  0.314870  0.926680  1.0  -0.1026
  C  C692  1  0.154730  0.175170  0.912720  1.0  -0.1719
  C  C693  1  0.292930  0.496670  0.856820  1.0  0.7167
  C  C694  1  0.278830  0.429670  0.870090  1.0  -0.1067
  C  C695  1  0.250930  0.353770  0.863630  1.0  -0.066
  C  C696  1  0.238730  0.291670  0.876310  1.0  -0.1659
  C  C697  1  0.250030  0.306870  0.895870  1.0  0.1885
  C  C698  1  0.280030  0.385270  0.902800  1.0  -0.2431
  C  C699  1  0.287730  0.441170  0.889840  1.0  -0.0742
  C  C700  1  0.169130  0.529670  0.796510  1.0  0.7222
  C  C701  1  0.100730  0.468670  0.783920  1.0  -0.1361
  C  C702  1  0.042470  0.486470  0.777500  1.0  -0.01
  C  C703  1  0.980930  0.433270  0.765110  1.0  -0.1952
  C  C704  1  0.977630  0.362270  0.759140  1.0  0.2006
  C  C705  1  0.035830  0.344470  0.765560  1.0  -0.1983
  C  C706  1  0.097480  0.397770  0.777950  1.0  -0.0318
  C  C707  1  0.843230  0.314970  0.747070  1.0  -0.1425
  C  C708  1  0.962530  0.125270  0.687380  1.0  0.6994
  C  C709  1  0.951430  0.172470  0.703490  1.0  -0.1337
  C  C710  1  0.875930  0.144270  0.711910  1.0  -0.0548
  C  C711  1  0.864630  0.189570  0.726240  1.0  -0.1432
  C  C712  1  0.928930  0.263170  0.732170  1.0  0.1068
  C  C713  1  0.004530  0.291470  0.723750  1.0  -0.1594
  C  C714  1  0.015830  0.246070  0.709410  1.0  -0.0606
  C  C715  1  0.535100  0.366300  0.708100  1.0  0.6684
  C  C716  1  0.476700  0.380200  0.720670  1.0  -0.1056
  C  C717  1  0.440500  0.421800  0.713160  1.0  -0.0466
  C  C718  1  0.388900  0.435100  0.724950  1.0  -0.2098
  C  C719  1  0.373500  0.406800  0.744270  1.0  0.1888
  C  C720  1  0.409700  0.365100  0.751790  1.0  -0.1323
  C  C721  1  0.461300  0.351800  0.739990  1.0  -0.1026
  C  C722  1  0.312900  0.491500  0.753950  1.0  -0.1695
  C  C723  1  0.129600  0.170000  0.809850  1.0  0.7164
  C  C724  1  0.182500  0.237000  0.796580  1.0  -0.1077
  C  C725  1  0.230500  0.312900  0.803040  1.0  -0.0645
  C  C726  1  0.280400  0.375000  0.790360  1.0  -0.1647
  C  C727  1  0.276500  0.359800  0.770800  1.0  0.1888
  C  C728  1  0.228100  0.281400  0.763870  1.0  -0.2444
  C  C729  1  0.179900  0.225500  0.776830  1.0  -0.0749
  C  C730  1  0.972800  0.137000  0.870160  1.0  0.7234
  C  C731  1  0.965400  0.198000  0.882750  1.0  -0.1342
  C  C732  1  0.889340  0.180200  0.889170  1.0  -0.0105
  C  C733  1  0.881000  0.233400  0.901560  1.0  -0.1916
  C  C734  1  0.948700  0.304400  0.907530  1.0  0.2005
  C  C735  1  0.024700  0.322200  0.901110  1.0  -0.1977
  C  C736  1  0.033050  0.268900  0.888720  1.0  -0.0315
  C  C737  1  0.861600  0.351700  0.919600  1.0  -0.1427
  C  C738  1  0.170600  0.541400  0.979290  1.0  0.6994
  C  C739  1  0.112300  0.494200  0.963180  1.0  -0.1322
  C  C740  1  0.065000  0.522400  0.954760  1.0  -0.0549
  C  C741  1  0.008400  0.477100  0.940430  1.0  -0.1434
  C  C742  1  0.999100  0.403500  0.934500  1.0  0.1061
  C  C743  1  0.046400  0.375200  0.942920  1.0  -0.1594
  C  C744  1  0.103100  0.420600  0.957260  1.0  -0.0602
  C  C745  1  0.201770  0.699630  0.041430  1.0  0.6684
  C  C746  1  0.143370  0.713530  0.054000  1.0  -0.1056
  C  C747  1  0.107170  0.755130  0.046490  1.0  -0.0466
  C  C748  1  0.055570  0.768430  0.058280  1.0  -0.2098
  C  C749  1  0.040170  0.740130  0.077600  1.0  0.1888
  C  C750  1  0.076370  0.698430  0.085120  1.0  -0.1323
  C  C751  1  0.127970  0.685130  0.073320  1.0  -0.1026
  C  C752  1  0.979570  0.824830  0.087280  1.0  -0.1695
  C  C753  1  0.796270  0.503330  0.143180  1.0  0.7164
  C  C754  1  0.849170  0.570330  0.129910  1.0  -0.1077
  C  C755  1  0.897170  0.646230  0.136370  1.0  -0.0645
  C  C756  1  0.947070  0.708330  0.123690  1.0  -0.1647
  C  C757  1  0.943170  0.693130  0.104130  1.0  0.1888
  C  C758  1  0.894770  0.614730  0.097200  1.0  -0.2444
  C  C759  1  0.846570  0.558830  0.110160  1.0  -0.0749
  C  C760  1  0.639470  0.470330  0.203490  1.0  0.7232
  C  C761  1  0.632070  0.531330  0.216080  1.0  -0.1342
  C  C762  1  0.556010  0.513530  0.222500  1.0  -0.0105
  C  C763  1  0.547670  0.566730  0.234890  1.0  -0.1916
  C  C764  1  0.615370  0.637730  0.240860  1.0  0.2005
  C  C765  1  0.691370  0.655530  0.234440  1.0  -0.1978
  C  C766  1  0.699720  0.602230  0.222050  1.0  -0.0315
  C  C767  1  0.528270  0.685030  0.252930  1.0  -0.1428
  C  C768  1  0.837270  0.874730  0.312620  1.0  0.6994
  C  C769  1  0.778970  0.827530  0.296510  1.0  -0.1322
  C  C770  1  0.731670  0.855730  0.288090  1.0  -0.0549
  C  C771  1  0.675070  0.810430  0.273760  1.0  -0.1434
  C  C772  1  0.665770  0.736830  0.267830  1.0  0.1061
  C  C773  1  0.713070  0.708530  0.276250  1.0  -0.1594
  C  C774  1  0.769770  0.753930  0.290590  1.0  -0.0603
  C  C775  1  0.868430  0.032970  0.374770  1.0  0.6689
  C  C776  1  0.810030  0.046870  0.387340  1.0  -0.1057
  C  C777  1  0.773830  0.088470  0.379830  1.0  -0.0466
  C  C778  1  0.722230  0.101770  0.391620  1.0  -0.2094
  C  C779  1  0.706830  0.073470  0.410940  1.0  0.1888
  C  C780  1  0.743030  0.031770  0.418460  1.0  -0.1323
  C  C781  1  0.794630  0.018470  0.406660  1.0  -0.1026
  C  C782  1  0.646230  0.158170  0.420620  1.0  -0.1695
  C  C783  1  0.462930  0.836670  0.476520  1.0  0.7164
  C  C784  1  0.515830  0.903670  0.463250  1.0  -0.1075
  C  C785  1  0.563830  0.979570  0.469710  1.0  -0.0644
  C  C786  1  0.613730  0.041670  0.457030  1.0  -0.1647
  C  C787  1  0.609830  0.026470  0.437470  1.0  0.1888
  C  C788  1  0.561430  0.948070  0.430540  1.0  -0.2445
  C  C789  1  0.513230  0.892170  0.443500  1.0  -0.0749
  C  C790  1  0.306130  0.803670  0.536830  1.0  0.7232
  C  C791  1  0.298730  0.864670  0.549420  1.0  -0.1342
  C  C792  1  0.222670  0.846870  0.555840  1.0  -0.0104
  C  C793  1  0.214330  0.900070  0.568230  1.0  -0.1914
  C  C794  1  0.282030  0.971070  0.574200  1.0  0.2005
  C  C795  1  0.358030  0.988870  0.567780  1.0  -0.1978
  C  C796  1  0.366380  0.935570  0.555390  1.0  -0.0315
  C  C797  1  0.194930  0.018370  0.586270  1.0  -0.1428
  C  C798  1  0.503930  0.208070  0.645960  1.0  0.6989
  C  C799  1  0.445630  0.160870  0.629850  1.0  -0.1322
  C  C800  1  0.398330  0.189070  0.621430  1.0  -0.0549
  C  C801  1  0.341730  0.143770  0.607100  1.0  -0.1434
  C  C802  1  0.332430  0.070170  0.601170  1.0  0.1061
  C  C803  1  0.379730  0.041870  0.609590  1.0  -0.1594
  C  C804  1  0.436430  0.087270  0.623930  1.0  -0.0603
  C  C805  1  0.831200  0.464900  0.708100  1.0  0.6686
  C  C806  1  0.903500  0.523300  0.720670  1.0  -0.1055
  C  C807  1  0.981300  0.559500  0.713160  1.0  -0.0468
  C  C808  1  0.046200  0.611100  0.724950  1.0  -0.2149
  C  C809  1  0.033300  0.626500  0.744270  1.0  0.1911
  C  C810  1  0.955400  0.590300  0.751790  1.0  -0.132
  C  C811  1  0.890500  0.538700  0.739990  1.0  -0.101
  C  C812  1  0.178600  0.687100  0.753950  1.0  -0.1706
  C  C813  1  0.040400  0.870400  0.809850  1.0  0.7171
  C  C814  1  0.054500  0.817500  0.796580  1.0  -0.1091
  C  C815  1  0.082400  0.769500  0.803040  1.0  -0.0656
  C  C816  1  0.094600  0.719600  0.790360  1.0  -0.1632
  C  C817  1  0.083300  0.723500  0.770800  1.0  0.1868
  C  C818  1  0.053300  0.771900  0.763870  1.0  -0.2466
  C  C819  1  0.045600  0.820100  0.776830  1.0  -0.0725
  C  C820  1  0.164200  0.027200  0.870160  1.0  0.7238
  C  C821  1  0.232600  0.034600  0.882750  1.0  -0.1352
  C  C822  1  0.290860  0.110660  0.889170  1.0  -0.0103
  C  C823  1  0.352400  0.119000  0.901560  1.0  -0.1875
  C  C824  1  0.355700  0.051300  0.907530  1.0  0.1996
  C  C825  1  0.297500  0.975300  0.901110  1.0  -0.1993
  C  C826  1  0.235850  0.966950  0.888720  1.0  -0.0333
  C  C827  1  0.490100  0.138400  0.919600  1.0  -0.1457
  C  C828  1  0.370800  0.829400  0.979290  1.0  0.7094
  C  C829  1  0.381900  0.887700  0.963180  1.0  -0.1315
  C  C830  1  0.457400  0.935000  0.954760  1.0  -0.0564
  C  C831  1  0.468700  0.991600  0.940430  1.0  -0.143
  C  C832  1  0.404400  0.000900  0.934500  1.0  0.1078
  C  C833  1  0.328800  0.953600  0.942920  1.0  -0.1555
  C  C834  1  0.317500  0.896900  0.957260  1.0  -0.0604
  C  C835  1  0.497870  0.798230  0.041430  1.0  0.6686
  C  C836  1  0.570170  0.856630  0.054000  1.0  -0.1055
  C  C837  1  0.647970  0.892830  0.046490  1.0  -0.0468
  C  C838  1  0.712870  0.944430  0.058280  1.0  -0.2149
  C  C839  1  0.699970  0.959830  0.077600  1.0  0.1911
  C  C840  1  0.622070  0.923630  0.085120  1.0  -0.132
  C  C841  1  0.557170  0.872030  0.073320  1.0  -0.101
  C  C842  1  0.845270  0.020430  0.087280  1.0  -0.1706
  C  C843  1  0.707070  0.203730  0.143180  1.0  0.7171
  C  C844  1  0.721170  0.150830  0.129910  1.0  -0.1092
  C  C845  1  0.749070  0.102830  0.136370  1.0  -0.0656
  C  C846  1  0.761270  0.052930  0.123690  1.0  -0.1632
  C  C847  1  0.749970  0.056830  0.104130  1.0  0.1868
  C  C848  1  0.719970  0.105230  0.097200  1.0  -0.2466
  C  C849  1  0.712270  0.153430  0.110160  1.0  -0.0725
  C  C850  1  0.830870  0.360530  0.203490  1.0  0.7236
  C  C851  1  0.899270  0.367930  0.216080  1.0  -0.1352
  C  C852  1  0.957530  0.443990  0.222500  1.0  -0.0103
  C  C853  1  0.019070  0.452330  0.234890  1.0  -0.1875
  C  C854  1  0.022370  0.384630  0.240860  1.0  0.1996
  C  C855  1  0.964170  0.308630  0.234440  1.0  -0.1993
  C  C856  1  0.902520  0.300280  0.222050  1.0  -0.0333
  C  C857  1  0.156770  0.471730  0.252930  1.0  -0.1458
  C  C858  1  0.037470  0.162730  0.312620  1.0  0.7094
  C  C859  1  0.048570  0.221030  0.296510  1.0  -0.1315
  C  C860  1  0.124070  0.268330  0.288090  1.0  -0.0564
  C  C861  1  0.135370  0.324930  0.273760  1.0  -0.143
  C  C862  1  0.071070  0.334230  0.267830  1.0  0.1078
  C  C863  1  0.995470  0.286930  0.276250  1.0  -0.1555
  C  C864  1  0.984170  0.230230  0.290590  1.0  -0.0604
  C  C865  1  0.164530  0.131570  0.374770  1.0  0.6691
  C  C866  1  0.236830  0.189970  0.387340  1.0  -0.1055
  C  C867  1  0.314630  0.226170  0.379830  1.0  -0.0468
  C  C868  1  0.379530  0.277770  0.391620  1.0  -0.2143
  C  C869  1  0.366630  0.293170  0.410940  1.0  0.1911
  C  C870  1  0.288730  0.256970  0.418460  1.0  -0.1317
  C  C871  1  0.223830  0.205370  0.406660  1.0  -0.101
  C  C872  1  0.511930  0.353770  0.420620  1.0  -0.1706
  C  C873  1  0.373730  0.537070  0.476520  1.0  0.7171
  C  C874  1  0.387830  0.484170  0.463250  1.0  -0.1092
  C  C875  1  0.415730  0.436170  0.469710  1.0  -0.0656
  C  C876  1  0.427930  0.386270  0.457030  1.0  -0.1632
  C  C877  1  0.416630  0.390170  0.437470  1.0  0.1868
  C  C878  1  0.386630  0.438570  0.430540  1.0  -0.2466
  C  C879  1  0.378930  0.486770  0.443500  1.0  -0.0726
  C  C880  1  0.497530  0.693870  0.536830  1.0  0.7237
  C  C881  1  0.565930  0.701270  0.549420  1.0  -0.1352
  C  C882  1  0.624190  0.777330  0.555840  1.0  -0.0103
  C  C883  1  0.685730  0.785670  0.568230  1.0  -0.1874
  C  C884  1  0.689030  0.717970  0.574200  1.0  0.1996
  C  C885  1  0.630830  0.641970  0.567780  1.0  -0.1993
  C  C886  1  0.569180  0.633620  0.555390  1.0  -0.0333
  C  C887  1  0.823430  0.805070  0.586270  1.0  -0.1458
  C  C888  1  0.704130  0.496070  0.645960  1.0  0.6991
  C  C889  1  0.715230  0.554370  0.629850  1.0  -0.1315
  C  C890  1  0.790730  0.601670  0.621430  1.0  -0.0564
  C  C891  1  0.802030  0.658270  0.607100  1.0  -0.143
  C  C892  1  0.737730  0.667570  0.601170  1.0  0.1077
  C  C893  1  0.662130  0.620270  0.609590  1.0  -0.1555
  C  C894  1  0.650830  0.563570  0.623930  1.0  -0.0604
  C  C895  1  0.633700  0.168800  0.708100  1.0  0.6702
  C  C896  1  0.619800  0.096500  0.720670  1.0  -0.1036
  C  C897  1  0.578200  0.018700  0.713160  1.0  -0.0455
  C  C898  1  0.564900  0.953800  0.724950  1.0  -0.2131
  C  C899  1  0.593200  0.966700  0.744270  1.0  0.1891
  C  C900  1  0.634900  0.044600  0.751790  1.0  -0.1334
  C  C901  1  0.648200  0.109500  0.739990  1.0  -0.1037
  C  C902  1  0.508500  0.821400  0.753950  1.0  -0.1709
  C  C903  1  0.830000  0.959600  0.809850  1.0  0.7174
  C  C904  1  0.763000  0.945500  0.796580  1.0  -0.1116
  C  C905  1  0.687100  0.917600  0.803040  1.0  -0.0646
  C  C906  1  0.625000  0.905400  0.790360  1.0  -0.1644
  C  C907  1  0.640200  0.916700  0.770800  1.0  0.188
  C  C908  1  0.718600  0.946700  0.763870  1.0  -0.2451
  C  C909  1  0.774500  0.954400  0.776830  1.0  -0.0665
  C  C910  1  0.863000  0.835800  0.870160  1.0  0.7243
  C  C911  1  0.802000  0.767400  0.882750  1.0  -0.1327
  C  C912  1  0.819800  0.709140  0.889170  1.0  -0.0105
  C  C913  1  0.766600  0.647600  0.901560  1.0  -0.187
  C  C914  1  0.695600  0.644300  0.907530  1.0  0.1994
  C  C915  1  0.677800  0.702500  0.901110  1.0  -0.1963
  C  C916  1  0.731100  0.764150  0.888720  1.0  -0.0328
  C  C917  1  0.648300  0.509900  0.919600  1.0  -0.1446
  C  C918  1  0.458600  0.629200  0.979290  1.0  0.6991
  C  C919  1  0.505800  0.618100  0.963180  1.0  -0.1323
  C  C920  1  0.477600  0.542600  0.954760  1.0  -0.0561
  C  C921  1  0.522900  0.531300  0.940430  1.0  -0.1448
  C  C922  1  0.596500  0.595600  0.934500  1.0  0.1063
  C  C923  1  0.624800  0.671200  0.942920  1.0  -0.161
  C  C924  1  0.579400  0.682500  0.957260  1.0  -0.0622
  C  C925  1  0.300370  0.502130  0.041430  1.0  0.6702
  C  C926  1  0.286470  0.429830  0.054000  1.0  -0.1036
  C  C927  1  0.244870  0.352030  0.046490  1.0  -0.0455
  C  C928  1  0.231570  0.287130  0.058280  1.0  -0.2131
  C  C929  1  0.259870  0.300030  0.077600  1.0  0.1891
  C  C930  1  0.301570  0.377930  0.085120  1.0  -0.1334
  C  C931  1  0.314870  0.442830  0.073320  1.0  -0.1037
  C  C932  1  0.175170  0.154730  0.087280  1.0  -0.171
  C  C933  1  0.496670  0.292930  0.143180  1.0  0.7174
  C  C934  1  0.429670  0.278830  0.129910  1.0  -0.1116
  C  C935  1  0.353770  0.250930  0.136370  1.0  -0.0646
  C  C936  1  0.291670  0.238730  0.123690  1.0  -0.1644
  C  C937  1  0.306870  0.250030  0.104130  1.0  0.188
  C  C938  1  0.385270  0.280030  0.097200  1.0  -0.2451
  C  C939  1  0.441170  0.287730  0.110160  1.0  -0.0665
  C  C940  1  0.529670  0.169130  0.203490  1.0  0.7241
  C  C941  1  0.468670  0.100730  0.216080  1.0  -0.1327
  C  C942  1  0.486470  0.042470  0.222500  1.0  -0.0105
  C  C943  1  0.433270  0.980930  0.234890  1.0  -0.187
  C  C944  1  0.362270  0.977630  0.240860  1.0  0.1994
  C  C945  1  0.344470  0.035830  0.234440  1.0  -0.1963
  C  C946  1  0.397770  0.097480  0.222050  1.0  -0.0328
  C  C947  1  0.314970  0.843230  0.252930  1.0  -0.1446
  C  C948  1  0.125270  0.962530  0.312620  1.0  0.6991
  C  C949  1  0.172470  0.951430  0.296510  1.0  -0.1322
  C  C950  1  0.144270  0.875930  0.288090  1.0  -0.0561
  C  C951  1  0.189570  0.864630  0.273760  1.0  -0.1448
  C  C952  1  0.263170  0.928930  0.267830  1.0  0.1063
  C  C953  1  0.291470  0.004530  0.276250  1.0  -0.161
  C  C954  1  0.246070  0.015830  0.290590  1.0  -0.0622
  C  C955  1  0.967030  0.835470  0.374770  1.0  0.6708
  C  C956  1  0.953130  0.763170  0.387340  1.0  -0.1037
  C  C957  1  0.911530  0.685370  0.379830  1.0  -0.0454
  C  C958  1  0.898230  0.620470  0.391620  1.0  -0.2119
  C  C959  1  0.926530  0.633370  0.410940  1.0  0.1891
  C  C960  1  0.968230  0.711270  0.418460  1.0  -0.1339
  C  C961  1  0.981530  0.776170  0.406660  1.0  -0.1037
  C  C962  1  0.841830  0.488070  0.420620  1.0  -0.1709
  C  C963  1  0.163330  0.626270  0.476520  1.0  0.7174
  C  C964  1  0.096330  0.612170  0.463250  1.0  -0.1115
  C  C965  1  0.020430  0.584270  0.469710  1.0  -0.0645
  C  C966  1  0.958330  0.572070  0.457030  1.0  -0.1644
  C  C967  1  0.973530  0.583370  0.437470  1.0  0.188
  C  C968  1  0.051930  0.613370  0.430540  1.0  -0.2451
  C  C969  1  0.107830  0.621070  0.443500  1.0  -0.0665
  C  C970  1  0.196330  0.502470  0.536830  1.0  0.7241
  C  C971  1  0.135330  0.434070  0.549420  1.0  -0.1328
  C  C972  1  0.153130  0.375810  0.555840  1.0  -0.0106
  C  C973  1  0.099930  0.314270  0.568230  1.0  -0.1869
  C  C974  1  0.028930  0.310970  0.574200  1.0  0.1994
  C  C975  1  0.011130  0.369170  0.567780  1.0  -0.1962
  C  C976  1  0.064430  0.430820  0.555390  1.0  -0.0327
  C  C977  1  0.981630  0.176570  0.586270  1.0  -0.1446
  C  C978  1  0.791930  0.295870  0.645960  1.0  0.7094
  C  C979  1  0.839130  0.284770  0.629850  1.0  -0.1323
  C  C980  1  0.810930  0.209270  0.621430  1.0  -0.0561
  C  C981  1  0.856230  0.197970  0.607100  1.0  -0.1448
  C  C982  1  0.929830  0.262270  0.601170  1.0  0.1063
  C  C983  1  0.958130  0.337870  0.609590  1.0  -0.1617
  C  C984  1  0.912730  0.349170  0.623930  1.0  -0.0622
  N  N985  1  0.422500  0.324700  0.243470  1.0  -0.1345
  N  N986  1  0.354400  0.938300  0.080440  1.0  -0.1433
  N  N987  1  0.089170  0.658030  0.576800  1.0  -0.1346
  N  N988  1  0.021070  0.271630  0.413770  1.0  -0.1433
  N  N989  1  0.755830  0.991370  0.910140  1.0  -0.1345
  N  N990  1  0.687730  0.604970  0.747110  1.0  -0.1433
  N  N991  1  0.675300  0.097800  0.243470  1.0  -0.1349
  N  N992  1  0.061700  0.416100  0.080440  1.0  -0.1445
  N  N993  1  0.341970  0.431130  0.576800  1.0  -0.135
  N  N994  1  0.728370  0.749430  0.413770  1.0  -0.1445
  N  N995  1  0.008630  0.764470  0.910140  1.0  -0.1349
  N  N996  1  0.395030  0.082770  0.747110  1.0  -0.1445
  N  N997  1  0.902200  0.577500  0.243470  1.0  -0.135
  N  N998  1  0.583900  0.645600  0.080440  1.0  -0.1437
  N  N999  1  0.568870  0.910830  0.576800  1.0  -0.135
  N  N1000  1  0.250570  0.978930  0.413770  1.0  -0.1437
  N  N1001  1  0.235530  0.244170  0.910140  1.0  -0.135
  N  N1002  1  0.917230  0.312270  0.747110  1.0  -0.1437
  N  N1003  1  0.324700  0.422500  0.756530  1.0  -0.1363
  N  N1004  1  0.938300  0.354400  0.919560  1.0  -0.1443
  N  N1005  1  0.991370  0.755830  0.089860  1.0  -0.1363
  N  N1006  1  0.604970  0.687730  0.252890  1.0  -0.1443
  N  N1007  1  0.658030  0.089170  0.423200  1.0  -0.1363
  N  N1008  1  0.271630  0.021070  0.586230  1.0  -0.1443
  N  N1009  1  0.097800  0.675300  0.756530  1.0  -0.1353
  N  N1010  1  0.416100  0.061700  0.919560  1.0  -0.1431
  N  N1011  1  0.764470  0.008630  0.089860  1.0  -0.1353
  N  N1012  1  0.082770  0.395030  0.252890  1.0  -0.1431
  N  N1013  1  0.431130  0.341970  0.423200  1.0  -0.1353
  N  N1014  1  0.749430  0.728370  0.586230  1.0  -0.1431
  N  N1015  1  0.577500  0.902200  0.756530  1.0  -0.1347
  N  N1016  1  0.645600  0.583900  0.919560  1.0  -0.1451
  N  N1017  1  0.244170  0.235530  0.089860  1.0  -0.1347
  N  N1018  1  0.312270  0.917230  0.252890  1.0  -0.1451
  N  N1019  1  0.910830  0.568870  0.423200  1.0  -0.1347
  N  N1020  1  0.978930  0.250570  0.586230  1.0  -0.1451
  O  O1021  1  0.337600  0.574900  0.283230  1.0  -0.5945
  O  O1022  1  0.381800  0.536900  0.309950  1.0  -0.6054
  O  O1023  1  0.103400  0.080500  0.198200  1.0  -0.6336
  O  O1024  1  0.181100  0.143600  0.172240  1.0  -0.5938
  O  O1025  1  0.153000  0.044200  0.133650  1.0  -0.6184
  O  O1026  1  0.076300  0.910300  0.136150  1.0  -0.6252
  O  O1027  1  0.516900  0.219500  0.015810  1.0  -0.6153
  O  O1028  1  0.602100  0.169800  0.014120  1.0  -0.5829
  O  O1029  1  0.004270  0.908230  0.616560  1.0  -0.6028
  O  O1030  1  0.048470  0.870230  0.643280  1.0  -0.6053
  O  O1031  1  0.770070  0.413830  0.531530  1.0  -0.6335
  O  O1032  1  0.847770  0.476930  0.505570  1.0  -0.5937
  O  O1033  1  0.819670  0.377530  0.466980  1.0  -0.6298
  O  O1034  1  0.742970  0.243630  0.469480  1.0  -0.6253
  O  O1035  1  0.183570  0.552830  0.349140  1.0  -0.6153
  O  O1036  1  0.268770  0.503130  0.347450  1.0  -0.5832
  O  O1037  1  0.670930  0.241570  0.949900  1.0  -0.5941
  O  O1038  1  0.715130  0.203570  0.976620  1.0  -0.6054
  O  O1039  1  0.436730  0.747170  0.864870  1.0  -0.6336
  O  O1040  1  0.514430  0.810270  0.838910  1.0  -0.5938
  O  O1041  1  0.486330  0.710870  0.800320  1.0  -0.6185
  O  O1042  1  0.409630  0.576970  0.802820  1.0  -0.6253
  O  O1043  1  0.850230  0.886170  0.682480  1.0  -0.6153
  O  O1044  1  0.935430  0.836470  0.680790  1.0  -0.5835
  O  O1045  1  0.425100  0.762700  0.283230  1.0  -0.6013
  O  O1046  1  0.463100  0.844900  0.309950  1.0  -0.6046
  O  O1047  1  0.919500  0.022900  0.198200  1.0  -0.6319
  O  O1048  1  0.856400  0.037500  0.172240  1.0  -0.5916
  O  O1049  1  0.955800  0.108800  0.133650  1.0  -0.6296
  O  O1050  1  0.089700  0.166000  0.136150  1.0  -0.6234
  O  O1051  1  0.780500  0.297400  0.015810  1.0  -0.6171
  O  O1052  1  0.830200  0.432300  0.014120  1.0  -0.5853
  O  O1053  1  0.091770  0.096030  0.616560  1.0  -0.6041
  O  O1054  1  0.129770  0.178230  0.643280  1.0  -0.6046
  O  O1055  1  0.586170  0.356230  0.531530  1.0  -0.6318
  O  O1056  1  0.523070  0.370830  0.505570  1.0  -0.5916
  O  O1057  1  0.622470  0.442130  0.466980  1.0  -0.6192
  O  O1058  1  0.756370  0.499330  0.469480  1.0  -0.6235
  O  O1059  1  0.447170  0.630730  0.349140  1.0  -0.6171
  O  O1060  1  0.496870  0.765630  0.347450  1.0  -0.5856
  O  O1061  1  0.758430  0.429370  0.949900  1.0  -0.6008
  O  O1062  1  0.796430  0.511570  0.976620  1.0  -0.6047
  O  O1063  1  0.252830  0.689570  0.864870  1.0  -0.6319
  O  O1064  1  0.189730  0.704170  0.838910  1.0  -0.5916
  O  O1065  1  0.289130  0.775470  0.800320  1.0  -0.6297
  O  O1066  1  0.423030  0.832670  0.802820  1.0  -0.6235
  O  O1067  1  0.113830  0.964070  0.682480  1.0  -0.6175
  O  O1068  1  0.163530  0.098970  0.680790  1.0  -0.5847
  O  O1069  1  0.237300  0.662400  0.283230  1.0  -0.6045
  O  O1070  1  0.155100  0.618200  0.309950  1.0  -0.6078
  O  O1071  1  0.977100  0.896600  0.198200  1.0  -0.6321
  O  O1072  1  0.962500  0.818900  0.172240  1.0  -0.5924
  O  O1073  1  0.891200  0.847000  0.133650  1.0  -0.6322
  O  O1074  1  0.834000  0.923700  0.136150  1.0  -0.6231
  O  O1075  1  0.702600  0.483100  0.015810  1.0  -0.6143
  O  O1076  1  0.567700  0.397900  0.014120  1.0  -0.584
  O  O1077  1  0.903970  0.995730  0.616560  1.0  -0.5954
  O  O1078  1  0.821770  0.951530  0.643280  1.0  -0.6078
  O  O1079  1  0.643770  0.229930  0.531530  1.0  -0.6321
  O  O1080  1  0.629170  0.152230  0.505570  1.0  -0.5923
  O  O1081  1  0.557870  0.180330  0.466980  1.0  -0.6332
  O  O1082  1  0.500670  0.257030  0.469480  1.0  -0.6233
  O  O1083  1  0.369270  0.816430  0.349140  1.0  -0.6143
  O  O1084  1  0.234370  0.731230  0.347450  1.0  -0.5843
  O  O1085  1  0.570630  0.329070  0.949900  1.0  -0.5976
  O  O1086  1  0.488430  0.284870  0.976620  1.0  -0.6078
  O  O1087  1  0.310430  0.563270  0.864870  1.0  -0.6321
  O  O1088  1  0.295830  0.485570  0.838910  1.0  -0.5924
  O  O1089  1  0.224530  0.513670  0.800320  1.0  -0.6323
  O  O1090  1  0.167330  0.590370  0.802820  1.0  -0.6233
  O  O1091  1  0.035930  0.149770  0.682480  1.0  -0.6146
  O  O1092  1  0.901030  0.064570  0.680790  1.0  -0.5834
  O  O1093  1  0.333333  0.666667  0.321890  1.0  -1.2557
  O  O1094  1  0.000000  0.000000  0.655220  1.0  -1.2557
  O  O1095  1  0.666667  0.333333  0.988560  1.0  -1.267
  O  O1096  1  0.000000  0.000000  0.159840  1.0  -1.2734
  O  O1097  1  0.666667  0.333333  0.493170  1.0  -1.2737
  O  O1098  1  0.333333  0.666667  0.826510  1.0  -1.2735
  O  O1099  1  0.574900  0.337600  0.716770  1.0  -0.5947
  O  O1100  1  0.536900  0.381800  0.690050  1.0  -0.606
  O  O1101  1  0.080500  0.103400  0.801800  1.0  -0.6315
  O  O1102  1  0.143600  0.181100  0.827760  1.0  -0.592
  O  O1103  1  0.044200  0.153000  0.866350  1.0  -0.6185
  O  O1104  1  0.910300  0.076300  0.863850  1.0  -0.6229
  O  O1105  1  0.219500  0.516900  0.984190  1.0  -0.6145
  O  O1106  1  0.169800  0.602100  0.985880  1.0  -0.5837
  O  O1107  1  0.241570  0.670930  0.050100  1.0  -0.5943
  O  O1108  1  0.203570  0.715130  0.023380  1.0  -0.606
  O  O1109  1  0.747170  0.436730  0.135130  1.0  -0.6315
  O  O1110  1  0.810270  0.514430  0.161090  1.0  -0.5919
  O  O1111  1  0.710870  0.486330  0.199680  1.0  -0.6185
  O  O1112  1  0.576970  0.409630  0.197180  1.0  -0.6231
  O  O1113  1  0.886170  0.850230  0.317520  1.0  -0.6146
  O  O1114  1  0.836470  0.935430  0.319210  1.0  -0.5843
  O  O1115  1  0.908230  0.004270  0.383440  1.0  -0.6029
  O  O1116  1  0.870230  0.048470  0.356720  1.0  -0.606
  O  O1117  1  0.413830  0.770070  0.468470  1.0  -0.6315
  O  O1118  1  0.476930  0.847770  0.494430  1.0  -0.5919
  O  O1119  1  0.377530  0.819670  0.533020  1.0  -0.6313
  O  O1120  1  0.243630  0.742970  0.530520  1.0  -0.623
  O  O1121  1  0.552830  0.183570  0.650860  1.0  -0.6145
  O  O1122  1  0.503130  0.268770  0.652550  1.0  -0.584
  O  O1123  1  0.762700  0.425100  0.716770  1.0  -0.603
  O  O1124  1  0.844900  0.463100  0.690050  1.0  -0.6065
  O  O1125  1  0.022900  0.919500  0.801800  1.0  -0.6321
  O  O1126  1  0.037500  0.856400  0.827760  1.0  -0.5934
  O  O1127  1  0.108800  0.955800  0.866350  1.0  -0.6307
  O  O1128  1  0.166000  0.089700  0.863850  1.0  -0.6245
  O  O1129  1  0.297400  0.780500  0.984190  1.0  -0.6155
  O  O1130  1  0.432300  0.830200  0.985880  1.0  -0.584
  O  O1131  1  0.429370  0.758430  0.050100  1.0  -0.6024
  O  O1132  1  0.511570  0.796430  0.023380  1.0  -0.6068
  O  O1133  1  0.689570  0.252830  0.135130  1.0  -0.632
  O  O1134  1  0.704170  0.189730  0.161090  1.0  -0.5933
  O  O1135  1  0.775470  0.289130  0.199680  1.0  -0.6307
  O  O1136  1  0.832670  0.423030  0.197180  1.0  -0.6246
  O  O1137  1  0.964070  0.113830  0.317520  1.0  -0.6158
  O  O1138  1  0.098970  0.163530  0.319210  1.0  -0.5833
  O  O1139  1  0.096030  0.091770  0.383440  1.0  -0.6057
  O  O1140  1  0.178230  0.129770  0.356720  1.0  -0.6065
  O  O1141  1  0.356230  0.586170  0.468470  1.0  -0.632
  O  O1142  1  0.370830  0.523070  0.494430  1.0  -0.5933
  O  O1143  1  0.442130  0.622470  0.533020  1.0  -0.6204
  O  O1144  1  0.499330  0.756370  0.530520  1.0  -0.6245
  O  O1145  1  0.630730  0.447170  0.650860  1.0  -0.6155
  O  O1146  1  0.765630  0.496870  0.652550  1.0  -0.5843
  O  O1147  1  0.662400  0.237300  0.716770  1.0  -0.6048
  O  O1148  1  0.618200  0.155100  0.690050  1.0  -0.6045
  O  O1149  1  0.896600  0.977100  0.801800  1.0  -0.631
  O  O1150  1  0.818900  0.962500  0.827760  1.0  -0.5906
  O  O1151  1  0.847000  0.891200  0.866350  1.0  -0.6281
  O  O1152  1  0.923700  0.834000  0.863850  1.0  -0.6223
  O  O1153  1  0.483100  0.702600  0.984190  1.0  -0.6174
  O  O1154  1  0.397900  0.567700  0.985880  1.0  -0.5861
  O  O1155  1  0.329070  0.570630  0.050100  1.0  -0.5977
  O  O1156  1  0.284870  0.488430  0.023380  1.0  -0.6046
  O  O1157  1  0.563270  0.310430  0.135130  1.0  -0.631
  O  O1158  1  0.485570  0.295830  0.161090  1.0  -0.5906
  O  O1159  1  0.513670  0.224530  0.199680  1.0  -0.6282
  O  O1160  1  0.590370  0.167330  0.197180  1.0  -0.6224
  O  O1161  1  0.149770  0.035930  0.317520  1.0  -0.6177
  O  O1162  1  0.064570  0.901030  0.319210  1.0  -0.5856
  O  O1163  1  0.995730  0.903970  0.383440  1.0  -0.5958
  O  O1164  1  0.951530  0.821770  0.356720  1.0  -0.6045
  O  O1165  1  0.229930  0.643770  0.468470  1.0  -0.631
  O  O1166  1  0.152230  0.629170  0.494430  1.0  -0.5905
  O  O1167  1  0.180330  0.557870  0.533020  1.0  -0.6287
  O  O1168  1  0.257030  0.500670  0.530520  1.0  -0.6224
  O  O1169  1  0.816430  0.369270  0.650860  1.0  -0.6174
  O  O1170  1  0.731230  0.234370  0.652550  1.0  -0.5864
  O  O1171  1  0.666667  0.333333  0.678110  1.0  -1.2566
  O  O1172  1  0.333333  0.666667  0.011440  1.0  -1.2669
  O  O1173  1  0.000000  0.000000  0.344780  1.0  -1.2567
  O  O1174  1  0.000000  0.000000  0.840160  1.0  -1.2739
  O  O1175  1  0.666667  0.333333  0.173490  1.0  -1.2737
  O  O1176  1  0.333333  0.666667  0.506830  1.0  -1.2746
