# generated using pymatgen
data_Na2Cu12P5H26W30C36(N14O47)2
_symmetry_space_group_name_H-M   'P 1'
_cell_length_a   29.39480000
_cell_length_b   21.29380000
_cell_length_c   28.61800000
_cell_angle_alpha   90.00000000
_cell_angle_beta   110.72200000
_cell_angle_gamma   90.00000000
_symmetry_Int_Tables_number   1
_chemical_formula_structural   Na2Cu12P5H26W30C36(N14O47)2
_chemical_formula_sum   'Na8 Cu48 P20 H104 W120 C144 N112 O376'
_cell_volume   16753.96943691
_cell_formula_units_Z   4
loop_
 _symmetry_equiv_pos_site_id
 _symmetry_equiv_pos_as_xyz
  1  'x, y, z'
loop_
 _atom_site_type_symbol
 _atom_site_label
 _atom_site_symmetry_multiplicity
 _atom_site_fract_x
 _atom_site_fract_y
 _atom_site_fract_z
 _atom_site_occupancy
 _atom_site_charge
  Na  Na1  1  0.524800  0.040400  0.209700  1.0  0.7775
  Na  Na2  1  0.024800  0.540400  0.209700  1.0  0.7775
  Na  Na3  1  0.475200  0.040400  0.290300  1.0  0.8216
  Na  Na4  1  0.975200  0.540400  0.290300  1.0  0.8216
  Na  Na5  1  0.475200  0.959600  0.790300  1.0  0.8222
  Na  Na6  1  0.975200  0.459600  0.790300  1.0  0.8222
  Na  Na7  1  0.524800  0.959600  0.709700  1.0  0.7778
  Na  Na8  1  0.024800  0.459600  0.709700  1.0  0.7778
  Cu  Cu9  1  0.481530  0.146880  0.488040  1.0  0.7714
  Cu  Cu10  1  0.278020  0.085010  0.361890  1.0  0.3843
  Cu  Cu11  1  0.347420  0.316360  0.973380  1.0  0.8683
  Cu  Cu12  1  0.148400  0.060040  0.101030  1.0  0.8191
  Cu  Cu13  1  0.329730  0.943300  0.389380  1.0  0.4219
  Cu  Cu14  1  0.543850  0.676890  0.467780  1.0  0.7375
  Cu  Cu15  1  0.981530  0.646880  0.488040  1.0  0.7714
  Cu  Cu16  1  0.778020  0.585010  0.361890  1.0  0.3843
  Cu  Cu17  1  0.847420  0.816360  0.973380  1.0  0.8683
  Cu  Cu18  1  0.648400  0.560040  0.101030  1.0  0.8191
  Cu  Cu19  1  0.829730  0.443300  0.389380  1.0  0.4219
  Cu  Cu20  1  0.043850  0.176890  0.467780  1.0  0.7375
  Cu  Cu21  1  0.518470  0.146880  0.011960  1.0  0.7709
  Cu  Cu22  1  0.721980  0.085010  0.138110  1.0  0.3829
  Cu  Cu23  1  0.652580  0.316360  0.526620  1.0  0.8682
  Cu  Cu24  1  0.851600  0.060040  0.398970  1.0  0.8179
  Cu  Cu25  1  0.670270  0.943300  0.110620  1.0  0.4244
  Cu  Cu26  1  0.456150  0.676890  0.032220  1.0  0.7342
  Cu  Cu27  1  0.018470  0.646880  0.011960  1.0  0.7709
  Cu  Cu28  1  0.221980  0.585010  0.138110  1.0  0.3829
  Cu  Cu29  1  0.152580  0.816360  0.526620  1.0  0.8682
  Cu  Cu30  1  0.351600  0.560040  0.398970  1.0  0.8179
  Cu  Cu31  1  0.170270  0.443300  0.110620  1.0  0.4244
  Cu  Cu32  1  0.956150  0.176890  0.032220  1.0  0.7342
  Cu  Cu33  1  0.518470  0.853120  0.511960  1.0  0.771
  Cu  Cu34  1  0.721980  0.914990  0.638110  1.0  0.3814
  Cu  Cu35  1  0.652580  0.683640  0.026620  1.0  0.8678
  Cu  Cu36  1  0.851600  0.939960  0.898970  1.0  0.8179
  Cu  Cu37  1  0.670270  0.056700  0.610620  1.0  0.4269
  Cu  Cu38  1  0.456150  0.323110  0.532220  1.0  0.7341
  Cu  Cu39  1  0.018470  0.353120  0.511960  1.0  0.771
  Cu  Cu40  1  0.221980  0.414990  0.638110  1.0  0.3814
  Cu  Cu41  1  0.152580  0.183640  0.026620  1.0  0.8678
  Cu  Cu42  1  0.351600  0.439960  0.898970  1.0  0.8179
  Cu  Cu43  1  0.170270  0.556700  0.610620  1.0  0.4269
  Cu  Cu44  1  0.956150  0.823110  0.532220  1.0  0.7341
  Cu  Cu45  1  0.481530  0.853120  0.988040  1.0  0.7714
  Cu  Cu46  1  0.278020  0.914990  0.861890  1.0  0.3825
  Cu  Cu47  1  0.347420  0.683640  0.473380  1.0  0.8678
  Cu  Cu48  1  0.148400  0.939960  0.601030  1.0  0.8186
  Cu  Cu49  1  0.329730  0.056700  0.889380  1.0  0.4231
  Cu  Cu50  1  0.543850  0.323110  0.967780  1.0  0.7372
  Cu  Cu51  1  0.981530  0.353120  0.988040  1.0  0.7714
  Cu  Cu52  1  0.778020  0.414990  0.861890  1.0  0.3825
  Cu  Cu53  1  0.847420  0.183640  0.473380  1.0  0.8678
  Cu  Cu54  1  0.648400  0.439960  0.601030  1.0  0.8186
  Cu  Cu55  1  0.829730  0.556700  0.889380  1.0  0.4231
  Cu  Cu56  1  0.043850  0.823110  0.967780  1.0  0.7372
  P  P57  1  0.391600  0.090900  0.162870  1.0  1.6863
  P  P58  1  0.567000  0.906830  0.304510  1.0  1.6557
  P  P59  1  0.891600  0.590900  0.162870  1.0  1.6863
  P  P60  1  0.067000  0.406830  0.304510  1.0  1.6557
  P  P61  1  0.608400  0.090900  0.337130  1.0  1.6826
  P  P62  1  0.433000  0.906830  0.195490  1.0  1.6567
  P  P63  1  0.108400  0.590900  0.337130  1.0  1.6826
  P  P64  1  0.933000  0.406830  0.195490  1.0  1.6567
  P  P65  1  0.608400  0.909100  0.837130  1.0  1.6825
  P  P66  1  0.433000  0.093170  0.695490  1.0  1.6565
  P  P67  1  0.108400  0.409100  0.837130  1.0  1.6825
  P  P68  1  0.933000  0.593170  0.695490  1.0  1.6565
  P  P69  1  0.391600  0.909100  0.662870  1.0  1.6862
  P  P70  1  0.567000  0.093170  0.804510  1.0  1.6553
  P  P71  1  0.891600  0.409100  0.662870  1.0  1.6862
  P  P72  1  0.067000  0.593170  0.804510  1.0  1.6553
  P  P73  1  0.500000  0.205300  0.250000  1.0  1.7198
  P  P74  1  0.000000  0.705300  0.250000  1.0  1.7198
  P  P75  1  0.500000  0.794700  0.750000  1.0  1.7201
  P  P76  1  0.000000  0.294700  0.750000  1.0  1.7201
  H  H77  1  0.248600  0.977900  0.334500  1.0  0.3707
  H  H78  1  0.185200  0.167300  0.118600  1.0  0.386
  H  H79  1  0.559200  0.004100  0.558100  1.0  0.1003
  H  H80  1  0.414000  0.803300  0.501100  1.0  0.1104
  H  H81  1  0.593600  0.548900  0.460500  1.0  0.117
  H  H82  1  0.517900  0.521900  0.436200  1.0  0.2968
  H  H83  1  0.719700  0.675000  0.555600  1.0  0.1437
  H  H84  1  0.672100  0.508700  0.493500  1.0  0.1285
  H  H85  1  0.735000  0.572800  0.538000  1.0  0.1211
  H  H86  1  0.481700  0.411600  0.416500  1.0  0.1092
  H  H87  1  0.317400  0.424400  0.362300  1.0  0.1247
  H  H88  1  0.438200  0.322800  0.391500  1.0  0.133
  H  H89  1  0.354500  0.329800  0.362500  1.0  0.1257
  H  H90  1  0.748600  0.477900  0.334500  1.0  0.3707
  H  H91  1  0.685200  0.667300  0.118600  1.0  0.386
  H  H92  1  0.059200  0.504100  0.558100  1.0  0.1003
  H  H93  1  0.914000  0.303300  0.501100  1.0  0.1104
  H  H94  1  0.093600  0.048900  0.460500  1.0  0.117
  H  H95  1  0.017900  0.021900  0.436200  1.0  0.2968
  H  H96  1  0.219700  0.175000  0.555600  1.0  0.1437
  H  H97  1  0.172100  0.008700  0.493500  1.0  0.1285
  H  H98  1  0.235000  0.072800  0.538000  1.0  0.1211
  H  H99  1  0.981700  0.911600  0.416500  1.0  0.1092
  H  H100  1  0.817400  0.924400  0.362300  1.0  0.1247
  H  H101  1  0.938200  0.822800  0.391500  1.0  0.133
  H  H102  1  0.854500  0.829800  0.362500  1.0  0.1257
  H  H103  1  0.751400  0.977900  0.165500  1.0  0.3719
  H  H104  1  0.814800  0.167300  0.381400  1.0  0.3858
  H  H105  1  0.440800  0.004100  0.941900  1.0  0.1009
  H  H106  1  0.586000  0.803300  0.998900  1.0  0.1099
  H  H107  1  0.406400  0.548900  0.039500  1.0  0.1183
  H  H108  1  0.482100  0.521900  0.063800  1.0  0.2973
  H  H109  1  0.280300  0.675000  0.944400  1.0  0.1446
  H  H110  1  0.327900  0.508700  0.006500  1.0  0.1292
  H  H111  1  0.265000  0.572800  0.962000  1.0  0.1211
  H  H112  1  0.518300  0.411600  0.083500  1.0  0.1089
  H  H113  1  0.682600  0.424400  0.137700  1.0  0.1247
  H  H114  1  0.561800  0.322800  0.108500  1.0  0.1324
  H  H115  1  0.645500  0.329800  0.137500  1.0  0.1263
  H  H116  1  0.251400  0.477900  0.165500  1.0  0.3719
  H  H117  1  0.314800  0.667300  0.381400  1.0  0.3858
  H  H118  1  0.940800  0.504100  0.941900  1.0  0.1009
  H  H119  1  0.086000  0.303300  0.998900  1.0  0.1099
  H  H120  1  0.906400  0.048900  0.039500  1.0  0.1183
  H  H121  1  0.982100  0.021900  0.063800  1.0  0.2973
  H  H122  1  0.780300  0.175000  0.944400  1.0  0.1446
  H  H123  1  0.827900  0.008700  0.006500  1.0  0.1292
  H  H124  1  0.765000  0.072800  0.962000  1.0  0.1211
  H  H125  1  0.018300  0.911600  0.083500  1.0  0.1089
  H  H126  1  0.182600  0.924400  0.137700  1.0  0.1247
  H  H127  1  0.061800  0.822800  0.108500  1.0  0.1324
  H  H128  1  0.145500  0.829800  0.137500  1.0  0.1263
  H  H129  1  0.751400  0.022100  0.665500  1.0  0.3726
  H  H130  1  0.814800  0.832700  0.881400  1.0  0.3869
  H  H131  1  0.440800  0.995900  0.441900  1.0  0.1011
  H  H132  1  0.586000  0.196700  0.498900  1.0  0.1102
  H  H133  1  0.406400  0.451100  0.539500  1.0  0.118
  H  H134  1  0.482100  0.478100  0.563800  1.0  0.2966
  H  H135  1  0.280300  0.325000  0.444400  1.0  0.1433
  H  H136  1  0.327900  0.491300  0.506500  1.0  0.1289
  H  H137  1  0.265000  0.427200  0.462000  1.0  0.1208
  H  H138  1  0.518300  0.588400  0.583500  1.0  0.1087
  H  H139  1  0.682600  0.575600  0.637700  1.0  0.1246
  H  H140  1  0.561800  0.677200  0.608500  1.0  0.1325
  H  H141  1  0.645500  0.670200  0.637500  1.0  0.1259
  H  H142  1  0.251400  0.522100  0.665500  1.0  0.3726
  H  H143  1  0.314800  0.332700  0.881400  1.0  0.3869
  H  H144  1  0.940800  0.495900  0.441900  1.0  0.1011
  H  H145  1  0.086000  0.696700  0.498900  1.0  0.1102
  H  H146  1  0.906400  0.951100  0.539500  1.0  0.118
  H  H147  1  0.982100  0.978100  0.563800  1.0  0.2966
  H  H148  1  0.780300  0.825000  0.444400  1.0  0.1433
  H  H149  1  0.827900  0.991300  0.506500  1.0  0.1289
  H  H150  1  0.765000  0.927200  0.462000  1.0  0.1208
  H  H151  1  0.018300  0.088400  0.583500  1.0  0.1087
  H  H152  1  0.182600  0.075600  0.637700  1.0  0.1246
  H  H153  1  0.061800  0.177200  0.608500  1.0  0.1325
  H  H154  1  0.145500  0.170200  0.637500  1.0  0.1259
  H  H155  1  0.248600  0.022100  0.834500  1.0  0.3722
  H  H156  1  0.185200  0.832700  0.618600  1.0  0.3867
  H  H157  1  0.559200  0.995900  0.058100  1.0  0.1002
  H  H158  1  0.414000  0.196700  0.001100  1.0  0.1103
  H  H159  1  0.593600  0.451100  0.960500  1.0  0.1175
  H  H160  1  0.517900  0.478100  0.936200  1.0  0.2966
  H  H161  1  0.719700  0.325000  0.055600  1.0  0.1434
  H  H162  1  0.672100  0.491300  0.993500  1.0  0.1281
  H  H163  1  0.735000  0.427200  0.038000  1.0  0.1211
  H  H164  1  0.481700  0.588400  0.916500  1.0  0.1092
  H  H165  1  0.317400  0.575600  0.862300  1.0  0.1248
  H  H166  1  0.438200  0.677200  0.891500  1.0  0.133
  H  H167  1  0.354500  0.670200  0.862500  1.0  0.1259
  H  H168  1  0.748600  0.522100  0.834500  1.0  0.3722
  H  H169  1  0.685200  0.332700  0.618600  1.0  0.3867
  H  H170  1  0.059200  0.495900  0.058100  1.0  0.1002
  H  H171  1  0.914000  0.696700  0.001100  1.0  0.1103
  H  H172  1  0.093600  0.951100  0.960500  1.0  0.1175
  H  H173  1  0.017900  0.978100  0.936200  1.0  0.2966
  H  H174  1  0.219700  0.825000  0.055600  1.0  0.1434
  H  H175  1  0.172100  0.991300  0.993500  1.0  0.1281
  H  H176  1  0.235000  0.927200  0.038000  1.0  0.1211
  H  H177  1  0.981700  0.088400  0.916500  1.0  0.1092
  H  H178  1  0.817400  0.075600  0.862300  1.0  0.1248
  H  H179  1  0.938200  0.177200  0.891500  1.0  0.133
  H  H180  1  0.854500  0.170200  0.862500  1.0  0.1259
  W  W181  1  0.406810  0.311180  0.239720  1.0  1.4851
  W  W182  1  0.450450  0.191450  0.339490  1.0  1.3848
  W  W183  1  0.306730  0.203080  0.159290  1.0  1.4398
  W  W184  1  0.468120  0.319010  0.162010  1.0  1.3927
  W  W185  1  0.546790  0.083200  0.417270  1.0  2.3251
  W  W186  1  0.350040  0.088130  0.260330  1.0  1.4155
  W  W187  1  0.367330  0.213160  0.080890  1.0  2.485
  W  W188  1  0.277200  0.031990  0.132310  1.0  2.1899
  W  W189  1  0.509800  0.915220  0.387860  1.0  2.4287
  W  W190  1  0.676760  0.049020  0.457980  1.0  1.4482
  W  W191  1  0.386470  0.921090  0.288170  1.0  1.3815
  W  W192  1  0.314450  0.861810  0.165030  1.0  1.418
  W  W193  1  0.641010  0.878890  0.425870  1.0  1.4281
  W  W194  1  0.544480  0.766020  0.349400  1.0  1.5025
  W  W195  1  0.418610  0.765960  0.248440  1.0  1.4536
  W  W196  1  0.906810  0.811180  0.239720  1.0  1.4851
  W  W197  1  0.950450  0.691450  0.339490  1.0  1.3848
  W  W198  1  0.806730  0.703080  0.159290  1.0  1.4398
  W  W199  1  0.968120  0.819010  0.162010  1.0  1.3927
  W  W200  1  0.046790  0.583200  0.417270  1.0  2.3251
  W  W201  1  0.850040  0.588130  0.260330  1.0  1.4155
  W  W202  1  0.867330  0.713160  0.080890  1.0  2.485
  W  W203  1  0.777200  0.531990  0.132310  1.0  2.1899
  W  W204  1  0.009800  0.415220  0.387860  1.0  2.4287
  W  W205  1  0.176760  0.549020  0.457980  1.0  1.4482
  W  W206  1  0.886470  0.421090  0.288170  1.0  1.3815
  W  W207  1  0.814450  0.361810  0.165030  1.0  1.418
  W  W208  1  0.141010  0.378890  0.425870  1.0  1.4281
  W  W209  1  0.044480  0.266020  0.349400  1.0  1.5025
  W  W210  1  0.918610  0.265960  0.248440  1.0  1.4536
  W  W211  1  0.593190  0.311180  0.260280  1.0  1.486
  W  W212  1  0.549550  0.191450  0.160510  1.0  1.3852
  W  W213  1  0.693270  0.203080  0.340710  1.0  1.4395
  W  W214  1  0.531880  0.319010  0.337990  1.0  1.3931
  W  W215  1  0.453210  0.083200  0.082730  1.0  2.3234
  W  W216  1  0.649960  0.088130  0.239670  1.0  1.4175
  W  W217  1  0.632670  0.213160  0.419110  1.0  2.4855
  W  W218  1  0.722800  0.031990  0.367690  1.0  2.1872
  W  W219  1  0.490200  0.915220  0.112140  1.0  2.4289
  W  W220  1  0.323240  0.049020  0.042020  1.0  1.4508
  W  W221  1  0.613530  0.921090  0.211830  1.0  1.3791
  W  W222  1  0.685550  0.861810  0.334970  1.0  1.4177
  W  W223  1  0.358990  0.878890  0.074130  1.0  1.4314
  W  W224  1  0.455520  0.766020  0.150600  1.0  1.5024
  W  W225  1  0.581390  0.765960  0.251560  1.0  1.4557
  W  W226  1  0.093190  0.811180  0.260280  1.0  1.486
  W  W227  1  0.049550  0.691450  0.160510  1.0  1.3852
  W  W228  1  0.193270  0.703080  0.340710  1.0  1.4395
  W  W229  1  0.031880  0.819010  0.337990  1.0  1.3931
  W  W230  1  0.953210  0.583200  0.082730  1.0  2.3234
  W  W231  1  0.149960  0.588130  0.239670  1.0  1.4175
  W  W232  1  0.132670  0.713160  0.419110  1.0  2.4855
  W  W233  1  0.222800  0.531990  0.367690  1.0  2.1872
  W  W234  1  0.990200  0.415220  0.112140  1.0  2.4289
  W  W235  1  0.823240  0.549020  0.042020  1.0  1.4508
  W  W236  1  0.113530  0.421090  0.211830  1.0  1.3791
  W  W237  1  0.185550  0.361810  0.334970  1.0  1.4177
  W  W238  1  0.858990  0.378890  0.074130  1.0  1.4314
  W  W239  1  0.955520  0.266020  0.150600  1.0  1.5024
  W  W240  1  0.081390  0.265960  0.251560  1.0  1.4557
  W  W241  1  0.593190  0.688820  0.760280  1.0  1.4803
  W  W242  1  0.549550  0.808550  0.660510  1.0  1.3849
  W  W243  1  0.693270  0.796920  0.840710  1.0  1.4344
  W  W244  1  0.531880  0.680990  0.837990  1.0  1.3862
  W  W245  1  0.453210  0.916800  0.582730  1.0  2.3239
  W  W246  1  0.649960  0.911870  0.739670  1.0  1.4182
  W  W247  1  0.632670  0.786840  0.919110  1.0  2.487
  W  W248  1  0.722800  0.968010  0.867690  1.0  2.1874
  W  W249  1  0.490200  0.084780  0.612140  1.0  2.4297
  W  W250  1  0.323240  0.950980  0.542020  1.0  1.4519
  W  W251  1  0.613530  0.078910  0.711830  1.0  1.3788
  W  W252  1  0.685550  0.138190  0.834970  1.0  1.4228
  W  W253  1  0.358990  0.121110  0.574130  1.0  1.4328
  W  W254  1  0.455520  0.233980  0.650600  1.0  1.5087
  W  W255  1  0.581390  0.234040  0.751560  1.0  1.4615
  W  W256  1  0.093190  0.188820  0.760280  1.0  1.4803
  W  W257  1  0.049550  0.308550  0.660510  1.0  1.3849
  W  W258  1  0.193270  0.296920  0.840710  1.0  1.4344
  W  W259  1  0.031880  0.180990  0.837990  1.0  1.3862
  W  W260  1  0.953210  0.416800  0.582730  1.0  2.3239
  W  W261  1  0.149960  0.411870  0.739670  1.0  1.4182
  W  W262  1  0.132670  0.286840  0.919110  1.0  2.487
  W  W263  1  0.222800  0.468010  0.867690  1.0  2.1874
  W  W264  1  0.990200  0.584780  0.612140  1.0  2.4297
  W  W265  1  0.823240  0.450980  0.542020  1.0  1.4519
  W  W266  1  0.113530  0.578910  0.711830  1.0  1.3788
  W  W267  1  0.185550  0.638190  0.834970  1.0  1.4228
  W  W268  1  0.858990  0.621110  0.574130  1.0  1.4328
  W  W269  1  0.955520  0.733980  0.650600  1.0  1.5087
  W  W270  1  0.081390  0.734040  0.751560  1.0  1.4615
  W  W271  1  0.406810  0.688820  0.739720  1.0  1.4829
  W  W272  1  0.450450  0.808550  0.839490  1.0  1.3851
  W  W273  1  0.306730  0.796920  0.659290  1.0  1.4373
  W  W274  1  0.468120  0.680990  0.662010  1.0  1.3863
  W  W275  1  0.546790  0.916800  0.917270  1.0  2.3257
  W  W276  1  0.350040  0.911870  0.760330  1.0  1.4167
  W  W277  1  0.367330  0.786840  0.580890  1.0  2.4827
  W  W278  1  0.277200  0.968010  0.632310  1.0  2.1904
  W  W279  1  0.509800  0.084780  0.887860  1.0  2.4289
  W  W280  1  0.676760  0.950980  0.957980  1.0  1.4489
  W  W281  1  0.386470  0.078910  0.788170  1.0  1.3812
  W  W282  1  0.314450  0.138190  0.665030  1.0  1.421
  W  W283  1  0.641010  0.121110  0.925870  1.0  1.4306
  W  W284  1  0.544480  0.233980  0.849400  1.0  1.5081
  W  W285  1  0.418610  0.234040  0.748440  1.0  1.4605
  W  W286  1  0.906810  0.188820  0.739720  1.0  1.4829
  W  W287  1  0.950450  0.308550  0.839490  1.0  1.3851
  W  W288  1  0.806730  0.296920  0.659290  1.0  1.4373
  W  W289  1  0.968120  0.180990  0.662010  1.0  1.3863
  W  W290  1  0.046790  0.416800  0.917270  1.0  2.3257
  W  W291  1  0.850040  0.411870  0.760330  1.0  1.4167
  W  W292  1  0.867330  0.286840  0.580890  1.0  2.4827
  W  W293  1  0.777200  0.468010  0.632310  1.0  2.1904
  W  W294  1  0.009800  0.584780  0.887860  1.0  2.4289
  W  W295  1  0.176760  0.450980  0.957980  1.0  1.4489
  W  W296  1  0.886470  0.578910  0.788170  1.0  1.3812
  W  W297  1  0.814450  0.638190  0.665030  1.0  1.421
  W  W298  1  0.141010  0.621110  0.925870  1.0  1.4306
  W  W299  1  0.044480  0.733980  0.849400  1.0  1.5081
  W  W300  1  0.918610  0.734040  0.748440  1.0  1.4605
  C  C301  1  0.582100  0.972100  0.564900  1.0  0.2962
  C  C302  1  0.617600  0.884800  0.567600  1.0  0.2805
  C  C303  1  0.618700  0.820400  0.549700  1.0  0.2394
  C  C304  1  0.430300  0.772200  0.490400  1.0  0.2428
  C  C305  1  0.629700  0.730100  0.528900  1.0  0.2656
  C  C306  1  0.446300  0.687400  0.462500  1.0  0.2901
  C  C307  1  0.646900  0.668100  0.520100  1.0  0.1725
  C  C308  1  0.452900  0.623000  0.448100  1.0  0.3097
  C  C309  1  0.618800  0.574000  0.480600  1.0  0.1546
  C  C310  1  0.694500  0.648400  0.537400  1.0  -0.1169
  C  C311  1  0.666100  0.550300  0.499500  1.0  -0.1166
  C  C312  1  0.449800  0.528000  0.427500  1.0  0.3424
  C  C313  1  0.703300  0.588100  0.526700  1.0  -0.0797
  C  C314  1  0.426200  0.468500  0.410800  1.0  0.2303
  C  C315  1  0.448000  0.412900  0.407300  1.0  -0.1026
  C  C316  1  0.351100  0.421600  0.375400  1.0  0.1554
  C  C317  1  0.422800  0.361000  0.391300  1.0  -0.1063
  C  C318  1  0.373300  0.365400  0.374600  1.0  -0.0813
  C  C319  1  0.082100  0.472100  0.564900  1.0  0.2962
  C  C320  1  0.117600  0.384800  0.567600  1.0  0.2805
  C  C321  1  0.118700  0.320400  0.549700  1.0  0.2394
  C  C322  1  0.930300  0.272200  0.490400  1.0  0.2428
  C  C323  1  0.129700  0.230100  0.528900  1.0  0.2656
  C  C324  1  0.946300  0.187400  0.462500  1.0  0.2901
  C  C325  1  0.146900  0.168100  0.520100  1.0  0.1725
  C  C326  1  0.952900  0.123000  0.448100  1.0  0.3097
  C  C327  1  0.118800  0.074000  0.480600  1.0  0.1546
  C  C328  1  0.194500  0.148400  0.537400  1.0  -0.1169
  C  C329  1  0.166100  0.050300  0.499500  1.0  -0.1166
  C  C330  1  0.949800  0.028000  0.427500  1.0  0.3424
  C  C331  1  0.203300  0.088100  0.526700  1.0  -0.0797
  C  C332  1  0.926200  0.968500  0.410800  1.0  0.2303
  C  C333  1  0.948000  0.912900  0.407300  1.0  -0.1026
  C  C334  1  0.851100  0.921600  0.375400  1.0  0.1554
  C  C335  1  0.922800  0.861000  0.391300  1.0  -0.1063
  C  C336  1  0.873300  0.865400  0.374600  1.0  -0.0813
  C  C337  1  0.417900  0.972100  0.935100  1.0  0.2962
  C  C338  1  0.382400  0.884800  0.932400  1.0  0.2838
  C  C339  1  0.381300  0.820400  0.950300  1.0  0.2406
  C  C340  1  0.569700  0.772200  0.009600  1.0  0.2416
  C  C341  1  0.370300  0.730100  0.971100  1.0  0.2648
  C  C342  1  0.553700  0.687400  0.037500  1.0  0.2866
  C  C343  1  0.353100  0.668100  0.979900  1.0  0.1723
  C  C344  1  0.547100  0.623000  0.051900  1.0  0.3091
  C  C345  1  0.381200  0.574000  0.019400  1.0  0.1512
  C  C346  1  0.305500  0.648400  0.962600  1.0  -0.1171
  C  C347  1  0.333900  0.550300  0.000500  1.0  -0.1163
  C  C348  1  0.550200  0.528000  0.072500  1.0  0.3476
  C  C349  1  0.296700  0.588100  0.973300  1.0  -0.0819
  C  C350  1  0.573800  0.468500  0.089200  1.0  0.227
  C  C351  1  0.552000  0.412900  0.092700  1.0  -0.1074
  C  C352  1  0.648900  0.421600  0.124600  1.0  0.1511
  C  C353  1  0.577200  0.361000  0.108700  1.0  -0.1055
  C  C354  1  0.626700  0.365400  0.125400  1.0  -0.0822
  C  C355  1  0.917900  0.472100  0.935100  1.0  0.2962
  C  C356  1  0.882400  0.384800  0.932400  1.0  0.2838
  C  C357  1  0.881300  0.320400  0.950300  1.0  0.2406
  C  C358  1  0.069700  0.272200  0.009600  1.0  0.2416
  C  C359  1  0.870300  0.230100  0.971100  1.0  0.2648
  C  C360  1  0.053700  0.187400  0.037500  1.0  0.2866
  C  C361  1  0.853100  0.168100  0.979900  1.0  0.1723
  C  C362  1  0.047100  0.123000  0.051900  1.0  0.3091
  C  C363  1  0.881200  0.074000  0.019400  1.0  0.1512
  C  C364  1  0.805500  0.148400  0.962600  1.0  -0.1171
  C  C365  1  0.833900  0.050300  0.000500  1.0  -0.1163
  C  C366  1  0.050200  0.028000  0.072500  1.0  0.3476
  C  C367  1  0.796700  0.088100  0.973300  1.0  -0.0819
  C  C368  1  0.073800  0.968500  0.089200  1.0  0.227
  C  C369  1  0.052000  0.912900  0.092700  1.0  -0.1074
  C  C370  1  0.148900  0.921600  0.124600  1.0  0.1511
  C  C371  1  0.077200  0.861000  0.108700  1.0  -0.1055
  C  C372  1  0.126700  0.865400  0.125400  1.0  -0.0822
  C  C373  1  0.417900  0.027900  0.435100  1.0  0.2962
  C  C374  1  0.382400  0.115200  0.432400  1.0  0.2849
  C  C375  1  0.381300  0.179600  0.450300  1.0  0.2408
  C  C376  1  0.569700  0.227800  0.509600  1.0  0.2421
  C  C377  1  0.370300  0.269900  0.471100  1.0  0.2648
  C  C378  1  0.553700  0.312600  0.537500  1.0  0.2887
  C  C379  1  0.353100  0.331900  0.479900  1.0  0.1721
  C  C380  1  0.547100  0.377000  0.551900  1.0  0.309
  C  C381  1  0.381200  0.426000  0.519400  1.0  0.1508
  C  C382  1  0.305500  0.351600  0.462600  1.0  -0.1164
  C  C383  1  0.333900  0.449700  0.500500  1.0  -0.116
  C  C384  1  0.550200  0.472000  0.572500  1.0  0.3446
  C  C385  1  0.296700  0.411900  0.473300  1.0  -0.0821
  C  C386  1  0.573800  0.531500  0.589200  1.0  0.2299
  C  C387  1  0.552000  0.587100  0.592700  1.0  -0.1067
  C  C388  1  0.648900  0.578400  0.624600  1.0  0.1504
  C  C389  1  0.577200  0.639000  0.608700  1.0  -0.1058
  C  C390  1  0.626700  0.634600  0.625400  1.0  -0.0818
  C  C391  1  0.917900  0.527900  0.435100  1.0  0.2962
  C  C392  1  0.882400  0.615200  0.432400  1.0  0.2849
  C  C393  1  0.881300  0.679600  0.450300  1.0  0.2408
  C  C394  1  0.069700  0.727800  0.509600  1.0  0.2421
  C  C395  1  0.870300  0.769900  0.471100  1.0  0.2648
  C  C396  1  0.053700  0.812600  0.537500  1.0  0.2887
  C  C397  1  0.853100  0.831900  0.479900  1.0  0.1721
  C  C398  1  0.047100  0.877000  0.551900  1.0  0.309
  C  C399  1  0.881200  0.926000  0.519400  1.0  0.1508
  C  C400  1  0.805500  0.851600  0.462600  1.0  -0.1164
  C  C401  1  0.833900  0.949700  0.500500  1.0  -0.116
  C  C402  1  0.050200  0.972000  0.572500  1.0  0.3446
  C  C403  1  0.796700  0.911900  0.473300  1.0  -0.0821
  C  C404  1  0.073800  0.031500  0.589200  1.0  0.2299
  C  C405  1  0.052000  0.087100  0.592700  1.0  -0.1067
  C  C406  1  0.148900  0.078400  0.624600  1.0  0.1504
  C  C407  1  0.077200  0.139000  0.608700  1.0  -0.1058
  C  C408  1  0.126700  0.134600  0.625400  1.0  -0.0818
  C  C409  1  0.582100  0.027900  0.064900  1.0  0.2967
  C  C410  1  0.617600  0.115200  0.067600  1.0  0.281
  C  C411  1  0.618700  0.179600  0.049700  1.0  0.2399
  C  C412  1  0.430300  0.227800  0.990400  1.0  0.2431
  C  C413  1  0.629700  0.269900  0.028900  1.0  0.2657
  C  C414  1  0.446300  0.312600  0.962500  1.0  0.2875
  C  C415  1  0.646900  0.331900  0.020100  1.0  0.1717
  C  C416  1  0.452900  0.377000  0.948100  1.0  0.3099
  C  C417  1  0.618800  0.426000  0.980600  1.0  0.1552
  C  C418  1  0.694500  0.351600  0.037400  1.0  -0.1168
  C  C419  1  0.666100  0.449700  0.999500  1.0  -0.1159
  C  C420  1  0.449800  0.472000  0.927500  1.0  0.3458
  C  C421  1  0.703300  0.411900  0.026700  1.0  -0.0794
  C  C422  1  0.426200  0.531500  0.910800  1.0  0.2292
  C  C423  1  0.448000  0.587100  0.907300  1.0  -0.1024
  C  C424  1  0.351100  0.578400  0.875400  1.0  0.1555
  C  C425  1  0.422800  0.639000  0.891300  1.0  -0.1068
  C  C426  1  0.373300  0.634600  0.874600  1.0  -0.0824
  C  C427  1  0.082100  0.527900  0.064900  1.0  0.2967
  C  C428  1  0.117600  0.615200  0.067600  1.0  0.281
  C  C429  1  0.118700  0.679600  0.049700  1.0  0.2399
  C  C430  1  0.930300  0.727800  0.990400  1.0  0.2431
  C  C431  1  0.129700  0.769900  0.028900  1.0  0.2657
  C  C432  1  0.946300  0.812600  0.962500  1.0  0.2875
  C  C433  1  0.146900  0.831900  0.020100  1.0  0.1717
  C  C434  1  0.952900  0.877000  0.948100  1.0  0.3099
  C  C435  1  0.118800  0.926000  0.980600  1.0  0.1552
  C  C436  1  0.194500  0.851600  0.037400  1.0  -0.1168
  C  C437  1  0.166100  0.949700  0.999500  1.0  -0.1159
  C  C438  1  0.949800  0.972000  0.927500  1.0  0.3458
  C  C439  1  0.203300  0.911900  0.026700  1.0  -0.0794
  C  C440  1  0.926200  0.031500  0.910800  1.0  0.2292
  C  C441  1  0.948000  0.087100  0.907300  1.0  -0.1024
  C  C442  1  0.851100  0.078400  0.875400  1.0  0.1555
  C  C443  1  0.922800  0.139000  0.891300  1.0  -0.1068
  C  C444  1  0.873300  0.134600  0.874600  1.0  -0.0824
  N  N445  1  0.348800  0.077400  0.407300  1.0  -0.2032
  N  N446  1  0.078500  0.076700  0.066600  1.0  -0.4194
  N  N447  1  0.122700  0.971900  0.105300  1.0  -0.269
  N  N448  1  0.371200  0.019900  0.409500  1.0  -0.1921
  N  N449  1  0.571400  0.912400  0.549700  1.0  -0.4305
  N  N450  1  0.575700  0.802600  0.513400  1.0  -0.3179
  N  N451  1  0.474300  0.778800  0.488700  1.0  -0.2385
  N  N452  1  0.088400  0.214100  0.025400  1.0  -0.4089
  N  N453  1  0.584500  0.744300  0.501200  1.0  -0.1722
  N  N454  1  0.484700  0.723900  0.470600  1.0  -0.2618
  N  N455  1  0.653000  0.777000  0.560200  1.0  -0.3827
  N  N456  1  0.609500  0.632900  0.491200  1.0  -0.2789
  N  N457  1  0.497400  0.606600  0.451000  1.0  -0.2698
  N  N458  1  0.494500  0.545100  0.437700  1.0  -0.1366
  N  N459  1  0.848800  0.577400  0.407300  1.0  -0.2032
  N  N460  1  0.578500  0.576700  0.066600  1.0  -0.4194
  N  N461  1  0.622700  0.471900  0.105300  1.0  -0.269
  N  N462  1  0.871200  0.519900  0.409500  1.0  -0.1921
  N  N463  1  0.071400  0.412400  0.549700  1.0  -0.4305
  N  N464  1  0.075700  0.302600  0.513400  1.0  -0.3179
  N  N465  1  0.974300  0.278800  0.488700  1.0  -0.2385
  N  N466  1  0.588400  0.714100  0.025400  1.0  -0.4089
  N  N467  1  0.084500  0.244300  0.501200  1.0  -0.1722
  N  N468  1  0.984700  0.223900  0.470600  1.0  -0.2618
  N  N469  1  0.153000  0.277000  0.560200  1.0  -0.3827
  N  N470  1  0.109500  0.132900  0.491200  1.0  -0.2789
  N  N471  1  0.997400  0.106600  0.451000  1.0  -0.2698
  N  N472  1  0.994500  0.045100  0.437700  1.0  -0.1366
  N  N473  1  0.651200  0.077400  0.092700  1.0  -0.2083
  N  N474  1  0.921500  0.076700  0.433400  1.0  -0.4216
  N  N475  1  0.877300  0.971900  0.394700  1.0  -0.2701
  N  N476  1  0.628800  0.019900  0.090500  1.0  -0.193
  N  N477  1  0.428600  0.912400  0.950300  1.0  -0.431
  N  N478  1  0.424300  0.802600  0.986600  1.0  -0.3176
  N  N479  1  0.525700  0.778800  0.011300  1.0  -0.2455
  N  N480  1  0.911600  0.214100  0.474600  1.0  -0.4115
  N  N481  1  0.415500  0.744300  0.998800  1.0  -0.1697
  N  N482  1  0.515300  0.723900  0.029400  1.0  -0.2618
  N  N483  1  0.347000  0.777000  0.939800  1.0  -0.3838
  N  N484  1  0.390500  0.632900  0.008800  1.0  -0.2796
  N  N485  1  0.502600  0.606600  0.049000  1.0  -0.2714
  N  N486  1  0.505500  0.545100  0.062300  1.0  -0.1385
  N  N487  1  0.151200  0.577400  0.092700  1.0  -0.2083
  N  N488  1  0.421500  0.576700  0.433400  1.0  -0.4216
  N  N489  1  0.377300  0.471900  0.394700  1.0  -0.2701
  N  N490  1  0.128800  0.519900  0.090500  1.0  -0.193
  N  N491  1  0.928600  0.412400  0.950300  1.0  -0.431
  N  N492  1  0.924300  0.302600  0.986600  1.0  -0.3176
  N  N493  1  0.025700  0.278800  0.011300  1.0  -0.2455
  N  N494  1  0.411600  0.714100  0.474600  1.0  -0.4115
  N  N495  1  0.915500  0.244300  0.998800  1.0  -0.1697
  N  N496  1  0.015300  0.223900  0.029400  1.0  -0.2618
  N  N497  1  0.847000  0.277000  0.939800  1.0  -0.3838
  N  N498  1  0.890500  0.132900  0.008800  1.0  -0.2796
  N  N499  1  0.002600  0.106600  0.049000  1.0  -0.2714
  N  N500  1  0.005500  0.045100  0.062300  1.0  -0.1385
  N  N501  1  0.651200  0.922600  0.592700  1.0  -0.208
  N  N502  1  0.921500  0.923300  0.933400  1.0  -0.4224
  N  N503  1  0.877300  0.028100  0.894700  1.0  -0.2701
  N  N504  1  0.628800  0.980100  0.590500  1.0  -0.1949
  N  N505  1  0.428600  0.087600  0.450300  1.0  -0.4333
  N  N506  1  0.424300  0.197400  0.486600  1.0  -0.3171
  N  N507  1  0.525700  0.221200  0.511300  1.0  -0.2396
  N  N508  1  0.911600  0.785900  0.974600  1.0  -0.4109
  N  N509  1  0.415500  0.255700  0.498800  1.0  -0.169
  N  N510  1  0.515300  0.276100  0.529400  1.0  -0.2622
  N  N511  1  0.347000  0.223000  0.439800  1.0  -0.3842
  N  N512  1  0.390500  0.367100  0.508800  1.0  -0.2787
  N  N513  1  0.502600  0.393400  0.549000  1.0  -0.2715
  N  N514  1  0.505500  0.454900  0.562300  1.0  -0.1391
  N  N515  1  0.151200  0.422600  0.592700  1.0  -0.208
  N  N516  1  0.421500  0.423300  0.933400  1.0  -0.4224
  N  N517  1  0.377300  0.528100  0.894700  1.0  -0.2701
  N  N518  1  0.128800  0.480100  0.590500  1.0  -0.1949
  N  N519  1  0.928600  0.587600  0.450300  1.0  -0.4333
  N  N520  1  0.924300  0.697400  0.486600  1.0  -0.3171
  N  N521  1  0.025700  0.721200  0.511300  1.0  -0.2396
  N  N522  1  0.411600  0.285900  0.974600  1.0  -0.4109
  N  N523  1  0.915500  0.755700  0.498800  1.0  -0.169
  N  N524  1  0.015300  0.776100  0.529400  1.0  -0.2622
  N  N525  1  0.847000  0.723000  0.439800  1.0  -0.3842
  N  N526  1  0.890500  0.867100  0.508800  1.0  -0.2787
  N  N527  1  0.002600  0.893400  0.549000  1.0  -0.2715
  N  N528  1  0.005500  0.954900  0.562300  1.0  -0.1391
  N  N529  1  0.348800  0.922600  0.907300  1.0  -0.2041
  N  N530  1  0.078500  0.923300  0.566600  1.0  -0.4199
  N  N531  1  0.122700  0.028100  0.605300  1.0  -0.2669
  N  N532  1  0.371200  0.980100  0.909500  1.0  -0.1931
  N  N533  1  0.571400  0.087600  0.049700  1.0  -0.4329
  N  N534  1  0.575700  0.197400  0.013400  1.0  -0.318
  N  N535  1  0.474300  0.221200  0.988700  1.0  -0.2448
  N  N536  1  0.088400  0.785900  0.525400  1.0  -0.4093
  N  N537  1  0.584500  0.255700  0.001200  1.0  -0.1706
  N  N538  1  0.484700  0.276100  0.970600  1.0  -0.2619
  N  N539  1  0.653000  0.223000  0.060200  1.0  -0.3821
  N  N540  1  0.609500  0.367100  0.991200  1.0  -0.2792
  N  N541  1  0.497400  0.393400  0.951000  1.0  -0.2709
  N  N542  1  0.494500  0.454900  0.937700  1.0  -0.1372
  N  N543  1  0.848800  0.422600  0.907300  1.0  -0.2041
  N  N544  1  0.578500  0.423300  0.566600  1.0  -0.4199
  N  N545  1  0.622700  0.528100  0.605300  1.0  -0.2669
  N  N546  1  0.871200  0.480100  0.909500  1.0  -0.1931
  N  N547  1  0.071400  0.587600  0.049700  1.0  -0.4329
  N  N548  1  0.075700  0.697400  0.013400  1.0  -0.318
  N  N549  1  0.974300  0.721200  0.988700  1.0  -0.2448
  N  N550  1  0.588400  0.285900  0.525400  1.0  -0.4093
  N  N551  1  0.084500  0.755700  0.001200  1.0  -0.1706
  N  N552  1  0.984700  0.776100  0.970600  1.0  -0.2619
  N  N553  1  0.153000  0.723000  0.060200  1.0  -0.3821
  N  N554  1  0.109500  0.867100  0.991200  1.0  -0.2792
  N  N555  1  0.997400  0.893400  0.951000  1.0  -0.2709
  N  N556  1  0.994500  0.954900  0.937700  1.0  -0.1372
  O  O557  1  0.414400  0.251200  0.290300  1.0  -0.6847
  O  O558  1  0.356300  0.270200  0.194600  1.0  -0.7222
  O  O559  1  0.426300  0.357400  0.192300  1.0  -0.6303
  O  O560  1  0.474800  0.339600  0.291000  1.0  -0.7091
  O  O561  1  0.459300  0.248500  0.217400  1.0  -0.7801
  O  O562  1  0.502400  0.251800  0.359200  1.0  -0.657
  O  O563  1  0.491900  0.124900  0.374300  1.0  -0.7969
  O  O564  1  0.481000  0.164800  0.282800  1.0  -0.8776
  O  O565  1  0.402000  0.129600  0.306200  1.0  -0.7064
  O  O566  1  0.312400  0.235600  0.099300  1.0  -0.7037
  O  O567  1  0.277300  0.130500  0.130500  1.0  -0.7328
  O  O568  1  0.329500  0.165100  0.222900  1.0  -0.7065
  O  O569  1  0.375000  0.159700  0.149100  1.0  -0.7811
  O  O570  1  0.405500  0.273400  0.118200  1.0  -0.7329
  O  O571  1  0.582600  0.162200  0.422700  1.0  -0.7712
  O  O572  1  0.518000  0.005500  0.399500  1.0  -0.7303
  O  O573  1  0.563100  0.076500  0.349800  1.0  -0.8766
  O  O574  1  0.608700  0.046300  0.449000  1.0  -0.713
  O  O575  1  0.533200  0.098700  0.471500  1.0  -0.7352
  O  O576  1  0.399800  0.079900  0.217400  1.0  -0.8743
  O  O577  1  0.305600  0.046000  0.200200  1.0  -0.7036
  O  O578  1  0.378200  0.008800  0.283800  1.0  -0.7501
  O  O579  1  0.348500  0.249600  0.022200  1.0  -0.7937
  O  O580  1  0.326100  0.133800  0.049100  1.0  -0.6913
  O  O581  1  0.215100  0.032200  0.123600  1.0  -0.8176
  O  O582  1  0.267800  0.040100  0.061900  1.0  -0.7026
  O  O583  1  0.287300  0.949400  0.135500  1.0  -0.7181
  O  O584  1  0.349100  0.048500  0.128400  1.0  -0.7763
  O  O585  1  0.577700  0.905600  0.422000  1.0  -0.6946
  O  O586  1  0.531300  0.939000  0.325100  1.0  -0.8444
  O  O587  1  0.492700  0.901500  0.439500  1.0  -0.7143
  O  O588  1  0.508100  0.832000  0.366200  1.0  -0.7085
  O  O589  1  0.447500  0.933100  0.341500  1.0  -0.7894
  O  O590  1  0.668500  0.956100  0.443300  1.0  -0.629
  O  O591  1  0.277100  0.996500  0.355700  1.0  -0.8195
  O  O592  1  0.430900  0.939500  0.242100  1.0  -0.8788
  O  O593  1  0.335700  0.908100  0.225600  1.0  -0.7089
  O  O594  1  0.406200  0.835300  0.283000  1.0  -0.667
  O  O595  1  0.167500  0.144200  0.090500  1.0  -0.861
  O  O596  1  0.310900  0.845100  0.098300  1.0  -0.6671
  O  O597  1  0.354700  0.797600  0.194100  1.0  -0.728
  O  O598  1  0.381100  0.906300  0.154400  1.0  -0.7479
  O  O599  1  0.599700  0.800900  0.390600  1.0  -0.6936
  O  O600  1  0.552300  0.837500  0.292100  1.0  -0.7905
  O  O601  1  0.572000  0.723000  0.307000  1.0  -0.6111
  O  O602  1  0.479500  0.753400  0.291700  1.0  -0.724
  O  O603  1  0.514400  0.039700  0.228600  1.0  -0.6853
  O  O604  1  0.914400  0.751200  0.290300  1.0  -0.6847
  O  O605  1  0.856300  0.770200  0.194600  1.0  -0.7222
  O  O606  1  0.926300  0.857400  0.192300  1.0  -0.6303
  O  O607  1  0.974800  0.839600  0.291000  1.0  -0.7091
  O  O608  1  0.959300  0.748500  0.217400  1.0  -0.7801
  O  O609  1  0.002400  0.751800  0.359200  1.0  -0.657
  O  O610  1  0.991900  0.624900  0.374300  1.0  -0.7969
  O  O611  1  0.981000  0.664800  0.282800  1.0  -0.8776
  O  O612  1  0.902000  0.629600  0.306200  1.0  -0.7064
  O  O613  1  0.812400  0.735600  0.099300  1.0  -0.7037
  O  O614  1  0.777300  0.630500  0.130500  1.0  -0.7328
  O  O615  1  0.829500  0.665100  0.222900  1.0  -0.7065
  O  O616  1  0.875000  0.659700  0.149100  1.0  -0.7811
  O  O617  1  0.905500  0.773400  0.118200  1.0  -0.7329
  O  O618  1  0.082600  0.662200  0.422700  1.0  -0.7712
  O  O619  1  0.018000  0.505500  0.399500  1.0  -0.7303
  O  O620  1  0.063100  0.576500  0.349800  1.0  -0.8766
  O  O621  1  0.108700  0.546300  0.449000  1.0  -0.713
  O  O622  1  0.033200  0.598700  0.471500  1.0  -0.7352
  O  O623  1  0.899800  0.579900  0.217400  1.0  -0.8743
  O  O624  1  0.805600  0.546000  0.200200  1.0  -0.7036
  O  O625  1  0.878200  0.508800  0.283800  1.0  -0.7501
  O  O626  1  0.848500  0.749600  0.022200  1.0  -0.7937
  O  O627  1  0.826100  0.633800  0.049100  1.0  -0.6913
  O  O628  1  0.715100  0.532200  0.123600  1.0  -0.8176
  O  O629  1  0.767800  0.540100  0.061900  1.0  -0.7026
  O  O630  1  0.787300  0.449400  0.135500  1.0  -0.7181
  O  O631  1  0.849100  0.548500  0.128400  1.0  -0.7763
  O  O632  1  0.077700  0.405600  0.422000  1.0  -0.6946
  O  O633  1  0.031300  0.439000  0.325100  1.0  -0.8444
  O  O634  1  0.992700  0.401500  0.439500  1.0  -0.7143
  O  O635  1  0.008100  0.332000  0.366200  1.0  -0.7085
  O  O636  1  0.947500  0.433100  0.341500  1.0  -0.7894
  O  O637  1  0.168500  0.456100  0.443300  1.0  -0.629
  O  O638  1  0.777100  0.496500  0.355700  1.0  -0.8195
  O  O639  1  0.930900  0.439500  0.242100  1.0  -0.8788
  O  O640  1  0.835700  0.408100  0.225600  1.0  -0.7089
  O  O641  1  0.906200  0.335300  0.283000  1.0  -0.667
  O  O642  1  0.667500  0.644200  0.090500  1.0  -0.861
  O  O643  1  0.810900  0.345100  0.098300  1.0  -0.6671
  O  O644  1  0.854700  0.297600  0.194100  1.0  -0.728
  O  O645  1  0.881100  0.406300  0.154400  1.0  -0.7479
  O  O646  1  0.099700  0.300900  0.390600  1.0  -0.6936
  O  O647  1  0.052300  0.337500  0.292100  1.0  -0.7905
  O  O648  1  0.072000  0.223000  0.307000  1.0  -0.6111
  O  O649  1  0.979500  0.253400  0.291700  1.0  -0.724
  O  O650  1  0.014400  0.539700  0.228600  1.0  -0.6853
  O  O651  1  0.585600  0.251200  0.209700  1.0  -0.6834
  O  O652  1  0.643700  0.270200  0.305400  1.0  -0.7214
  O  O653  1  0.573700  0.357400  0.307700  1.0  -0.6321
  O  O654  1  0.525200  0.339600  0.209000  1.0  -0.7086
  O  O655  1  0.540700  0.248500  0.282600  1.0  -0.781
  O  O656  1  0.497600  0.251800  0.140800  1.0  -0.6567
  O  O657  1  0.508100  0.124900  0.125700  1.0  -0.7955
  O  O658  1  0.519000  0.164800  0.217200  1.0  -0.878
  O  O659  1  0.598000  0.129600  0.193800  1.0  -0.7074
  O  O660  1  0.687600  0.235600  0.400700  1.0  -0.7026
  O  O661  1  0.722700  0.130500  0.369500  1.0  -0.733
  O  O662  1  0.670500  0.165100  0.277100  1.0  -0.7008
  O  O663  1  0.625000  0.159700  0.350900  1.0  -0.781
  O  O664  1  0.594500  0.273400  0.381800  1.0  -0.7314
  O  O665  1  0.417400  0.162200  0.077300  1.0  -0.771
  O  O666  1  0.482000  0.005500  0.100500  1.0  -0.7306
  O  O667  1  0.436900  0.076500  0.150200  1.0  -0.877
  O  O668  1  0.391300  0.046300  0.051000  1.0  -0.7147
  O  O669  1  0.466800  0.098700  0.028500  1.0  -0.7341
  O  O670  1  0.600200  0.079900  0.282600  1.0  -0.8727
  O  O671  1  0.694400  0.046000  0.299800  1.0  -0.7012
  O  O672  1  0.621800  0.008800  0.216200  1.0  -0.7522
  O  O673  1  0.651500  0.249600  0.477800  1.0  -0.7921
  O  O674  1  0.673900  0.133800  0.450900  1.0  -0.6901
  O  O675  1  0.784900  0.032200  0.376400  1.0  -0.8159
  O  O676  1  0.732200  0.040100  0.438100  1.0  -0.7015
  O  O677  1  0.712700  0.949400  0.364500  1.0  -0.7182
  O  O678  1  0.650900  0.048500  0.371600  1.0  -0.7756
  O  O679  1  0.422300  0.905600  0.078000  1.0  -0.6951
  O  O680  1  0.468700  0.939000  0.174900  1.0  -0.8444
  O  O681  1  0.507300  0.901500  0.060500  1.0  -0.7127
  O  O682  1  0.491900  0.832000  0.133800  1.0  -0.7061
  O  O683  1  0.552500  0.933100  0.158500  1.0  -0.7893
  O  O684  1  0.331500  0.956100  0.056700  1.0  -0.6303
  O  O685  1  0.722900  0.996500  0.144300  1.0  -0.8188
  O  O686  1  0.569100  0.939500  0.257900  1.0  -0.8783
  O  O687  1  0.664300  0.908100  0.274400  1.0  -0.7082
  O  O688  1  0.593800  0.835300  0.217000  1.0  -0.6651
  O  O689  1  0.832500  0.144200  0.409500  1.0  -0.8593
  O  O690  1  0.689100  0.845100  0.401700  1.0  -0.667
  O  O691  1  0.645300  0.797600  0.305900  1.0  -0.7287
  O  O692  1  0.618900  0.906300  0.345600  1.0  -0.7485
  O  O693  1  0.400300  0.800900  0.109400  1.0  -0.695
  O  O694  1  0.447700  0.837500  0.207900  1.0  -0.7904
  O  O695  1  0.428000  0.723000  0.193000  1.0  -0.613
  O  O696  1  0.520500  0.753400  0.208300  1.0  -0.7211
  O  O697  1  0.485600  0.039700  0.271400  1.0  -0.6846
  O  O698  1  0.085600  0.751200  0.209700  1.0  -0.6834
  O  O699  1  0.143700  0.770200  0.305400  1.0  -0.7214
  O  O700  1  0.073700  0.857400  0.307700  1.0  -0.6321
  O  O701  1  0.025200  0.839600  0.209000  1.0  -0.7086
  O  O702  1  0.040700  0.748500  0.282600  1.0  -0.781
  O  O703  1  0.997600  0.751800  0.140800  1.0  -0.6567
  O  O704  1  0.008100  0.624900  0.125700  1.0  -0.7955
  O  O705  1  0.019000  0.664800  0.217200  1.0  -0.878
  O  O706  1  0.098000  0.629600  0.193800  1.0  -0.7074
  O  O707  1  0.187600  0.735600  0.400700  1.0  -0.7026
  O  O708  1  0.222700  0.630500  0.369500  1.0  -0.733
  O  O709  1  0.170500  0.665100  0.277100  1.0  -0.7008
  O  O710  1  0.125000  0.659700  0.350900  1.0  -0.781
  O  O711  1  0.094500  0.773400  0.381800  1.0  -0.7314
  O  O712  1  0.917400  0.662200  0.077300  1.0  -0.771
  O  O713  1  0.982000  0.505500  0.100500  1.0  -0.7306
  O  O714  1  0.936900  0.576500  0.150200  1.0  -0.877
  O  O715  1  0.891300  0.546300  0.051000  1.0  -0.7147
  O  O716  1  0.966800  0.598700  0.028500  1.0  -0.7341
  O  O717  1  0.100200  0.579900  0.282600  1.0  -0.8727
  O  O718  1  0.194400  0.546000  0.299800  1.0  -0.7012
  O  O719  1  0.121800  0.508800  0.216200  1.0  -0.7522
  O  O720  1  0.151500  0.749600  0.477800  1.0  -0.7921
  O  O721  1  0.173900  0.633800  0.450900  1.0  -0.6901
  O  O722  1  0.284900  0.532200  0.376400  1.0  -0.8159
  O  O723  1  0.232200  0.540100  0.438100  1.0  -0.7015
  O  O724  1  0.212700  0.449400  0.364500  1.0  -0.7182
  O  O725  1  0.150900  0.548500  0.371600  1.0  -0.7756
  O  O726  1  0.922300  0.405600  0.078000  1.0  -0.6951
  O  O727  1  0.968700  0.439000  0.174900  1.0  -0.8444
  O  O728  1  0.007300  0.401500  0.060500  1.0  -0.7127
  O  O729  1  0.991900  0.332000  0.133800  1.0  -0.7061
  O  O730  1  0.052500  0.433100  0.158500  1.0  -0.7893
  O  O731  1  0.831500  0.456100  0.056700  1.0  -0.6303
  O  O732  1  0.222900  0.496500  0.144300  1.0  -0.8188
  O  O733  1  0.069100  0.439500  0.257900  1.0  -0.8783
  O  O734  1  0.164300  0.408100  0.274400  1.0  -0.7082
  O  O735  1  0.093800  0.335300  0.217000  1.0  -0.6651
  O  O736  1  0.332500  0.644200  0.409500  1.0  -0.8593
  O  O737  1  0.189100  0.345100  0.401700  1.0  -0.667
  O  O738  1  0.145300  0.297600  0.305900  1.0  -0.7287
  O  O739  1  0.118900  0.406300  0.345600  1.0  -0.7485
  O  O740  1  0.900300  0.300900  0.109400  1.0  -0.695
  O  O741  1  0.947700  0.337500  0.207900  1.0  -0.7904
  O  O742  1  0.928000  0.223000  0.193000  1.0  -0.613
  O  O743  1  0.020500  0.253400  0.208300  1.0  -0.7211
  O  O744  1  0.985600  0.539700  0.271400  1.0  -0.6846
  O  O745  1  0.585600  0.748800  0.709700  1.0  -0.683
  O  O746  1  0.643700  0.729800  0.805400  1.0  -0.7191
  O  O747  1  0.573700  0.642600  0.807700  1.0  -0.6418
  O  O748  1  0.525200  0.660400  0.709000  1.0  -0.7085
  O  O749  1  0.540700  0.751500  0.782600  1.0  -0.7811
  O  O750  1  0.497600  0.748200  0.640800  1.0  -0.6559
  O  O751  1  0.508100  0.875100  0.625700  1.0  -0.7956
  O  O752  1  0.519000  0.835200  0.717200  1.0  -0.8779
  O  O753  1  0.598000  0.870400  0.693800  1.0  -0.7069
  O  O754  1  0.687600  0.764400  0.900700  1.0  -0.7024
  O  O755  1  0.722700  0.869500  0.869500  1.0  -0.7332
  O  O756  1  0.670500  0.834900  0.777100  1.0  -0.699
  O  O757  1  0.625000  0.840300  0.850900  1.0  -0.7828
  O  O758  1  0.594500  0.726600  0.881800  1.0  -0.7304
  O  O759  1  0.417400  0.837800  0.577300  1.0  -0.771
  O  O760  1  0.482000  0.994500  0.600500  1.0  -0.7302
  O  O761  1  0.436900  0.923500  0.650200  1.0  -0.8769
  O  O762  1  0.391300  0.953700  0.551000  1.0  -0.7152
  O  O763  1  0.466800  0.901300  0.528500  1.0  -0.7343
  O  O764  1  0.600200  0.920100  0.782600  1.0  -0.8724
  O  O765  1  0.694400  0.954000  0.799800  1.0  -0.7009
  O  O766  1  0.621800  0.991200  0.716200  1.0  -0.7528
  O  O767  1  0.651500  0.750400  0.977800  1.0  -0.7915
  O  O768  1  0.673900  0.866200  0.950900  1.0  -0.6915
  O  O769  1  0.784900  0.967800  0.876400  1.0  -0.8152
  O  O770  1  0.732200  0.959900  0.938100  1.0  -0.7027
  O  O771  1  0.712700  0.050600  0.864500  1.0  -0.7174
  O  O772  1  0.650900  0.951500  0.871600  1.0  -0.7751
  O  O773  1  0.422300  0.094400  0.578000  1.0  -0.6957
  O  O774  1  0.468700  0.061000  0.674900  1.0  -0.8445
  O  O775  1  0.507300  0.098500  0.560500  1.0  -0.7131
  O  O776  1  0.491900  0.168000  0.633800  1.0  -0.7079
  O  O777  1  0.552500  0.066900  0.658500  1.0  -0.7892
  O  O778  1  0.331500  0.043900  0.556700  1.0  -0.6303
  O  O779  1  0.722900  0.003500  0.644300  1.0  -0.8194
  O  O780  1  0.569100  0.060500  0.757900  1.0  -0.8786
  O  O781  1  0.664300  0.091900  0.774400  1.0  -0.7088
  O  O782  1  0.593800  0.164700  0.717000  1.0  -0.6659
  O  O783  1  0.832500  0.855800  0.909500  1.0  -0.8595
  O  O784  1  0.689100  0.154900  0.901700  1.0  -0.666
  O  O785  1  0.645300  0.202400  0.805900  1.0  -0.7324
  O  O786  1  0.618900  0.093700  0.845600  1.0  -0.7477
  O  O787  1  0.400300  0.199100  0.609400  1.0  -0.6982
  O  O788  1  0.447700  0.162500  0.707900  1.0  -0.7898
  O  O789  1  0.428000  0.277000  0.693000  1.0  -0.6061
  O  O790  1  0.520500  0.246600  0.708300  1.0  -0.7227
  O  O791  1  0.485600  0.960300  0.771400  1.0  -0.6849
  O  O792  1  0.085600  0.248800  0.709700  1.0  -0.683
  O  O793  1  0.143700  0.229800  0.805400  1.0  -0.7191
  O  O794  1  0.073700  0.142600  0.807700  1.0  -0.6418
  O  O795  1  0.025200  0.160400  0.709000  1.0  -0.7085
  O  O796  1  0.040700  0.251500  0.782600  1.0  -0.7811
  O  O797  1  0.997600  0.248200  0.640800  1.0  -0.6559
  O  O798  1  0.008100  0.375100  0.625700  1.0  -0.7956
  O  O799  1  0.019000  0.335200  0.717200  1.0  -0.8779
  O  O800  1  0.098000  0.370400  0.693800  1.0  -0.7069
  O  O801  1  0.187600  0.264400  0.900700  1.0  -0.7024
  O  O802  1  0.222700  0.369500  0.869500  1.0  -0.7332
  O  O803  1  0.170500  0.334900  0.777100  1.0  -0.699
  O  O804  1  0.125000  0.340300  0.850900  1.0  -0.7828
  O  O805  1  0.094500  0.226600  0.881800  1.0  -0.7304
  O  O806  1  0.917400  0.337800  0.577300  1.0  -0.771
  O  O807  1  0.982000  0.494500  0.600500  1.0  -0.7302
  O  O808  1  0.936900  0.423500  0.650200  1.0  -0.8769
  O  O809  1  0.891300  0.453700  0.551000  1.0  -0.7152
  O  O810  1  0.966800  0.401300  0.528500  1.0  -0.7343
  O  O811  1  0.100200  0.420100  0.782600  1.0  -0.8724
  O  O812  1  0.194400  0.454000  0.799800  1.0  -0.7009
  O  O813  1  0.121800  0.491200  0.716200  1.0  -0.7528
  O  O814  1  0.151500  0.250400  0.977800  1.0  -0.7915
  O  O815  1  0.173900  0.366200  0.950900  1.0  -0.6915
  O  O816  1  0.284900  0.467800  0.876400  1.0  -0.8152
  O  O817  1  0.232200  0.459900  0.938100  1.0  -0.7027
  O  O818  1  0.212700  0.550600  0.864500  1.0  -0.7174
  O  O819  1  0.150900  0.451500  0.871600  1.0  -0.7751
  O  O820  1  0.922300  0.594400  0.578000  1.0  -0.6957
  O  O821  1  0.968700  0.561000  0.674900  1.0  -0.8445
  O  O822  1  0.007300  0.598500  0.560500  1.0  -0.7131
  O  O823  1  0.991900  0.668000  0.633800  1.0  -0.7079
  O  O824  1  0.052500  0.566900  0.658500  1.0  -0.7892
  O  O825  1  0.831500  0.543900  0.556700  1.0  -0.6303
  O  O826  1  0.222900  0.503500  0.644300  1.0  -0.8194
  O  O827  1  0.069100  0.560500  0.757900  1.0  -0.8786
  O  O828  1  0.164300  0.591900  0.774400  1.0  -0.7088
  O  O829  1  0.093800  0.664700  0.717000  1.0  -0.6659
  O  O830  1  0.332500  0.355800  0.909500  1.0  -0.8595
  O  O831  1  0.189100  0.654900  0.901700  1.0  -0.666
  O  O832  1  0.145300  0.702400  0.805900  1.0  -0.7324
  O  O833  1  0.118900  0.593700  0.845600  1.0  -0.7477
  O  O834  1  0.900300  0.699100  0.609400  1.0  -0.6982
  O  O835  1  0.947700  0.662500  0.707900  1.0  -0.7898
  O  O836  1  0.928000  0.777000  0.693000  1.0  -0.6061
  O  O837  1  0.020500  0.746600  0.708300  1.0  -0.7227
  O  O838  1  0.985600  0.460300  0.771400  1.0  -0.6849
  O  O839  1  0.414400  0.748800  0.790300  1.0  -0.6844
  O  O840  1  0.356300  0.729800  0.694600  1.0  -0.7185
  O  O841  1  0.426300  0.642600  0.692300  1.0  -0.6433
  O  O842  1  0.474800  0.660400  0.791000  1.0  -0.7089
  O  O843  1  0.459300  0.751500  0.717400  1.0  -0.7802
  O  O844  1  0.502400  0.748200  0.859200  1.0  -0.656
  O  O845  1  0.491900  0.875100  0.874300  1.0  -0.797
  O  O846  1  0.481000  0.835200  0.782800  1.0  -0.8776
  O  O847  1  0.402000  0.870400  0.806200  1.0  -0.7064
  O  O848  1  0.312400  0.764400  0.599300  1.0  -0.704
  O  O849  1  0.277300  0.869500  0.630500  1.0  -0.7326
  O  O850  1  0.329500  0.834900  0.722900  1.0  -0.7044
  O  O851  1  0.375000  0.840300  0.649100  1.0  -0.7827
  O  O852  1  0.405500  0.726600  0.618200  1.0  -0.7302
  O  O853  1  0.582600  0.837800  0.922700  1.0  -0.7716
  O  O854  1  0.518000  0.994500  0.899500  1.0  -0.7299
  O  O855  1  0.563100  0.923500  0.849800  1.0  -0.8766
  O  O856  1  0.608700  0.953700  0.949000  1.0  -0.7137
  O  O857  1  0.533200  0.901300  0.971500  1.0  -0.7348
  O  O858  1  0.399800  0.920100  0.717400  1.0  -0.8743
  O  O859  1  0.305600  0.954000  0.700200  1.0  -0.7035
  O  O860  1  0.378200  0.991200  0.783800  1.0  -0.7502
  O  O861  1  0.348500  0.750400  0.522200  1.0  -0.7928
  O  O862  1  0.326100  0.866200  0.549100  1.0  -0.6921
  O  O863  1  0.215100  0.967800  0.623600  1.0  -0.8174
  O  O864  1  0.267800  0.959900  0.561900  1.0  -0.7022
  O  O865  1  0.287300  0.050600  0.635500  1.0  -0.7177
  O  O866  1  0.349100  0.951500  0.628400  1.0  -0.7755
  O  O867  1  0.577700  0.094400  0.922000  1.0  -0.695
  O  O868  1  0.531300  0.061000  0.825100  1.0  -0.8445
  O  O869  1  0.492700  0.098500  0.939500  1.0  -0.7143
  O  O870  1  0.508100  0.168000  0.866200  1.0  -0.7112
  O  O871  1  0.447500  0.066900  0.841500  1.0  -0.7885
  O  O872  1  0.668500  0.043900  0.943300  1.0  -0.6287
  O  O873  1  0.277100  0.003500  0.855700  1.0  -0.8195
  O  O874  1  0.430900  0.060500  0.742100  1.0  -0.879
  O  O875  1  0.335700  0.091900  0.725600  1.0  -0.7085
  O  O876  1  0.406200  0.164700  0.783000  1.0  -0.6657
  O  O877  1  0.167500  0.855800  0.590500  1.0  -0.8609
  O  O878  1  0.310900  0.154900  0.598300  1.0  -0.6676
  O  O879  1  0.354700  0.202400  0.694100  1.0  -0.7297
  O  O880  1  0.381100  0.093700  0.654400  1.0  -0.7473
  O  O881  1  0.599700  0.199100  0.890600  1.0  -0.6963
  O  O882  1  0.552300  0.162500  0.792100  1.0  -0.7892
  O  O883  1  0.572000  0.277000  0.807000  1.0  -0.6058
  O  O884  1  0.479500  0.246600  0.791700  1.0  -0.7245
  O  O885  1  0.514400  0.960300  0.728600  1.0  -0.6855
  O  O886  1  0.914400  0.248800  0.790300  1.0  -0.6844
  O  O887  1  0.856300  0.229800  0.694600  1.0  -0.7185
  O  O888  1  0.926300  0.142600  0.692300  1.0  -0.6433
  O  O889  1  0.974800  0.160400  0.791000  1.0  -0.7089
  O  O890  1  0.959300  0.251500  0.717400  1.0  -0.7802
  O  O891  1  0.002400  0.248200  0.859200  1.0  -0.656
  O  O892  1  0.991900  0.375100  0.874300  1.0  -0.797
  O  O893  1  0.981000  0.335200  0.782800  1.0  -0.8776
  O  O894  1  0.902000  0.370400  0.806200  1.0  -0.7064
  O  O895  1  0.812400  0.264400  0.599300  1.0  -0.704
  O  O896  1  0.777300  0.369500  0.630500  1.0  -0.7326
  O  O897  1  0.829500  0.334900  0.722900  1.0  -0.7044
  O  O898  1  0.875000  0.340300  0.649100  1.0  -0.7827
  O  O899  1  0.905500  0.226600  0.618200  1.0  -0.7302
  O  O900  1  0.082600  0.337800  0.922700  1.0  -0.7716
  O  O901  1  0.018000  0.494500  0.899500  1.0  -0.7299
  O  O902  1  0.063100  0.423500  0.849800  1.0  -0.8766
  O  O903  1  0.108700  0.453700  0.949000  1.0  -0.7137
  O  O904  1  0.033200  0.401300  0.971500  1.0  -0.7348
  O  O905  1  0.899800  0.420100  0.717400  1.0  -0.8743
  O  O906  1  0.805600  0.454000  0.700200  1.0  -0.7035
  O  O907  1  0.878200  0.491200  0.783800  1.0  -0.7502
  O  O908  1  0.848500  0.250400  0.522200  1.0  -0.7928
  O  O909  1  0.826100  0.366200  0.549100  1.0  -0.6921
  O  O910  1  0.715100  0.467800  0.623600  1.0  -0.8174
  O  O911  1  0.767800  0.459900  0.561900  1.0  -0.7022
  O  O912  1  0.787300  0.550600  0.635500  1.0  -0.7177
  O  O913  1  0.849100  0.451500  0.628400  1.0  -0.7755
  O  O914  1  0.077700  0.594400  0.922000  1.0  -0.695
  O  O915  1  0.031300  0.561000  0.825100  1.0  -0.8445
  O  O916  1  0.992700  0.598500  0.939500  1.0  -0.7143
  O  O917  1  0.008100  0.668000  0.866200  1.0  -0.7112
  O  O918  1  0.947500  0.566900  0.841500  1.0  -0.7885
  O  O919  1  0.168500  0.543900  0.943300  1.0  -0.6287
  O  O920  1  0.777100  0.503500  0.855700  1.0  -0.8195
  O  O921  1  0.930900  0.560500  0.742100  1.0  -0.879
  O  O922  1  0.835700  0.591900  0.725600  1.0  -0.7085
  O  O923  1  0.906200  0.664700  0.783000  1.0  -0.6657
  O  O924  1  0.667500  0.355800  0.590500  1.0  -0.8609
  O  O925  1  0.810900  0.654900  0.598300  1.0  -0.6676
  O  O926  1  0.854700  0.702400  0.694100  1.0  -0.7297
  O  O927  1  0.881100  0.593700  0.654400  1.0  -0.7473
  O  O928  1  0.099700  0.699100  0.890600  1.0  -0.6963
  O  O929  1  0.052300  0.662500  0.792100  1.0  -0.7892
  O  O930  1  0.072000  0.777000  0.807000  1.0  -0.6058
  O  O931  1  0.979500  0.746600  0.791700  1.0  -0.7245
  O  O932  1  0.014400  0.460300  0.728600  1.0  -0.6855
