# generated using pymatgen
data_In3H24C40N6O13
_symmetry_space_group_name_H-M   'P 1'
_cell_length_a   33.57670000
_cell_length_b   33.57670000
_cell_length_c   33.57670000
_cell_angle_alpha   109.47100000
_cell_angle_beta   109.47100000
_cell_angle_gamma   109.47100000
_symmetry_Int_Tables_number   1
_chemical_formula_structural   In3H24C40N6O13
_chemical_formula_sum   'In36 H288 C480 N72 O156'
_cell_volume   29140.41201760
_cell_formula_units_Z   12
loop_
 _symmetry_equiv_pos_site_id
 _symmetry_equiv_pos_as_xyz
  1  'x, y, z'
loop_
 _atom_site_type_symbol
 _atom_site_label
 _atom_site_symmetry_multiplicity
 _atom_site_fract_x
 _atom_site_fract_y
 _atom_site_fract_z
 _atom_site_occupancy
 _atom_site_charge
  In  In1  1  0.777640  0.922300  0.115180  1.0  1.5813
  In  In2  1  0.307120  0.662460  0.384820  1.0  1.5829
  In  In3  1  0.192880  0.577700  0.355340  1.0  1.5817
  In  In4  1  0.722360  0.837540  0.144660  1.0  1.5822
  In  In5  1  0.855340  0.192880  0.077700  1.0  1.5822
  In  In6  1  0.644660  0.722360  0.337540  1.0  1.5824
  In  In7  1  0.615180  0.777640  0.422300  1.0  1.5819
  In  In8  1  0.884820  0.307120  0.162460  1.0  1.5814
  In  In9  1  0.662460  0.884820  0.807120  1.0  1.5824
  In  In10  1  0.922300  0.615180  0.277640  1.0  1.5823
  In  In11  1  0.837540  0.644660  0.222360  1.0  1.5816
  In  In12  1  0.577700  0.855340  0.692880  1.0  1.5819
  In  In13  1  0.162460  0.807120  0.884820  1.0  1.5816
  In  In14  1  0.422300  0.277640  0.615180  1.0  1.5822
  In  In15  1  0.337540  0.222360  0.644660  1.0  1.5821
  In  In16  1  0.077700  0.692880  0.855340  1.0  1.5819
  In  In17  1  0.277640  0.115180  0.922300  1.0  1.582
  In  In18  1  0.807120  0.384820  0.662460  1.0  1.5825
  In  In19  1  0.692880  0.355340  0.577700  1.0  1.5818
  In  In20  1  0.222360  0.144660  0.837540  1.0  1.5816
  In  In21  1  0.355340  0.077700  0.192880  1.0  1.5817
  In  In22  1  0.144660  0.337540  0.722360  1.0  1.5827
  In  In23  1  0.115180  0.422300  0.777640  1.0  1.5814
  In  In24  1  0.384820  0.162460  0.307120  1.0  1.5824
  In  In25  1  0.750000  0.800020  0.050020  1.0  1.509
  In  In26  1  0.250000  0.699980  0.449980  1.0  1.5075
  In  In27  1  0.949980  0.250000  0.199980  1.0  1.5071
  In  In28  1  0.550020  0.750000  0.300020  1.0  1.5107
  In  In29  1  0.699980  0.949980  0.750000  1.0  1.5097
  In  In30  1  0.800020  0.550020  0.250000  1.0  1.5067
  In  In31  1  0.199980  0.750000  0.949980  1.0  1.5071
  In  In32  1  0.300020  0.250000  0.550020  1.0  1.5107
  In  In33  1  0.250000  0.050020  0.800020  1.0  1.509
  In  In34  1  0.750000  0.449980  0.699980  1.0  1.5075
  In  In35  1  0.449980  0.199980  0.250000  1.0  1.5097
  In  In36  1  0.050020  0.300020  0.750000  1.0  1.5067
  H  H37  1  0.694100  0.919000  0.978900  1.0  0.104
  H  H38  1  0.718700  0.813500  0.914400  1.0  0.1132
  H  H39  1  0.693300  0.820300  0.846400  1.0  0.0745
  H  H40  1  0.669600  0.923500  0.908700  1.0  0.0782
  H  H41  1  0.199500  0.009000  0.143700  1.0  0.0799
  H  H42  1  0.926400  0.984200  0.147600  1.0  0.1013
  H  H43  1  0.230900  0.120900  0.262600  1.0  0.0986
  H  H44  1  0.118600  0.976200  0.119200  1.0  0.1222
  H  H45  1  0.148100  0.088300  0.235400  1.0  0.0969
  H  H46  1  0.902600  0.849400  0.075000  1.0  0.1186
  H  H47  1  0.003100  0.014400  0.156500  1.0  0.0852
  H  H48  1  0.979900  0.884100  0.087400  1.0  0.0822
  H  H49  1  0.440100  0.715200  0.521100  1.0  0.1038
  H  H50  1  0.399100  0.804300  0.585600  1.0  0.1118
  H  H51  1  0.473900  0.846900  0.653600  1.0  0.074
  H  H52  1  0.514800  0.760900  0.591300  1.0  0.0774
  H  H53  1  0.365300  0.055800  0.356300  1.0  0.0815
  H  H54  1  0.336600  0.778800  0.352400  1.0  0.102
  H  H55  1  0.358300  0.968300  0.237400  1.0  0.0994
  H  H56  1  0.357000  0.999400  0.380800  1.0  0.1217
  H  H57  1  0.352900  0.912700  0.264600  1.0  0.0976
  H  H58  1  0.274400  0.827600  0.425000  1.0  0.1165
  H  H59  1  0.357900  0.846600  0.343500  1.0  0.0888
  H  H60  1  0.296700  0.892500  0.412600  1.0  0.0819
  H  H61  1  0.059900  0.581000  0.275100  1.0  0.105
  H  H62  1  0.100900  0.686500  0.405200  1.0  0.1129
  H  H63  1  0.026100  0.679700  0.373000  1.0  0.074
  H  H64  1  0.985200  0.576500  0.246100  1.0  0.0785
  H  H65  1  0.134700  0.491000  0.690500  1.0  0.0806
  H  H66  1  0.163400  0.515800  0.442200  1.0  0.1
  H  H67  1  0.141700  0.379100  0.610000  1.0  0.0995
  H  H68  1  0.143000  0.523800  0.642400  1.0  0.1228
  H  H69  1  0.147100  0.411700  0.559800  1.0  0.0965
  H  H70  1  0.225600  0.650600  0.553200  1.0  0.116
  H  H71  1  0.142100  0.485600  0.488700  1.0  0.0877
  H  H72  1  0.203300  0.615900  0.595800  1.0  0.0812
  H  H73  1  0.805900  0.784800  0.224900  1.0  0.1034
  H  H74  1  0.781300  0.695700  0.094800  1.0  0.1122
  H  H75  1  0.806700  0.653100  0.127000  1.0  0.0745
  H  H76  1  0.830400  0.739100  0.253900  1.0  0.0787
  H  H77  1  0.300500  0.444200  0.809500  1.0  0.0806
  H  H78  1  0.573600  0.721200  0.057800  1.0  0.1023
  H  H79  1  0.269100  0.531700  0.890000  1.0  0.0997
  H  H80  1  0.381400  0.500600  0.857600  1.0  0.1241
  H  H81  1  0.351900  0.587300  0.940200  1.0  0.0973
  H  H82  1  0.597400  0.672400  0.946800  1.0  0.1163
  H  H83  1  0.496900  0.653400  0.011300  1.0  0.0883
  H  H84  1  0.520100  0.607500  0.904200  1.0  0.081
  H  H85  1  0.775100  0.059900  0.081000  1.0  0.1048
  H  H86  1  0.905200  0.100900  0.186500  1.0  0.1128
  H  H87  1  0.873000  0.026100  0.179700  1.0  0.0734
  H  H88  1  0.746100  0.985200  0.076500  1.0  0.0774
  H  H89  1  0.190500  0.134700  0.991000  1.0  0.0815
  H  H90  1  0.942200  0.163400  0.015800  1.0  0.1009
  H  H91  1  0.110000  0.141700  0.879100  1.0  0.0996
  H  H92  1  0.142400  0.143000  0.023800  1.0  0.1217
  H  H93  1  0.059800  0.147100  0.911700  1.0  0.0998
  H  H94  1  0.053200  0.225600  0.150600  1.0  0.116
  H  H95  1  0.988700  0.142100  0.985600  1.0  0.0881
  H  H96  1  0.095800  0.203300  0.115900  1.0  0.0805
  H  H97  1  0.724900  0.805900  0.284800  1.0  0.1035
  H  H98  1  0.594800  0.781300  0.195700  1.0  0.1129
  H  H99  1  0.627000  0.806700  0.153100  1.0  0.0756
  H  H100  1  0.753900  0.830400  0.239100  1.0  0.0785
  H  H101  1  0.309500  0.300500  0.944200  1.0  0.0805
  H  H102  1  0.557800  0.573600  0.221200  1.0  0.1021
  H  H103  1  0.390000  0.269100  0.031700  1.0  0.0987
  H  H104  1  0.357600  0.381400  0.000600  1.0  0.1238
  H  H105  1  0.440200  0.351900  0.087300  1.0  0.0967
  H  H106  1  0.446800  0.597400  0.172400  1.0  0.1173
  H  H107  1  0.511300  0.496900  0.153400  1.0  0.0885
  H  H108  1  0.404200  0.520100  0.107500  1.0  0.0803
  H  H109  1  0.478900  0.694100  0.419000  1.0  0.1052
  H  H110  1  0.414400  0.718700  0.313500  1.0  0.1129
  H  H111  1  0.346400  0.693300  0.320300  1.0  0.0744
  H  H112  1  0.408700  0.669600  0.423500  1.0  0.0788
  H  H113  1  0.643700  0.199500  0.509000  1.0  0.0811
  H  H114  1  0.647600  0.926400  0.484200  1.0  0.1017
  H  H115  1  0.762600  0.230900  0.620900  1.0  0.0986
  H  H116  1  0.619200  0.118600  0.476200  1.0  0.1219
  H  H117  1  0.735400  0.148100  0.588300  1.0  0.0965
  H  H118  1  0.575000  0.902600  0.349400  1.0  0.1162
  H  H119  1  0.656500  0.003100  0.514400  1.0  0.0878
  H  H120  1  0.587400  0.979900  0.384100  1.0  0.0813
  H  H121  1  0.021100  0.440100  0.215200  1.0  0.1047
  H  H122  1  0.085600  0.399100  0.304300  1.0  0.1128
  H  H123  1  0.153600  0.473900  0.346900  1.0  0.0745
  H  H124  1  0.091300  0.514800  0.260900  1.0  0.079
  H  H125  1  0.856300  0.365300  0.555800  1.0  0.0805
  H  H126  1  0.852400  0.336600  0.278800  1.0  0.1008
  H  H127  1  0.737400  0.358300  0.468300  1.0  0.1005
  H  H128  1  0.880800  0.357000  0.499400  1.0  0.1229
  H  H129  1  0.764600  0.352900  0.412700  1.0  0.0966
  H  H130  1  0.925000  0.274400  0.327600  1.0  0.1173
  H  H131  1  0.843500  0.357900  0.346600  1.0  0.0897
  H  H132  1  0.912600  0.296700  0.392500  1.0  0.0811
  H  H133  1  0.715200  0.021100  0.940100  1.0  0.1032
  H  H134  1  0.804300  0.085600  0.899100  1.0  0.1127
  H  H135  1  0.846900  0.153600  0.973900  1.0  0.0752
  H  H136  1  0.760900  0.091300  0.014800  1.0  0.0788
  H  H137  1  0.055800  0.856300  0.865300  1.0  0.0799
  H  H138  1  0.778800  0.852400  0.836600  1.0  0.1018
  H  H139  1  0.968300  0.737400  0.858300  1.0  0.0987
  H  H140  1  0.999400  0.880800  0.857000  1.0  0.1233
  H  H141  1  0.912700  0.764600  0.852900  1.0  0.0971
  H  H142  1  0.827600  0.925000  0.774400  1.0  0.1163
  H  H143  1  0.846600  0.843500  0.857900  1.0  0.0881
  H  H144  1  0.892500  0.912600  0.796700  1.0  0.0814
  H  H145  1  0.919000  0.478900  0.194100  1.0  0.1048
  H  H146  1  0.813500  0.414400  0.218700  1.0  0.1132
  H  H147  1  0.820300  0.346400  0.193300  1.0  0.0744
  H  H148  1  0.923500  0.408700  0.169600  1.0  0.0776
  H  H149  1  0.009000  0.643700  0.699500  1.0  0.0803
  H  H150  1  0.984200  0.647600  0.426400  1.0  0.1002
  H  H151  1  0.120900  0.762600  0.730900  1.0  0.0996
  H  H152  1  0.976200  0.619200  0.618600  1.0  0.1221
  H  H153  1  0.088300  0.735400  0.648100  1.0  0.097
  H  H154  1  0.849400  0.575000  0.402600  1.0  0.118
  H  H155  1  0.014400  0.656500  0.503100  1.0  0.0888
  H  H156  1  0.884100  0.587400  0.479900  1.0  0.0826
  H  H157  1  0.784800  0.724900  0.305900  1.0  0.1036
  H  H158  1  0.695700  0.594800  0.281300  1.0  0.113
  H  H159  1  0.653100  0.627000  0.306700  1.0  0.0736
  H  H160  1  0.739100  0.753900  0.330400  1.0  0.0783
  H  H161  1  0.444200  0.309500  0.800500  1.0  0.0815
  H  H162  1  0.721200  0.557800  0.073600  1.0  0.1019
  H  H163  1  0.531700  0.390000  0.769100  1.0  0.0992
  H  H164  1  0.500600  0.357600  0.881400  1.0  0.1231
  H  H165  1  0.587300  0.440200  0.851900  1.0  0.0982
  H  H166  1  0.672400  0.446800  0.097400  1.0  0.1161
  H  H167  1  0.653400  0.511300  0.996900  1.0  0.0884
  H  H168  1  0.607500  0.404200  0.020100  1.0  0.0811
  H  H169  1  0.581000  0.775100  0.559900  1.0  0.1046
  H  H170  1  0.686500  0.905200  0.600900  1.0  0.1127
  H  H171  1  0.679700  0.873000  0.526100  1.0  0.0749
  H  H172  1  0.576500  0.746100  0.485200  1.0  0.0789
  H  H173  1  0.491000  0.190500  0.634700  1.0  0.0797
  H  H174  1  0.515800  0.942200  0.663400  1.0  0.1005
  H  H175  1  0.379100  0.110000  0.641700  1.0  0.0996
  H  H176  1  0.523800  0.142400  0.643000  1.0  0.1226
  H  H177  1  0.411700  0.059800  0.647100  1.0  0.0973
  H  H178  1  0.650600  0.053200  0.725600  1.0  0.1174
  H  H179  1  0.485600  0.988700  0.642100  1.0  0.0892
  H  H180  1  0.615900  0.095800  0.703300  1.0  0.0818
  H  H181  1  0.215200  0.940100  0.021100  1.0  0.1044
  H  H182  1  0.304300  0.899100  0.085600  1.0  0.1129
  H  H183  1  0.346900  0.973900  0.153600  1.0  0.0742
  H  H184  1  0.260900  0.014800  0.091300  1.0  0.0777
  H  H185  1  0.555800  0.865300  0.856300  1.0  0.0815
  H  H186  1  0.278800  0.836600  0.852400  1.0  0.1017
  H  H187  1  0.468300  0.858300  0.737400  1.0  0.0995
  H  H188  1  0.499400  0.857000  0.880800  1.0  0.1224
  H  H189  1  0.412700  0.852900  0.764600  1.0  0.0998
  H  H190  1  0.327600  0.774400  0.925000  1.0  0.1157
  H  H191  1  0.346600  0.857900  0.843500  1.0  0.0888
  H  H192  1  0.392500  0.796700  0.912600  1.0  0.0803
  H  H193  1  0.419000  0.194100  0.478900  1.0  0.1051
  H  H194  1  0.313500  0.218700  0.414400  1.0  0.113
  H  H195  1  0.320300  0.193300  0.346400  1.0  0.0761
  H  H196  1  0.423500  0.169600  0.408700  1.0  0.0785
  H  H197  1  0.509000  0.699500  0.643700  1.0  0.0805
  H  H198  1  0.484200  0.426400  0.647600  1.0  0.1005
  H  H199  1  0.620900  0.730900  0.762600  1.0  0.0988
  H  H200  1  0.476200  0.618600  0.619200  1.0  0.1218
  H  H201  1  0.588300  0.648100  0.735400  1.0  0.0969
  H  H202  1  0.349400  0.402600  0.575000  1.0  0.1172
  H  H203  1  0.514400  0.503100  0.656500  1.0  0.0888
  H  H204  1  0.384100  0.479900  0.587400  1.0  0.0819
  H  H205  1  0.284800  0.305900  0.724900  1.0  0.1035
  H  H206  1  0.195700  0.281300  0.594800  1.0  0.1124
  H  H207  1  0.153100  0.306700  0.627000  1.0  0.074
  H  H208  1  0.239100  0.330400  0.753900  1.0  0.0788
  H  H209  1  0.944200  0.800500  0.309500  1.0  0.0811
  H  H210  1  0.221200  0.073600  0.557800  1.0  0.1029
  H  H211  1  0.031700  0.769100  0.390000  1.0  0.0986
  H  H212  1  0.000600  0.881400  0.357600  1.0  0.1237
  H  H213  1  0.087300  0.851900  0.440200  1.0  0.0964
  H  H214  1  0.172400  0.097400  0.446800  1.0  0.1162
  H  H215  1  0.153400  0.996900  0.511300  1.0  0.0879
  H  H216  1  0.107500  0.020100  0.404200  1.0  0.0799
  H  H217  1  0.081000  0.559900  0.775100  1.0  0.1049
  H  H218  1  0.186500  0.600900  0.905200  1.0  0.1125
  H  H219  1  0.179700  0.526100  0.873000  1.0  0.0736
  H  H220  1  0.076500  0.485200  0.746100  1.0  0.0786
  H  H221  1  0.991000  0.634700  0.190500  1.0  0.0804
  H  H222  1  0.015800  0.663400  0.942200  1.0  0.0998
  H  H223  1  0.879100  0.641700  0.110000  1.0  0.1005
  H  H224  1  0.023800  0.643000  0.142400  1.0  0.1221
  H  H225  1  0.911700  0.647100  0.059800  1.0  0.0966
  H  H226  1  0.150600  0.725600  0.053200  1.0  0.1176
  H  H227  1  0.985600  0.642100  0.988700  1.0  0.0892
  H  H228  1  0.115900  0.703300  0.095800  1.0  0.0815
  H  H229  1  0.194100  0.978900  0.919000  1.0  0.1033
  H  H230  1  0.218700  0.914400  0.813500  1.0  0.1128
  H  H231  1  0.193300  0.846400  0.820300  1.0  0.0747
  H  H232  1  0.169600  0.908700  0.923500  1.0  0.0786
  H  H233  1  0.699500  0.143700  0.009000  1.0  0.08
  H  H234  1  0.426400  0.147600  0.984200  1.0  0.1008
  H  H235  1  0.730900  0.262600  0.120900  1.0  0.0989
  H  H236  1  0.618600  0.119200  0.976200  1.0  0.122
  H  H237  1  0.648100  0.235400  0.088300  1.0  0.0969
  H  H238  1  0.402600  0.075000  0.849400  1.0  0.1162
  H  H239  1  0.503100  0.156500  0.014400  1.0  0.0882
  H  H240  1  0.479900  0.087400  0.884100  1.0  0.0824
  H  H241  1  0.940100  0.521100  0.715200  1.0  0.1044
  H  H242  1  0.899100  0.585600  0.804300  1.0  0.1131
  H  H243  1  0.973900  0.653600  0.846900  1.0  0.0744
  H  H244  1  0.014800  0.591300  0.760900  1.0  0.0777
  H  H245  1  0.865300  0.356300  0.055800  1.0  0.0806
  H  H246  1  0.836600  0.352400  0.778800  1.0  0.101
  H  H247  1  0.858300  0.237400  0.968300  1.0  0.0994
  H  H248  1  0.857000  0.380800  0.999400  1.0  0.1236
  H  H249  1  0.852900  0.264600  0.912700  1.0  0.0967
  H  H250  1  0.774400  0.425000  0.827600  1.0  0.1175
  H  H251  1  0.857900  0.343500  0.846600  1.0  0.0885
  H  H252  1  0.796700  0.412600  0.892500  1.0  0.081
  H  H253  1  0.559900  0.275100  0.581000  1.0  0.1044
  H  H254  1  0.600900  0.405200  0.686500  1.0  0.113
  H  H255  1  0.526100  0.373000  0.679700  1.0  0.0736
  H  H256  1  0.485200  0.246100  0.576500  1.0  0.0782
  H  H257  1  0.634700  0.690500  0.491000  1.0  0.0816
  H  H258  1  0.663400  0.442200  0.515800  1.0  0.1009
  H  H259  1  0.641700  0.610000  0.379100  1.0  0.0995
  H  H260  1  0.643000  0.642400  0.523800  1.0  0.1212
  H  H261  1  0.647100  0.559800  0.411700  1.0  0.0975
  H  H262  1  0.725600  0.553200  0.650600  1.0  0.1162
  H  H263  1  0.642100  0.488700  0.485600  1.0  0.0884
  H  H264  1  0.703300  0.595800  0.615900  1.0  0.0819
  H  H265  1  0.305900  0.224900  0.784800  1.0  0.1036
  H  H266  1  0.281300  0.094800  0.695700  1.0  0.1129
  H  H267  1  0.306700  0.127000  0.653100  1.0  0.0746
  H  H268  1  0.330400  0.253900  0.739100  1.0  0.0791
  H  H269  1  0.800500  0.809500  0.444200  1.0  0.0798
  H  H270  1  0.073600  0.057800  0.721200  1.0  0.1016
  H  H271  1  0.769100  0.890000  0.531700  1.0  0.0996
  H  H272  1  0.881400  0.857600  0.500600  1.0  0.1241
  H  H273  1  0.851900  0.940200  0.587300  1.0  0.0972
  H  H274  1  0.097400  0.946800  0.672400  1.0  0.1172
  H  H275  1  0.996900  0.011300  0.653400  1.0  0.0895
  H  H276  1  0.020100  0.904200  0.607500  1.0  0.0808
  H  H277  1  0.275100  0.081000  0.059900  1.0  0.1043
  H  H278  1  0.405200  0.186500  0.100900  1.0  0.1132
  H  H279  1  0.373000  0.179700  0.026100  1.0  0.0753
  H  H280  1  0.246100  0.076500  0.985200  1.0  0.0779
  H  H281  1  0.690500  0.991000  0.134700  1.0  0.0801
  H  H282  1  0.442200  0.015800  0.163400  1.0  0.1008
  H  H283  1  0.610000  0.879100  0.141700  1.0  0.0983
  H  H284  1  0.642400  0.023800  0.143000  1.0  0.1228
  H  H285  1  0.559800  0.911700  0.147100  1.0  0.0969
  H  H286  1  0.553200  0.150600  0.225600  1.0  0.116
  H  H287  1  0.488700  0.985600  0.142100  1.0  0.0872
  H  H288  1  0.595800  0.115900  0.203300  1.0  0.0821
  H  H289  1  0.224900  0.284800  0.805900  1.0  0.1034
  H  H290  1  0.094800  0.195700  0.781300  1.0  0.1123
  H  H291  1  0.127000  0.153100  0.806700  1.0  0.0739
  H  H292  1  0.253900  0.239100  0.830400  1.0  0.0776
  H  H293  1  0.809500  0.944200  0.300500  1.0  0.0816
  H  H294  1  0.057800  0.221200  0.573600  1.0  0.1026
  H  H295  1  0.890000  0.031700  0.269100  1.0  0.0994
  H  H296  1  0.857600  0.000600  0.381400  1.0  0.1229
  H  H297  1  0.940200  0.087300  0.351900  1.0  0.0984
  H  H298  1  0.946800  0.172400  0.597400  1.0  0.1166
  H  H299  1  0.011300  0.153400  0.496900  1.0  0.0886
  H  H300  1  0.904200  0.107500  0.520100  1.0  0.0815
  H  H301  1  0.978900  0.419000  0.694100  1.0  0.105
  H  H302  1  0.914400  0.313500  0.718700  1.0  0.1131
  H  H303  1  0.846400  0.320300  0.693300  1.0  0.0737
  H  H304  1  0.908700  0.423500  0.669600  1.0  0.0788
  H  H305  1  0.143700  0.509000  0.199500  1.0  0.0805
  H  H306  1  0.147600  0.484200  0.926400  1.0  0.1001
  H  H307  1  0.262600  0.620900  0.230900  1.0  0.0997
  H  H308  1  0.119200  0.476200  0.118600  1.0  0.1221
  H  H309  1  0.235400  0.588300  0.148100  1.0  0.0967
  H  H310  1  0.075000  0.349400  0.902600  1.0  0.1189
  H  H311  1  0.156500  0.514400  0.003100  1.0  0.0849
  H  H312  1  0.087400  0.384100  0.979900  1.0  0.0821
  H  H313  1  0.521100  0.215200  0.440100  1.0  0.1041
  H  H314  1  0.585600  0.304300  0.399100  1.0  0.1127
  H  H315  1  0.653600  0.346900  0.473900  1.0  0.0749
  H  H316  1  0.591300  0.260900  0.514800  1.0  0.0789
  H  H317  1  0.356300  0.555800  0.365300  1.0  0.0805
  H  H318  1  0.352400  0.278800  0.336600  1.0  0.102
  H  H319  1  0.237400  0.468300  0.358300  1.0  0.0996
  H  H320  1  0.380800  0.499400  0.357000  1.0  0.1234
  H  H321  1  0.264600  0.412700  0.352900  1.0  0.0973
  H  H322  1  0.425000  0.327600  0.274400  1.0  0.1163
  H  H323  1  0.343500  0.346600  0.357900  1.0  0.0885
  H  H324  1  0.412600  0.392500  0.296700  1.0  0.0817
  C  C325  1  0.694310  0.898530  0.952340  1.0  -0.1124
  C  C326  1  0.708710  0.836150  0.914020  1.0  -0.1259
  C  C327  1  0.852970  0.893830  0.096340  1.0  0.7202
  C  C328  1  0.904670  0.913960  0.107130  1.0  -0.0896
  C  C329  1  0.708630  0.865490  0.954800  1.0  -0.1062
  C  C330  1  0.276540  0.089480  0.220680  1.0  0.7235
  C  C331  1  0.694030  0.840850  0.873620  1.0  0.1742
  C  C332  1  0.725610  0.862380  0.000230  1.0  0.7153
  C  C333  1  0.680030  0.901410  0.910200  1.0  0.1378
  C  C334  1  0.223770  0.068500  0.204270  1.0  -0.1147
  C  C335  1  0.000900  0.952000  0.127900  1.0  0.2169
  C  C336  1  0.189600  0.025600  0.163000  1.0  -0.0385
  C  C337  1  0.125900  0.028600  0.176300  1.0  0.2145
  C  C338  1  0.936400  0.963000  0.134200  1.0  -0.1164
  C  C339  1  0.208300  0.091900  0.233000  1.0  -0.079
  C  C340  1  0.141100  0.005500  0.148200  1.0  -0.1312
  C  C341  1  0.158700  0.071600  0.217100  1.0  -0.1837
  C  C342  1  0.922200  0.883100  0.091300  1.0  -0.1336
  C  C343  1  0.983200  0.980900  0.141500  1.0  -0.046
  C  C344  1  0.969200  0.904400  0.100800  1.0  -0.0948
  C  C345  1  0.446190  0.741970  0.547660  1.0  -0.1071
  C  C346  1  0.422130  0.794690  0.585980  1.0  -0.1266
  C  C347  1  0.297490  0.756630  0.403660  1.0  0.7219
  C  C348  1  0.306830  0.797540  0.392870  1.0  -0.0895
  C  C349  1  0.410690  0.753830  0.545200  1.0  -0.1049
  C  C350  1  0.368800  0.055860  0.279320  1.0  0.7254
  C  C351  1  0.467230  0.820410  0.626380  1.0  0.1727
  C  C352  1  0.362150  0.725380  0.499770  1.0  0.7123
  C  C353  1  0.491210  0.769830  0.589800  1.0  0.1373
  C  C354  1  0.364230  0.019500  0.295730  1.0  -0.1142
  C  C355  1  0.324100  0.873000  0.372100  1.0  0.2151
  C  C356  1  0.362600  0.026600  0.337000  1.0  -0.0386
  C  C357  1  0.352300  0.949600  0.323700  1.0  0.2129
  C  C358  1  0.328800  0.802200  0.365800  1.0  -0.1221
  C  C359  1  0.358900  0.975300  0.267000  1.0  -0.0818
  C  C360  1  0.357300  0.992900  0.351800  1.0  -0.1315
  C  C361  1  0.354500  0.941600  0.282900  1.0  -0.186
  C  C362  1  0.291800  0.830900  0.408700  1.0  -0.1361
  C  C363  1  0.339400  0.841700  0.358500  1.0  -0.0452
  C  C364  1  0.303600  0.868400  0.399200  1.0  -0.0937
  C  C365  1  0.053810  0.601470  0.295780  1.0  -0.1097
  C  C366  1  0.077870  0.663850  0.372560  1.0  -0.1276
  C  C367  1  0.202510  0.606170  0.459140  1.0  0.7217
  C  C368  1  0.193170  0.586040  0.490710  1.0  -0.0889
  C  C369  1  0.089310  0.634510  0.343140  1.0  -0.1052
  C  C370  1  0.131200  0.410520  0.687060  1.0  0.7273
  C  C371  1  0.032770  0.659150  0.353180  1.0  0.1721
  C  C372  1  0.137850  0.637620  0.363230  1.0  0.7146
  C  C373  1  0.008790  0.598590  0.278620  1.0  0.1358
  C  C374  1  0.135770  0.431500  0.655270  1.0  -0.1116
  C  C375  1  0.175900  0.548000  0.548900  1.0  0.215
  C  C376  1  0.137400  0.474400  0.664000  1.0  -0.0384
  C  C377  1  0.147700  0.471400  0.597300  1.0  0.2142
  C  C378  1  0.171200  0.537000  0.473400  1.0  -0.1219
  C  C379  1  0.141100  0.408100  0.616400  1.0  -0.0763
  C  C380  1  0.142700  0.494500  0.635600  1.0  -0.1295
  C  C381  1  0.145500  0.428400  0.587100  1.0  -0.1847
  C  C382  1  0.208200  0.616900  0.539100  1.0  -0.1321
  C  C383  1  0.160600  0.519100  0.502300  1.0  -0.0476
  C  C384  1  0.196400  0.595600  0.564800  1.0  -0.0926
  C  C385  1  0.805690  0.758030  0.204220  1.0  -0.1085
  C  C386  1  0.791290  0.705310  0.127440  1.0  -0.1275
  C  C387  1  0.647030  0.743370  0.040860  1.0  0.7203
  C  C388  1  0.595330  0.702460  0.009290  1.0  -0.0891
  C  C389  1  0.791370  0.746170  0.156860  1.0  -0.1046
  C  C390  1  0.223460  0.444140  0.812940  1.0  0.7228
  C  C391  1  0.805970  0.679590  0.146820  1.0  0.1714
  C  C392  1  0.774390  0.774620  0.136770  1.0  0.7134
  C  C393  1  0.819970  0.730170  0.221380  1.0  0.1376
  C  C394  1  0.276230  0.480500  0.844730  1.0  -0.1128
  C  C395  1  0.499100  0.627000  0.951100  1.0  0.2157
  C  C396  1  0.310400  0.473400  0.836000  1.0  -0.0386
  C  C397  1  0.374100  0.550400  0.902700  1.0  0.2124
  C  C398  1  0.563600  0.697800  0.026600  1.0  -0.123
  C  C399  1  0.291700  0.524700  0.883600  1.0  -0.0773
  C  C400  1  0.358900  0.507100  0.864400  1.0  -0.1288
  C  C401  1  0.341300  0.558400  0.912900  1.0  -0.1844
  C  C402  1  0.577800  0.669100  0.960900  1.0  -0.1364
  C  C403  1  0.516800  0.658300  0.997700  1.0  -0.0471
  C  C404  1  0.530800  0.631600  0.935200  1.0  -0.0931
  C  C405  1  0.795780  0.053810  0.101470  1.0  -0.1069
  C  C406  1  0.872560  0.077870  0.163850  1.0  -0.1266
  C  C407  1  0.959140  0.202510  0.106170  1.0  0.7226
  C  C408  1  0.990710  0.193170  0.086040  1.0  -0.091
  C  C409  1  0.843140  0.089310  0.134510  1.0  -0.103
  C  C410  1  0.187060  0.131200  0.910520  1.0  0.7237
  C  C411  1  0.853180  0.032770  0.159150  1.0  0.172
  C  C412  1  0.863230  0.137850  0.137620  1.0  0.7131
  C  C413  1  0.778620  0.008790  0.098590  1.0  0.1373
  C  C414  1  0.155270  0.135770  0.931500  1.0  -0.1152
  C  C415  1  0.048900  0.175900  0.048000  1.0  0.2148
  C  C416  1  0.164000  0.137400  0.974400  1.0  -0.0335
  C  C417  1  0.097300  0.147700  0.971400  1.0  0.2134
  C  C418  1  0.973400  0.171200  0.037000  1.0  -0.1223
  C  C419  1  0.116400  0.141100  0.908100  1.0  -0.0816
  C  C420  1  0.135600  0.142700  0.994500  1.0  -0.1307
  C  C421  1  0.087100  0.145500  0.928400  1.0  -0.183
  C  C422  1  0.039100  0.208200  0.116900  1.0  -0.1362
  C  C423  1  0.002300  0.160600  0.019100  1.0  -0.0468
  C  C424  1  0.064800  0.196400  0.095600  1.0  -0.0881
  C  C425  1  0.704220  0.805690  0.258030  1.0  -0.1067
  C  C426  1  0.627440  0.791290  0.205310  1.0  -0.1269
  C  C427  1  0.540860  0.647030  0.243370  1.0  0.7233
  C  C428  1  0.509290  0.595330  0.202460  1.0  -0.0898
  C  C429  1  0.656860  0.791370  0.246170  1.0  -0.1064
  C  C430  1  0.312940  0.223460  0.944140  1.0  0.7229
  C  C431  1  0.646820  0.805970  0.179590  1.0  0.1764
  C  C432  1  0.636770  0.774390  0.274620  1.0  0.7159
  C  C433  1  0.721380  0.819970  0.230170  1.0  0.138
  C  C434  1  0.344730  0.276230  0.980500  1.0  -0.1117
  C  C435  1  0.451100  0.499100  0.127000  1.0  0.216
  C  C436  1  0.336000  0.310400  0.973400  1.0  -0.0382
  C  C437  1  0.402700  0.374100  0.050400  1.0  0.213
  C  C438  1  0.526600  0.563600  0.197800  1.0  -0.1209
  C  C439  1  0.383600  0.291700  0.024700  1.0  -0.0792
  C  C440  1  0.364400  0.358900  0.007100  1.0  -0.1295
  C  C441  1  0.412900  0.341300  0.058400  1.0  -0.1823
  C  C442  1  0.460900  0.577800  0.169100  1.0  -0.1332
  C  C443  1  0.497700  0.516800  0.158300  1.0  -0.0437
  C  C444  1  0.435200  0.530800  0.131600  1.0  -0.0903
  C  C445  1  0.452340  0.694310  0.398530  1.0  -0.1114
  C  C446  1  0.414020  0.708710  0.336150  1.0  -0.1291
  C  C447  1  0.596340  0.852970  0.393830  1.0  0.7205
  C  C448  1  0.607130  0.904670  0.413960  1.0  -0.0887
  C  C449  1  0.454800  0.708630  0.365490  1.0  -0.1053
  C  C450  1  0.720680  0.276540  0.589480  1.0  0.7234
  C  C451  1  0.373620  0.694030  0.340850  1.0  0.1722
  C  C452  1  0.500230  0.725610  0.362380  1.0  0.7124
  C  C453  1  0.410200  0.680030  0.401410  1.0  0.1374
  C  C454  1  0.704270  0.223770  0.568500  1.0  -0.113
  C  C455  1  0.627900  0.000900  0.452000  1.0  0.2162
  C  C456  1  0.663000  0.189600  0.525600  1.0  -0.0374
  C  C457  1  0.676300  0.125900  0.528600  1.0  0.2147
  C  C458  1  0.634200  0.936400  0.463000  1.0  -0.1171
  C  C459  1  0.733000  0.208300  0.591900  1.0  -0.0783
  C  C460  1  0.648200  0.141100  0.505500  1.0  -0.13
  C  C461  1  0.717100  0.158700  0.571600  1.0  -0.1815
  C  C462  1  0.591300  0.922200  0.383100  1.0  -0.1353
  C  C463  1  0.641500  0.983200  0.480900  1.0  -0.0479
  C  C464  1  0.600800  0.969200  0.404400  1.0  -0.0915
  C  C465  1  0.047660  0.446190  0.241970  1.0  -0.1104
  C  C466  1  0.085980  0.422130  0.294690  1.0  -0.1279
  C  C467  1  0.903660  0.297490  0.256630  1.0  0.7218
  C  C468  1  0.892870  0.306830  0.297540  1.0  -0.0909
  C  C469  1  0.045200  0.410690  0.253830  1.0  -0.106
  C  C470  1  0.779320  0.368800  0.555860  1.0  0.7282
  C  C471  1  0.126380  0.467230  0.320410  1.0  0.1715
  C  C472  1  0.999770  0.362150  0.225380  1.0  0.7134
  C  C473  1  0.089800  0.491210  0.269830  1.0  0.1377
  C  C474  1  0.795730  0.364230  0.519500  1.0  -0.1124
  C  C475  1  0.872100  0.324100  0.373000  1.0  0.2158
  C  C476  1  0.837000  0.362600  0.526600  1.0  -0.0354
  C  C477  1  0.823700  0.352300  0.449600  1.0  0.2132
  C  C478  1  0.865800  0.328800  0.302200  1.0  -0.1213
  C  C479  1  0.767000  0.358900  0.475300  1.0  -0.0793
  C  C480  1  0.851800  0.357300  0.492900  1.0  -0.1274
  C  C481  1  0.782900  0.354500  0.441600  1.0  -0.1831
  C  C482  1  0.908700  0.291800  0.330900  1.0  -0.1354
  C  C483  1  0.858500  0.339400  0.341700  1.0  -0.0455
  C  C484  1  0.899200  0.303600  0.368400  1.0  -0.0896
  C  C485  1  0.741970  0.047660  0.946190  1.0  -0.1098
  C  C486  1  0.794690  0.085980  0.922130  1.0  -0.1307
  C  C487  1  0.756630  0.903660  0.797490  1.0  0.7224
  C  C488  1  0.797540  0.892870  0.806830  1.0  -0.0891
  C  C489  1  0.753830  0.045200  0.910690  1.0  -0.1049
  C  C490  1  0.055860  0.779320  0.868800  1.0  0.7233
  C  C491  1  0.820410  0.126380  0.967230  1.0  0.172
  C  C492  1  0.725380  0.999770  0.862150  1.0  0.7118
  C  C493  1  0.769830  0.089800  0.991210  1.0  0.1384
  C  C494  1  0.019500  0.795730  0.864230  1.0  -0.1141
  C  C495  1  0.873000  0.872100  0.824100  1.0  0.2161
  C  C496  1  0.026600  0.837000  0.862600  1.0  -0.0399
  C  C497  1  0.949600  0.823700  0.852300  1.0  0.2139
  C  C498  1  0.802200  0.865800  0.828800  1.0  -0.1237
  C  C499  1  0.975300  0.767000  0.858900  1.0  -0.0775
  C  C500  1  0.992900  0.851800  0.857300  1.0  -0.1318
  C  C501  1  0.941600  0.782900  0.854500  1.0  -0.1833
  C  C502  1  0.830900  0.908700  0.791800  1.0  -0.1364
  C  C503  1  0.841700  0.858500  0.839400  1.0  -0.0462
  C  C504  1  0.868400  0.899200  0.803600  1.0  -0.0918
  C  C505  1  0.898530  0.452340  0.194310  1.0  -0.1112
  C  C506  1  0.836150  0.414020  0.208710  1.0  -0.1289
  C  C507  1  0.893830  0.596340  0.352970  1.0  0.7206
  C  C508  1  0.913960  0.607130  0.404670  1.0  -0.091
  C  C509  1  0.865490  0.454800  0.208630  1.0  -0.105
  C  C510  1  0.089480  0.720680  0.776540  1.0  0.7279
  C  C511  1  0.840850  0.373620  0.194030  1.0  0.1718
  C  C512  1  0.862380  0.500230  0.225610  1.0  0.7134
  C  C513  1  0.901410  0.410200  0.180030  1.0  0.1381
  C  C514  1  0.068500  0.704270  0.723770  1.0  -0.1122
  C  C515  1  0.952000  0.627900  0.500900  1.0  0.2156
  C  C516  1  0.025600  0.663000  0.689600  1.0  -0.0375
  C  C517  1  0.028600  0.676300  0.625900  1.0  0.214
  C  C518  1  0.963000  0.634200  0.436400  1.0  -0.1153
  C  C519  1  0.091900  0.733000  0.708300  1.0  -0.0771
  C  C520  1  0.005500  0.648200  0.641100  1.0  -0.1289
  C  C521  1  0.071600  0.717100  0.658700  1.0  -0.1839
  C  C522  1  0.883100  0.591300  0.422200  1.0  -0.1335
  C  C523  1  0.980900  0.641500  0.483200  1.0  -0.0441
  C  C524  1  0.904400  0.600800  0.469200  1.0  -0.0905
  C  C525  1  0.758030  0.704220  0.305690  1.0  -0.109
  C  C526  1  0.705310  0.627440  0.291290  1.0  -0.1252
  C  C527  1  0.743370  0.540860  0.147030  1.0  0.7219
  C  C528  1  0.702460  0.509290  0.095330  1.0  -0.0893
  C  C529  1  0.746170  0.656860  0.291370  1.0  -0.1059
  C  C530  1  0.444140  0.312940  0.723460  1.0  0.7244
  C  C531  1  0.679590  0.646820  0.305970  1.0  0.1716
  C  C532  1  0.774620  0.636770  0.274390  1.0  0.7135
  C  C533  1  0.730170  0.721380  0.319970  1.0  0.1355
  C  C534  1  0.480500  0.344730  0.776230  1.0  -0.1144
  C  C535  1  0.627000  0.451100  0.999100  1.0  0.2129
  C  C536  1  0.473400  0.336000  0.810400  1.0  -0.0368
  C  C537  1  0.550400  0.402700  0.874100  1.0  0.2117
  C  C538  1  0.697800  0.526600  0.063600  1.0  -0.1222
  C  C539  1  0.524700  0.383600  0.791700  1.0  -0.0814
  C  C540  1  0.507100  0.364400  0.858900  1.0  -0.131
  C  C541  1  0.558400  0.412900  0.841300  1.0  -0.186
  C  C542  1  0.669100  0.460900  0.077800  1.0  -0.1369
  C  C543  1  0.658300  0.497700  0.016800  1.0  -0.0487
  C  C544  1  0.631600  0.435200  0.030800  1.0  -0.0956
  C  C545  1  0.601470  0.795780  0.553810  1.0  -0.1065
  C  C546  1  0.663850  0.872560  0.577870  1.0  -0.1264
  C  C547  1  0.606170  0.959140  0.702510  1.0  0.7202
  C  C548  1  0.586040  0.990710  0.693170  1.0  -0.0887
  C  C549  1  0.634510  0.843140  0.589310  1.0  -0.1069
  C  C550  1  0.410520  0.187060  0.631200  1.0  0.7243
  C  C551  1  0.659150  0.853180  0.532770  1.0  0.1753
  C  C552  1  0.637620  0.863230  0.637850  1.0  0.716
  C  C553  1  0.598590  0.778620  0.508790  1.0  0.1375
  C  C554  1  0.431500  0.155270  0.635770  1.0  -0.1128
  C  C555  1  0.548000  0.048900  0.675900  1.0  0.2169
  C  C556  1  0.474400  0.164000  0.637400  1.0  -0.0385
  C  C557  1  0.471400  0.097300  0.647700  1.0  0.2139
  C  C558  1  0.537000  0.973400  0.671200  1.0  -0.1224
  C  C559  1  0.408100  0.116400  0.641100  1.0  -0.0783
  C  C560  1  0.494500  0.135600  0.642700  1.0  -0.1291
  C  C561  1  0.428400  0.087100  0.645500  1.0  -0.1849
  C  C562  1  0.616900  0.039100  0.708200  1.0  -0.1354
  C  C563  1  0.519100  0.002300  0.660600  1.0  -0.0431
  C  C564  1  0.595600  0.064800  0.696400  1.0  -0.095
  C  C565  1  0.241970  0.946190  0.047660  1.0  -0.1094
  C  C566  1  0.294690  0.922130  0.085980  1.0  -0.1264
  C  C567  1  0.256630  0.797490  0.903660  1.0  0.7227
  C  C568  1  0.297540  0.806830  0.892870  1.0  -0.0909
  C  C569  1  0.253830  0.910690  0.045200  1.0  -0.1047
  C  C570  1  0.555860  0.868800  0.779320  1.0  0.7238
  C  C571  1  0.320410  0.967230  0.126380  1.0  0.1715
  C  C572  1  0.225380  0.862150  0.999770  1.0  0.7124
  C  C573  1  0.269830  0.991210  0.089800  1.0  0.1376
  C  C574  1  0.519500  0.864230  0.795730  1.0  -0.115
  C  C575  1  0.373000  0.824100  0.872100  1.0  0.215
  C  C576  1  0.526600  0.862600  0.837000  1.0  -0.0337
  C  C577  1  0.449600  0.852300  0.823700  1.0  0.2133
  C  C578  1  0.302200  0.828800  0.865800  1.0  -0.1227
  C  C579  1  0.475300  0.858900  0.767000  1.0  -0.0814
  C  C580  1  0.492900  0.857300  0.851800  1.0  -0.131
  C  C581  1  0.441600  0.854500  0.782900  1.0  -0.1827
  C  C582  1  0.330900  0.791800  0.908700  1.0  -0.1361
  C  C583  1  0.341700  0.839400  0.858500  1.0  -0.0481
  C  C584  1  0.368400  0.803600  0.899200  1.0  -0.0879
  C  C585  1  0.398530  0.194310  0.452340  1.0  -0.1106
  C  C586  1  0.336150  0.208710  0.414020  1.0  -0.1273
  C  C587  1  0.393830  0.352970  0.596340  1.0  0.7215
  C  C588  1  0.413960  0.404670  0.607130  1.0  -0.0888
  C  C589  1  0.365490  0.208630  0.454800  1.0  -0.1067
  C  C590  1  0.589480  0.776540  0.720680  1.0  0.7233
  C  C591  1  0.340850  0.194030  0.373620  1.0  0.1763
  C  C592  1  0.362380  0.225610  0.500230  1.0  0.716
  C  C593  1  0.401410  0.180030  0.410200  1.0  0.1376
  C  C594  1  0.568500  0.723770  0.704270  1.0  -0.1125
  C  C595  1  0.452000  0.500900  0.627900  1.0  0.2163
  C  C596  1  0.525600  0.689600  0.663000  1.0  -0.038
  C  C597  1  0.528600  0.625900  0.676300  1.0  0.2141
  C  C598  1  0.463000  0.436400  0.634200  1.0  -0.1166
  C  C599  1  0.591900  0.708300  0.733000  1.0  -0.08
  C  C600  1  0.505500  0.641100  0.648200  1.0  -0.1297
  C  C601  1  0.571600  0.658700  0.717100  1.0  -0.1822
  C  C602  1  0.383100  0.422200  0.591300  1.0  -0.1319
  C  C603  1  0.480900  0.483200  0.641500  1.0  -0.0437
  C  C604  1  0.404400  0.469200  0.600800  1.0  -0.0905
  C  C605  1  0.258030  0.305690  0.704220  1.0  -0.1088
  C  C606  1  0.205310  0.291290  0.627440  1.0  -0.1282
  C  C607  1  0.243370  0.147030  0.540860  1.0  0.7222
  C  C608  1  0.202460  0.095330  0.509290  1.0  -0.0893
  C  C609  1  0.246170  0.291370  0.656860  1.0  -0.1053
  C  C610  1  0.944140  0.723460  0.312940  1.0  0.7228
  C  C611  1  0.179590  0.305970  0.646820  1.0  0.1722
  C  C612  1  0.274620  0.274390  0.636770  1.0  0.7126
  C  C613  1  0.230170  0.319970  0.721380  1.0  0.1377
  C  C614  1  0.980500  0.776230  0.344730  1.0  -0.1121
  C  C615  1  0.127000  0.999100  0.451100  1.0  0.2158
  C  C616  1  0.973400  0.810400  0.336000  1.0  -0.0377
  C  C617  1  0.050400  0.874100  0.402700  1.0  0.2136
  C  C618  1  0.197800  0.063600  0.526600  1.0  -0.1231
  C  C619  1  0.024700  0.791700  0.383600  1.0  -0.0777
  C  C620  1  0.007100  0.858900  0.364400  1.0  -0.1299
  C  C621  1  0.058400  0.841300  0.412900  1.0  -0.1815
  C  C622  1  0.169100  0.077800  0.460900  1.0  -0.1363
  C  C623  1  0.158300  0.016800  0.497700  1.0  -0.048
  C  C624  1  0.131600  0.030800  0.435200  1.0  -0.0911
  C  C625  1  0.101470  0.553810  0.795780  1.0  -0.108
  C  C626  1  0.163850  0.577870  0.872560  1.0  -0.128
  C  C627  1  0.106170  0.702510  0.959140  1.0  0.7216
  C  C628  1  0.086040  0.693170  0.990710  1.0  -0.0907
  C  C629  1  0.134510  0.589310  0.843140  1.0  -0.1044
  C  C630  1  0.910520  0.631200  0.187060  1.0  0.7284
  C  C631  1  0.159150  0.532770  0.853180  1.0  0.1719
  C  C632  1  0.137620  0.637850  0.863230  1.0  0.7138
  C  C633  1  0.098590  0.508790  0.778620  1.0  0.137
  C  C634  1  0.931500  0.635770  0.155270  1.0  -0.1124
  C  C635  1  0.048000  0.675900  0.048900  1.0  0.2156
  C  C636  1  0.974400  0.637400  0.164000  1.0  -0.0353
  C  C637  1  0.971400  0.647700  0.097300  1.0  0.2133
  C  C638  1  0.037000  0.671200  0.973400  1.0  -0.1217
  C  C639  1  0.908100  0.641100  0.116400  1.0  -0.0794
  C  C640  1  0.994500  0.642700  0.135600  1.0  -0.1273
  C  C641  1  0.928400  0.645500  0.087100  1.0  -0.183
  C  C642  1  0.116900  0.708200  0.039100  1.0  -0.1351
  C  C643  1  0.019100  0.660600  0.002300  1.0  -0.0448
  C  C644  1  0.095600  0.696400  0.064800  1.0  -0.0907
  C  C645  1  0.194310  0.952340  0.898530  1.0  -0.1126
  C  C646  1  0.208710  0.914020  0.836150  1.0  -0.1302
  C  C647  1  0.352970  0.096340  0.893830  1.0  0.7222
  C  C648  1  0.404670  0.107130  0.913960  1.0  -0.0892
  C  C649  1  0.208630  0.954800  0.865490  1.0  -0.1044
  C  C650  1  0.776540  0.220680  0.089480  1.0  0.7237
  C  C651  1  0.194030  0.873620  0.840850  1.0  0.1713
  C  C652  1  0.225610  0.000230  0.862380  1.0  0.7117
  C  C653  1  0.180030  0.910200  0.901410  1.0  0.1378
  C  C654  1  0.723770  0.204270  0.068500  1.0  -0.1142
  C  C655  1  0.500900  0.127900  0.952000  1.0  0.2167
  C  C656  1  0.689600  0.163000  0.025600  1.0  -0.0397
  C  C657  1  0.625900  0.176300  0.028600  1.0  0.2137
  C  C658  1  0.436400  0.134200  0.963000  1.0  -0.1172
  C  C659  1  0.708300  0.233000  0.091900  1.0  -0.0779
  C  C660  1  0.641100  0.148200  0.005500  1.0  -0.1312
  C  C661  1  0.658700  0.217100  0.071600  1.0  -0.1834
  C  C662  1  0.422200  0.091300  0.883100  1.0  -0.1364
  C  C663  1  0.483200  0.141500  0.980900  1.0  -0.0465
  C  C664  1  0.469200  0.100800  0.904400  1.0  -0.091
  C  C665  1  0.946190  0.547660  0.741970  1.0  -0.1088
  C  C666  1  0.922130  0.585980  0.794690  1.0  -0.129
  C  C667  1  0.797490  0.403660  0.756630  1.0  0.7207
  C  C668  1  0.806830  0.392870  0.797540  1.0  -0.0902
  C  C669  1  0.910690  0.545200  0.753830  1.0  -0.1051
  C  C670  1  0.868800  0.279320  0.055860  1.0  0.7279
  C  C671  1  0.967230  0.626380  0.820410  1.0  0.1723
  C  C672  1  0.862150  0.499770  0.725380  1.0  0.713
  C  C673  1  0.991210  0.589800  0.769830  1.0  0.1386
  C  C674  1  0.864230  0.295730  0.019500  1.0  -0.1122
  C  C675  1  0.824100  0.372100  0.873000  1.0  0.2149
  C  C676  1  0.862600  0.337000  0.026600  1.0  -0.0389
  C  C677  1  0.852300  0.323700  0.949600  1.0  0.2143
  C  C678  1  0.828800  0.365800  0.802200  1.0  -0.1208
  C  C679  1  0.858900  0.267000  0.975300  1.0  -0.0768
  C  C680  1  0.857300  0.351800  0.992900  1.0  -0.1292
  C  C681  1  0.854500  0.282900  0.941600  1.0  -0.1842
  C  C682  1  0.791800  0.408700  0.830900  1.0  -0.134
  C  C683  1  0.839400  0.358500  0.841700  1.0  -0.0439
  C  C684  1  0.803600  0.399200  0.868400  1.0  -0.0916
  C  C685  1  0.553810  0.295780  0.601470  1.0  -0.1068
  C  C686  1  0.577870  0.372560  0.663850  1.0  -0.1262
  C  C687  1  0.702510  0.459140  0.606170  1.0  0.722
  C  C688  1  0.693170  0.490710  0.586040  1.0  -0.0886
  C  C689  1  0.589310  0.343140  0.634510  1.0  -0.1061
  C  C690  1  0.631200  0.687060  0.410520  1.0  0.7246
  C  C691  1  0.532770  0.353180  0.659150  1.0  0.1718
  C  C692  1  0.637850  0.363230  0.637620  1.0  0.7129
  C  C693  1  0.508790  0.278620  0.598590  1.0  0.1355
  C  C694  1  0.635770  0.655270  0.431500  1.0  -0.1141
  C  C695  1  0.675900  0.548900  0.548000  1.0  0.2147
  C  C696  1  0.637400  0.664000  0.474400  1.0  -0.0384
  C  C697  1  0.647700  0.597300  0.471400  1.0  0.2131
  C  C698  1  0.671200  0.473400  0.537000  1.0  -0.1224
  C  C699  1  0.641100  0.616400  0.408100  1.0  -0.082
  C  C700  1  0.642700  0.635600  0.494500  1.0  -0.1315
  C  C701  1  0.645500  0.587100  0.428400  1.0  -0.1858
  C  C702  1  0.708200  0.539100  0.616900  1.0  -0.1375
  C  C703  1  0.660600  0.502300  0.519100  1.0  -0.0474
  C  C704  1  0.696400  0.564800  0.595600  1.0  -0.0943
  C  C705  1  0.305690  0.204220  0.758030  1.0  -0.1078
  C  C706  1  0.291290  0.127440  0.705310  1.0  -0.1258
  C  C707  1  0.147030  0.040860  0.743370  1.0  0.7203
  C  C708  1  0.095330  0.009290  0.702460  1.0  -0.0892
  C  C709  1  0.291370  0.156860  0.746170  1.0  -0.1061
  C  C710  1  0.723460  0.812940  0.444140  1.0  0.7239
  C  C711  1  0.305970  0.146820  0.679590  1.0  0.1744
  C  C712  1  0.274390  0.136770  0.774620  1.0  0.7165
  C  C713  1  0.319970  0.221380  0.730170  1.0  0.1381
  C  C714  1  0.776230  0.844730  0.480500  1.0  -0.1135
  C  C715  1  0.999100  0.951100  0.627000  1.0  0.2153
  C  C716  1  0.810400  0.836000  0.473400  1.0  -0.0378
  C  C717  1  0.874100  0.902700  0.550400  1.0  0.2126
  C  C718  1  0.063600  0.026600  0.697800  1.0  -0.1213
  C  C719  1  0.791700  0.883600  0.524700  1.0  -0.079
  C  C720  1  0.858900  0.864400  0.507100  1.0  -0.1288
  C  C721  1  0.841300  0.912900  0.558400  1.0  -0.1845
  C  C722  1  0.077800  0.960900  0.669100  1.0  -0.1355
  C  C723  1  0.016800  0.997700  0.658300  1.0  -0.0439
  C  C724  1  0.030800  0.935200  0.631600  1.0  -0.0946
  C  C725  1  0.295780  0.101470  0.053810  1.0  -0.1077
  C  C726  1  0.372560  0.163850  0.077870  1.0  -0.1257
  C  C727  1  0.459140  0.106170  0.202510  1.0  0.7201
  C  C728  1  0.490710  0.086040  0.193170  1.0  -0.0901
  C  C729  1  0.343140  0.134510  0.089310  1.0  -0.1059
  C  C730  1  0.687060  0.910520  0.131200  1.0  0.7233
  C  C731  1  0.353180  0.159150  0.032770  1.0  0.1754
  C  C732  1  0.363230  0.137620  0.137850  1.0  0.7148
  C  C733  1  0.278620  0.098590  0.008790  1.0  0.1377
  C  C734  1  0.655270  0.931500  0.135770  1.0  -0.1147
  C  C735  1  0.548900  0.048000  0.175900  1.0  0.2162
  C  C736  1  0.664000  0.974400  0.137400  1.0  -0.0391
  C  C737  1  0.597300  0.971400  0.147700  1.0  0.2145
  C  C738  1  0.473400  0.037000  0.171200  1.0  -0.1223
  C  C739  1  0.616400  0.908100  0.141100  1.0  -0.0781
  C  C740  1  0.635600  0.994500  0.142700  1.0  -0.1321
  C  C741  1  0.587100  0.928400  0.145500  1.0  -0.1834
  C  C742  1  0.539100  0.116900  0.208200  1.0  -0.1313
  C  C743  1  0.502300  0.019100  0.160600  1.0  -0.0469
  C  C744  1  0.564800  0.095600  0.196400  1.0  -0.0948
  C  C745  1  0.204220  0.258030  0.805690  1.0  -0.1063
  C  C746  1  0.127440  0.205310  0.791290  1.0  -0.1258
  C  C747  1  0.040860  0.243370  0.647030  1.0  0.7217
  C  C748  1  0.009290  0.202460  0.595330  1.0  -0.0904
  C  C749  1  0.156860  0.246170  0.791370  1.0  -0.1046
  C  C750  1  0.812940  0.944140  0.223460  1.0  0.725
  C  C751  1  0.146820  0.179590  0.805970  1.0  0.173
  C  C752  1  0.136770  0.274620  0.774390  1.0  0.7132
  C  C753  1  0.221380  0.230170  0.819970  1.0  0.1375
  C  C754  1  0.844730  0.980500  0.276230  1.0  -0.1139
  C  C755  1  0.951100  0.127000  0.499100  1.0  0.2131
  C  C756  1  0.836000  0.973400  0.310400  1.0  -0.0377
  C  C757  1  0.902700  0.050400  0.374100  1.0  0.2114
  C  C758  1  0.026600  0.197800  0.563600  1.0  -0.1212
  C  C759  1  0.883600  0.024700  0.291700  1.0  -0.0809
  C  C760  1  0.864400  0.007100  0.358900  1.0  -0.1308
  C  C761  1  0.912900  0.058400  0.341300  1.0  -0.1866
  C  C762  1  0.960900  0.169100  0.577800  1.0  -0.1364
  C  C763  1  0.997700  0.158300  0.516800  1.0  -0.0452
  C  C764  1  0.935200  0.131600  0.530800  1.0  -0.0921
  C  C765  1  0.952340  0.398530  0.694310  1.0  -0.1144
  C  C766  1  0.914020  0.336150  0.708710  1.0  -0.1276
  C  C767  1  0.096340  0.393830  0.852970  1.0  0.7217
  C  C768  1  0.107130  0.413960  0.904670  1.0  -0.089
  C  C769  1  0.954800  0.365490  0.708630  1.0  -0.1054
  C  C770  1  0.220680  0.589480  0.276540  1.0  0.7273
  C  C771  1  0.873620  0.340850  0.694030  1.0  0.1714
  C  C772  1  0.000230  0.362380  0.725610  1.0  0.7149
  C  C773  1  0.910200  0.401410  0.680030  1.0  0.1365
  C  C774  1  0.204270  0.568500  0.223770  1.0  -0.1119
  C  C775  1  0.127900  0.452000  0.000900  1.0  0.2159
  C  C776  1  0.163000  0.525600  0.189600  1.0  -0.0365
  C  C777  1  0.176300  0.528600  0.125900  1.0  0.2141
  C  C778  1  0.134200  0.463000  0.936400  1.0  -0.1146
  C  C779  1  0.233000  0.591900  0.208300  1.0  -0.0769
  C  C780  1  0.148200  0.505500  0.141100  1.0  -0.1294
  C  C781  1  0.217100  0.571600  0.158700  1.0  -0.1844
  C  C782  1  0.091300  0.383100  0.922200  1.0  -0.1331
  C  C783  1  0.141500  0.480900  0.983200  1.0  -0.046
  C  C784  1  0.100800  0.404400  0.969200  1.0  -0.0931
  C  C785  1  0.547660  0.241970  0.446190  1.0  -0.1092
  C  C786  1  0.585980  0.294690  0.422130  1.0  -0.1289
  C  C787  1  0.403660  0.256630  0.297490  1.0  0.7203
  C  C788  1  0.392870  0.297540  0.306830  1.0  -0.0882
  C  C789  1  0.545200  0.253830  0.410690  1.0  -0.1053
  C  C790  1  0.279320  0.555860  0.368800  1.0  0.7229
  C  C791  1  0.626380  0.320410  0.467230  1.0  0.1714
  C  C792  1  0.499770  0.225380  0.362150  1.0  0.7125
  C  C793  1  0.589800  0.269830  0.491210  1.0  0.1382
  C  C794  1  0.295730  0.519500  0.364230  1.0  -0.113
  C  C795  1  0.372100  0.373000  0.324100  1.0  0.2173
  C  C796  1  0.337000  0.526600  0.362600  1.0  -0.0392
  C  C797  1  0.323700  0.449600  0.352300  1.0  0.214
  C  C798  1  0.365800  0.302200  0.328800  1.0  -0.1237
  C  C799  1  0.267000  0.475300  0.358900  1.0  -0.0769
  C  C800  1  0.351800  0.492900  0.357300  1.0  -0.1293
  C  C801  1  0.282900  0.441600  0.354500  1.0  -0.1845
  C  C802  1  0.408700  0.330900  0.291800  1.0  -0.1356
  C  C803  1  0.358500  0.341700  0.339400  1.0  -0.0473
  C  C804  1  0.399200  0.368400  0.303600  1.0  -0.0944
  N  N805  1  0.680710  0.873360  0.871310  1.0  -0.3264
  N  N806  1  0.076700  0.011500  0.168600  1.0  -0.1662
  N  N807  1  0.049000  0.967800  0.137800  1.0  -0.1501
  N  N808  1  0.502050  0.809400  0.628690  1.0  -0.3246
  N  N809  1  0.342900  0.908100  0.331400  1.0  -0.1667
  N  N810  1  0.330000  0.911200  0.362200  1.0  -0.1481
  N  N811  1  0.997950  0.626640  0.307350  1.0  -0.3226
  N  N812  1  0.157100  0.488500  0.565200  1.0  -0.1689
  N  N813  1  0.170000  0.532200  0.581200  1.0  -0.1488
  N  N814  1  0.819290  0.690600  0.192650  1.0  -0.3254
  N  N815  1  0.423300  0.591900  0.934800  1.0  -0.1702
  N  N816  1  0.451000  0.588800  0.918800  1.0  -0.1567
  N  N817  1  0.807350  0.997950  0.126640  1.0  -0.3275
  N  N818  1  0.065200  0.157100  0.988500  1.0  -0.1666
  N  N819  1  0.081200  0.170000  0.032200  1.0  -0.1499
  N  N820  1  0.692650  0.819290  0.190600  1.0  -0.3273
  N  N821  1  0.434800  0.423300  0.091900  1.0  -0.1639
  N  N822  1  0.418800  0.451000  0.088800  1.0  -0.1539
  N  N823  1  0.371310  0.680710  0.373360  1.0  -0.3258
  N  N824  1  0.668600  0.076700  0.511500  1.0  -0.1657
  N  N825  1  0.637800  0.049000  0.467800  1.0  -0.1516
  N  N826  1  0.128690  0.502050  0.309400  1.0  -0.3261
  N  N827  1  0.831400  0.342900  0.408100  1.0  -0.1667
  N  N828  1  0.862200  0.330000  0.411200  1.0  -0.1456
  N  N829  1  0.809400  0.128690  0.002050  1.0  -0.3293
  N  N830  1  0.908100  0.831400  0.842900  1.0  -0.1663
  N  N831  1  0.911200  0.862200  0.830000  1.0  -0.148
  N  N832  1  0.873360  0.371310  0.180710  1.0  -0.3239
  N  N833  1  0.011500  0.668600  0.576700  1.0  -0.1666
  N  N834  1  0.967800  0.637800  0.549000  1.0  -0.1487
  N  N835  1  0.690600  0.692650  0.319290  1.0  -0.3248
  N  N836  1  0.591900  0.434800  0.923300  1.0  -0.1678
  N  N837  1  0.588800  0.418800  0.951000  1.0  -0.1543
  N  N838  1  0.626640  0.807350  0.497950  1.0  -0.3279
  N  N839  1  0.488500  0.065200  0.657100  1.0  -0.1672
  N  N840  1  0.532200  0.081200  0.670000  1.0  -0.15
  N  N841  1  0.309400  0.002050  0.128690  1.0  -0.3289
  N  N842  1  0.408100  0.842900  0.831400  1.0  -0.1662
  N  N843  1  0.411200  0.830000  0.862200  1.0  -0.1478
  N  N844  1  0.373360  0.180710  0.371310  1.0  -0.3278
  N  N845  1  0.511500  0.576700  0.668600  1.0  -0.1641
  N  N846  1  0.467800  0.549000  0.637800  1.0  -0.1491
  N  N847  1  0.190600  0.319290  0.692650  1.0  -0.3259
  N  N848  1  0.091900  0.923300  0.434800  1.0  -0.1653
  N  N849  1  0.088800  0.951000  0.418800  1.0  -0.1562
  N  N850  1  0.126640  0.497950  0.807350  1.0  -0.3249
  N  N851  1  0.988500  0.657100  0.065200  1.0  -0.167
  N  N852  1  0.032200  0.670000  0.081200  1.0  -0.1477
  N  N853  1  0.180710  0.871310  0.873360  1.0  -0.3283
  N  N854  1  0.576700  0.168600  0.011500  1.0  -0.1664
  N  N855  1  0.549000  0.137800  0.967800  1.0  -0.1521
  N  N856  1  0.002050  0.628690  0.809400  1.0  -0.3244
  N  N857  1  0.842900  0.331400  0.908100  1.0  -0.1677
  N  N858  1  0.830000  0.362200  0.911200  1.0  -0.1456
  N  N859  1  0.497950  0.307350  0.626640  1.0  -0.3248
  N  N860  1  0.657100  0.565200  0.488500  1.0  -0.167
  N  N861  1  0.670000  0.581200  0.532200  1.0  -0.1493
  N  N862  1  0.319290  0.192650  0.690600  1.0  -0.3276
  N  N863  1  0.923300  0.934800  0.591900  1.0  -0.1687
  N  N864  1  0.951000  0.918800  0.588800  1.0  -0.155
  N  N865  1  0.307350  0.126640  0.997950  1.0  -0.3263
  N  N866  1  0.565200  0.988500  0.157100  1.0  -0.1661
  N  N867  1  0.581200  0.032200  0.170000  1.0  -0.1485
  N  N868  1  0.192650  0.190600  0.819290  1.0  -0.3248
  N  N869  1  0.934800  0.091900  0.423300  1.0  -0.1675
  N  N870  1  0.918800  0.088800  0.451000  1.0  -0.1553
  N  N871  1  0.871310  0.373360  0.680710  1.0  -0.3227
  N  N872  1  0.168600  0.511500  0.076700  1.0  -0.168
  N  N873  1  0.137800  0.467800  0.049000  1.0  -0.1503
  N  N874  1  0.628690  0.309400  0.502050  1.0  -0.3252
  N  N875  1  0.331400  0.408100  0.342900  1.0  -0.1683
  N  N876  1  0.362200  0.411200  0.330000  1.0  -0.1494
  O  O877  1  0.728480  0.825320  0.997800  1.0  -0.7211
  O  O878  1  0.839940  0.924590  0.109010  1.0  -0.6215
  O  O879  1  0.736790  0.898830  0.037840  1.0  -0.6148
  O  O880  1  0.305980  0.126400  0.261980  1.0  -0.6207
  O  O881  1  0.826280  0.848070  0.074750  1.0  -0.6772
  O  O882  1  0.287440  0.067780  0.190840  1.0  -0.6502
  O  O883  1  0.327520  0.730680  0.502200  1.0  -0.7221
  O  O884  1  0.315580  0.730930  0.390990  1.0  -0.6207
  O  O885  1  0.360990  0.698950  0.462160  1.0  -0.614
  O  O886  1  0.364420  0.044000  0.238020  1.0  -0.6173
  O  O887  1  0.273320  0.751530  0.425250  1.0  -0.6788
  O  O888  1  0.376940  0.096600  0.309160  1.0  -0.6514
  O  O889  1  0.172480  0.674680  0.403160  1.0  -0.7225
  O  O890  1  0.184420  0.575410  0.415350  1.0  -0.6205
  O  O891  1  0.139010  0.601170  0.337960  1.0  -0.6155
  O  O892  1  0.135580  0.373600  0.679580  1.0  -0.6176
  O  O893  1  0.226680  0.651930  0.478210  1.0  -0.6713
  O  O894  1  0.123060  0.432220  0.719660  1.0  -0.65
  O  O895  1  0.771520  0.769320  0.096840  1.0  -0.7209
  O  O896  1  0.660060  0.769070  0.084650  1.0  -0.6193
  O  O897  1  0.763210  0.801050  0.162040  1.0  -0.6149
  O  O898  1  0.194020  0.456000  0.820420  1.0  -0.6172
  O  O899  1  0.673720  0.748470  0.021790  1.0  -0.6799
  O  O900  1  0.212560  0.403400  0.780340  1.0  -0.6517
  O  O901  1  0.903160  0.172480  0.174680  1.0  -0.723
  O  O902  1  0.915350  0.184420  0.075410  1.0  -0.6208
  O  O903  1  0.837960  0.139010  0.101170  1.0  -0.612
  O  O904  1  0.179580  0.135580  0.873600  1.0  -0.6175
  O  O905  1  0.978210  0.226680  0.151930  1.0  -0.6817
  O  O906  1  0.219660  0.123060  0.932220  1.0  -0.6497
  O  O907  1  0.596840  0.771520  0.269320  1.0  -0.7231
  O  O908  1  0.584650  0.660060  0.269070  1.0  -0.6223
  O  O909  1  0.662040  0.763210  0.301050  1.0  -0.6123
  O  O910  1  0.320420  0.194020  0.956000  1.0  -0.6189
  O  O911  1  0.521790  0.673720  0.248470  1.0  -0.6804
  O  O912  1  0.280340  0.212560  0.903400  1.0  -0.6468
  O  O913  1  0.497800  0.728480  0.325320  1.0  -0.7227
  O  O914  1  0.609010  0.839940  0.424590  1.0  -0.6217
  O  O915  1  0.537840  0.736790  0.398830  1.0  -0.613
  O  O916  1  0.761980  0.305980  0.626400  1.0  -0.618
  O  O917  1  0.574750  0.826280  0.348070  1.0  -0.6818
  O  O918  1  0.690840  0.287440  0.567780  1.0  -0.6499
  O  O919  1  0.002200  0.327520  0.230680  1.0  -0.7219
  O  O920  1  0.890990  0.315580  0.230930  1.0  -0.6199
  O  O921  1  0.962160  0.360990  0.198950  1.0  -0.6119
  O  O922  1  0.738020  0.364420  0.544000  1.0  -0.616
  O  O923  1  0.925250  0.273320  0.251530  1.0  -0.6798
  O  O924  1  0.809160  0.376940  0.596600  1.0  -0.6495
  O  O925  1  0.730680  0.002200  0.827520  1.0  -0.7189
  O  O926  1  0.730930  0.890990  0.815580  1.0  -0.6216
  O  O927  1  0.698950  0.962160  0.860990  1.0  -0.6144
  O  O928  1  0.044000  0.738020  0.864420  1.0  -0.6213
  O  O929  1  0.751530  0.925250  0.773320  1.0  -0.6827
  O  O930  1  0.096600  0.809160  0.876940  1.0  -0.6509
  O  O931  1  0.825320  0.497800  0.228480  1.0  -0.7218
  O  O932  1  0.924590  0.609010  0.339940  1.0  -0.6199
  O  O933  1  0.898830  0.537840  0.236790  1.0  -0.6126
  O  O934  1  0.126400  0.761980  0.805980  1.0  -0.6191
  O  O935  1  0.848070  0.574750  0.326280  1.0  -0.6785
  O  O936  1  0.067780  0.690840  0.787440  1.0  -0.6475
  O  O937  1  0.769320  0.596840  0.271520  1.0  -0.7206
  O  O938  1  0.769070  0.584650  0.160060  1.0  -0.6232
  O  O939  1  0.801050  0.662040  0.263210  1.0  -0.6137
  O  O940  1  0.456000  0.320420  0.694020  1.0  -0.6165
  O  O941  1  0.748470  0.521790  0.173720  1.0  -0.6807
  O  O942  1  0.403400  0.280340  0.712560  1.0  -0.6488
  O  O943  1  0.674680  0.903160  0.672480  1.0  -0.722
  O  O944  1  0.575410  0.915350  0.684420  1.0  -0.6242
  O  O945  1  0.601170  0.837960  0.639010  1.0  -0.6137
  O  O946  1  0.373600  0.179580  0.635580  1.0  -0.6172
  O  O947  1  0.651930  0.978210  0.726680  1.0  -0.68
  O  O948  1  0.432220  0.219660  0.623060  1.0  -0.6478
  O  O949  1  0.230680  0.827520  0.002200  1.0  -0.722
  O  O950  1  0.230930  0.815580  0.890990  1.0  -0.6211
  O  O951  1  0.198950  0.860990  0.962160  1.0  -0.6123
  O  O952  1  0.544000  0.864420  0.738020  1.0  -0.6171
  O  O953  1  0.251530  0.773320  0.925250  1.0  -0.6812
  O  O954  1  0.596600  0.876940  0.809160  1.0  -0.6491
  O  O955  1  0.325320  0.228480  0.497800  1.0  -0.7229
  O  O956  1  0.424590  0.339940  0.609010  1.0  -0.6223
  O  O957  1  0.398830  0.236790  0.537840  1.0  -0.6117
  O  O958  1  0.626400  0.805980  0.761980  1.0  -0.6187
  O  O959  1  0.348070  0.326280  0.574750  1.0  -0.6806
  O  O960  1  0.567780  0.787440  0.690840  1.0  -0.6469
  O  O961  1  0.269320  0.271520  0.596840  1.0  -0.7222
  O  O962  1  0.269070  0.160060  0.584650  1.0  -0.6214
  O  O963  1  0.301050  0.263210  0.662040  1.0  -0.6137
  O  O964  1  0.956000  0.694020  0.320420  1.0  -0.6182
  O  O965  1  0.248470  0.173720  0.521790  1.0  -0.6818
  O  O966  1  0.903400  0.712560  0.280340  1.0  -0.6497
  O  O967  1  0.174680  0.672480  0.903160  1.0  -0.7235
  O  O968  1  0.075410  0.684420  0.915350  1.0  -0.6198
  O  O969  1  0.101170  0.639010  0.837960  1.0  -0.6116
  O  O970  1  0.873600  0.635580  0.179580  1.0  -0.6163
  O  O971  1  0.151930  0.726680  0.978210  1.0  -0.68
  O  O972  1  0.932220  0.623060  0.219660  1.0  -0.6494
  O  O973  1  0.228480  0.997800  0.825320  1.0  -0.7197
  O  O974  1  0.339940  0.109010  0.924590  1.0  -0.6217
  O  O975  1  0.236790  0.037840  0.898830  1.0  -0.6132
  O  O976  1  0.805980  0.261980  0.126400  1.0  -0.6213
  O  O977  1  0.326280  0.074750  0.848070  1.0  -0.6821
  O  O978  1  0.787440  0.190840  0.067780  1.0  -0.6504
  O  O979  1  0.827520  0.502200  0.730680  1.0  -0.7216
  O  O980  1  0.815580  0.390990  0.730930  1.0  -0.62
  O  O981  1  0.860990  0.462160  0.698950  1.0  -0.6134
  O  O982  1  0.864420  0.238020  0.044000  1.0  -0.6193
  O  O983  1  0.773320  0.425250  0.751530  1.0  -0.6785
  O  O984  1  0.876940  0.309160  0.096600  1.0  -0.6475
  O  O985  1  0.672480  0.403160  0.674680  1.0  -0.721
  O  O986  1  0.684420  0.415350  0.575410  1.0  -0.6232
  O  O987  1  0.639010  0.337960  0.601170  1.0  -0.6129
  O  O988  1  0.635580  0.679580  0.373600  1.0  -0.6164
  O  O989  1  0.726680  0.478210  0.651930  1.0  -0.6802
  O  O990  1  0.623060  0.719660  0.432220  1.0  -0.6483
  O  O991  1  0.271520  0.096840  0.769320  1.0  -0.7222
  O  O992  1  0.160060  0.084650  0.769070  1.0  -0.6245
  O  O993  1  0.263210  0.162040  0.801050  1.0  -0.6144
  O  O994  1  0.694020  0.820420  0.456000  1.0  -0.6175
  O  O995  1  0.173720  0.021790  0.748470  1.0  -0.6792
  O  O996  1  0.712560  0.780340  0.403400  1.0  -0.6476
  O  O997  1  0.403160  0.174680  0.172480  1.0  -0.7204
  O  O998  1  0.415350  0.075410  0.184420  1.0  -0.6214
  O  O999  1  0.337960  0.101170  0.139010  1.0  -0.615
  O  O1000  1  0.679580  0.873600  0.135580  1.0  -0.6208
  O  O1001  1  0.478210  0.151930  0.226680  1.0  -0.6746
  O  O1002  1  0.719660  0.932220  0.123060  1.0  -0.6502
  O  O1003  1  0.096840  0.269320  0.771520  1.0  -0.7217
  O  O1004  1  0.084650  0.269070  0.660060  1.0  -0.6204
  O  O1005  1  0.162040  0.301050  0.763210  1.0  -0.6152
  O  O1006  1  0.820420  0.956000  0.194020  1.0  -0.6172
  O  O1007  1  0.021790  0.248470  0.673720  1.0  -0.6787
  O  O1008  1  0.780340  0.903400  0.212560  1.0  -0.6511
  O  O1009  1  0.997800  0.325320  0.728480  1.0  -0.7218
  O  O1010  1  0.109010  0.424590  0.839940  1.0  -0.6206
  O  O1011  1  0.037840  0.398830  0.736790  1.0  -0.6157
  O  O1012  1  0.261980  0.626400  0.305980  1.0  -0.6175
  O  O1013  1  0.074750  0.348070  0.826280  1.0  -0.6734
  O  O1014  1  0.190840  0.567780  0.287440  1.0  -0.6494
  O  O1015  1  0.502200  0.230680  0.327520  1.0  -0.7206
  O  O1016  1  0.390990  0.230930  0.315580  1.0  -0.62
  O  O1017  1  0.462160  0.198950  0.360990  1.0  -0.6141
  O  O1018  1  0.238020  0.544000  0.364420  1.0  -0.6172
  O  O1019  1  0.425250  0.251530  0.273320  1.0  -0.6801
  O  O1020  1  0.309160  0.596600  0.376940  1.0  -0.652
  O  O1021  1  0.750000  0.852740  0.102740  1.0  -0.9535
  O  O1022  1  0.250000  0.647260  0.397260  1.0  -0.9546
  O  O1023  1  0.897260  0.250000  0.147260  1.0  -0.955
  O  O1024  1  0.602740  0.750000  0.352740  1.0  -0.9523
  O  O1025  1  0.647260  0.897260  0.750000  1.0  -0.9538
  O  O1026  1  0.852740  0.602740  0.250000  1.0  -0.9545
  O  O1027  1  0.147260  0.750000  0.897260  1.0  -0.955
  O  O1028  1  0.352740  0.250000  0.602740  1.0  -0.9523
  O  O1029  1  0.250000  0.102740  0.852740  1.0  -0.9535
  O  O1030  1  0.750000  0.397260  0.647260  1.0  -0.9546
  O  O1031  1  0.397260  0.147260  0.250000  1.0  -0.9538
  O  O1032  1  0.102740  0.352740  0.750000  1.0  -0.9545
