# generated using pymatgen
data_In3H26C40N8O13
_symmetry_space_group_name_H-M   'P 1'
_cell_length_a   33.52560000
_cell_length_b   33.52560000
_cell_length_c   33.52560000
_cell_angle_alpha   109.47100000
_cell_angle_beta   109.47100000
_cell_angle_gamma   109.47100000
_symmetry_Int_Tables_number   1
_chemical_formula_structural   In3H26C40N8O13
_chemical_formula_sum   'In36 H312 C480 N96 O156'
_cell_volume   29007.56900469
_cell_formula_units_Z   12
loop_
 _symmetry_equiv_pos_site_id
 _symmetry_equiv_pos_as_xyz
  1  'x, y, z'
loop_
 _atom_site_type_symbol
 _atom_site_label
 _atom_site_symmetry_multiplicity
 _atom_site_fract_x
 _atom_site_fract_y
 _atom_site_fract_z
 _atom_site_occupancy
 _atom_site_charge
  In  In1  1  0.360910  0.278840  0.667670  1.0  1.5801
  In  In2  1  0.111170  0.693240  0.832330  1.0  1.5812
  In  In3  1  0.388830  0.221150  0.582070  1.0  1.5808
  In  In4  1  0.139090  0.806770  0.917930  1.0  1.5807
  In  In5  1  0.082070  0.388830  0.721160  1.0  1.5804
  In  In6  1  0.417930  0.139090  0.306760  1.0  1.581
  In  In7  1  0.167680  0.360920  0.778850  1.0  1.5817
  In  In8  1  0.332320  0.111160  0.193230  1.0  1.5809
  In  In9  1  0.693240  0.332330  0.611170  1.0  1.5808
  In  In10  1  0.278840  0.167670  0.860910  1.0  1.5806
  In  In11  1  0.806760  0.417930  0.639080  1.0  1.5808
  In  In12  1  0.221160  0.082070  0.888840  1.0  1.581
  In  In13  1  0.193240  0.611170  0.332330  1.0  1.5801
  In  In14  1  0.778840  0.860910  0.167670  1.0  1.5812
  In  In15  1  0.306760  0.639080  0.417930  1.0  1.5814
  In  In16  1  0.721160  0.888840  0.082070  1.0  1.5811
  In  In17  1  0.860910  0.667670  0.278840  1.0  1.5808
  In  In18  1  0.611170  0.832330  0.693240  1.0  1.5806
  In  In19  1  0.888830  0.582070  0.221150  1.0  1.581
  In  In20  1  0.639090  0.917930  0.806770  1.0  1.5808
  In  In21  1  0.582070  0.721160  0.388830  1.0  1.5801
  In  In22  1  0.917930  0.306760  0.139090  1.0  1.5807
  In  In23  1  0.667680  0.778850  0.360920  1.0  1.5806
  In  In24  1  0.832320  0.193230  0.111160  1.0  1.5812
  In  In25  1  0.455100  0.250000  0.705100  1.0  1.5685
  In  In26  1  0.044900  0.750000  0.794900  1.0  1.5704
  In  In27  1  0.205100  0.455100  0.750000  1.0  1.5707
  In  In28  1  0.294900  0.044900  0.250000  1.0  1.5702
  In  In29  1  0.750000  0.294900  0.544900  1.0  1.5699
  In  In30  1  0.250000  0.205100  0.955100  1.0  1.57
  In  In31  1  0.250000  0.544900  0.294900  1.0  1.5699
  In  In32  1  0.750000  0.955100  0.205100  1.0  1.57
  In  In33  1  0.955100  0.705100  0.250000  1.0  1.5707
  In  In34  1  0.544900  0.794900  0.750000  1.0  1.5702
  In  In35  1  0.705100  0.750000  0.455100  1.0  1.5685
  In  In36  1  0.794900  0.250000  0.044900  1.0  1.5704
  H  H37  1  0.375100  0.199300  0.857200  1.0  0.0791
  H  H38  1  0.250300  0.177600  0.767300  1.0  0.0944
  H  H39  1  0.440000  0.230100  0.803300  1.0  0.3398
  H  H40  1  0.440300  0.219400  0.843100  1.0  0.356
  H  H41  1  0.281300  0.197000  0.720900  1.0  0.0926
  H  H42  1  0.430500  0.096600  0.655500  1.0  0.1104
  H  H43  1  0.380200  0.878100  0.527300  1.0  0.0968
  H  H44  1  0.356900  0.073400  0.522500  1.0  0.0896
  H  H45  1  0.239600  0.766900  0.376300  1.0  0.0908
  H  H46  1  0.263700  0.849800  0.413500  1.0  0.1135
  H  H47  1  0.359000  0.795800  0.490400  1.0  0.1001
  H  H48  1  0.410600  0.015100  0.620900  1.0  0.0813
  H  H49  1  0.344500  0.994100  0.490800  1.0  0.0984
  H  H50  1  0.842100  0.517900  0.642800  1.0  0.0785
  H  H51  1  0.910300  0.483000  0.732700  1.0  0.0941
  H  H52  1  0.926800  0.636700  0.696700  1.0  0.3399
  H  H53  1  0.876300  0.597200  0.656900  1.0  0.355
  H  H54  1  0.976100  0.560400  0.779100  1.0  0.094
  H  H55  1  0.941100  0.775000  0.844500  1.0  0.11
  H  H56  1  0.850800  0.852900  0.972700  1.0  0.0968
  H  H57  1  0.050900  0.834400  0.977500  1.0  0.0898
  H  H58  1  0.890600  0.863300  0.123700  1.0  0.0904
  H  H59  1  0.936300  0.850200  0.086500  1.0  0.1142
  H  H60  1  0.805400  0.868600  0.009600  1.0  0.1018
  H  H61  1  0.894200  0.789700  0.879100  1.0  0.0816
  H  H62  1  0.003300  0.853700  0.009200  1.0  0.0984
  H  H63  1  0.657900  0.300700  0.675800  1.0  0.0795
  H  H64  1  0.589700  0.322400  0.572700  1.0  0.0952
  H  H65  1  0.573200  0.269900  0.709900  1.0  0.3381
  H  H66  1  0.623700  0.280600  0.720900  1.0  0.3537
  H  H67  1  0.523900  0.303000  0.584300  1.0  0.0939
  H  H68  1  0.558900  0.403400  0.833900  1.0  0.1106
  H  H69  1  0.649200  0.621900  0.002100  1.0  0.0969
  H  H70  1  0.449100  0.426600  0.783500  1.0  0.09
  H  H71  1  0.609400  0.733100  0.972700  1.0  0.09
  H  H72  1  0.563700  0.650200  0.913900  1.0  0.1133
  H  H73  1  0.694600  0.704200  0.063200  1.0  0.0998
  H  H74  1  0.605800  0.484900  0.895500  1.0  0.0803
  H  H75  1  0.496700  0.505900  0.850400  1.0  0.1015
  H  H76  1  0.124900  0.982100  0.824200  1.0  0.0779
  H  H77  1  0.249700  0.017000  0.927300  1.0  0.0936
  H  H78  1  0.060000  0.863300  0.790100  1.0  0.3413
  H  H79  1  0.059700  0.902800  0.779100  1.0  0.3513
  H  H80  1  0.218700  0.939600  0.915700  1.0  0.0935
  H  H81  1  0.069500  0.725000  0.666100  1.0  0.1111
  H  H82  1  0.119800  0.647100  0.497900  1.0  0.0983
  H  H83  1  0.143100  0.665600  0.716500  1.0  0.0889
  H  H84  1  0.260400  0.636700  0.527300  1.0  0.0921
  H  H85  1  0.236300  0.649800  0.586100  1.0  0.113
  H  H86  1  0.141000  0.631400  0.436800  1.0  0.1004
  H  H87  1  0.089400  0.710300  0.604500  1.0  0.0806
  H  H88  1  0.155500  0.646300  0.649600  1.0  0.1008
  H  H89  1  0.175800  0.657900  0.800700  1.0  0.0798
  H  H90  1  0.072700  0.589700  0.822400  1.0  0.0935
  H  H91  1  0.209900  0.573200  0.769900  1.0  0.3415
  H  H92  1  0.220900  0.623700  0.780600  1.0  0.3564
  H  H93  1  0.084300  0.523900  0.803000  1.0  0.0929
  H  H94  1  0.333900  0.558900  0.903400  1.0  0.1105
  H  H95  1  0.502100  0.649200  0.121900  1.0  0.0962
  H  H96  1  0.283500  0.449100  0.926600  1.0  0.0902
  H  H97  1  0.472700  0.609400  0.233100  1.0  0.091
  H  H98  1  0.413900  0.563700  0.150200  1.0  0.114
  H  H99  1  0.563200  0.694600  0.204200  1.0  0.1001
  H  H100  1  0.395500  0.605800  0.984900  1.0  0.0818
  H  H101  1  0.350400  0.496700  0.005900  1.0  0.1008
  H  H102  1  0.324200  0.124900  0.482100  1.0  0.0794
  H  H103  1  0.427300  0.249700  0.517000  1.0  0.0951
  H  H104  1  0.290100  0.060000  0.363300  1.0  0.339
  H  H105  1  0.279100  0.059700  0.402800  1.0  0.3574
  H  H106  1  0.415700  0.218700  0.439600  1.0  0.0927
  H  H107  1  0.166100  0.069500  0.225000  1.0  0.1106
  H  H108  1  0.997900  0.119800  0.147100  1.0  0.0966
  H  H109  1  0.216500  0.143100  0.165600  1.0  0.0895
  H  H110  1  0.027300  0.260400  0.136700  1.0  0.0905
  H  H111  1  0.086100  0.236300  0.149800  1.0  0.1143
  H  H112  1  0.936800  0.141000  0.131400  1.0  0.0998
  H  H113  1  0.104500  0.089400  0.210300  1.0  0.0818
  H  H114  1  0.149600  0.155500  0.146300  1.0  0.1003
  H  H115  1  0.357200  0.375100  0.699300  1.0  0.0797
  H  H116  1  0.267300  0.250300  0.677600  1.0  0.0934
  H  H117  1  0.303300  0.440000  0.730100  1.0  0.3392
  H  H118  1  0.343100  0.440300  0.719400  1.0  0.3586
  H  H119  1  0.220900  0.281300  0.697000  1.0  0.0923
  H  H120  1  0.155500  0.430500  0.596600  1.0  0.1112
  H  H121  1  0.027300  0.380200  0.378100  1.0  0.0977
  H  H122  1  0.022500  0.356900  0.573400  1.0  0.0888
  H  H123  1  0.876300  0.239600  0.266900  1.0  0.0911
  H  H124  1  0.913500  0.263700  0.349800  1.0  0.1137
  H  H125  1  0.990400  0.359000  0.295800  1.0  0.0997
  H  H126  1  0.120900  0.410600  0.515100  1.0  0.0813
  H  H127  1  0.990800  0.344500  0.494100  1.0  0.0997
  H  H128  1  0.142800  0.842100  0.017900  1.0  0.0791
  H  H129  1  0.232700  0.910300  0.983000  1.0  0.0952
  H  H130  1  0.196700  0.926800  0.136700  1.0  0.3369
  H  H131  1  0.156900  0.876300  0.097200  1.0  0.3587
  H  H132  1  0.279100  0.976100  0.060400  1.0  0.093
  H  H133  1  0.344500  0.941100  0.275000  1.0  0.1109
  H  H134  1  0.472700  0.850800  0.352900  1.0  0.0969
  H  H135  1  0.477500  0.050900  0.334400  1.0  0.0884
  H  H136  1  0.623700  0.890600  0.363300  1.0  0.0913
  H  H137  1  0.586500  0.936300  0.350200  1.0  0.1147
  H  H138  1  0.509600  0.805400  0.368600  1.0  0.0993
  H  H139  1  0.379100  0.894200  0.289700  1.0  0.0816
  H  H140  1  0.509200  0.003300  0.353700  1.0  0.0992
  H  H141  1  0.517900  0.142800  0.342100  1.0  0.0788
  H  H142  1  0.483000  0.232700  0.410300  1.0  0.0932
  H  H143  1  0.636700  0.196700  0.426800  1.0  0.341
  H  H144  1  0.597200  0.156900  0.376300  1.0  0.3575
  H  H145  1  0.560400  0.279100  0.476100  1.0  0.0935
  H  H146  1  0.775000  0.344500  0.441100  1.0  0.1112
  H  H147  1  0.852900  0.472700  0.350800  1.0  0.0972
  H  H148  1  0.834400  0.477500  0.550900  1.0  0.0878
  H  H149  1  0.863300  0.623700  0.390600  1.0  0.0919
  H  H150  1  0.850200  0.586500  0.436300  1.0  0.1134
  H  H151  1  0.868600  0.509600  0.305400  1.0  0.0998
  H  H152  1  0.789700  0.379100  0.394200  1.0  0.0811
  H  H153  1  0.853700  0.509200  0.503300  1.0  0.0986
  H  H154  1  0.199300  0.357200  0.875100  1.0  0.0795
  H  H155  1  0.177600  0.267300  0.750300  1.0  0.0946
  H  H156  1  0.230100  0.303300  0.940000  1.0  0.3385
  H  H157  1  0.219400  0.343100  0.940300  1.0  0.3569
  H  H158  1  0.197000  0.220900  0.781300  1.0  0.0924
  H  H159  1  0.096600  0.155500  0.930500  1.0  0.109
  H  H160  1  0.878100  0.027300  0.880200  1.0  0.0977
  H  H161  1  0.073400  0.022500  0.856900  1.0  0.0893
  H  H162  1  0.766900  0.876300  0.739600  1.0  0.0898
  H  H163  1  0.849800  0.913500  0.763700  1.0  0.1136
  H  H164  1  0.795800  0.990400  0.859000  1.0  0.0998
  H  H165  1  0.015100  0.120900  0.910600  1.0  0.082
  H  H166  1  0.994100  0.990800  0.844500  1.0  0.0986
  H  H167  1  0.982100  0.324200  0.624900  1.0  0.0795
  H  H168  1  0.017000  0.427300  0.749700  1.0  0.0941
  H  H169  1  0.863300  0.290100  0.560000  1.0  0.3399
  H  H170  1  0.902800  0.279100  0.559700  1.0  0.3571
  H  H171  1  0.939600  0.415700  0.718700  1.0  0.0926
  H  H172  1  0.725000  0.166100  0.569500  1.0  0.11
  H  H173  1  0.647100  0.997900  0.619800  1.0  0.0962
  H  H174  1  0.665600  0.216500  0.643100  1.0  0.0898
  H  H175  1  0.636700  0.027300  0.760400  1.0  0.0909
  H  H176  1  0.649800  0.086100  0.736300  1.0  0.1153
  H  H177  1  0.631400  0.936800  0.641000  1.0  0.0998
  H  H178  1  0.710300  0.104500  0.589400  1.0  0.0817
  H  H179  1  0.646300  0.149600  0.655500  1.0  0.1006
  H  H180  1  0.300700  0.175800  0.157900  1.0  0.0801
  H  H181  1  0.322400  0.072700  0.089700  1.0  0.0936
  H  H182  1  0.269900  0.209900  0.073200  1.0  0.3379
  H  H183  1  0.280600  0.220900  0.123700  1.0  0.3574
  H  H184  1  0.303000  0.084300  0.023900  1.0  0.0927
  H  H185  1  0.403400  0.333900  0.058900  1.0  0.1107
  H  H186  1  0.621900  0.502100  0.149200  1.0  0.0966
  H  H187  1  0.426600  0.283500  0.949100  1.0  0.0895
  H  H188  1  0.733100  0.472700  0.109400  1.0  0.0914
  H  H189  1  0.650200  0.413900  0.063700  1.0  0.114
  H  H190  1  0.704200  0.563200  0.194600  1.0  0.0997
  H  H191  1  0.484900  0.395500  0.105800  1.0  0.0819
  H  H192  1  0.505900  0.350400  0.996700  1.0  0.101
  H  H193  1  0.017900  0.342100  0.142800  1.0  0.0796
  H  H194  1  0.983000  0.410300  0.232700  1.0  0.0937
  H  H195  1  0.136700  0.426800  0.196700  1.0  0.3411
  H  H196  1  0.097200  0.376300  0.156900  1.0  0.3581
  H  H197  1  0.060400  0.476100  0.279100  1.0  0.0931
  H  H198  1  0.275000  0.441100  0.344500  1.0  0.1104
  H  H199  1  0.352900  0.350800  0.472700  1.0  0.0957
  H  H200  1  0.334400  0.550900  0.477500  1.0  0.0887
  H  H201  1  0.363300  0.390600  0.623700  1.0  0.0908
  H  H202  1  0.350200  0.436300  0.586500  1.0  0.1144
  H  H203  1  0.368600  0.305400  0.509600  1.0  0.1
  H  H204  1  0.289700  0.394200  0.379100  1.0  0.0815
  H  H205  1  0.353700  0.503300  0.509200  1.0  0.0987
  H  H206  1  0.699300  0.875100  0.357200  1.0  0.08
  H  H207  1  0.677600  0.750300  0.267300  1.0  0.0945
  H  H208  1  0.730100  0.940000  0.303300  1.0  0.3387
  H  H209  1  0.719400  0.940300  0.343100  1.0  0.3578
  H  H210  1  0.697000  0.781300  0.220900  1.0  0.0924
  H  H211  1  0.596600  0.930500  0.155500  1.0  0.1105
  H  H212  1  0.378100  0.880200  0.027300  1.0  0.0973
  H  H213  1  0.573400  0.856900  0.022500  1.0  0.0887
  H  H214  1  0.266900  0.739600  0.876300  1.0  0.0905
  H  H215  1  0.349800  0.763700  0.913500  1.0  0.1136
  H  H216  1  0.295800  0.859000  0.990400  1.0  0.1003
  H  H217  1  0.515100  0.910600  0.120900  1.0  0.0817
  H  H218  1  0.494100  0.844500  0.990800  1.0  0.0986
  H  H219  1  0.482100  0.624900  0.324200  1.0  0.0787
  H  H220  1  0.517000  0.749700  0.427300  1.0  0.0941
  H  H221  1  0.363300  0.560000  0.290100  1.0  0.3404
  H  H222  1  0.402800  0.559700  0.279100  1.0  0.3578
  H  H223  1  0.439600  0.718700  0.415700  1.0  0.0925
  H  H224  1  0.225000  0.569500  0.166100  1.0  0.1107
  H  H225  1  0.147100  0.619800  0.997900  1.0  0.0972
  H  H226  1  0.165600  0.643100  0.216500  1.0  0.0885
  H  H227  1  0.136700  0.760400  0.027300  1.0  0.0913
  H  H228  1  0.149800  0.736300  0.086100  1.0  0.1136
  H  H229  1  0.131400  0.641000  0.936800  1.0  0.0995
  H  H230  1  0.210300  0.589400  0.104500  1.0  0.081
  H  H231  1  0.146300  0.655500  0.149600  1.0  0.1009
  H  H232  1  0.800700  0.157900  0.175800  1.0  0.0795
  H  H233  1  0.822400  0.089700  0.072700  1.0  0.0948
  H  H234  1  0.769900  0.073200  0.209900  1.0  0.3384
  H  H235  1  0.780600  0.123700  0.220900  1.0  0.3567
  H  H236  1  0.803000  0.023900  0.084300  1.0  0.0925
  H  H237  1  0.903400  0.058900  0.333900  1.0  0.1106
  H  H238  1  0.121900  0.149200  0.502100  1.0  0.0969
  H  H239  1  0.926600  0.949100  0.283500  1.0  0.09
  H  H240  1  0.233100  0.109400  0.472700  1.0  0.0912
  H  H241  1  0.150200  0.063700  0.413900  1.0  0.1135
  H  H242  1  0.204200  0.194600  0.563200  1.0  0.0991
  H  H243  1  0.984900  0.105800  0.395500  1.0  0.081
  H  H244  1  0.005900  0.996700  0.350400  1.0  0.1014
  H  H245  1  0.875100  0.857200  0.199300  1.0  0.0797
  H  H246  1  0.750300  0.767300  0.177600  1.0  0.093
  H  H247  1  0.940000  0.803300  0.230100  1.0  0.3413
  H  H248  1  0.940300  0.843100  0.219400  1.0  0.3565
  H  H249  1  0.781300  0.720900  0.197000  1.0  0.0921
  H  H250  1  0.930500  0.655500  0.096600  1.0  0.11
  H  H251  1  0.880200  0.527300  0.878100  1.0  0.0976
  H  H252  1  0.856900  0.522500  0.073400  1.0  0.0885
  H  H253  1  0.739600  0.376300  0.766900  1.0  0.0917
  H  H254  1  0.763700  0.413500  0.849800  1.0  0.1138
  H  H255  1  0.859000  0.490400  0.795800  1.0  0.0999
  H  H256  1  0.910600  0.620900  0.015100  1.0  0.0821
  H  H257  1  0.844500  0.490800  0.994100  1.0  0.0988
  H  H258  1  0.342100  0.642800  0.517900  1.0  0.0793
  H  H259  1  0.410300  0.732700  0.483000  1.0  0.0951
  H  H260  1  0.426800  0.696700  0.636700  1.0  0.3384
  H  H261  1  0.376300  0.656900  0.597200  1.0  0.359
  H  H262  1  0.476100  0.779100  0.560400  1.0  0.0937
  H  H263  1  0.441100  0.844500  0.775000  1.0  0.1101
  H  H264  1  0.350800  0.972700  0.852900  1.0  0.0969
  H  H265  1  0.550900  0.977500  0.834400  1.0  0.0887
  H  H266  1  0.390600  0.123700  0.863300  1.0  0.0901
  H  H267  1  0.436300  0.086500  0.850200  1.0  0.1138
  H  H268  1  0.305400  0.009600  0.868600  1.0  0.0999
  H  H269  1  0.394200  0.879100  0.789700  1.0  0.0818
  H  H270  1  0.503300  0.009200  0.853700  1.0  0.0987
  H  H271  1  0.157900  0.675800  0.300700  1.0  0.0799
  H  H272  1  0.089700  0.572700  0.322400  1.0  0.0941
  H  H273  1  0.073200  0.709900  0.269900  1.0  0.3396
  H  H274  1  0.123700  0.720900  0.280600  1.0  0.3577
  H  H275  1  0.023900  0.584300  0.303000  1.0  0.0934
  H  H276  1  0.058900  0.833900  0.403400  1.0  0.11
  H  H277  1  0.149200  0.002100  0.621900  1.0  0.0966
  H  H278  1  0.949100  0.783500  0.426600  1.0  0.0901
  H  H279  1  0.109400  0.972700  0.733100  1.0  0.0912
  H  H280  1  0.063700  0.913900  0.650200  1.0  0.1148
  H  H281  1  0.194600  0.063200  0.704200  1.0  0.1002
  H  H282  1  0.105800  0.895500  0.484900  1.0  0.0826
  H  H283  1  0.996700  0.850400  0.505900  1.0  0.1012
  H  H284  1  0.624900  0.824200  0.982100  1.0  0.0798
  H  H285  1  0.749700  0.927300  0.017000  1.0  0.0938
  H  H286  1  0.560000  0.790100  0.863300  1.0  0.3381
  H  H287  1  0.559700  0.779100  0.902800  1.0  0.3571
  H  H288  1  0.718700  0.915700  0.939600  1.0  0.0923
  H  H289  1  0.569500  0.666100  0.725000  1.0  0.1108
  H  H290  1  0.619800  0.497900  0.647100  1.0  0.0968
  H  H291  1  0.643100  0.716500  0.665600  1.0  0.0894
  H  H292  1  0.760400  0.527300  0.636700  1.0  0.0912
  H  H293  1  0.736300  0.586100  0.649800  1.0  0.1147
  H  H294  1  0.641000  0.436800  0.631400  1.0  0.0995
  H  H295  1  0.589400  0.604500  0.710300  1.0  0.082
  H  H296  1  0.655500  0.649600  0.646300  1.0  0.1002
  H  H297  1  0.675800  0.800700  0.657900  1.0  0.0793
  H  H298  1  0.572700  0.822400  0.589700  1.0  0.0944
  H  H299  1  0.709900  0.769900  0.573200  1.0  0.3395
  H  H300  1  0.720900  0.780600  0.623700  1.0  0.3562
  H  H301  1  0.584300  0.803000  0.523900  1.0  0.0931
  H  H302  1  0.833900  0.903400  0.558900  1.0  0.1104
  H  H303  1  0.002100  0.121900  0.649200  1.0  0.0967
  H  H304  1  0.783500  0.926600  0.449100  1.0  0.0896
  H  H305  1  0.972700  0.233100  0.609400  1.0  0.0909
  H  H306  1  0.913900  0.150200  0.563700  1.0  0.1136
  H  H307  1  0.063200  0.204200  0.694600  1.0  0.1006
  H  H308  1  0.895500  0.984900  0.605800  1.0  0.0811
  H  H309  1  0.850400  0.005900  0.496700  1.0  0.1005
  H  H310  1  0.824200  0.482100  0.124900  1.0  0.0782
  H  H311  1  0.927300  0.517000  0.249700  1.0  0.0944
  H  H312  1  0.790100  0.363300  0.060000  1.0  0.3406
  H  H313  1  0.779100  0.402800  0.059700  1.0  0.3545
  H  H314  1  0.915700  0.439600  0.218700  1.0  0.0931
  H  H315  1  0.666100  0.225000  0.069500  1.0  0.1098
  H  H316  1  0.497900  0.147100  0.119800  1.0  0.0971
  H  H317  1  0.716500  0.165600  0.143100  1.0  0.0909
  H  H318  1  0.527300  0.136700  0.260400  1.0  0.0909
  H  H319  1  0.586100  0.149800  0.236300  1.0  0.114
  H  H320  1  0.436800  0.131400  0.141000  1.0  0.1016
  H  H321  1  0.604500  0.210300  0.089400  1.0  0.0814
  H  H322  1  0.649600  0.146300  0.155500  1.0  0.0999
  H  H323  1  0.857200  0.699300  0.375100  1.0  0.0794
  H  H324  1  0.767300  0.677600  0.250300  1.0  0.0952
  H  H325  1  0.803300  0.730100  0.440000  1.0  0.3374
  H  H326  1  0.843100  0.719400  0.440300  1.0  0.3535
  H  H327  1  0.720900  0.697000  0.281300  1.0  0.0931
  H  H328  1  0.655500  0.596600  0.430500  1.0  0.1108
  H  H329  1  0.527300  0.378100  0.380200  1.0  0.0971
  H  H330  1  0.522500  0.573400  0.356900  1.0  0.0893
  H  H331  1  0.376300  0.266900  0.239600  1.0  0.0897
  H  H332  1  0.413500  0.349800  0.263700  1.0  0.1134
  H  H333  1  0.490400  0.295800  0.359000  1.0  0.0995
  H  H334  1  0.620900  0.515100  0.410600  1.0  0.0803
  H  H335  1  0.490800  0.494100  0.344500  1.0  0.0992
  H  H336  1  0.642800  0.017900  0.842100  1.0  0.0782
  H  H337  1  0.732700  0.983000  0.910300  1.0  0.0934
  H  H338  1  0.696700  0.136700  0.926800  1.0  0.3401
  H  H339  1  0.656900  0.097200  0.876300  1.0  0.3521
  H  H340  1  0.779100  0.060400  0.976100  1.0  0.0942
  H  H341  1  0.844500  0.275000  0.941100  1.0  0.1113
  H  H342  1  0.972700  0.352900  0.850800  1.0  0.0983
  H  H343  1  0.977500  0.334400  0.050900  1.0  0.0876
  H  H344  1  0.123700  0.363300  0.890600  1.0  0.0917
  H  H345  1  0.086500  0.350200  0.936300  1.0  0.1131
  H  H346  1  0.009600  0.368600  0.805400  1.0  0.1005
  H  H347  1  0.879100  0.289700  0.894200  1.0  0.0805
  H  H348  1  0.009200  0.353700  0.003300  1.0  0.0995
  C  C349  1  0.349230  0.212560  0.761810  1.0  -0.1733
  C  C350  1  0.280580  0.719450  0.407970  1.0  0.7458
  C  C351  1  0.356210  0.198460  0.829110  1.0  0.0667
  C  C352  1  0.378500  0.210920  0.802180  1.0  0.2204
  C  C353  1  0.282580  0.185970  0.776290  1.0  0.1383
  C  C354  1  0.368840  0.228320  0.732240  1.0  0.71
  C  C355  1  0.301410  0.198330  0.748860  1.0  -0.0857
  C  C356  1  0.407480  0.146090  0.612510  1.0  0.6987
  C  C357  1  0.396530  0.094020  0.591490  1.0  -0.1473
  C  C358  1  0.296470  0.772320  0.429570  1.0  -0.1531
  C  C359  1  0.412280  0.076330  0.621810  1.0  -0.1381
  C  C360  1  0.352600  0.855900  0.496500  1.0  -0.0916
  C  C361  1  0.326500  0.871800  0.473700  1.0  0.1728
  C  C362  1  0.369770  0.063000  0.543570  1.0  -0.0861
  C  C363  1  0.268100  0.788920  0.406420  1.0  -0.0556
  C  C364  1  0.282700  0.838600  0.428500  1.0  -0.1496
  C  C365  1  0.375880  0.997750  0.554830  1.0  0.1793
  C  C366  1  0.339370  0.806040  0.474810  1.0  -0.0608
  C  C367  1  0.400100  0.026900  0.600400  1.0  -0.1403
  C  C368  1  0.360800  0.014630  0.524430  1.0  -0.0666
  C  C369  1  0.950750  0.587420  0.738190  1.0  -0.1722
  C  C370  1  0.811480  0.872610  0.092030  1.0  0.7455
  C  C371  1  0.869350  0.527100  0.670890  1.0  0.0654
  C  C372  1  0.908740  0.576320  0.697820  1.0  0.2219
  C  C373  1  0.909680  0.506290  0.723710  1.0  0.1374
  C  C374  1  0.996080  0.636600  0.767760  1.0  0.7076
  C  C375  1  0.949470  0.552550  0.751140  1.0  -0.0878
  C  C376  1  0.033580  0.794970  0.887490  1.0  0.7002
  C  C377  1  0.002530  0.805040  0.908510  1.0  -0.1461
  C  C378  1  0.842750  0.866900  0.070430  1.0  -0.1559
  C  C379  1  0.954520  0.790470  0.878190  1.0  -0.1375
  C  C380  1  0.859400  0.856100  0.003500  1.0  -0.094
  C  C381  1  0.898100  0.852800  0.026300  1.0  0.1718
  C  C382  1  0.019430  0.826200  0.956430  1.0  -0.083
  C  C383  1  0.882500  0.861680  0.093580  1.0  -0.0564
  C  C384  1  0.910100  0.854200  0.071500  1.0  -0.1495
  C  C385  1  0.942920  0.821050  0.945170  1.0  0.1802
  C  C386  1  0.831230  0.864560  0.025190  1.0  -0.0626
  C  C387  1  0.926500  0.799700  0.899600  1.0  -0.1404
  C  C388  1  0.990200  0.836370  0.975570  1.0  -0.0657
  C  C389  1  0.549250  0.287440  0.636670  1.0  -0.1719
  C  C390  1  0.688520  0.780550  0.061130  1.0  0.7454
  C  C391  1  0.630650  0.301540  0.657750  1.0  0.0657
  C  C392  1  0.591260  0.289080  0.667580  1.0  0.2225
  C  C393  1  0.590320  0.314030  0.596610  1.0  0.1382
  C  C394  1  0.503920  0.271680  0.640520  1.0  0.7075
  C  C395  1  0.550530  0.301670  0.603080  1.0  -0.0874
  C  C396  1  0.466420  0.353910  0.761390  1.0  0.6988
  C  C397  1  0.497470  0.405980  0.802510  1.0  -0.1462
  C  C398  1  0.657250  0.727680  0.024150  1.0  -0.153
  C  C399  1  0.545480  0.423670  0.835950  1.0  -0.1355
  C  C400  1  0.640600  0.644100  0.996700  1.0  -0.0918
  C  C401  1  0.601900  0.628200  0.954700  1.0  0.1706
  C  C402  1  0.480570  0.437000  0.806770  1.0  -0.0843
  C  C403  1  0.617500  0.711080  0.979180  1.0  -0.0578
  C  C404  1  0.589900  0.661400  0.944100  1.0  -0.1501
  C  C405  1  0.557080  0.502250  0.878130  1.0  0.1797
  C  C406  1  0.668770  0.693960  0.033330  1.0  -0.0609
  C  C407  1  0.573500  0.473100  0.873200  1.0  -0.1396
  C  C408  1  0.509800  0.485370  0.846170  1.0  -0.0649
  C  C409  1  0.150770  0.912580  0.863330  1.0  -0.1717
  C  C410  1  0.219420  0.627390  0.438870  1.0  0.7466
  C  C411  1  0.143790  0.972900  0.842250  1.0  0.0656
  C  C412  1  0.121500  0.923680  0.832420  1.0  0.2203
  C  C413  1  0.217420  0.993710  0.903390  1.0  0.1384
  C  C414  1  0.131160  0.863400  0.859480  1.0  0.7071
  C  C415  1  0.198590  0.947450  0.896920  1.0  -0.0879
  C  C416  1  0.092520  0.705030  0.738610  1.0  0.6996
  C  C417  1  0.103470  0.694960  0.697490  1.0  -0.1465
  C  C418  1  0.203530  0.633100  0.475850  1.0  -0.1566
  C  C419  1  0.087720  0.709530  0.664050  1.0  -0.1384
  C  C420  1  0.147400  0.643900  0.503300  1.0  -0.0907
  C  C421  1  0.173500  0.647200  0.545300  1.0  0.1715
  C  C422  1  0.130230  0.673800  0.693230  1.0  -0.0837
  C  C423  1  0.231900  0.638320  0.520820  1.0  -0.0558
  C  C424  1  0.217300  0.645800  0.555900  1.0  -0.148
  C  C425  1  0.124120  0.678950  0.621870  1.0  0.1825
  C  C426  1  0.160630  0.635440  0.466670  1.0  -0.0606
  C  C427  1  0.099900  0.700300  0.626800  1.0  -0.1406
  C  C428  1  0.139200  0.663630  0.653830  1.0  -0.0649
  C  C429  1  0.136670  0.549250  0.787440  1.0  -0.172
  C  C430  1  0.561130  0.688520  0.280550  1.0  0.7461
  C  C431  1  0.157750  0.630650  0.801540  1.0  0.0657
  C  C432  1  0.167580  0.591260  0.789080  1.0  0.2211
  C  C433  1  0.096610  0.590320  0.814030  1.0  0.1391
  C  C434  1  0.140520  0.503920  0.771680  1.0  0.708
  C  C435  1  0.103080  0.550530  0.801670  1.0  -0.0864
  C  C436  1  0.261390  0.466420  0.853910  1.0  0.6995
  C  C437  1  0.302510  0.497470  0.905980  1.0  -0.1476
  C  C438  1  0.524150  0.657250  0.227680  1.0  -0.1545
  C  C439  1  0.335950  0.545480  0.923670  1.0  -0.1384
  C  C440  1  0.496700  0.640600  0.144100  1.0  -0.0945
  C  C441  1  0.454700  0.601900  0.128200  1.0  0.1711
  C  C442  1  0.306770  0.480570  0.937000  1.0  -0.0824
  C  C443  1  0.479180  0.617500  0.211080  1.0  -0.0577
  C  C444  1  0.444100  0.589900  0.161400  1.0  -0.1513
  C  C445  1  0.378130  0.557080  0.002250  1.0  0.1797
  C  C446  1  0.533330  0.668770  0.193960  1.0  -0.0585
  C  C447  1  0.373200  0.573500  0.973100  1.0  -0.1405
  C  C448  1  0.346170  0.509800  0.985370  1.0  -0.066
  C  C449  1  0.363330  0.150770  0.412580  1.0  -0.1721
  C  C450  1  0.938870  0.219420  0.127390  1.0  0.7476
  C  C451  1  0.342250  0.143790  0.472900  1.0  0.0669
  C  C452  1  0.332420  0.121500  0.423680  1.0  0.2203
  C  C453  1  0.403390  0.217420  0.493710  1.0  0.14
  C  C454  1  0.359480  0.131160  0.363400  1.0  0.7098
  C  C455  1  0.396920  0.198590  0.447450  1.0  -0.0878
  C  C456  1  0.238610  0.092520  0.205030  1.0  0.6992
  C  C457  1  0.197490  0.103470  0.194960  1.0  -0.1443
  C  C458  1  0.975850  0.203530  0.133100  1.0  -0.155
  C  C459  1  0.164050  0.087720  0.209530  1.0  -0.1381
  C  C460  1  0.003300  0.147400  0.143900  1.0  -0.093
  C  C461  1  0.045300  0.173500  0.147200  1.0  0.1713
  C  C462  1  0.193230  0.130230  0.173800  1.0  -0.0876
  C  C463  1  0.020820  0.231900  0.138320  1.0  -0.056
  C  C464  1  0.055900  0.217300  0.145800  1.0  -0.1492
  C  C465  1  0.121870  0.124120  0.178950  1.0  0.1788
  C  C466  1  0.966670  0.160630  0.135440  1.0  -0.0583
  C  C467  1  0.126800  0.099900  0.200300  1.0  -0.1394
  C  C468  1  0.153830  0.139200  0.163630  1.0  -0.066
  C  C469  1  0.261810  0.349230  0.712560  1.0  -0.1718
  C  C470  1  0.907970  0.280580  0.219450  1.0  0.7479
  C  C471  1  0.329110  0.356210  0.698460  1.0  0.0647
  C  C472  1  0.302180  0.378500  0.710920  1.0  0.2218
  C  C473  1  0.276290  0.282580  0.685970  1.0  0.1374
  C  C474  1  0.232240  0.368840  0.728320  1.0  0.7069
  C  C475  1  0.248860  0.301410  0.698330  1.0  -0.0856
  C  C476  1  0.112510  0.407480  0.646090  1.0  0.7006
  C  C477  1  0.091490  0.396530  0.594020  1.0  -0.1465
  C  C478  1  0.929570  0.296470  0.272320  1.0  -0.1556
  C  C479  1  0.121810  0.412280  0.576330  1.0  -0.1368
  C  C480  1  0.996500  0.352600  0.355900  1.0  -0.0909
  C  C481  1  0.973700  0.326500  0.371800  1.0  0.1716
  C  C482  1  0.043570  0.369770  0.563000  1.0  -0.0842
  C  C483  1  0.906420  0.268100  0.288920  1.0  -0.0545
  C  C484  1  0.928500  0.282700  0.338600  1.0  -0.1503
  C  C485  1  0.054830  0.375880  0.497750  1.0  0.1809
  C  C486  1  0.974810  0.339370  0.306040  1.0  -0.0592
  C  C487  1  0.100400  0.400100  0.526900  1.0  -0.1407
  C  C488  1  0.024430  0.360800  0.514630  1.0  -0.0634
  C  C489  1  0.238190  0.950750  0.087420  1.0  -0.1728
  C  C490  1  0.592030  0.811480  0.372610  1.0  0.7441
  C  C491  1  0.170890  0.869350  0.027100  1.0  0.0642
  C  C492  1  0.197820  0.908740  0.076320  1.0  0.223
  C  C493  1  0.223710  0.909680  0.006290  1.0  0.1372
  C  C494  1  0.267760  0.996080  0.136600  1.0  0.7077
  C  C495  1  0.251140  0.949470  0.052550  1.0  -0.0865
  C  C496  1  0.387490  0.033580  0.294970  1.0  0.6977
  C  C497  1  0.408510  0.002530  0.305040  1.0  -0.1471
  C  C498  1  0.570430  0.842750  0.366900  1.0  -0.1544
  C  C499  1  0.378190  0.954520  0.290470  1.0  -0.1386
  C  C500  1  0.503500  0.859400  0.356100  1.0  -0.0909
  C  C501  1  0.526300  0.898100  0.352800  1.0  0.1717
  C  C502  1  0.456430  0.019430  0.326200  1.0  -0.0854
  C  C503  1  0.593580  0.882500  0.361680  1.0  -0.0565
  C  C504  1  0.571500  0.910100  0.354200  1.0  -0.1526
  C  C505  1  0.445170  0.942920  0.321050  1.0  0.178
  C  C506  1  0.525190  0.831230  0.364560  1.0  -0.0601
  C  C507  1  0.399600  0.926500  0.299700  1.0  -0.1409
  C  C508  1  0.475570  0.990200  0.336370  1.0  -0.0659
  C  C509  1  0.587420  0.238190  0.450750  1.0  -0.1728
  C  C510  1  0.872610  0.592030  0.311480  1.0  0.7463
  C  C511  1  0.527100  0.170890  0.369350  1.0  0.0661
  C  C512  1  0.576320  0.197820  0.408740  1.0  0.2207
  C  C513  1  0.506290  0.223710  0.409680  1.0  0.1381
  C  C514  1  0.636600  0.267760  0.496080  1.0  0.7076
  C  C515  1  0.552550  0.251140  0.449470  1.0  -0.085
  C  C516  1  0.794970  0.387490  0.533580  1.0  0.6997
  C  C517  1  0.805040  0.408510  0.502530  1.0  -0.1454
  C  C518  1  0.866900  0.570430  0.342750  1.0  -0.1565
  C  C519  1  0.790470  0.378190  0.454520  1.0  -0.1371
  C  C520  1  0.856100  0.503500  0.359400  1.0  -0.0926
  C  C521  1  0.852800  0.526300  0.398100  1.0  0.1711
  C  C522  1  0.826200  0.456430  0.519430  1.0  -0.0839
  C  C523  1  0.861680  0.593580  0.382500  1.0  -0.0545
  C  C524  1  0.854200  0.571500  0.410100  1.0  -0.1519
  C  C525  1  0.821050  0.445170  0.442920  1.0  0.1831
  C  C526  1  0.864560  0.525190  0.331230  1.0  -0.0595
  C  C527  1  0.799700  0.399600  0.426500  1.0  -0.1428
  C  C528  1  0.836370  0.475570  0.490200  1.0  -0.0653
  C  C529  1  0.212560  0.261810  0.849230  1.0  -0.1724
  C  C530  1  0.719450  0.907970  0.780580  1.0  0.7465
  C  C531  1  0.198460  0.329110  0.856210  1.0  0.0641
  C  C532  1  0.210920  0.302180  0.878500  1.0  0.2237
  C  C533  1  0.185970  0.276290  0.782580  1.0  0.1382
  C  C534  1  0.228320  0.232240  0.868840  1.0  0.7063
  C  C535  1  0.198330  0.248860  0.801410  1.0  -0.0863
  C  C536  1  0.146090  0.112510  0.907480  1.0  0.6981
  C  C537  1  0.094020  0.091490  0.896530  1.0  -0.1455
  C  C538  1  0.772320  0.929570  0.796470  1.0  -0.1546
  C  C539  1  0.076330  0.121810  0.912280  1.0  -0.1382
  C  C540  1  0.855900  0.996500  0.852600  1.0  -0.0921
  C  C541  1  0.871800  0.973700  0.826500  1.0  0.1725
  C  C542  1  0.063000  0.043570  0.869770  1.0  -0.085
  C  C543  1  0.788920  0.906420  0.768100  1.0  -0.0579
  C  C544  1  0.838600  0.928500  0.782700  1.0  -0.1497
  C  C545  1  0.997750  0.054830  0.875880  1.0  0.1795
  C  C546  1  0.806040  0.974810  0.839370  1.0  -0.06
  C  C547  1  0.026900  0.100400  0.900100  1.0  -0.1413
  C  C548  1  0.014630  0.024430  0.860800  1.0  -0.0661
  C  C549  1  0.912580  0.363330  0.650770  1.0  -0.1719
  C  C550  1  0.627390  0.938870  0.719420  1.0  0.746
  C  C551  1  0.972900  0.342250  0.643790  1.0  0.065
  C  C552  1  0.923680  0.332420  0.621500  1.0  0.2213
  C  C553  1  0.993710  0.403390  0.717420  1.0  0.138
  C  C554  1  0.863400  0.359480  0.631160  1.0  0.7096
  C  C555  1  0.947450  0.396920  0.698590  1.0  -0.089
  C  C556  1  0.705030  0.238610  0.592520  1.0  0.7002
  C  C557  1  0.694960  0.197490  0.603470  1.0  -0.1476
  C  C558  1  0.633100  0.975850  0.703530  1.0  -0.1543
  C  C559  1  0.709530  0.164050  0.587720  1.0  -0.137
  C  C560  1  0.643900  0.003300  0.647400  1.0  -0.0936
  C  C561  1  0.647200  0.045300  0.673500  1.0  0.1705
  C  C562  1  0.673800  0.193230  0.630230  1.0  -0.0844
  C  C563  1  0.638320  0.020820  0.731900  1.0  -0.0577
  C  C564  1  0.645800  0.055900  0.717300  1.0  -0.1543
  C  C565  1  0.678950  0.121870  0.624120  1.0  0.1797
  C  C566  1  0.635440  0.966670  0.660630  1.0  -0.0577
  C  C567  1  0.700300  0.126800  0.599900  1.0  -0.1424
  C  C568  1  0.663630  0.153830  0.639200  1.0  -0.0653
  C  C569  1  0.287440  0.136670  0.049250  1.0  -0.1719
  C  C570  1  0.780550  0.561130  0.188520  1.0  0.7448
  C  C571  1  0.301540  0.157750  0.130650  1.0  0.0659
  C  C572  1  0.289080  0.167580  0.091260  1.0  0.2207
  C  C573  1  0.314030  0.096610  0.090320  1.0  0.1388
  C  C574  1  0.271680  0.140520  0.003920  1.0  0.7103
  C  C575  1  0.301670  0.103080  0.050530  1.0  -0.0871
  C  C576  1  0.353910  0.261390  0.966420  1.0  0.6959
  C  C577  1  0.405980  0.302510  0.997470  1.0  -0.1457
  C  C578  1  0.727680  0.524150  0.157250  1.0  -0.1551
  C  C579  1  0.423670  0.335950  0.045480  1.0  -0.1389
  C  C580  1  0.644100  0.496700  0.140600  1.0  -0.0913
  C  C581  1  0.628200  0.454700  0.101900  1.0  0.1693
  C  C582  1  0.437000  0.306770  0.980570  1.0  -0.0844
  C  C583  1  0.711080  0.479180  0.117500  1.0  -0.0551
  C  C584  1  0.661400  0.444100  0.089900  1.0  -0.1511
  C  C585  1  0.502250  0.378130  0.057080  1.0  0.1809
  C  C586  1  0.693960  0.533330  0.168770  1.0  -0.0607
  C  C587  1  0.473100  0.373200  0.073500  1.0  -0.1422
  C  C588  1  0.485370  0.346170  0.009800  1.0  -0.0666
  C  C589  1  0.087420  0.450750  0.238190  1.0  -0.173
  C  C590  1  0.372610  0.311480  0.592030  1.0  0.7454
  C  C591  1  0.027100  0.369350  0.170890  1.0  0.0652
  C  C592  1  0.076320  0.408740  0.197820  1.0  0.2213
  C  C593  1  0.006290  0.409680  0.223710  1.0  0.1389
  C  C594  1  0.136600  0.496080  0.267760  1.0  0.7085
  C  C595  1  0.052550  0.449470  0.251140  1.0  -0.0861
  C  C596  1  0.294970  0.533580  0.387490  1.0  0.6995
  C  C597  1  0.305040  0.502530  0.408510  1.0  -0.1475
  C  C598  1  0.366900  0.342750  0.570430  1.0  -0.1543
  C  C599  1  0.290470  0.454520  0.378190  1.0  -0.1381
  C  C600  1  0.356100  0.359400  0.503500  1.0  -0.0935
  C  C601  1  0.352800  0.398100  0.526300  1.0  0.1728
  C  C602  1  0.326200  0.519430  0.456430  1.0  -0.0853
  C  C603  1  0.361680  0.382500  0.593580  1.0  -0.058
  C  C604  1  0.354200  0.410100  0.571500  1.0  -0.154
  C  C605  1  0.321050  0.442920  0.445170  1.0  0.1795
  C  C606  1  0.364560  0.331230  0.525190  1.0  -0.0576
  C  C607  1  0.299700  0.426500  0.399600  1.0  -0.1421
  C  C608  1  0.336370  0.490200  0.475570  1.0  -0.0675
  C  C609  1  0.712560  0.849230  0.261810  1.0  -0.1722
  C  C610  1  0.219450  0.780580  0.907970  1.0  0.747
  C  C611  1  0.698460  0.856210  0.329110  1.0  0.0663
  C  C612  1  0.710920  0.878500  0.302180  1.0  0.2218
  C  C613  1  0.685970  0.782580  0.276290  1.0  0.1402
  C  C614  1  0.728320  0.868840  0.232240  1.0  0.7099
  C  C615  1  0.698330  0.801410  0.248860  1.0  -0.0858
  C  C616  1  0.646090  0.907480  0.112510  1.0  0.6994
  C  C617  1  0.594020  0.896530  0.091490  1.0  -0.1453
  C  C618  1  0.272320  0.796470  0.929570  1.0  -0.1549
  C  C619  1  0.576330  0.912280  0.121810  1.0  -0.139
  C  C620  1  0.355900  0.852600  0.996500  1.0  -0.0922
  C  C621  1  0.371800  0.826500  0.973700  1.0  0.1715
  C  C622  1  0.563000  0.869770  0.043570  1.0  -0.0882
  C  C623  1  0.288920  0.768100  0.906420  1.0  -0.0556
  C  C624  1  0.338600  0.782700  0.928500  1.0  -0.1476
  C  C625  1  0.497750  0.875880  0.054830  1.0  0.1788
  C  C626  1  0.306040  0.839370  0.974810  1.0  -0.0593
  C  C627  1  0.526900  0.900100  0.100400  1.0  -0.1401
  C  C628  1  0.514630  0.860800  0.024430  1.0  -0.0658
  C  C629  1  0.412580  0.650770  0.363330  1.0  -0.1715
  C  C630  1  0.127390  0.719420  0.938870  1.0  0.7481
  C  C631  1  0.472900  0.643790  0.342250  1.0  0.0647
  C  C632  1  0.423680  0.621500  0.332420  1.0  0.22
  C  C633  1  0.493710  0.717420  0.403390  1.0  0.1372
  C  C634  1  0.363400  0.631160  0.359480  1.0  0.7068
  C  C635  1  0.447450  0.698590  0.396920  1.0  -0.0883
  C  C636  1  0.205030  0.592520  0.238610  1.0  0.7006
  C  C637  1  0.194960  0.603470  0.197490  1.0  -0.1458
  C  C638  1  0.133100  0.703530  0.975850  1.0  -0.1556
  C  C639  1  0.209530  0.587720  0.164050  1.0  -0.137
  C  C640  1  0.143900  0.647400  0.003300  1.0  -0.0918
  C  C641  1  0.147200  0.673500  0.045300  1.0  0.1715
  C  C642  1  0.173800  0.630230  0.193230  1.0  -0.0844
  C  C643  1  0.138320  0.731900  0.020820  1.0  -0.0543
  C  C644  1  0.145800  0.717300  0.055900  1.0  -0.1528
  C  C645  1  0.178950  0.624120  0.121870  1.0  0.181
  C  C646  1  0.135440  0.660630  0.966670  1.0  -0.0591
  C  C647  1  0.200300  0.599900  0.126800  1.0  -0.1409
  C  C648  1  0.163630  0.639200  0.153830  1.0  -0.0642
  C  C649  1  0.787440  0.049250  0.136670  1.0  -0.172
  C  C650  1  0.280550  0.188520  0.561130  1.0  0.7447
  C  C651  1  0.801540  0.130650  0.157750  1.0  0.0647
  C  C652  1  0.789080  0.091260  0.167580  1.0  0.223
  C  C653  1  0.814030  0.090320  0.096610  1.0  0.1374
  C  C654  1  0.771680  0.003920  0.140520  1.0  0.7071
  C  C655  1  0.801670  0.050530  0.103080  1.0  -0.0874
  C  C656  1  0.853910  0.966420  0.261390  1.0  0.6974
  C  C657  1  0.905980  0.997470  0.302510  1.0  -0.1466
  C  C658  1  0.227680  0.157250  0.524150  1.0  -0.1547
  C  C659  1  0.923670  0.045480  0.335950  1.0  -0.1397
  C  C660  1  0.144100  0.140600  0.496700  1.0  -0.0917
  C  C661  1  0.128200  0.101900  0.454700  1.0  0.1701
  C  C662  1  0.937000  0.980570  0.306770  1.0  -0.0817
  C  C663  1  0.211080  0.117500  0.479180  1.0  -0.0563
  C  C664  1  0.161400  0.089900  0.444100  1.0  -0.15
  C  C665  1  0.002250  0.057080  0.378130  1.0  0.1781
  C  C666  1  0.193960  0.168770  0.533330  1.0  -0.0611
  C  C667  1  0.973100  0.073500  0.373200  1.0  -0.1383
  C  C668  1  0.985370  0.009800  0.346170  1.0  -0.0654
  C  C669  1  0.849230  0.761810  0.212560  1.0  -0.172
  C  C670  1  0.780580  0.407970  0.719450  1.0  0.7461
  C  C671  1  0.856210  0.829110  0.198460  1.0  0.0666
  C  C672  1  0.878500  0.802180  0.210920  1.0  0.221
  C  C673  1  0.782580  0.776290  0.185970  1.0  0.1385
  C  C674  1  0.868840  0.732240  0.228320  1.0  0.7071
  C  C675  1  0.801410  0.748860  0.198330  1.0  -0.0843
  C  C676  1  0.907480  0.612510  0.146090  1.0  0.6997
  C  C677  1  0.896530  0.591490  0.094020  1.0  -0.1458
  C  C678  1  0.796470  0.429570  0.772320  1.0  -0.1567
  C  C679  1  0.912280  0.621810  0.076330  1.0  -0.1367
  C  C680  1  0.852600  0.496500  0.855900  1.0  -0.0916
  C  C681  1  0.826500  0.473700  0.871800  1.0  0.171
  C  C682  1  0.869770  0.543570  0.063000  1.0  -0.0829
  C  C683  1  0.768100  0.406420  0.788920  1.0  -0.0546
  C  C684  1  0.782700  0.428500  0.838600  1.0  -0.1503
  C  C685  1  0.875880  0.554830  0.997750  1.0  0.1825
  C  C686  1  0.839370  0.474810  0.806040  1.0  -0.0588
  C  C687  1  0.900100  0.600400  0.026900  1.0  -0.1413
  C  C688  1  0.860800  0.524430  0.014630  1.0  -0.0661
  C  C689  1  0.450750  0.738190  0.587420  1.0  -0.173
  C  C690  1  0.311480  0.092030  0.872610  1.0  0.7469
  C  C691  1  0.369350  0.670890  0.527100  1.0  0.0638
  C  C692  1  0.408740  0.697820  0.576320  1.0  0.2236
  C  C693  1  0.409680  0.723710  0.506290  1.0  0.1383
  C  C694  1  0.496080  0.767760  0.636600  1.0  0.7068
  C  C695  1  0.449470  0.751140  0.552550  1.0  -0.0861
  C  C696  1  0.533580  0.887490  0.794970  1.0  0.6983
  C  C697  1  0.502530  0.908510  0.805040  1.0  -0.1452
  C  C698  1  0.342750  0.070430  0.866900  1.0  -0.1549
  C  C699  1  0.454520  0.878190  0.790470  1.0  -0.1379
  C  C700  1  0.359400  0.003500  0.856100  1.0  -0.0944
  C  C701  1  0.398100  0.026300  0.852800  1.0  0.1726
  C  C702  1  0.519430  0.956430  0.826200  1.0  -0.0848
  C  C703  1  0.382500  0.093580  0.861680  1.0  -0.0585
  C  C704  1  0.410100  0.071500  0.854200  1.0  -0.1508
  C  C705  1  0.442920  0.945170  0.821050  1.0  0.1796
  C  C706  1  0.331230  0.025190  0.864560  1.0  -0.0597
  C  C707  1  0.426500  0.899600  0.799700  1.0  -0.1424
  C  C708  1  0.490200  0.975570  0.836370  1.0  -0.0651
  C  C709  1  0.049250  0.636670  0.287440  1.0  -0.1722
  C  C710  1  0.188520  0.061130  0.780550  1.0  0.7457
  C  C711  1  0.130650  0.657750  0.301540  1.0  0.0649
  C  C712  1  0.091260  0.667580  0.289080  1.0  0.2225
  C  C713  1  0.090320  0.596610  0.314030  1.0  0.1385
  C  C714  1  0.003920  0.640520  0.271680  1.0  0.7093
  C  C715  1  0.050530  0.603080  0.301670  1.0  -0.0883
  C  C716  1  0.966420  0.761390  0.353910  1.0  0.6997
  C  C717  1  0.997470  0.802510  0.405980  1.0  -0.1476
  C  C718  1  0.157250  0.024150  0.727680  1.0  -0.1545
  C  C719  1  0.045480  0.835950  0.423670  1.0  -0.1372
  C  C720  1  0.140600  0.996700  0.644100  1.0  -0.0942
  C  C721  1  0.101900  0.954700  0.628200  1.0  0.1699
  C  C722  1  0.980570  0.806770  0.437000  1.0  -0.0825
  C  C723  1  0.117500  0.979180  0.711080  1.0  -0.0576
  C  C724  1  0.089900  0.944100  0.661400  1.0  -0.1541
  C  C725  1  0.057080  0.878130  0.502250  1.0  0.1803
  C  C726  1  0.168770  0.033330  0.693960  1.0  -0.0593
  C  C727  1  0.073500  0.873200  0.473100  1.0  -0.1426
  C  C728  1  0.009800  0.846170  0.485370  1.0  -0.0654
  C  C729  1  0.650770  0.863330  0.912580  1.0  -0.1719
  C  C730  1  0.719420  0.438870  0.627390  1.0  0.745
  C  C731  1  0.643790  0.842250  0.972900  1.0  0.0663
  C  C732  1  0.621500  0.832420  0.923680  1.0  0.2198
  C  C733  1  0.717420  0.903390  0.993710  1.0  0.1383
  C  C734  1  0.631160  0.859480  0.863400  1.0  0.7102
  C  C735  1  0.698590  0.896920  0.947450  1.0  -0.0881
  C  C736  1  0.592520  0.738610  0.705030  1.0  0.6966
  C  C737  1  0.603470  0.697490  0.694960  1.0  -0.1469
  C  C738  1  0.703530  0.475850  0.633100  1.0  -0.1546
  C  C739  1  0.587720  0.664050  0.709530  1.0  -0.1383
  C  C740  1  0.647400  0.503300  0.643900  1.0  -0.0907
  C  C741  1  0.673500  0.545300  0.647200  1.0  0.1699
  C  C742  1  0.630230  0.693230  0.673800  1.0  -0.087
  C  C743  1  0.731900  0.520820  0.638320  1.0  -0.0552
  C  C744  1  0.717300  0.555900  0.645800  1.0  -0.1523
  C  C745  1  0.624120  0.621870  0.678950  1.0  0.1807
  C  C746  1  0.660630  0.466670  0.635440  1.0  -0.0604
  C  C747  1  0.599900  0.626800  0.700300  1.0  -0.1406
  C  C748  1  0.639200  0.653830  0.663630  1.0  -0.0665
  C  C749  1  0.636670  0.787440  0.549250  1.0  -0.1732
  C  C750  1  0.061130  0.280550  0.688520  1.0  0.7469
  C  C751  1  0.657750  0.801540  0.630650  1.0  0.0666
  C  C752  1  0.667580  0.789080  0.591260  1.0  0.22
  C  C753  1  0.596610  0.814030  0.590320  1.0  0.138
  C  C754  1  0.640520  0.771680  0.503920  1.0  0.71
  C  C755  1  0.603080  0.801670  0.550530  1.0  -0.0864
  C  C756  1  0.761390  0.853910  0.466420  1.0  0.6978
  C  C757  1  0.802510  0.905980  0.497470  1.0  -0.147
  C  C758  1  0.024150  0.227680  0.657250  1.0  -0.1531
  C  C759  1  0.835950  0.923670  0.545480  1.0  -0.1378
  C  C760  1  0.996700  0.144100  0.640600  1.0  -0.0916
  C  C761  1  0.954700  0.128200  0.601900  1.0  0.1714
  C  C762  1  0.806770  0.937000  0.480570  1.0  -0.0838
  C  C763  1  0.979180  0.211080  0.617500  1.0  -0.0555
  C  C764  1  0.944100  0.161400  0.589900  1.0  -0.1495
  C  C765  1  0.878130  0.002250  0.557080  1.0  0.18
  C  C766  1  0.033330  0.193960  0.668770  1.0  -0.061
  C  C767  1  0.873200  0.973100  0.573500  1.0  -0.1396
  C  C768  1  0.846170  0.985370  0.509800  1.0  -0.0665
  C  C769  1  0.863330  0.412580  0.150770  1.0  -0.1719
  C  C770  1  0.438870  0.127390  0.219420  1.0  0.7456
  C  C771  1  0.842250  0.472900  0.143790  1.0  0.0653
  C  C772  1  0.832420  0.423680  0.121500  1.0  0.2211
  C  C773  1  0.903390  0.493710  0.217420  1.0  0.1376
  C  C774  1  0.859480  0.363400  0.131160  1.0  0.7071
  C  C775  1  0.896920  0.447450  0.198590  1.0  -0.0897
  C  C776  1  0.738610  0.205030  0.092520  1.0  0.7003
  C  C777  1  0.697490  0.194960  0.103470  1.0  -0.1461
  C  C778  1  0.475850  0.133100  0.203530  1.0  -0.1555
  C  C779  1  0.664050  0.209530  0.087720  1.0  -0.1375
  C  C780  1  0.503300  0.143900  0.147400  1.0  -0.094
  C  C781  1  0.545300  0.147200  0.173500  1.0  0.1715
  C  C782  1  0.693230  0.173800  0.130230  1.0  -0.0836
  C  C783  1  0.520820  0.138320  0.231900  1.0  -0.0563
  C  C784  1  0.555900  0.145800  0.217300  1.0  -0.1493
  C  C785  1  0.621870  0.178950  0.124120  1.0  0.1801
  C  C786  1  0.466670  0.135440  0.160630  1.0  -0.0623
  C  C787  1  0.626800  0.200300  0.099900  1.0  -0.1411
  C  C788  1  0.653830  0.163630  0.139200  1.0  -0.065
  C  C789  1  0.761810  0.712560  0.349230  1.0  -0.1722
  C  C790  1  0.407970  0.219450  0.280580  1.0  0.7441
  C  C791  1  0.829110  0.698460  0.356210  1.0  0.0656
  C  C792  1  0.802180  0.710920  0.378500  1.0  0.2229
  C  C793  1  0.776290  0.685970  0.282580  1.0  0.1378
  C  C794  1  0.732240  0.728320  0.368840  1.0  0.7077
  C  C795  1  0.748860  0.698330  0.301410  1.0  -0.0867
  C  C796  1  0.612510  0.646090  0.407480  1.0  0.6993
  C  C797  1  0.591490  0.594020  0.396530  1.0  -0.1472
  C  C798  1  0.429570  0.272320  0.296470  1.0  -0.153
  C  C799  1  0.621810  0.576330  0.412280  1.0  -0.1357
  C  C800  1  0.496500  0.355900  0.352600  1.0  -0.0917
  C  C801  1  0.473700  0.371800  0.326500  1.0  0.1722
  C  C802  1  0.543570  0.563000  0.369770  1.0  -0.0859
  C  C803  1  0.406420  0.288920  0.268100  1.0  -0.0582
  C  C804  1  0.428500  0.338600  0.282700  1.0  -0.1505
  C  C805  1  0.554830  0.497750  0.375880  1.0  0.179
  C  C806  1  0.474810  0.306040  0.339370  1.0  -0.0608
  C  C807  1  0.600400  0.526900  0.400100  1.0  -0.1405
  C  C808  1  0.524430  0.514630  0.360800  1.0  -0.0648
  C  C809  1  0.738190  0.087420  0.950750  1.0  -0.1725
  C  C810  1  0.092030  0.372610  0.811480  1.0  0.7465
  C  C811  1  0.670890  0.027100  0.869350  1.0  0.0657
  C  C812  1  0.697820  0.076320  0.908740  1.0  0.2212
  C  C813  1  0.723710  0.006290  0.909680  1.0  0.1382
  C  C814  1  0.767760  0.136600  0.996080  1.0  0.7077
  C  C815  1  0.751140  0.052550  0.949470  1.0  -0.0855
  C  C816  1  0.887490  0.294970  0.033580  1.0  0.6997
  C  C817  1  0.908510  0.305040  0.002530  1.0  -0.1461
  C  C818  1  0.070430  0.366900  0.842750  1.0  -0.1567
  C  C819  1  0.878190  0.290470  0.954520  1.0  -0.1381
  C  C820  1  0.003500  0.356100  0.859400  1.0  -0.0905
  C  C821  1  0.026300  0.352800  0.898100  1.0  0.1717
  C  C822  1  0.956430  0.326200  0.019430  1.0  -0.0833
  C  C823  1  0.093580  0.361680  0.882500  1.0  -0.0558
  C  C824  1  0.071500  0.354200  0.910100  1.0  -0.1482
  C  C825  1  0.945170  0.321050  0.942920  1.0  0.1827
  C  C826  1  0.025190  0.364560  0.831230  1.0  -0.0606
  C  C827  1  0.899600  0.299700  0.926500  1.0  -0.1408
  C  C828  1  0.975570  0.336370  0.990200  1.0  -0.0652
  N  N829  1  0.310190  0.185810  0.816240  1.0  -0.335
  N  N830  1  0.425240  0.221380  0.818100  1.0  -0.6951
  N  N831  1  0.366700  0.948030  0.536930  1.0  -0.1768
  N  N832  1  0.333790  0.920330  0.493120  1.0  -0.1753
  N  N833  1  0.869570  0.493950  0.683760  1.0  -0.3342
  N  N834  1  0.903280  0.607140  0.681900  1.0  -0.6985
  N  N835  1  0.911100  0.829770  0.963070  1.0  -0.1774
  N  N836  1  0.927210  0.840670  0.006880  1.0  -0.1735
  N  N837  1  0.630430  0.314190  0.624380  1.0  -0.3333
  N  N838  1  0.596720  0.278620  0.703860  1.0  -0.6906
  N  N839  1  0.588900  0.551970  0.918670  1.0  -0.1769
  N  N840  1  0.572790  0.579670  0.913460  1.0  -0.1753
  N  N841  1  0.189810  0.006050  0.875620  1.0  -0.3345
  N  N842  1  0.074760  0.892860  0.796140  1.0  -0.6956
  N  N843  1  0.133300  0.670230  0.581330  1.0  -0.1765
  N  N844  1  0.166210  0.659330  0.586540  1.0  -0.1728
  N  N845  1  0.124380  0.630430  0.814190  1.0  -0.3325
  N  N846  1  0.203860  0.596720  0.778620  1.0  -0.6969
  N  N847  1  0.418670  0.588900  0.051970  1.0  -0.1774
  N  N848  1  0.413460  0.572790  0.079670  1.0  -0.1741
  N  N849  1  0.375620  0.189810  0.506050  1.0  -0.3363
  N  N850  1  0.296140  0.074760  0.392860  1.0  -0.6937
  N  N851  1  0.081330  0.133300  0.170230  1.0  -0.1758
  N  N852  1  0.086540  0.166210  0.159330  1.0  -0.1732
  N  N853  1  0.316240  0.310190  0.685810  1.0  -0.3327
  N  N854  1  0.318100  0.425240  0.721380  1.0  -0.6941
  N  N855  1  0.036930  0.366700  0.448030  1.0  -0.1767
  N  N856  1  0.993120  0.333790  0.420330  1.0  -0.1743
  N  N857  1  0.183760  0.869570  0.993950  1.0  -0.3344
  N  N858  1  0.181900  0.903280  0.107140  1.0  -0.6922
  N  N859  1  0.463070  0.911100  0.329770  1.0  -0.1761
  N  N860  1  0.506880  0.927210  0.340670  1.0  -0.1757
  N  N861  1  0.493950  0.183760  0.369570  1.0  -0.3318
  N  N862  1  0.607140  0.181900  0.403280  1.0  -0.6946
  N  N863  1  0.829770  0.463070  0.411100  1.0  -0.1775
  N  N864  1  0.840670  0.506880  0.427210  1.0  -0.1732
  N  N865  1  0.185810  0.316240  0.810190  1.0  -0.333
  N  N866  1  0.221380  0.318100  0.925240  1.0  -0.6926
  N  N867  1  0.948030  0.036930  0.866700  1.0  -0.1771
  N  N868  1  0.920330  0.993120  0.833790  1.0  -0.1747
  N  N869  1  0.006050  0.375620  0.689810  1.0  -0.332
  N  N870  1  0.892860  0.296140  0.574760  1.0  -0.6983
  N  N871  1  0.670230  0.081330  0.633300  1.0  -0.1763
  N  N872  1  0.659330  0.086540  0.666210  1.0  -0.175
  N  N873  1  0.314190  0.124380  0.130430  1.0  -0.334
  N  N874  1  0.278620  0.203860  0.096720  1.0  -0.6966
  N  N875  1  0.551970  0.418670  0.088900  1.0  -0.1787
  N  N876  1  0.579670  0.413460  0.072790  1.0  -0.176
  N  N877  1  0.993950  0.369570  0.183760  1.0  -0.3323
  N  N878  1  0.107140  0.403280  0.181900  1.0  -0.6963
  N  N879  1  0.329770  0.411100  0.463070  1.0  -0.1763
  N  N880  1  0.340670  0.427210  0.506880  1.0  -0.1745
  N  N881  1  0.685810  0.810190  0.316240  1.0  -0.3358
  N  N882  1  0.721380  0.925240  0.318100  1.0  -0.6926
  N  N883  1  0.448030  0.866700  0.036930  1.0  -0.177
  N  N884  1  0.420330  0.833790  0.993120  1.0  -0.1743
  N  N885  1  0.506050  0.689810  0.375620  1.0  -0.3327
  N  N886  1  0.392860  0.574760  0.296140  1.0  -0.6963
  N  N887  1  0.170230  0.633300  0.081330  1.0  -0.1765
  N  N888  1  0.159330  0.666210  0.086540  1.0  -0.1746
  N  N889  1  0.814190  0.130430  0.124380  1.0  -0.3344
  N  N890  1  0.778620  0.096720  0.203860  1.0  -0.6931
  N  N891  1  0.051970  0.088900  0.418670  1.0  -0.1777
  N  N892  1  0.079670  0.072790  0.413460  1.0  -0.1761
  N  N893  1  0.810190  0.816240  0.185810  1.0  -0.3319
  N  N894  1  0.925240  0.818100  0.221380  1.0  -0.6959
  N  N895  1  0.866700  0.536930  0.948030  1.0  -0.1774
  N  N896  1  0.833790  0.493120  0.920330  1.0  -0.174
  N  N897  1  0.369570  0.683760  0.493950  1.0  -0.3335
  N  N898  1  0.403280  0.681900  0.607140  1.0  -0.691
  N  N899  1  0.411100  0.963070  0.829770  1.0  -0.1757
  N  N900  1  0.427210  0.006880  0.840670  1.0  -0.1728
  N  N901  1  0.130430  0.624380  0.314190  1.0  -0.3315
  N  N902  1  0.096720  0.703860  0.278620  1.0  -0.7004
  N  N903  1  0.088900  0.918670  0.551970  1.0  -0.1778
  N  N904  1  0.072790  0.913460  0.579670  1.0  -0.1744
  N  N905  1  0.689810  0.875620  0.006050  1.0  -0.3344
  N  N906  1  0.574760  0.796140  0.892860  1.0  -0.6964
  N  N907  1  0.633300  0.581330  0.670230  1.0  -0.177
  N  N908  1  0.666210  0.586540  0.659330  1.0  -0.1761
  N  N909  1  0.624380  0.814190  0.630430  1.0  -0.3356
  N  N910  1  0.703860  0.778620  0.596720  1.0  -0.6949
  N  N911  1  0.918670  0.051970  0.588900  1.0  -0.177
  N  N912  1  0.913460  0.079670  0.572790  1.0  -0.1753
  N  N913  1  0.875620  0.506050  0.189810  1.0  -0.3348
  N  N914  1  0.796140  0.392860  0.074760  1.0  -0.6965
  N  N915  1  0.581330  0.170230  0.133300  1.0  -0.1774
  N  N916  1  0.586540  0.159330  0.166210  1.0  -0.1735
  N  N917  1  0.816240  0.685810  0.310190  1.0  -0.3334
  N  N918  1  0.818100  0.721380  0.425240  1.0  -0.6916
  N  N919  1  0.536930  0.448030  0.366700  1.0  -0.1768
  N  N920  1  0.493120  0.420330  0.333790  1.0  -0.1754
  N  N921  1  0.683760  0.993950  0.869570  1.0  -0.3336
  N  N922  1  0.681900  0.107140  0.903280  1.0  -0.6974
  N  N923  1  0.963070  0.329770  0.911100  1.0  -0.1763
  N  N924  1  0.006880  0.340670  0.927210  1.0  -0.1727
  O  O925  1  0.409570  0.231080  0.737750  1.0  -0.6094
  O  O926  1  0.428210  0.172300  0.658990  1.0  -0.6408
  O  O927  1  0.239870  0.690620  0.369510  1.0  -0.6277
  O  O928  1  0.308820  0.707330  0.428570  1.0  -0.6209
  O  O929  1  0.343320  0.238210  0.703990  1.0  -0.6165
  O  O930  1  0.395210  0.159120  0.581090  1.0  -0.6346
  O  O931  1  0.993330  0.671820  0.762250  1.0  -0.6123
  O  O932  1  0.013310  0.769220  0.841010  1.0  -0.6407
  O  O933  1  0.821110  0.870360  0.130490  1.0  -0.6283
  O  O934  1  0.778760  0.880250  0.071430  1.0  -0.6177
  O  O935  1  0.034220  0.639330  0.796010  1.0  -0.6168
  O  O936  1  0.078030  0.814120  0.918910  1.0  -0.6381
  O  O937  1  0.506670  0.268920  0.678490  1.0  -0.6077
  O  O938  1  0.486690  0.327700  0.755910  1.0  -0.6404
  O  O939  1  0.678890  0.809380  0.049250  1.0  -0.6298
  O  O940  1  0.721240  0.792670  0.101490  1.0  -0.6165
  O  O941  1  0.465780  0.261790  0.605110  1.0  -0.6154
  O  O942  1  0.421970  0.340880  0.736090  1.0  -0.6362
  O  O943  1  0.090430  0.828180  0.821510  1.0  -0.6101
  O  O944  1  0.071790  0.730780  0.744090  1.0  -0.6372
  O  O945  1  0.260130  0.629640  0.450750  1.0  -0.6285
  O  O946  1  0.191180  0.619750  0.398510  1.0  -0.6166
  O  O947  1  0.156680  0.860670  0.894890  1.0  -0.6174
  O  O948  1  0.104790  0.685880  0.763910  1.0  -0.6358
  O  O949  1  0.178490  0.506670  0.768920  1.0  -0.609
  O  O950  1  0.255910  0.486690  0.827700  1.0  -0.6395
  O  O951  1  0.549250  0.678890  0.309380  1.0  -0.6264
  O  O952  1  0.601490  0.721240  0.292670  1.0  -0.6179
  O  O953  1  0.105110  0.465780  0.761790  1.0  -0.6172
  O  O954  1  0.236090  0.421970  0.840880  1.0  -0.638
  O  O955  1  0.321510  0.090430  0.328180  1.0  -0.61
  O  O956  1  0.244090  0.071790  0.230780  1.0  -0.6435
  O  O957  1  0.950750  0.260130  0.129640  1.0  -0.6297
  O  O958  1  0.898510  0.191180  0.119750  1.0  -0.6182
  O  O959  1  0.394890  0.156680  0.360670  1.0  -0.6187
  O  O960  1  0.263910  0.104790  0.185880  1.0  -0.6359
  O  O961  1  0.237750  0.409570  0.731080  1.0  -0.6088
  O  O962  1  0.158990  0.428210  0.672300  1.0  -0.638
  O  O963  1  0.869510  0.239870  0.190620  1.0  -0.631
  O  O964  1  0.928570  0.308820  0.207330  1.0  -0.6148
  O  O965  1  0.203990  0.343320  0.738210  1.0  -0.6172
  O  O966  1  0.081090  0.395210  0.659120  1.0  -0.6351
  O  O967  1  0.262250  0.993330  0.171820  1.0  -0.6059
  O  O968  1  0.341010  0.013310  0.269220  1.0  -0.6392
  O  O969  1  0.630490  0.821110  0.370360  1.0  -0.6294
  O  O970  1  0.571430  0.778760  0.380250  1.0  -0.6171
  O  O971  1  0.296010  0.034220  0.139330  1.0  -0.617
  O  O972  1  0.418910  0.078030  0.314120  1.0  -0.6373
  O  O973  1  0.671820  0.262250  0.493330  1.0  -0.6088
  O  O974  1  0.769220  0.341010  0.513310  1.0  -0.6346
  O  O975  1  0.870360  0.630490  0.321110  1.0  -0.631
  O  O976  1  0.880250  0.571430  0.278760  1.0  -0.6169
  O  O977  1  0.639330  0.296010  0.534220  1.0  -0.6199
  O  O978  1  0.814120  0.418910  0.578030  1.0  -0.6348
  O  O979  1  0.231080  0.237750  0.909570  1.0  -0.6083
  O  O980  1  0.172300  0.158990  0.928210  1.0  -0.6373
  O  O981  1  0.690620  0.869510  0.739870  1.0  -0.6316
  O  O982  1  0.707330  0.928570  0.808820  1.0  -0.6159
  O  O983  1  0.238210  0.203990  0.843320  1.0  -0.6181
  O  O984  1  0.159120  0.081090  0.895210  1.0  -0.637
  O  O985  1  0.828180  0.321510  0.590430  1.0  -0.6102
  O  O986  1  0.730780  0.244090  0.571790  1.0  -0.6391
  O  O987  1  0.629640  0.950750  0.760130  1.0  -0.6291
  O  O988  1  0.619750  0.898510  0.691180  1.0  -0.6204
  O  O989  1  0.860670  0.394890  0.656680  1.0  -0.6178
  O  O990  1  0.685880  0.263910  0.604790  1.0  -0.6356
  O  O991  1  0.268920  0.178490  0.006670  1.0  -0.6113
  O  O992  1  0.327700  0.255910  0.986690  1.0  -0.6387
  O  O993  1  0.809380  0.549250  0.178890  1.0  -0.6286
  O  O994  1  0.792670  0.601490  0.221240  1.0  -0.6203
  O  O995  1  0.261790  0.105110  0.965780  1.0  -0.6176
  O  O996  1  0.340880  0.236090  0.921970  1.0  -0.6345
  O  O997  1  0.171820  0.493330  0.262250  1.0  -0.6086
  O  O998  1  0.269220  0.513310  0.341010  1.0  -0.6396
  O  O999  1  0.370360  0.321110  0.630490  1.0  -0.6263
  O  O1000  1  0.380250  0.278760  0.571430  1.0  -0.6175
  O  O1001  1  0.139330  0.534220  0.296010  1.0  -0.6166
  O  O1002  1  0.314120  0.578030  0.418910  1.0  -0.6374
  O  O1003  1  0.731080  0.909570  0.237750  1.0  -0.6109
  O  O1004  1  0.672300  0.928210  0.158990  1.0  -0.6435
  O  O1005  1  0.190620  0.739870  0.869510  1.0  -0.6311
  O  O1006  1  0.207330  0.808820  0.928570  1.0  -0.6178
  O  O1007  1  0.738210  0.843320  0.203990  1.0  -0.6185
  O  O1008  1  0.659120  0.895210  0.081090  1.0  -0.6357
  O  O1009  1  0.328180  0.590430  0.321510  1.0  -0.6083
  O  O1010  1  0.230780  0.571790  0.244090  1.0  -0.6385
  O  O1011  1  0.129640  0.760130  0.950750  1.0  -0.6296
  O  O1012  1  0.119750  0.691180  0.898510  1.0  -0.6145
  O  O1013  1  0.360670  0.656680  0.394890  1.0  -0.6177
  O  O1014  1  0.185880  0.604790  0.263910  1.0  -0.635
  O  O1015  1  0.768920  0.006670  0.178490  1.0  -0.6061
  O  O1016  1  0.827700  0.986690  0.255910  1.0  -0.6386
  O  O1017  1  0.309380  0.178890  0.549250  1.0  -0.6292
  O  O1018  1  0.292670  0.221240  0.601490  1.0  -0.6169
  O  O1019  1  0.761790  0.965780  0.105110  1.0  -0.6172
  O  O1020  1  0.840880  0.921970  0.236090  1.0  -0.6375
  O  O1021  1  0.909570  0.737750  0.231080  1.0  -0.6091
  O  O1022  1  0.928210  0.658990  0.172300  1.0  -0.6346
  O  O1023  1  0.739870  0.369510  0.690620  1.0  -0.6305
  O  O1024  1  0.808820  0.428570  0.707330  1.0  -0.6165
  O  O1025  1  0.843320  0.703990  0.238210  1.0  -0.6189
  O  O1026  1  0.895210  0.581090  0.159120  1.0  -0.6347
  O  O1027  1  0.493330  0.762250  0.671820  1.0  -0.6077
  O  O1028  1  0.513310  0.841010  0.769220  1.0  -0.6369
  O  O1029  1  0.321110  0.130490  0.870360  1.0  -0.6327
  O  O1030  1  0.278760  0.071430  0.880250  1.0  -0.6162
  O  O1031  1  0.534220  0.796010  0.639330  1.0  -0.6195
  O  O1032  1  0.578030  0.918910  0.814120  1.0  -0.6372
  O  O1033  1  0.006670  0.678490  0.268920  1.0  -0.6109
  O  O1034  1  0.986690  0.755910  0.327700  1.0  -0.639
  O  O1035  1  0.178890  0.049250  0.809380  1.0  -0.6287
  O  O1036  1  0.221240  0.101490  0.792670  1.0  -0.6207
  O  O1037  1  0.965780  0.605110  0.261790  1.0  -0.6174
  O  O1038  1  0.921970  0.736090  0.340880  1.0  -0.6359
  O  O1039  1  0.590430  0.821510  0.828180  1.0  -0.6104
  O  O1040  1  0.571790  0.744090  0.730780  1.0  -0.6385
  O  O1041  1  0.760130  0.450750  0.629640  1.0  -0.6286
  O  O1042  1  0.691180  0.398510  0.619750  1.0  -0.6202
  O  O1043  1  0.656680  0.894890  0.860670  1.0  -0.6178
  O  O1044  1  0.604790  0.763910  0.685880  1.0  -0.6343
  O  O1045  1  0.678490  0.768920  0.506670  1.0  -0.6099
  O  O1046  1  0.755910  0.827700  0.486690  1.0  -0.641
  O  O1047  1  0.049250  0.309380  0.678890  1.0  -0.6277
  O  O1048  1  0.101490  0.292670  0.721240  1.0  -0.6209
  O  O1049  1  0.605110  0.761790  0.465780  1.0  -0.6167
  O  O1050  1  0.736090  0.840880  0.421970  1.0  -0.6345
  O  O1051  1  0.821510  0.328180  0.090430  1.0  -0.6117
  O  O1052  1  0.744090  0.230780  0.071790  1.0  -0.6408
  O  O1053  1  0.450750  0.129640  0.260130  1.0  -0.6283
  O  O1054  1  0.398510  0.119750  0.191180  1.0  -0.6178
  O  O1055  1  0.894890  0.360670  0.156680  1.0  -0.6174
  O  O1056  1  0.763910  0.185880  0.104790  1.0  -0.6383
  O  O1057  1  0.737750  0.731080  0.409570  1.0  -0.608
  O  O1058  1  0.658990  0.672300  0.428210  1.0  -0.6403
  O  O1059  1  0.369510  0.190620  0.239870  1.0  -0.6301
  O  O1060  1  0.428570  0.207330  0.308820  1.0  -0.6164
  O  O1061  1  0.703990  0.738210  0.343320  1.0  -0.6155
  O  O1062  1  0.581090  0.659120  0.395210  1.0  -0.636
  O  O1063  1  0.762250  0.171820  0.993330  1.0  -0.6107
  O  O1064  1  0.841010  0.269220  0.013310  1.0  -0.6372
  O  O1065  1  0.130490  0.370360  0.821110  1.0  -0.6288
  O  O1066  1  0.071430  0.380250  0.778760  1.0  -0.6164
  O  O1067  1  0.796010  0.139330  0.034220  1.0  -0.6166
  O  O1068  1  0.918910  0.314120  0.078030  1.0  -0.6355
  O  O1069  1  0.402140  0.250000  0.652140  1.0  -1.127
  O  O1070  1  0.097860  0.750000  0.847860  1.0  -1.126
  O  O1071  1  0.152140  0.402140  0.750000  1.0  -1.1268
  O  O1072  1  0.347860  0.097860  0.250000  1.0  -1.1276
  O  O1073  1  0.750000  0.347860  0.597860  1.0  -1.1264
  O  O1074  1  0.250000  0.152140  0.902140  1.0  -1.1278
  O  O1075  1  0.250000  0.597860  0.347860  1.0  -1.1264
  O  O1076  1  0.750000  0.902140  0.152140  1.0  -1.1278
  O  O1077  1  0.902140  0.652140  0.250000  1.0  -1.1268
  O  O1078  1  0.597860  0.847860  0.750000  1.0  -1.1276
  O  O1079  1  0.652140  0.750000  0.402140  1.0  -1.1274
  O  O1080  1  0.847860  0.250000  0.097860  1.0  -1.1264
