# generated using pymatgen
data_Cu2H14C22I(NO)4
_symmetry_space_group_name_H-M   'P 1'
_cell_length_a   40.46300000
_cell_length_b   40.46300000
_cell_length_c   15.71000000
_cell_angle_alpha   90.00000000
_cell_angle_beta   90.00000000
_cell_angle_gamma   120.00000000
_symmetry_Int_Tables_number   1
_chemical_formula_structural   Cu2H14C22I(NO)4
_chemical_formula_sum   'Cu36 H252 C396 I18 N72 O72'
_cell_volume   22275.26989213
_cell_formula_units_Z   18
loop_
 _symmetry_equiv_pos_site_id
 _symmetry_equiv_pos_as_xyz
  1  'x, y, z'
loop_
 _atom_site_type_symbol
 _atom_site_label
 _atom_site_symmetry_multiplicity
 _atom_site_fract_x
 _atom_site_fract_y
 _atom_site_fract_z
 _atom_site_occupancy
 _atom_site_charge
  Cu  Cu1  1  0.514010  0.504170  0.420550  1.0  0.8694
  Cu  Cu2  1  0.187010  0.368310  0.357480  1.0  0.2792
  Cu  Cu3  1  0.180680  0.837500  0.753880  1.0  0.8694
  Cu  Cu4  1  0.853680  0.701640  0.690810  1.0  0.2792
  Cu  Cu5  1  0.847340  0.170840  0.087220  1.0  0.8695
  Cu  Cu6  1  0.520340  0.034980  0.024150  1.0  0.2798
  Cu  Cu7  1  0.495830  0.009840  0.420550  1.0  0.8692
  Cu  Cu8  1  0.631690  0.818700  0.357480  1.0  0.2796
  Cu  Cu9  1  0.162500  0.343170  0.753880  1.0  0.8692
  Cu  Cu10  1  0.298360  0.152030  0.690810  1.0  0.2796
  Cu  Cu11  1  0.829160  0.676510  0.087220  1.0  0.8692
  Cu  Cu12  1  0.965020  0.485370  0.024150  1.0  0.2794
  Cu  Cu13  1  0.990160  0.485990  0.420550  1.0  0.8696
  Cu  Cu14  1  0.181300  0.812990  0.357480  1.0  0.2791
  Cu  Cu15  1  0.656830  0.819320  0.753880  1.0  0.8696
  Cu  Cu16  1  0.847970  0.146320  0.690810  1.0  0.2791
  Cu  Cu17  1  0.323490  0.152660  0.087220  1.0  0.8698
  Cu  Cu18  1  0.514630  0.479660  0.024150  1.0  0.2789
  Cu  Cu19  1  0.485990  0.495830  0.579450  1.0  0.8696
  Cu  Cu20  1  0.812990  0.631690  0.642520  1.0  0.2785
  Cu  Cu21  1  0.152660  0.829160  0.912780  1.0  0.8697
  Cu  Cu22  1  0.479660  0.965020  0.975850  1.0  0.2791
  Cu  Cu23  1  0.819320  0.162500  0.246120  1.0  0.8696
  Cu  Cu24  1  0.146320  0.298360  0.309190  1.0  0.2785
  Cu  Cu25  1  0.504170  0.990160  0.579450  1.0  0.8697
  Cu  Cu26  1  0.368310  0.181300  0.642520  1.0  0.2792
  Cu  Cu27  1  0.170840  0.323490  0.912780  1.0  0.8697
  Cu  Cu28  1  0.034980  0.514630  0.975850  1.0  0.2788
  Cu  Cu29  1  0.837500  0.656830  0.246120  1.0  0.8697
  Cu  Cu30  1  0.701640  0.847970  0.309190  1.0  0.2792
  Cu  Cu31  1  0.009840  0.514010  0.579450  1.0  0.8697
  Cu  Cu32  1  0.818700  0.187010  0.642520  1.0  0.2802
  Cu  Cu33  1  0.676510  0.847340  0.912780  1.0  0.8699
  Cu  Cu34  1  0.485370  0.520340  0.975850  1.0  0.2801
  Cu  Cu35  1  0.343170  0.180680  0.246120  1.0  0.8697
  Cu  Cu36  1  0.152030  0.853680  0.309190  1.0  0.2802
  H  H37  1  0.476400  0.388000  0.361300  1.0  0.1064
  H  H38  1  0.447700  0.321700  0.348600  1.0  0.1055
  H  H39  1  0.388000  0.308600  0.565400  1.0  0.1105
  H  H40  1  0.416700  0.374900  0.578000  1.0  0.1065
  H  H41  1  0.382600  0.262400  0.324500  1.0  0.1006
  H  H42  1  0.352300  0.162000  0.441600  1.0  0.1102
  H  H43  1  0.407900  0.261100  0.573600  1.0  0.1008
  H  H44  1  0.421400  0.504300  0.268700  1.0  0.1025
  H  H45  1  0.361500  0.490100  0.216600  1.0  0.1036
  H  H46  1  0.318900  0.466500  0.456400  1.0  0.1077
  H  H47  1  0.378700  0.480700  0.508400  1.0  0.1008
  H  H48  1  0.308100  0.508200  0.216200  1.0  0.1082
  H  H49  1  0.195300  0.430300  0.230100  1.0  0.1087
  H  H50  1  0.271300  0.416100  0.370300  1.0  0.1031
  H  H51  1  0.143070  0.721330  0.694630  1.0  0.1064
  H  H52  1  0.114370  0.655030  0.681930  1.0  0.1055
  H  H53  1  0.054670  0.641930  0.898730  1.0  0.1105
  H  H54  1  0.083370  0.708230  0.911330  1.0  0.1065
  H  H55  1  0.049270  0.595730  0.657830  1.0  0.1006
  H  H56  1  0.018970  0.495330  0.774930  1.0  0.1102
  H  H57  1  0.074570  0.594430  0.906930  1.0  0.1008
  H  H58  1  0.088070  0.837630  0.602030  1.0  0.1025
  H  H59  1  0.028170  0.823430  0.549930  1.0  0.1036
  H  H60  1  0.985570  0.799830  0.789730  1.0  0.107
  H  H61  1  0.045370  0.814030  0.841730  1.0  0.1008
  H  H62  1  0.974770  0.841530  0.549530  1.0  0.1087
  H  H63  1  0.861970  0.763630  0.563430  1.0  0.1089
  H  H64  1  0.937970  0.749430  0.703630  1.0  0.1031
  H  H65  1  0.809730  0.054670  0.027970  1.0  0.1064
  H  H66  1  0.781030  0.988370  0.015270  1.0  0.1055
  H  H67  1  0.721330  0.975270  0.232070  1.0  0.1105
  H  H68  1  0.750030  0.041570  0.244670  1.0  0.1065
  H  H69  1  0.715930  0.929070  0.991170  1.0  0.1006
  H  H70  1  0.685630  0.828670  0.108270  1.0  0.1102
  H  H71  1  0.741230  0.927770  0.240270  1.0  0.1008
  H  H72  1  0.754730  0.170970  0.935370  1.0  0.1025
  H  H73  1  0.694830  0.156770  0.883270  1.0  0.1036
  H  H74  1  0.652230  0.133170  0.123070  1.0  0.1077
  H  H75  1  0.712030  0.147370  0.175070  1.0  0.1008
  H  H76  1  0.641430  0.174870  0.882870  1.0  0.1082
  H  H77  1  0.528630  0.096970  0.896770  1.0  0.1087
  H  H78  1  0.604630  0.082770  0.036970  1.0  0.1031
  H  H79  1  0.612000  0.088400  0.361300  1.0  0.1063
  H  H80  1  0.678300  0.126000  0.348600  1.0  0.1049
  H  H81  1  0.691400  0.079400  0.565400  1.0  0.1109
  H  H82  1  0.625100  0.041800  0.578000  1.0  0.1058
  H  H83  1  0.737600  0.120200  0.324500  1.0  0.1008
  H  H84  1  0.838000  0.190300  0.441600  1.0  0.1046
  H  H85  1  0.738900  0.146800  0.573600  1.0  0.101
  H  H86  1  0.495700  0.917100  0.268700  1.0  0.1027
  H  H87  1  0.509900  0.871400  0.216600  1.0  0.1036
  H  H88  1  0.533500  0.852400  0.456400  1.0  0.1082
  H  H89  1  0.519300  0.898000  0.508400  1.0  0.1014
  H  H90  1  0.491800  0.799900  0.216200  1.0  0.1081
  H  H91  1  0.569700  0.765000  0.230100  1.0  0.11
  H  H92  1  0.583900  0.855200  0.370300  1.0  0.1026
  H  H93  1  0.278670  0.421730  0.694630  1.0  0.1063
  H  H94  1  0.344970  0.459330  0.681930  1.0  0.1049
  H  H95  1  0.358070  0.412730  0.898730  1.0  0.1109
  H  H96  1  0.291770  0.375130  0.911330  1.0  0.1058
  H  H97  1  0.404270  0.453530  0.657830  1.0  0.1008
  H  H98  1  0.504670  0.523630  0.774930  1.0  0.1046
  H  H99  1  0.405570  0.480130  0.906930  1.0  0.101
  H  H100  1  0.162370  0.250430  0.602030  1.0  0.1027
  H  H101  1  0.176570  0.204730  0.549930  1.0  0.1035
  H  H102  1  0.200170  0.185730  0.789730  1.0  0.1082
  H  H103  1  0.185970  0.231330  0.841730  1.0  0.1014
  H  H104  1  0.158470  0.133230  0.549530  1.0  0.1081
  H  H105  1  0.236370  0.098330  0.563430  1.0  0.1098
  H  H106  1  0.250570  0.188530  0.703630  1.0  0.1026
  H  H107  1  0.945330  0.755070  0.027970  1.0  0.1063
  H  H108  1  0.011630  0.792670  0.015270  1.0  0.1049
  H  H109  1  0.024730  0.746070  0.232070  1.0  0.1109
  H  H110  1  0.958430  0.708470  0.244670  1.0  0.1058
  H  H111  1  0.070930  0.786870  0.991170  1.0  0.1008
  H  H112  1  0.171330  0.856970  0.108270  1.0  0.1046
  H  H113  1  0.072230  0.813470  0.240270  1.0  0.101
  H  H114  1  0.829030  0.583770  0.935370  1.0  0.1027
  H  H115  1  0.843230  0.538070  0.883270  1.0  0.1036
  H  H116  1  0.866830  0.519070  0.123070  1.0  0.1082
  H  H117  1  0.852630  0.564670  0.175070  1.0  0.1014
  H  H118  1  0.825130  0.466570  0.882870  1.0  0.1081
  H  H119  1  0.903030  0.431670  0.896770  1.0  0.1099
  H  H120  1  0.917230  0.521870  0.036970  1.0  0.1026
  H  H121  1  0.911600  0.523600  0.361300  1.0  0.1063
  H  H122  1  0.874000  0.552300  0.348600  1.0  0.1055
  H  H123  1  0.920600  0.612000  0.565400  1.0  0.1107
  H  H124  1  0.958200  0.583300  0.578000  1.0  0.106
  H  H125  1  0.879800  0.617400  0.324500  1.0  0.1003
  H  H126  1  0.809700  0.647700  0.441600  1.0  0.1051
  H  H127  1  0.853200  0.592100  0.573600  1.0  0.1007
  H  H128  1  0.082900  0.578600  0.268700  1.0  0.1019
  H  H129  1  0.128600  0.638500  0.216600  1.0  0.1034
  H  H130  1  0.147600  0.681100  0.456400  1.0  0.1073
  H  H131  1  0.102000  0.621300  0.508400  1.0  0.1002
  H  H132  1  0.200100  0.691900  0.216200  1.0  0.108
  H  H133  1  0.235000  0.804700  0.230100  1.0  0.1132
  H  H134  1  0.144800  0.728700  0.370300  1.0  0.1032
  H  H135  1  0.578270  0.856930  0.694630  1.0  0.1063
  H  H136  1  0.540670  0.885630  0.681930  1.0  0.1055
  H  H137  1  0.587270  0.945330  0.898730  1.0  0.1107
  H  H138  1  0.624870  0.916630  0.911330  1.0  0.106
  H  H139  1  0.546470  0.950730  0.657830  1.0  0.1003
  H  H140  1  0.476370  0.981030  0.774930  1.0  0.1051
  H  H141  1  0.519870  0.925430  0.906930  1.0  0.1007
  H  H142  1  0.749570  0.911930  0.602030  1.0  0.1019
  H  H143  1  0.795270  0.971830  0.549930  1.0  0.1034
  H  H144  1  0.814270  0.014430  0.789730  1.0  0.1068
  H  H145  1  0.768670  0.954630  0.841730  1.0  0.1002
  H  H146  1  0.866770  0.025230  0.549530  1.0  0.1086
  H  H147  1  0.901670  0.138030  0.563430  1.0  0.1134
  H  H148  1  0.811470  0.062030  0.703630  1.0  0.1032
  H  H149  1  0.244930  0.190270  0.027970  1.0  0.1062
  H  H150  1  0.207330  0.218970  0.015270  1.0  0.1055
  H  H151  1  0.253930  0.278670  0.232070  1.0  0.1107
  H  H152  1  0.291530  0.249970  0.244670  1.0  0.106
  H  H153  1  0.213130  0.284070  0.991170  1.0  0.1003
  H  H154  1  0.143030  0.314370  0.108270  1.0  0.1051
  H  H155  1  0.186530  0.258770  0.240270  1.0  0.1007
  H  H156  1  0.416230  0.245270  0.935370  1.0  0.1019
  H  H157  1  0.461930  0.305170  0.883270  1.0  0.1034
  H  H158  1  0.480930  0.347770  0.123070  1.0  0.1073
  H  H159  1  0.435330  0.287970  0.175070  1.0  0.1002
  H  H160  1  0.533430  0.358570  0.882870  1.0  0.108
  H  H161  1  0.568330  0.471370  0.896770  1.0  0.1132
  H  H162  1  0.478130  0.395370  0.036970  1.0  0.1032
  H  H163  1  0.523600  0.612000  0.638700  1.0  0.1064
  H  H164  1  0.552300  0.678300  0.651400  1.0  0.1062
  H  H165  1  0.612000  0.691400  0.434600  1.0  0.1108
  H  H166  1  0.583300  0.625100  0.422000  1.0  0.1065
  H  H167  1  0.617400  0.737600  0.675500  1.0  0.1003
  H  H168  1  0.647700  0.838000  0.558400  1.0  0.1095
  H  H169  1  0.592100  0.738900  0.426400  1.0  0.1011
  H  H170  1  0.578600  0.495700  0.731300  1.0  0.1027
  H  H171  1  0.638500  0.509900  0.783400  1.0  0.104
  H  H172  1  0.681100  0.533500  0.543600  1.0  0.1077
  H  H173  1  0.621300  0.519300  0.491600  1.0  0.1003
  H  H174  1  0.691900  0.491800  0.783800  1.0  0.1091
  H  H175  1  0.804700  0.569700  0.769900  1.0  0.1081
  H  H176  1  0.728700  0.583900  0.629700  1.0  0.1032
  H  H177  1  0.190270  0.945330  0.972030  1.0  0.1064
  H  H178  1  0.218970  0.011630  0.984730  1.0  0.1062
  H  H179  1  0.278670  0.024730  0.767930  1.0  0.1108
  H  H180  1  0.249970  0.958430  0.755330  1.0  0.1065
  H  H181  1  0.284070  0.070930  0.008830  1.0  0.1003
  H  H182  1  0.314370  0.171330  0.891730  1.0  0.1095
  H  H183  1  0.258770  0.072230  0.759730  1.0  0.1011
  H  H184  1  0.245270  0.829030  0.064630  1.0  0.1028
  H  H185  1  0.305170  0.843230  0.116730  1.0  0.104
  H  H186  1  0.347770  0.866830  0.876930  1.0  0.1077
  H  H187  1  0.287970  0.852630  0.824930  1.0  0.1003
  H  H188  1  0.358570  0.825130  0.117130  1.0  0.1091
  H  H189  1  0.471370  0.903030  0.103230  1.0  0.1081
  H  H190  1  0.395370  0.917230  0.963030  1.0  0.1032
  H  H191  1  0.856930  0.278670  0.305370  1.0  0.1064
  H  H192  1  0.885630  0.344970  0.318070  1.0  0.1062
  H  H193  1  0.945330  0.358070  0.101270  1.0  0.1108
  H  H194  1  0.916630  0.291770  0.088670  1.0  0.1065
  H  H195  1  0.950730  0.404270  0.342170  1.0  0.1003
  H  H196  1  0.981030  0.504670  0.225070  1.0  0.1095
  H  H197  1  0.925430  0.405570  0.093070  1.0  0.1011
  H  H198  1  0.911930  0.162370  0.397970  1.0  0.1027
  H  H199  1  0.971830  0.176570  0.450070  1.0  0.104
  H  H200  1  0.014430  0.200170  0.210270  1.0  0.1071
  H  H201  1  0.954630  0.185970  0.158270  1.0  0.1003
  H  H202  1  0.025230  0.158470  0.450470  1.0  0.1091
  H  H203  1  0.138030  0.236370  0.436570  1.0  0.1082
  H  H204  1  0.062030  0.250570  0.296370  1.0  0.1032
  H  H205  1  0.388000  0.911600  0.638700  1.0  0.1068
  H  H206  1  0.321700  0.874000  0.651400  1.0  0.1055
  H  H207  1  0.308600  0.920600  0.434600  1.0  0.1109
  H  H208  1  0.374900  0.958200  0.422000  1.0  0.1057
  H  H209  1  0.262400  0.879800  0.675500  1.0  0.1005
  H  H210  1  0.162000  0.809700  0.558400  1.0  0.1044
  H  H211  1  0.261100  0.853200  0.426400  1.0  0.1012
  H  H212  1  0.504300  0.082900  0.731300  1.0  0.1033
  H  H213  1  0.490100  0.128600  0.783400  1.0  0.1042
  H  H214  1  0.466500  0.147600  0.543600  1.0  0.1082
  H  H215  1  0.480700  0.102000  0.491600  1.0  0.101
  H  H216  1  0.508200  0.200100  0.783800  1.0  0.1082
  H  H217  1  0.430300  0.235000  0.769900  1.0  0.1116
  H  H218  1  0.416100  0.144800  0.629700  1.0  0.1025
  H  H219  1  0.054670  0.244930  0.972030  1.0  0.1068
  H  H220  1  0.988370  0.207330  0.984730  1.0  0.1054
  H  H221  1  0.975270  0.253930  0.767930  1.0  0.1109
  H  H222  1  0.041570  0.291530  0.755330  1.0  0.1057
  H  H223  1  0.929070  0.213130  0.008830  1.0  0.1005
  H  H224  1  0.828670  0.143030  0.891730  1.0  0.1044
  H  H225  1  0.927770  0.186530  0.759730  1.0  0.1012
  H  H226  1  0.170970  0.416230  0.064630  1.0  0.1033
  H  H227  1  0.156770  0.461930  0.116730  1.0  0.1042
  H  H228  1  0.133170  0.480930  0.876930  1.0  0.1082
  H  H229  1  0.147370  0.435330  0.824930  1.0  0.101
  H  H230  1  0.174870  0.533430  0.117130  1.0  0.1082
  H  H231  1  0.096970  0.568330  0.103230  1.0  0.1116
  H  H232  1  0.082770  0.478130  0.963030  1.0  0.1024
  H  H233  1  0.721330  0.578270  0.305370  1.0  0.1068
  H  H234  1  0.655030  0.540670  0.318070  1.0  0.1055
  H  H235  1  0.641930  0.587270  0.101270  1.0  0.1109
  H  H236  1  0.708230  0.624870  0.088670  1.0  0.1057
  H  H237  1  0.595730  0.546470  0.342170  1.0  0.1005
  H  H238  1  0.495330  0.476370  0.225070  1.0  0.1044
  H  H239  1  0.594430  0.519870  0.093070  1.0  0.1012
  H  H240  1  0.837630  0.749570  0.397970  1.0  0.1033
  H  H241  1  0.823430  0.795270  0.450070  1.0  0.1041
  H  H242  1  0.799830  0.814270  0.210270  1.0  0.1082
  H  H243  1  0.814030  0.768670  0.158270  1.0  0.101
  H  H244  1  0.841530  0.866770  0.450470  1.0  0.1082
  H  H245  1  0.763630  0.901670  0.436570  1.0  0.1115
  H  H246  1  0.749430  0.811470  0.296370  1.0  0.1025
  H  H247  1  0.088400  0.476400  0.638700  1.0  0.1067
  H  H248  1  0.126000  0.447700  0.651400  1.0  0.1062
  H  H249  1  0.079400  0.388000  0.434600  1.0  0.1102
  H  H250  1  0.041800  0.416700  0.422000  1.0  0.106
  H  H251  1  0.120200  0.382600  0.675500  1.0  0.1007
  H  H252  1  0.190300  0.352300  0.558400  1.0  0.1038
  H  H253  1  0.146800  0.407900  0.426400  1.0  0.1007
  H  H254  1  0.917100  0.421400  0.731300  1.0  0.1018
  H  H255  1  0.871400  0.361500  0.783400  1.0  0.1041
  H  H256  1  0.852400  0.318900  0.543600  1.0  0.1072
  H  H257  1  0.898000  0.378700  0.491600  1.0  0.1
  H  H258  1  0.799900  0.308100  0.783800  1.0  0.1082
  H  H259  1  0.765000  0.195300  0.769900  1.0  0.111
  H  H260  1  0.855200  0.271300  0.629700  1.0  0.103
  H  H261  1  0.755070  0.809730  0.972030  1.0  0.1067
  H  H262  1  0.792670  0.781030  0.984730  1.0  0.1062
  H  H263  1  0.746070  0.721330  0.767930  1.0  0.1102
  H  H264  1  0.708470  0.750030  0.755330  1.0  0.106
  H  H265  1  0.786870  0.715930  0.008830  1.0  0.1007
  H  H266  1  0.856970  0.685630  0.891730  1.0  0.1038
  H  H267  1  0.813470  0.741230  0.759730  1.0  0.1007
  H  H268  1  0.583770  0.754730  0.064630  1.0  0.1018
  H  H269  1  0.538070  0.694830  0.116730  1.0  0.1041
  H  H270  1  0.519070  0.652230  0.876930  1.0  0.1072
  H  H271  1  0.564670  0.712030  0.824930  1.0  0.1
  H  H272  1  0.466570  0.641430  0.117130  1.0  0.1082
  H  H273  1  0.431670  0.528630  0.103230  1.0  0.111
  H  H274  1  0.521870  0.604630  0.963030  1.0  0.103
  H  H275  1  0.421730  0.143070  0.305370  1.0  0.1067
  H  H276  1  0.459330  0.114370  0.318070  1.0  0.1062
  H  H277  1  0.412730  0.054670  0.101270  1.0  0.1102
  H  H278  1  0.375130  0.083370  0.088670  1.0  0.106
  H  H279  1  0.453530  0.049270  0.342170  1.0  0.1007
  H  H280  1  0.523630  0.018970  0.225070  1.0  0.1038
  H  H281  1  0.480130  0.074570  0.093070  1.0  0.1007
  H  H282  1  0.250430  0.088070  0.397970  1.0  0.1018
  H  H283  1  0.204730  0.028170  0.450070  1.0  0.1041
  H  H284  1  0.185730  0.985570  0.210270  1.0  0.1067
  H  H285  1  0.231330  0.045370  0.158270  1.0  0.1
  H  H286  1  0.133230  0.974770  0.450470  1.0  0.1086
  H  H287  1  0.098330  0.861970  0.436570  1.0  0.1112
  H  H288  1  0.188530  0.937970  0.296370  1.0  0.103
  C  C289  1  0.467740  0.429400  0.480100  1.0  0.645
  C  C290  1  0.449250  0.387700  0.470880  1.0  -0.1236
  C  C291  1  0.458450  0.371880  0.402750  1.0  -0.0538
  C  C292  1  0.441400  0.332480  0.395210  1.0  -0.1311
  C  C293  1  0.415140  0.308890  0.455810  1.0  0.0669
  C  C294  1  0.405940  0.324710  0.523950  1.0  -0.1722
  C  C295  1  0.422990  0.364110  0.531480  1.0  -0.0731
  C  C296  1  0.397950  0.268030  0.449480  1.0  0.0691
  C  C297  1  0.381910  0.248670  0.374020  1.0  0.1353
  C  C298  1  0.363900  0.188990  0.443580  1.0  0.2348
  C  C299  1  0.396970  0.247870  0.522000  1.0  0.1183
  C  C300  1  0.442330  0.498580  0.430400  1.0  0.6452
  C  C301  1  0.405710  0.493840  0.393410  1.0  -0.1273
  C  C302  1  0.400590  0.496640  0.306760  1.0  -0.0567
  C  C303  1  0.365030  0.488200  0.275860  1.0  -0.1387
  C  C304  1  0.334570  0.476960  0.331610  1.0  0.0332
  C  C305  1  0.339690  0.474160  0.418260  1.0  -0.1501
  C  C306  1  0.375250  0.482600  0.449160  1.0  -0.0689
  C  C307  1  0.295610  0.464110  0.297200  1.0  -0.0139
  C  C308  1  0.287830  0.485170  0.238910  1.0  0.125
  C  C309  1  0.220820  0.438910  0.247200  1.0  0.1925
  C  C310  1  0.266000  0.430450  0.330490  1.0  0.147
  C  C311  1  0.134410  0.762730  0.813430  1.0  0.645
  C  C312  1  0.115920  0.721030  0.804210  1.0  -0.1236
  C  C313  1  0.125120  0.705210  0.736080  1.0  -0.0535
  C  C314  1  0.108070  0.665810  0.728540  1.0  -0.1311
  C  C315  1  0.081810  0.642220  0.789140  1.0  0.0669
  C  C316  1  0.072610  0.658040  0.857280  1.0  -0.1722
  C  C317  1  0.089660  0.697440  0.864810  1.0  -0.0731
  C  C318  1  0.064620  0.601360  0.782810  1.0  0.07
  C  C319  1  0.048580  0.582000  0.707350  1.0  0.1353
  C  C320  1  0.030570  0.522320  0.776910  1.0  0.2348
  C  C321  1  0.063640  0.581200  0.855330  1.0  0.1183
  C  C322  1  0.109000  0.831910  0.763730  1.0  0.6452
  C  C323  1  0.072380  0.827170  0.726740  1.0  -0.1273
  C  C324  1  0.067260  0.829970  0.640090  1.0  -0.0567
  C  C325  1  0.031700  0.821530  0.609190  1.0  -0.1387
  C  C326  1  0.001240  0.810290  0.664940  1.0  0.0332
  C  C327  1  0.006360  0.807490  0.751590  1.0  -0.1501
  C  C328  1  0.041920  0.815930  0.782490  1.0  -0.0689
  C  C329  1  0.962280  0.797440  0.630530  1.0  -0.0139
  C  C330  1  0.954500  0.818500  0.572240  1.0  0.125
  C  C331  1  0.887490  0.772240  0.580530  1.0  0.1925
  C  C332  1  0.932670  0.763780  0.663820  1.0  0.147
  C  C333  1  0.801070  0.096070  0.146770  1.0  0.645
  C  C334  1  0.782580  0.054370  0.137550  1.0  -0.1236
  C  C335  1  0.791780  0.038550  0.069420  1.0  -0.0535
  C  C336  1  0.774730  0.999150  0.061880  1.0  -0.1311
  C  C337  1  0.748470  0.975560  0.122480  1.0  0.0669
  C  C338  1  0.739270  0.991380  0.190620  1.0  -0.1723
  C  C339  1  0.756320  0.030780  0.198150  1.0  -0.0732
  C  C340  1  0.731280  0.934700  0.116150  1.0  0.0692
  C  C341  1  0.715240  0.915340  0.040690  1.0  0.1352
  C  C342  1  0.697230  0.855660  0.110250  1.0  0.2348
  C  C343  1  0.730300  0.914540  0.188670  1.0  0.1183
  C  C344  1  0.775660  0.165250  0.097070  1.0  0.6452
  C  C345  1  0.739040  0.160510  0.060080  1.0  -0.1273
  C  C346  1  0.733920  0.163310  0.973430  1.0  -0.057
  C  C347  1  0.698360  0.154870  0.942530  1.0  -0.1387
  C  C348  1  0.667900  0.143630  0.998280  1.0  0.0332
  C  C349  1  0.673020  0.140830  0.084930  1.0  -0.1501
  C  C350  1  0.708580  0.149270  0.115830  1.0  -0.0689
  C  C351  1  0.628940  0.130780  0.963870  1.0  -0.0139
  C  C352  1  0.621160  0.151840  0.905580  1.0  0.125
  C  C353  1  0.554150  0.105580  0.913870  1.0  0.1925
  C  C354  1  0.599330  0.097120  0.997160  1.0  0.147
  C  C355  1  0.570600  0.038340  0.480100  1.0  0.6437
  C  C356  1  0.612300  0.061550  0.470880  1.0  -0.1248
  C  C357  1  0.628120  0.086570  0.402750  1.0  -0.0528
  C  C358  1  0.667520  0.108920  0.395210  1.0  -0.1303
  C  C359  1  0.691110  0.106250  0.455810  1.0  0.0664
  C  C360  1  0.675290  0.081230  0.523950  1.0  -0.171
  C  C361  1  0.635890  0.058880  0.531480  1.0  -0.0713
  C  C362  1  0.731970  0.129920  0.449480  1.0  0.0687
  C  C363  1  0.751330  0.133240  0.374020  1.0  0.1351
  C  C364  1  0.811010  0.174910  0.443580  1.0  0.2356
  C  C365  1  0.752130  0.149100  0.522000  1.0  0.1174
  C  C366  1  0.501420  0.943750  0.430400  1.0  0.6472
  C  C367  1  0.506160  0.911870  0.393410  1.0  -0.1254
  C  C368  1  0.503360  0.903950  0.306760  1.0  -0.058
  C  C369  1  0.511800  0.876830  0.275860  1.0  -0.1375
  C  C370  1  0.523040  0.857610  0.331610  1.0  0.0338
  C  C371  1  0.525840  0.865530  0.418260  1.0  -0.1488
  C  C372  1  0.517400  0.892650  0.449160  1.0  -0.0676
  C  C373  1  0.535890  0.831500  0.297200  1.0  -0.013
  C  C374  1  0.514830  0.802660  0.238910  1.0  0.1249
  C  C375  1  0.561090  0.781910  0.247200  1.0  0.1917
  C  C376  1  0.569550  0.835550  0.330490  1.0  0.1482
  C  C377  1  0.237270  0.371670  0.813430  1.0  0.6437
  C  C378  1  0.278970  0.394880  0.804210  1.0  -0.1248
  C  C379  1  0.294790  0.419900  0.736080  1.0  -0.0528
  C  C380  1  0.334190  0.442250  0.728540  1.0  -0.1303
  C  C381  1  0.357780  0.439580  0.789140  1.0  0.0664
  C  C382  1  0.341960  0.414560  0.857280  1.0  -0.171
  C  C383  1  0.302560  0.392210  0.864810  1.0  -0.0713
  C  C384  1  0.398640  0.463250  0.782810  1.0  0.0687
  C  C385  1  0.418000  0.466570  0.707350  1.0  0.1351
  C  C386  1  0.477680  0.508240  0.776910  1.0  0.2356
  C  C387  1  0.418800  0.482430  0.855330  1.0  0.1174
  C  C388  1  0.168090  0.277080  0.763730  1.0  0.6472
  C  C389  1  0.172830  0.245200  0.726740  1.0  -0.1255
  C  C390  1  0.170030  0.237280  0.640090  1.0  -0.0583
  C  C391  1  0.178470  0.210160  0.609190  1.0  -0.1375
  C  C392  1  0.189710  0.190940  0.664940  1.0  0.0338
  C  C393  1  0.192510  0.198860  0.751590  1.0  -0.1488
  C  C394  1  0.184070  0.225980  0.782490  1.0  -0.0676
  C  C395  1  0.202560  0.164830  0.630530  1.0  -0.013
  C  C396  1  0.181500  0.135990  0.572240  1.0  0.125
  C  C397  1  0.227760  0.115240  0.580530  1.0  0.1917
  C  C398  1  0.236220  0.168880  0.663820  1.0  0.1482
  C  C399  1  0.903930  0.705010  0.146770  1.0  0.6437
  C  C400  1  0.945630  0.728220  0.137550  1.0  -0.1248
  C  C401  1  0.961450  0.753240  0.069420  1.0  -0.0528
  C  C402  1  0.000850  0.775590  0.061880  1.0  -0.1303
  C  C403  1  0.024440  0.772920  0.122480  1.0  0.0664
  C  C404  1  0.008620  0.747900  0.190620  1.0  -0.1711
  C  C405  1  0.969220  0.725550  0.198150  1.0  -0.0713
  C  C406  1  0.065300  0.796590  0.116150  1.0  0.0687
  C  C407  1  0.084660  0.799910  0.040690  1.0  0.1351
  C  C408  1  0.144340  0.841580  0.110250  1.0  0.2356
  C  C409  1  0.085460  0.815770  0.188670  1.0  0.1174
  C  C410  1  0.834750  0.610420  0.097070  1.0  0.6472
  C  C411  1  0.839490  0.578540  0.060080  1.0  -0.1255
  C  C412  1  0.836690  0.570620  0.973430  1.0  -0.058
  C  C413  1  0.845130  0.543500  0.942530  1.0  -0.1375
  C  C414  1  0.856370  0.524280  0.998280  1.0  0.0338
  C  C415  1  0.859170  0.532200  0.084930  1.0  -0.1488
  C  C416  1  0.850730  0.559320  0.115830  1.0  -0.0676
  C  C417  1  0.869220  0.498170  0.963870  1.0  -0.013
  C  C418  1  0.848160  0.469330  0.905580  1.0  0.1249
  C  C419  1  0.894420  0.448580  0.913870  1.0  0.1917
  C  C420  1  0.902880  0.502220  0.997160  1.0  0.1482
  C  C421  1  0.961660  0.532260  0.480100  1.0  0.6457
  C  C422  1  0.938450  0.550750  0.470880  1.0  -0.1252
  C  C423  1  0.913430  0.541550  0.402750  1.0  -0.0531
  C  C424  1  0.891080  0.558600  0.395210  1.0  -0.1313
  C  C425  1  0.893750  0.584860  0.455810  1.0  0.0666
  C  C426  1  0.918770  0.594060  0.523950  1.0  -0.1718
  C  C427  1  0.941120  0.577010  0.531480  1.0  -0.0707
  C  C428  1  0.870080  0.602050  0.449480  1.0  0.0691
  C  C429  1  0.866760  0.618090  0.374020  1.0  0.1354
  C  C430  1  0.825090  0.636100  0.443580  1.0  0.2325
  C  C431  1  0.850900  0.603030  0.522000  1.0  0.119
  C  C432  1  0.056250  0.557670  0.430400  1.0  0.6464
  C  C433  1  0.088130  0.594290  0.393410  1.0  -0.1252
  C  C434  1  0.096050  0.599410  0.306760  1.0  -0.0578
  C  C435  1  0.123170  0.634970  0.275860  1.0  -0.1379
  C  C436  1  0.142390  0.665430  0.331610  1.0  0.0329
  C  C437  1  0.134470  0.660310  0.418260  1.0  -0.1484
  C  C438  1  0.107350  0.624750  0.449160  1.0  -0.0683
  C  C439  1  0.168500  0.704390  0.297200  1.0  -0.0142
  C  C440  1  0.197340  0.712170  0.238910  1.0  0.1254
  C  C441  1  0.218090  0.779180  0.247200  1.0  0.1911
  C  C442  1  0.164450  0.734000  0.330490  1.0  0.1458
  C  C443  1  0.628330  0.865590  0.813430  1.0  0.6457
  C  C444  1  0.605120  0.884080  0.804210  1.0  -0.1252
  C  C445  1  0.580100  0.874880  0.736080  1.0  -0.0531
  C  C446  1  0.557750  0.891930  0.728540  1.0  -0.1313
  C  C447  1  0.560420  0.918190  0.789140  1.0  0.0666
  C  C448  1  0.585440  0.927390  0.857280  1.0  -0.1718
  C  C449  1  0.607790  0.910340  0.864810  1.0  -0.0707
  C  C450  1  0.536750  0.935380  0.782810  1.0  0.069
  C  C451  1  0.533430  0.951420  0.707350  1.0  0.1354
  C  C452  1  0.491760  0.969430  0.776910  1.0  0.2325
  C  C453  1  0.517570  0.936360  0.855330  1.0  0.119
  C  C454  1  0.722920  0.891000  0.763730  1.0  0.6464
  C  C455  1  0.754800  0.927620  0.726740  1.0  -0.1252
  C  C456  1  0.762720  0.932740  0.640090  1.0  -0.0576
  C  C457  1  0.789840  0.968300  0.609190  1.0  -0.1379
  C  C458  1  0.809060  0.998760  0.664940  1.0  0.0329
  C  C459  1  0.801140  0.993640  0.751590  1.0  -0.1484
  C  C460  1  0.774020  0.958080  0.782490  1.0  -0.0683
  C  C461  1  0.835170  0.037720  0.630530  1.0  -0.0142
  C  C462  1  0.864010  0.045500  0.572240  1.0  0.1254
  C  C463  1  0.884760  0.112510  0.580530  1.0  0.1911
  C  C464  1  0.831120  0.067330  0.663820  1.0  0.1458
  C  C465  1  0.294990  0.198930  0.146770  1.0  0.6457
  C  C466  1  0.271780  0.217420  0.137550  1.0  -0.1252
  C  C467  1  0.246760  0.208220  0.069420  1.0  -0.0528
  C  C468  1  0.224410  0.225270  0.061880  1.0  -0.1313
  C  C469  1  0.227080  0.251530  0.122480  1.0  0.0666
  C  C470  1  0.252100  0.260730  0.190620  1.0  -0.1717
  C  C471  1  0.274450  0.243680  0.198150  1.0  -0.0707
  C  C472  1  0.203410  0.268720  0.116150  1.0  0.0691
  C  C473  1  0.200090  0.284760  0.040690  1.0  0.1355
  C  C474  1  0.158420  0.302770  0.110250  1.0  0.2324
  C  C475  1  0.184230  0.269700  0.188670  1.0  0.119
  C  C476  1  0.389580  0.224340  0.097070  1.0  0.6464
  C  C477  1  0.421460  0.260960  0.060080  1.0  -0.1252
  C  C478  1  0.429380  0.266080  0.973430  1.0  -0.0578
  C  C479  1  0.456500  0.301640  0.942530  1.0  -0.1379
  C  C480  1  0.475720  0.332100  0.998280  1.0  0.0329
  C  C481  1  0.467800  0.326980  0.084930  1.0  -0.1484
  C  C482  1  0.440680  0.291420  0.115830  1.0  -0.0683
  C  C483  1  0.501830  0.371060  0.963870  1.0  -0.0142
  C  C484  1  0.530670  0.378840  0.905580  1.0  0.1254
  C  C485  1  0.551420  0.445850  0.913870  1.0  0.1911
  C  C486  1  0.497780  0.400670  0.997160  1.0  0.1458
  C  C487  1  0.532260  0.570600  0.519900  1.0  0.6443
  C  C488  1  0.550750  0.612300  0.529120  1.0  -0.123
  C  C489  1  0.541550  0.628120  0.597250  1.0  -0.0531
  C  C490  1  0.558600  0.667520  0.604790  1.0  -0.1332
  C  C491  1  0.584860  0.691110  0.544190  1.0  0.067
  C  C492  1  0.594060  0.675290  0.476050  1.0  -0.1716
  C  C493  1  0.577010  0.635890  0.468520  1.0  -0.0741
  C  C494  1  0.602050  0.731970  0.550520  1.0  0.0689
  C  C495  1  0.618090  0.751330  0.625980  1.0  0.1356
  C  C496  1  0.636100  0.811010  0.556420  1.0  0.2341
  C  C497  1  0.603030  0.752130  0.478000  1.0  0.1154
  C  C498  1  0.557670  0.501420  0.569600  1.0  0.6448
  C  C499  1  0.594290  0.506160  0.606590  1.0  -0.1267
  C  C500  1  0.599410  0.503360  0.693240  1.0  -0.0558
  C  C501  1  0.634970  0.511800  0.724140  1.0  -0.1379
  C  C502  1  0.665430  0.523040  0.668390  1.0  0.0335
  C  C503  1  0.660310  0.525840  0.581740  1.0  -0.1507
  C  C504  1  0.624750  0.517400  0.550840  1.0  -0.0693
  C  C505  1  0.704390  0.535890  0.702800  1.0  -0.0139
  C  C506  1  0.712170  0.514830  0.761090  1.0  0.1259
  C  C507  1  0.779180  0.561090  0.752800  1.0  0.1929
  C  C508  1  0.734000  0.569550  0.669510  1.0  0.1459
  C  C509  1  0.198930  0.903930  0.853230  1.0  0.6443
  C  C510  1  0.217420  0.945630  0.862450  1.0  -0.123
  C  C511  1  0.208220  0.961450  0.930580  1.0  -0.0528
  C  C512  1  0.225270  0.000850  0.938120  1.0  -0.1332
  C  C513  1  0.251530  0.024440  0.877520  1.0  0.067
  C  C514  1  0.260730  0.008620  0.809380  1.0  -0.1717
  C  C515  1  0.243680  0.969220  0.801850  1.0  -0.0741
  C  C516  1  0.268720  0.065300  0.883850  1.0  0.0689
  C  C517  1  0.284760  0.084660  0.959310  1.0  0.1356
  C  C518  1  0.302770  0.144340  0.889750  1.0  0.2341
  C  C519  1  0.269700  0.085460  0.811330  1.0  0.1154
  C  C520  1  0.224340  0.834750  0.902930  1.0  0.6448
  C  C521  1  0.260960  0.839490  0.939920  1.0  -0.1268
  C  C522  1  0.266080  0.836690  0.026570  1.0  -0.056
  C  C523  1  0.301640  0.845130  0.057470  1.0  -0.1379
  C  C524  1  0.332100  0.856370  0.001720  1.0  0.0335
  C  C525  1  0.326980  0.859170  0.915070  1.0  -0.1507
  C  C526  1  0.291420  0.850730  0.884170  1.0  -0.0693
  C  C527  1  0.371060  0.869220  0.036130  1.0  -0.0139
  C  C528  1  0.378840  0.848160  0.094420  1.0  0.1259
  C  C529  1  0.445850  0.894420  0.086130  1.0  0.1929
  C  C530  1  0.400670  0.902880  0.002840  1.0  0.1459
  C  C531  1  0.865590  0.237270  0.186570  1.0  0.6443
  C  C532  1  0.884080  0.278970  0.195790  1.0  -0.123
  C  C533  1  0.874880  0.294790  0.263920  1.0  -0.0528
  C  C534  1  0.891930  0.334190  0.271460  1.0  -0.1332
  C  C535  1  0.918190  0.357780  0.210860  1.0  0.067
  C  C536  1  0.927390  0.341960  0.142720  1.0  -0.1716
  C  C537  1  0.910340  0.302560  0.135190  1.0  -0.0741
  C  C538  1  0.935380  0.398640  0.217190  1.0  0.0697
  C  C539  1  0.951420  0.418000  0.292650  1.0  0.1356
  C  C540  1  0.969430  0.477680  0.223090  1.0  0.2341
  C  C541  1  0.936360  0.418800  0.144670  1.0  0.1154
  C  C542  1  0.891000  0.168090  0.236270  1.0  0.6448
  C  C543  1  0.927620  0.172830  0.273260  1.0  -0.1267
  C  C544  1  0.932740  0.170030  0.359910  1.0  -0.0557
  C  C545  1  0.968300  0.178470  0.390810  1.0  -0.1379
  C  C546  1  0.998760  0.189710  0.335060  1.0  0.0335
  C  C547  1  0.993640  0.192510  0.248410  1.0  -0.1507
  C  C548  1  0.958080  0.184070  0.217510  1.0  -0.0693
  C  C549  1  0.037720  0.202560  0.369470  1.0  -0.0139
  C  C550  1  0.045500  0.181500  0.427760  1.0  0.1259
  C  C551  1  0.112510  0.227760  0.419470  1.0  0.1929
  C  C552  1  0.067330  0.236220  0.336180  1.0  0.1459
  C  C553  1  0.429400  0.961660  0.519900  1.0  0.6451
  C  C554  1  0.387700  0.938450  0.529120  1.0  -0.1249
  C  C555  1  0.371880  0.913430  0.597250  1.0  -0.0525
  C  C556  1  0.332480  0.891080  0.604790  1.0  -0.1299
  C  C557  1  0.308890  0.893750  0.544190  1.0  0.0672
  C  C558  1  0.324710  0.918770  0.476050  1.0  -0.1717
  C  C559  1  0.364110  0.941120  0.468520  1.0  -0.0723
  C  C560  1  0.268030  0.870080  0.550520  1.0  0.0688
  C  C561  1  0.248670  0.866760  0.625980  1.0  0.1373
  C  C562  1  0.188990  0.825090  0.556420  1.0  0.2353
  C  C563  1  0.247870  0.850900  0.478000  1.0  0.1171
  C  C564  1  0.498580  0.056250  0.569600  1.0  0.6471
  C  C565  1  0.493840  0.088130  0.606590  1.0  -0.125
  C  C566  1  0.496640  0.096050  0.693240  1.0  -0.0568
  C  C567  1  0.488200  0.123170  0.724140  1.0  -0.1376
  C  C568  1  0.476960  0.142390  0.668390  1.0  0.0345
  C  C569  1  0.474160  0.134470  0.581740  1.0  -0.1484
  C  C570  1  0.482600  0.107350  0.550840  1.0  -0.067
  C  C571  1  0.464110  0.168500  0.702800  1.0  -0.0127
  C  C572  1  0.485170  0.197340  0.761090  1.0  0.126
  C  C573  1  0.438910  0.218090  0.752800  1.0  0.1916
  C  C574  1  0.430450  0.164450  0.669510  1.0  0.1465
  C  C575  1  0.096070  0.294990  0.853230  1.0  0.6451
  C  C576  1  0.054370  0.271780  0.862450  1.0  -0.1249
  C  C577  1  0.038550  0.246760  0.930580  1.0  -0.0525
  C  C578  1  0.999150  0.224410  0.938120  1.0  -0.1299
  C  C579  1  0.975560  0.227080  0.877520  1.0  0.0672
  C  C580  1  0.991380  0.252100  0.809380  1.0  -0.1718
  C  C581  1  0.030780  0.274450  0.801850  1.0  -0.0724
  C  C582  1  0.934700  0.203410  0.883850  1.0  0.0688
  C  C583  1  0.915340  0.200090  0.959310  1.0  0.1373
  C  C584  1  0.855660  0.158420  0.889750  1.0  0.2353
  C  C585  1  0.914540  0.184230  0.811330  1.0  0.1171
  C  C586  1  0.165250  0.389580  0.902930  1.0  0.6471
  C  C587  1  0.160510  0.421460  0.939920  1.0  -0.125
  C  C588  1  0.163310  0.429380  0.026570  1.0  -0.0567
  C  C589  1  0.154870  0.456500  0.057470  1.0  -0.1376
  C  C590  1  0.143630  0.475720  0.001720  1.0  0.0345
  C  C591  1  0.140830  0.467800  0.915070  1.0  -0.1484
  C  C592  1  0.149270  0.440680  0.884170  1.0  -0.067
  C  C593  1  0.130780  0.501830  0.036130  1.0  -0.0127
  C  C594  1  0.151840  0.530670  0.094420  1.0  0.126
  C  C595  1  0.105580  0.551420  0.086130  1.0  0.1916
  C  C596  1  0.097120  0.497780  0.002840  1.0  0.1465
  C  C597  1  0.762730  0.628330  0.186570  1.0  0.6451
  C  C598  1  0.721030  0.605120  0.195790  1.0  -0.1249
  C  C599  1  0.705210  0.580100  0.263920  1.0  -0.0525
  C  C600  1  0.665810  0.557750  0.271460  1.0  -0.1299
  C  C601  1  0.642220  0.560420  0.210860  1.0  0.0672
  C  C602  1  0.658040  0.585440  0.142720  1.0  -0.1717
  C  C603  1  0.697440  0.607790  0.135190  1.0  -0.0723
  C  C604  1  0.601360  0.536750  0.217190  1.0  0.0688
  C  C605  1  0.582000  0.533430  0.292650  1.0  0.1373
  C  C606  1  0.522320  0.491760  0.223090  1.0  0.2353
  C  C607  1  0.581200  0.517570  0.144670  1.0  0.1171
  C  C608  1  0.831910  0.722920  0.236270  1.0  0.6471
  C  C609  1  0.827170  0.754800  0.273260  1.0  -0.1251
  C  C610  1  0.829970  0.762720  0.359910  1.0  -0.057
  C  C611  1  0.821530  0.789840  0.390810  1.0  -0.1376
  C  C612  1  0.810290  0.809060  0.335060  1.0  0.0345
  C  C613  1  0.807490  0.801140  0.248410  1.0  -0.1484
  C  C614  1  0.815930  0.774020  0.217510  1.0  -0.0669
  C  C615  1  0.797440  0.835170  0.369470  1.0  -0.0127
  C  C616  1  0.818500  0.864010  0.427760  1.0  0.1261
  C  C617  1  0.772240  0.884760  0.419470  1.0  0.1916
  C  C618  1  0.763780  0.831120  0.336180  1.0  0.1465
  C  C619  1  0.038340  0.467740  0.519900  1.0  0.6456
  C  C620  1  0.061550  0.449250  0.529120  1.0  -0.1245
  C  C621  1  0.086570  0.458450  0.597250  1.0  -0.0541
  C  C622  1  0.108920  0.441400  0.604790  1.0  -0.1318
  C  C623  1  0.106250  0.415140  0.544190  1.0  0.0669
  C  C624  1  0.081230  0.405940  0.476050  1.0  -0.1713
  C  C625  1  0.058880  0.422990  0.468520  1.0  -0.0718
  C  C626  1  0.129920  0.397950  0.550520  1.0  0.0689
  C  C627  1  0.133240  0.381910  0.625980  1.0  0.1353
  C  C628  1  0.174910  0.363900  0.556420  1.0  0.2337
  C  C629  1  0.149100  0.396970  0.478000  1.0  0.1168
  C  C630  1  0.943750  0.442330  0.569600  1.0  0.6467
  C  C631  1  0.911870  0.405710  0.606590  1.0  -0.1256
  C  C632  1  0.903950  0.400590  0.693240  1.0  -0.0569
  C  C633  1  0.876830  0.365030  0.724140  1.0  -0.138
  C  C634  1  0.857610  0.334570  0.668390  1.0  0.0326
  C  C635  1  0.865530  0.339690  0.581740  1.0  -0.1494
  C  C636  1  0.892650  0.375250  0.550840  1.0  -0.0674
  C  C637  1  0.831500  0.295610  0.702800  1.0  -0.0141
  C  C638  1  0.802660  0.287830  0.761090  1.0  0.1253
  C  C639  1  0.781910  0.220820  0.752800  1.0  0.1917
  C  C640  1  0.835550  0.266000  0.669510  1.0  0.1453
  C  C641  1  0.705010  0.801070  0.853230  1.0  0.6456
  C  C642  1  0.728220  0.782580  0.862450  1.0  -0.1245
  C  C643  1  0.753240  0.791780  0.930580  1.0  -0.0538
  C  C644  1  0.775590  0.774730  0.938120  1.0  -0.1318
  C  C645  1  0.772920  0.748470  0.877520  1.0  0.0669
  C  C646  1  0.747900  0.739270  0.809380  1.0  -0.1712
  C  C647  1  0.725550  0.756320  0.801850  1.0  -0.0718
  C  C648  1  0.796590  0.731280  0.883850  1.0  0.0689
  C  C649  1  0.799910  0.715240  0.959310  1.0  0.1354
  C  C650  1  0.841580  0.697230  0.889750  1.0  0.2337
  C  C651  1  0.815770  0.730300  0.811330  1.0  0.1168
  C  C652  1  0.610420  0.775660  0.902930  1.0  0.6467
  C  C653  1  0.578540  0.739040  0.939920  1.0  -0.1256
  C  C654  1  0.570620  0.733920  0.026570  1.0  -0.0569
  C  C655  1  0.543500  0.698360  0.057470  1.0  -0.138
  C  C656  1  0.524280  0.667900  0.001720  1.0  0.0326
  C  C657  1  0.532200  0.673020  0.915070  1.0  -0.1494
  C  C658  1  0.559320  0.708580  0.884170  1.0  -0.0674
  C  C659  1  0.498170  0.628940  0.036130  1.0  -0.0141
  C  C660  1  0.469330  0.621160  0.094420  1.0  0.1253
  C  C661  1  0.448580  0.554150  0.086130  1.0  0.1917
  C  C662  1  0.502220  0.599330  0.002840  1.0  0.1453
  C  C663  1  0.371670  0.134410  0.186570  1.0  0.6456
  C  C664  1  0.394880  0.115920  0.195790  1.0  -0.1245
  C  C665  1  0.419900  0.125120  0.263920  1.0  -0.0541
  C  C666  1  0.442250  0.108070  0.271460  1.0  -0.1318
  C  C667  1  0.439580  0.081810  0.210860  1.0  0.0669
  C  C668  1  0.414560  0.072610  0.142720  1.0  -0.1713
  C  C669  1  0.392210  0.089660  0.135190  1.0  -0.0718
  C  C670  1  0.463250  0.064620  0.217190  1.0  0.0688
  C  C671  1  0.466570  0.048580  0.292650  1.0  0.1353
  C  C672  1  0.508240  0.030570  0.223090  1.0  0.2337
  C  C673  1  0.482430  0.063640  0.144670  1.0  0.1168
  C  C674  1  0.277080  0.109000  0.236270  1.0  0.6467
  C  C675  1  0.245200  0.072380  0.273260  1.0  -0.1256
  C  C676  1  0.237280  0.067260  0.359910  1.0  -0.0566
  C  C677  1  0.210160  0.031700  0.390810  1.0  -0.138
  C  C678  1  0.190940  0.001240  0.335060  1.0  0.0326
  C  C679  1  0.198860  0.006360  0.248410  1.0  -0.1494
  C  C680  1  0.225980  0.041920  0.217510  1.0  -0.0674
  C  C681  1  0.164830  0.962280  0.369470  1.0  -0.0141
  C  C682  1  0.135990  0.954500  0.427760  1.0  0.1253
  C  C683  1  0.115240  0.887490  0.419470  1.0  0.1917
  C  C684  1  0.168880  0.932670  0.336180  1.0  0.1453
  I  I685  1  0.211580  0.321650  0.393690  1.0  -0.3698
  I  I686  1  0.878250  0.654980  0.727020  1.0  -0.3698
  I  I687  1  0.544910  0.988320  0.060360  1.0  -0.3698
  I  I688  1  0.678350  0.889930  0.393690  1.0  -0.3711
  I  I689  1  0.345020  0.223260  0.727020  1.0  -0.3711
  I  I690  1  0.011680  0.556600  0.060360  1.0  -0.3709
  I  I691  1  0.110070  0.788420  0.393690  1.0  -0.3713
  I  I692  1  0.776740  0.121750  0.727020  1.0  -0.3713
  I  I693  1  0.443400  0.455090  0.060360  1.0  -0.3715
  I  I694  1  0.788420  0.678350  0.606310  1.0  -0.3693
  I  I695  1  0.455090  0.011680  0.939640  1.0  -0.3693
  I  I696  1  0.121750  0.345020  0.272980  1.0  -0.3693
  I  I697  1  0.321650  0.110070  0.606310  1.0  -0.3707
  I  I698  1  0.988320  0.443400  0.939640  1.0  -0.3705
  I  I699  1  0.654980  0.776740  0.272980  1.0  -0.3707
  I  I700  1  0.889930  0.211580  0.606310  1.0  -0.3701
  I  I701  1  0.556600  0.544910  0.939640  1.0  -0.3702
  I  I702  1  0.223260  0.878250  0.272980  1.0  -0.3701
  N  N703  1  0.364880  0.209150  0.371070  1.0  -0.3254
  N  N704  1  0.379950  0.208360  0.519040  1.0  -0.2747
  N  N705  1  0.250430  0.472560  0.213910  1.0  -0.3198
  N  N706  1  0.228610  0.417850  0.305490  1.0  -0.3036
  N  N707  1  0.031550  0.542480  0.704400  1.0  -0.3254
  N  N708  1  0.046620  0.541690  0.852370  1.0  -0.2747
  N  N709  1  0.917100  0.805890  0.547240  1.0  -0.3198
  N  N710  1  0.895280  0.751180  0.638820  1.0  -0.3036
  N  N711  1  0.698210  0.875820  0.037740  1.0  -0.3253
  N  N712  1  0.713280  0.875030  0.185710  1.0  -0.2747
  N  N713  1  0.583760  0.139230  0.880580  1.0  -0.3198
  N  N714  1  0.561940  0.084520  0.972160  1.0  -0.3036
  N  N715  1  0.790850  0.155730  0.371070  1.0  -0.3233
  N  N716  1  0.791640  0.171590  0.519040  1.0  -0.2763
  N  N717  1  0.527440  0.777870  0.213910  1.0  -0.3177
  N  N718  1  0.582150  0.810760  0.305490  1.0  -0.3056
  N  N719  1  0.457520  0.489060  0.704400  1.0  -0.3234
  N  N720  1  0.458310  0.504920  0.852370  1.0  -0.2763
  N  N721  1  0.194110  0.111200  0.547240  1.0  -0.3176
  N  N722  1  0.248820  0.144090  0.638820  1.0  -0.3057
  N  N723  1  0.124180  0.822400  0.037740  1.0  -0.3233
  N  N724  1  0.124970  0.838260  0.185710  1.0  -0.2763
  N  N725  1  0.860770  0.444540  0.880580  1.0  -0.3177
  N  N726  1  0.915480  0.477430  0.972160  1.0  -0.3055
  N  N727  1  0.844270  0.635120  0.371070  1.0  -0.3249
  N  N728  1  0.828410  0.620050  0.519040  1.0  -0.2747
  N  N729  1  0.222130  0.749570  0.213910  1.0  -0.3182
  N  N730  1  0.189240  0.771390  0.305490  1.0  -0.3045
  N  N731  1  0.510940  0.968450  0.704400  1.0  -0.3249
  N  N732  1  0.495080  0.953380  0.852370  1.0  -0.2747
  N  N733  1  0.888800  0.082900  0.547240  1.0  -0.3182
  N  N734  1  0.855910  0.104720  0.638820  1.0  -0.3045
  N  N735  1  0.177600  0.301790  0.037740  1.0  -0.325
  N  N736  1  0.161740  0.286720  0.185710  1.0  -0.2747
  N  N737  1  0.555460  0.416240  0.880580  1.0  -0.3182
  N  N738  1  0.522570  0.438060  0.972160  1.0  -0.3047
  N  N739  1  0.635120  0.790850  0.628930  1.0  -0.3254
  N  N740  1  0.620050  0.791640  0.480960  1.0  -0.276
  N  N741  1  0.749570  0.527440  0.786090  1.0  -0.3192
  N  N742  1  0.771390  0.582150  0.694510  1.0  -0.3048
  N  N743  1  0.301790  0.124180  0.962260  1.0  -0.3253
  N  N744  1  0.286720  0.124970  0.814290  1.0  -0.276
  N  N745  1  0.416240  0.860770  0.119420  1.0  -0.3192
  N  N746  1  0.438060  0.915480  0.027840  1.0  -0.3048
  N  N747  1  0.968450  0.457520  0.295600  1.0  -0.3254
  N  N748  1  0.953380  0.458310  0.147630  1.0  -0.2759
  N  N749  1  0.082900  0.194110  0.452760  1.0  -0.3192
  N  N750  1  0.104720  0.248820  0.361180  1.0  -0.3048
  N  N751  1  0.209150  0.844270  0.628930  1.0  -0.3238
  N  N752  1  0.208360  0.828410  0.480960  1.0  -0.2765
  N  N753  1  0.472560  0.222130  0.786090  1.0  -0.3192
  N  N754  1  0.417850  0.189240  0.694510  1.0  -0.3058
  N  N755  1  0.875820  0.177600  0.962260  1.0  -0.3237
  N  N756  1  0.875030  0.161740  0.814290  1.0  -0.2765
  N  N757  1  0.139230  0.555460  0.119420  1.0  -0.3192
  N  N758  1  0.084520  0.522570  0.027840  1.0  -0.3057
  N  N759  1  0.542480  0.510940  0.295600  1.0  -0.3238
  N  N760  1  0.541690  0.495080  0.147630  1.0  -0.2765
  N  N761  1  0.805890  0.888800  0.452760  1.0  -0.3192
  N  N762  1  0.751180  0.855910  0.361180  1.0  -0.3059
  N  N763  1  0.155730  0.364880  0.628930  1.0  -0.325
  N  N764  1  0.171590  0.379950  0.480960  1.0  -0.276
  N  N765  1  0.777870  0.250430  0.786090  1.0  -0.3162
  N  N766  1  0.810760  0.228610  0.694510  1.0  -0.3023
  N  N767  1  0.822400  0.698210  0.962260  1.0  -0.3251
  N  N768  1  0.838260  0.713280  0.814290  1.0  -0.276
  N  N769  1  0.444540  0.583760  0.119420  1.0  -0.3162
  N  N770  1  0.477430  0.561940  0.027840  1.0  -0.3025
  N  N771  1  0.489060  0.031550  0.295600  1.0  -0.325
  N  N772  1  0.504920  0.046620  0.147630  1.0  -0.2759
  N  N773  1  0.111200  0.917100  0.452760  1.0  -0.3162
  N  N774  1  0.144090  0.895280  0.361180  1.0  -0.3023
  O  O775  1  0.486970  0.449040  0.415430  1.0  -0.5829
  O  O776  1  0.462900  0.442090  0.552040  1.0  -0.5851
  O  O777  1  0.467800  0.503410  0.376460  1.0  -0.5713
  O  O778  1  0.444500  0.496870  0.513040  1.0  -0.5947
  O  O779  1  0.153640  0.782370  0.748760  1.0  -0.5829
  O  O780  1  0.129570  0.775420  0.885370  1.0  -0.5851
  O  O781  1  0.134470  0.836740  0.709790  1.0  -0.5713
  O  O782  1  0.111170  0.830200  0.846370  1.0  -0.5947
  O  O783  1  0.820300  0.115710  0.082100  1.0  -0.5829
  O  O784  1  0.796230  0.108760  0.218710  1.0  -0.5851
  O  O785  1  0.801130  0.170080  0.043130  1.0  -0.5713
  O  O786  1  0.777830  0.163540  0.179710  1.0  -0.5947
  O  O787  1  0.550960  0.037930  0.415430  1.0  -0.5831
  O  O788  1  0.557910  0.020810  0.552040  1.0  -0.5866
  O  O789  1  0.496590  0.964390  0.376460  1.0  -0.5694
  O  O790  1  0.503130  0.947630  0.513040  1.0  -0.5942
  O  O791  1  0.217630  0.371260  0.748760  1.0  -0.5831
  O  O792  1  0.224580  0.354140  0.885370  1.0  -0.5866
  O  O793  1  0.163260  0.297720  0.709790  1.0  -0.5693
  O  O794  1  0.169800  0.280960  0.846370  1.0  -0.5942
  O  O795  1  0.884290  0.704600  0.082100  1.0  -0.5831
  O  O796  1  0.891240  0.687480  0.218710  1.0  -0.5866
  O  O797  1  0.829920  0.631060  0.043130  1.0  -0.5695
  O  O798  1  0.836460  0.614300  0.179710  1.0  -0.5942
  O  O799  1  0.962070  0.513030  0.415430  1.0  -0.5838
  O  O800  1  0.979190  0.537100  0.552040  1.0  -0.5878
  O  O801  1  0.035610  0.532200  0.376460  1.0  -0.5725
  O  O802  1  0.052370  0.555500  0.513040  1.0  -0.5942
  O  O803  1  0.628740  0.846360  0.748760  1.0  -0.5838
  O  O804  1  0.645860  0.870430  0.885370  1.0  -0.5877
  O  O805  1  0.702280  0.865530  0.709790  1.0  -0.5725
  O  O806  1  0.719040  0.888830  0.846370  1.0  -0.5942
  O  O807  1  0.295400  0.179700  0.082100  1.0  -0.5837
  O  O808  1  0.312520  0.203770  0.218710  1.0  -0.5878
  O  O809  1  0.368940  0.198870  0.043130  1.0  -0.5725
  O  O810  1  0.385700  0.222170  0.179710  1.0  -0.5942
  O  O811  1  0.513030  0.550960  0.584570  1.0  -0.5832
  O  O812  1  0.537100  0.557910  0.447960  1.0  -0.5856
  O  O813  1  0.532200  0.496590  0.623540  1.0  -0.5723
  O  O814  1  0.555500  0.503130  0.486960  1.0  -0.5935
  O  O815  1  0.179700  0.884290  0.917900  1.0  -0.5832
  O  O816  1  0.203770  0.891240  0.781290  1.0  -0.5856
  O  O817  1  0.198870  0.829920  0.956870  1.0  -0.5723
  O  O818  1  0.222170  0.836460  0.820290  1.0  -0.5935
  O  O819  1  0.846360  0.217630  0.251240  1.0  -0.5832
  O  O820  1  0.870430  0.224580  0.114630  1.0  -0.5856
  O  O821  1  0.865530  0.163260  0.290210  1.0  -0.5723
  O  O822  1  0.888830  0.169800  0.153630  1.0  -0.5935
  O  O823  1  0.449040  0.962070  0.584570  1.0  -0.5831
  O  O824  1  0.442090  0.979190  0.447960  1.0  -0.5856
  O  O825  1  0.503410  0.035610  0.623540  1.0  -0.5703
  O  O826  1  0.496870  0.052370  0.486960  1.0  -0.5944
  O  O827  1  0.115710  0.295400  0.917900  1.0  -0.5831
  O  O828  1  0.108760  0.312520  0.781290  1.0  -0.5856
  O  O829  1  0.170080  0.368940  0.956870  1.0  -0.5705
  O  O830  1  0.163540  0.385700  0.820290  1.0  -0.5944
  O  O831  1  0.782370  0.628740  0.251240  1.0  -0.5831
  O  O832  1  0.775420  0.645860  0.114630  1.0  -0.5856
  O  O833  1  0.836740  0.702280  0.290210  1.0  -0.5703
  O  O834  1  0.830200  0.719040  0.153630  1.0  -0.5944
  O  O835  1  0.037930  0.486970  0.584570  1.0  -0.5831
  O  O836  1  0.020810  0.462900  0.447960  1.0  -0.5874
  O  O837  1  0.964390  0.467800  0.623540  1.0  -0.5724
  O  O838  1  0.947630  0.444500  0.486960  1.0  -0.5952
  O  O839  1  0.704600  0.820300  0.917900  1.0  -0.5831
  O  O840  1  0.687480  0.796230  0.781290  1.0  -0.5874
  O  O841  1  0.631060  0.801130  0.956870  1.0  -0.5724
  O  O842  1  0.614300  0.777830  0.820290  1.0  -0.5952
  O  O843  1  0.371260  0.153640  0.251240  1.0  -0.5831
  O  O844  1  0.354140  0.129570  0.114630  1.0  -0.5873
  O  O845  1  0.297720  0.134470  0.290210  1.0  -0.5724
  O  O846  1  0.280960  0.111170  0.153630  1.0  -0.5952
