# generated using pymatgen
data_Cu2H14C22I(NO)4
_symmetry_space_group_name_H-M   'P 1'
_cell_length_a   34.01800000
_cell_length_b   34.01800000
_cell_length_c   15.30800000
_cell_angle_alpha   90.00000000
_cell_angle_beta   90.00000000
_cell_angle_gamma   90.00000000
_symmetry_Int_Tables_number   1
_chemical_formula_structural   Cu2H14C22I(NO)4
_chemical_formula_sum   'Cu32 H224 C352 I16 N64 O64'
_cell_volume   17714.78995179
_cell_formula_units_Z   16
loop_
 _symmetry_equiv_pos_site_id
 _symmetry_equiv_pos_as_xyz
  1  'x, y, z'
loop_
 _atom_site_type_symbol
 _atom_site_label
 _atom_site_symmetry_multiplicity
 _atom_site_fract_x
 _atom_site_fract_y
 _atom_site_fract_z
 _atom_site_occupancy
 _atom_site_charge
  Cu  Cu1  1  0.236160  0.238490  0.674800  1.0  0.8416
  Cu  Cu2  1  0.998550  0.034310  0.967660  1.0  0.2894
  Cu  Cu3  1  0.736160  0.738490  0.174800  1.0  0.8416
  Cu  Cu4  1  0.498550  0.534310  0.467660  1.0  0.2894
  Cu  Cu5  1  0.263840  0.761510  0.174800  1.0  0.8415
  Cu  Cu6  1  0.501450  0.965690  0.467660  1.0  0.2887
  Cu  Cu7  1  0.763840  0.261510  0.674800  1.0  0.8415
  Cu  Cu8  1  0.001450  0.465690  0.967660  1.0  0.2887
  Cu  Cu9  1  0.511510  0.486160  0.924800  1.0  0.8412
  Cu  Cu10  1  0.715690  0.248550  0.217660  1.0  0.2912
  Cu  Cu11  1  0.011510  0.986160  0.424800  1.0  0.8412
  Cu  Cu12  1  0.215690  0.748550  0.717660  1.0  0.2912
  Cu  Cu13  1  0.988490  0.513840  0.424800  1.0  0.8418
  Cu  Cu14  1  0.784310  0.751450  0.717660  1.0  0.2914
  Cu  Cu15  1  0.488490  0.013840  0.924800  1.0  0.8418
  Cu  Cu16  1  0.284310  0.251450  0.217660  1.0  0.2914
  Cu  Cu17  1  0.763840  0.761510  0.325200  1.0  0.8424
  Cu  Cu18  1  0.001450  0.965690  0.032340  1.0  0.2885
  Cu  Cu19  1  0.263840  0.261510  0.825200  1.0  0.8424
  Cu  Cu20  1  0.501450  0.465690  0.532340  1.0  0.2885
  Cu  Cu21  1  0.736160  0.238490  0.825200  1.0  0.8422
  Cu  Cu22  1  0.498550  0.034310  0.532340  1.0  0.2889
  Cu  Cu23  1  0.236160  0.738490  0.325200  1.0  0.8422
  Cu  Cu24  1  0.998550  0.534310  0.032340  1.0  0.2889
  Cu  Cu25  1  0.488490  0.513840  0.075200  1.0  0.8425
  Cu  Cu26  1  0.284310  0.751450  0.782340  1.0  0.2905
  Cu  Cu27  1  0.988490  0.013840  0.575200  1.0  0.8425
  Cu  Cu28  1  0.784310  0.251450  0.282340  1.0  0.2905
  Cu  Cu29  1  0.011510  0.486160  0.575200  1.0  0.8419
  Cu  Cu30  1  0.215690  0.248550  0.282340  1.0  0.2907
  Cu  Cu31  1  0.511510  0.986160  0.075200  1.0  0.8419
  Cu  Cu32  1  0.715690  0.748550  0.782340  1.0  0.2907
  H  H33  1  0.138500  0.171200  0.765200  1.0  0.0997
  H  H34  1  0.084000  0.142800  0.833900  1.0  0.1132
  H  H35  1  0.127600  0.174700  0.069900  1.0  0.1064
  H  H36  1  0.182100  0.203100  0.001200  1.0  0.1005
  H  H37  1  0.064400  0.089500  0.927700  1.0  0.105
  H  H38  1  0.973800  0.098100  0.098700  1.0  0.1003
  H  H39  1  0.055700  0.184500  0.086400  1.0  0.111
  H  H40  1  0.311300  0.138300  0.629100  1.0  0.1034
  H  H41  1  0.361900  0.091900  0.620700  1.0  0.1111
  H  H42  1  0.405700  0.131100  0.851000  1.0  0.1154
  H  H43  1  0.355000  0.177600  0.859400  1.0  0.1045
  H  H44  1  0.429900  0.081900  0.598900  1.0  0.1071
  H  H45  1  0.508900  0.013100  0.725000  1.0  0.0982
  H  H46  1  0.422200  0.067300  0.861100  1.0  0.1077
  H  H47  1  0.638500  0.671200  0.265200  1.0  0.0997
  H  H48  1  0.584000  0.642800  0.333900  1.0  0.1132
  H  H49  1  0.627600  0.674700  0.569900  1.0  0.1064
  H  H50  1  0.682100  0.703100  0.501200  1.0  0.1005
  H  H51  1  0.564400  0.589500  0.427700  1.0  0.105
  H  H52  1  0.473800  0.598100  0.598700  1.0  0.1003
  H  H53  1  0.555700  0.684500  0.586400  1.0  0.111
  H  H54  1  0.811300  0.638300  0.129100  1.0  0.1034
  H  H55  1  0.861900  0.591900  0.120700  1.0  0.1111
  H  H56  1  0.905700  0.631100  0.351000  1.0  0.1154
  H  H57  1  0.855000  0.677600  0.359400  1.0  0.1045
  H  H58  1  0.929900  0.581900  0.098900  1.0  0.1071
  H  H59  1  0.008900  0.513100  0.225000  1.0  0.0982
  H  H60  1  0.922200  0.567300  0.361100  1.0  0.1077
  H  H61  1  0.361500  0.828800  0.265200  1.0  0.0997
  H  H62  1  0.416000  0.857200  0.333900  1.0  0.1134
  H  H63  1  0.372400  0.825300  0.569900  1.0  0.1064
  H  H64  1  0.317900  0.796900  0.501200  1.0  0.1006
  H  H65  1  0.435600  0.910500  0.427700  1.0  0.1049
  H  H66  1  0.526200  0.901900  0.598700  1.0  0.0998
  H  H67  1  0.444300  0.815500  0.586400  1.0  0.1106
  H  H68  1  0.188700  0.861700  0.129100  1.0  0.1034
  H  H69  1  0.138100  0.908100  0.120700  1.0  0.1126
  H  H70  1  0.094300  0.868900  0.351000  1.0  0.1155
  H  H71  1  0.145000  0.822400  0.359400  1.0  0.1043
  H  H72  1  0.070100  0.918100  0.098900  1.0  0.1074
  H  H73  1  0.991100  0.986900  0.225000  1.0  0.0992
  H  H74  1  0.077800  0.932700  0.361100  1.0  0.1073
  H  H75  1  0.861500  0.328800  0.765200  1.0  0.0997
  H  H76  1  0.916000  0.357200  0.833900  1.0  0.1134
  H  H77  1  0.872400  0.325300  0.069900  1.0  0.1064
  H  H78  1  0.817900  0.296900  0.001200  1.0  0.1006
  H  H79  1  0.935600  0.410500  0.927700  1.0  0.1049
  H  H80  1  0.026200  0.401900  0.098700  1.0  0.0998
  H  H81  1  0.944300  0.315500  0.086400  1.0  0.1106
  H  H82  1  0.688700  0.361700  0.629100  1.0  0.1034
  H  H83  1  0.638100  0.408100  0.620700  1.0  0.112
  H  H84  1  0.594300  0.368900  0.851000  1.0  0.1155
  H  H85  1  0.645000  0.322400  0.859400  1.0  0.1043
  H  H86  1  0.570100  0.418100  0.598900  1.0  0.1074
  H  H87  1  0.491100  0.486900  0.725000  1.0  0.0992
  H  H88  1  0.577800  0.432700  0.861100  1.0  0.1073
  H  H89  1  0.578800  0.388500  0.015200  1.0  0.1002
  H  H90  1  0.607200  0.334000  0.083900  1.0  0.1129
  H  H91  1  0.575300  0.377600  0.319900  1.0  0.1067
  H  H92  1  0.546900  0.432100  0.251200  1.0  0.1003
  H  H93  1  0.660500  0.314400  0.177700  1.0  0.1048
  H  H94  1  0.651900  0.223800  0.348700  1.0  0.1013
  H  H95  1  0.565500  0.305700  0.336400  1.0  0.1109
  H  H96  1  0.611700  0.561300  0.879100  1.0  0.1027
  H  H97  1  0.658100  0.611900  0.870700  1.0  0.112
  H  H98  1  0.618900  0.655700  0.101000  1.0  0.1141
  H  H99  1  0.572400  0.605000  0.109400  1.0  0.1052
  H  H100  1  0.668100  0.679900  0.848900  1.0  0.107
  H  H101  1  0.736900  0.758900  0.975000  1.0  0.0993
  H  H102  1  0.682700  0.672200  0.111100  1.0  0.1068
  H  H103  1  0.078800  0.888500  0.515200  1.0  0.1002
  H  H104  1  0.107200  0.834000  0.583900  1.0  0.1129
  H  H105  1  0.075300  0.877600  0.819900  1.0  0.1067
  H  H106  1  0.046900  0.932100  0.751200  1.0  0.1003
  H  H107  1  0.160500  0.814400  0.677700  1.0  0.1048
  H  H108  1  0.151900  0.723800  0.848700  1.0  0.1013
  H  H109  1  0.065500  0.805700  0.836400  1.0  0.1109
  H  H110  1  0.111700  0.061300  0.379100  1.0  0.1027
  H  H111  1  0.158100  0.111900  0.370700  1.0  0.112
  H  H112  1  0.118900  0.155700  0.601000  1.0  0.1141
  H  H113  1  0.072400  0.105000  0.609400  1.0  0.1052
  H  H114  1  0.168100  0.179900  0.348900  1.0  0.107
  H  H115  1  0.236900  0.258900  0.475000  1.0  0.0993
  H  H116  1  0.182700  0.172200  0.611100  1.0  0.1068
  H  H117  1  0.921200  0.611500  0.515200  1.0  0.0999
  H  H118  1  0.892800  0.666000  0.583900  1.0  0.1127
  H  H119  1  0.924700  0.622400  0.819900  1.0  0.107
  H  H120  1  0.953100  0.567900  0.751200  1.0  0.1007
  H  H121  1  0.839500  0.685600  0.677700  1.0  0.1043
  H  H122  1  0.848100  0.776200  0.848700  1.0  0.1009
  H  H123  1  0.934500  0.694300  0.836400  1.0  0.1105
  H  H124  1  0.888300  0.438700  0.379100  1.0  0.1025
  H  H125  1  0.841900  0.388100  0.370700  1.0  0.1118
  H  H126  1  0.881100  0.344300  0.601000  1.0  0.1143
  H  H127  1  0.927600  0.395000  0.609400  1.0  0.1056
  H  H128  1  0.831900  0.320100  0.348900  1.0  0.107
  H  H129  1  0.763100  0.241100  0.475000  1.0  0.0995
  H  H130  1  0.817300  0.327800  0.611100  1.0  0.1066
  H  H131  1  0.421200  0.111500  0.015200  1.0  0.0999
  H  H132  1  0.392800  0.166000  0.083900  1.0  0.1127
  H  H133  1  0.424700  0.122400  0.319900  1.0  0.107
  H  H134  1  0.453100  0.067900  0.251200  1.0  0.1007
  H  H135  1  0.339500  0.185600  0.177700  1.0  0.1043
  H  H136  1  0.348100  0.276200  0.348700  1.0  0.1009
  H  H137  1  0.434500  0.194300  0.336400  1.0  0.1105
  H  H138  1  0.388300  0.938700  0.879100  1.0  0.1025
  H  H139  1  0.341900  0.888100  0.870700  1.0  0.1118
  H  H140  1  0.381100  0.844300  0.101000  1.0  0.1143
  H  H141  1  0.427600  0.895000  0.109400  1.0  0.1056
  H  H142  1  0.331900  0.820100  0.848900  1.0  0.107
  H  H143  1  0.263100  0.741100  0.975000  1.0  0.0995
  H  H144  1  0.317300  0.827800  0.111100  1.0  0.1066
  H  H145  1  0.861500  0.828800  0.234800  1.0  0.0997
  H  H146  1  0.916000  0.857200  0.166100  1.0  0.1137
  H  H147  1  0.872400  0.825300  0.930100  1.0  0.107
  H  H148  1  0.817900  0.796900  0.998800  1.0  0.0997
  H  H149  1  0.935600  0.910500  0.072300  1.0  0.1047
  H  H150  1  0.026200  0.901900  0.901300  1.0  0.0993
  H  H151  1  0.944300  0.815500  0.913600  1.0  0.1105
  H  H152  1  0.688700  0.861700  0.370900  1.0  0.1032
  H  H153  1  0.638100  0.908100  0.379300  1.0  0.1118
  H  H154  1  0.594300  0.868900  0.149000  1.0  0.1151
  H  H155  1  0.645000  0.822400  0.140600  1.0  0.1041
  H  H156  1  0.570100  0.918100  0.401100  1.0  0.1076
  H  H157  1  0.491100  0.986900  0.275000  1.0  0.0997
  H  H158  1  0.577800  0.932700  0.138900  1.0  0.1078
  H  H159  1  0.361500  0.328800  0.734800  1.0  0.0997
  H  H160  1  0.416000  0.357200  0.666100  1.0  0.1137
  H  H161  1  0.372400  0.325300  0.430100  1.0  0.107
  H  H162  1  0.317900  0.296900  0.498800  1.0  0.0997
  H  H163  1  0.435600  0.410500  0.572300  1.0  0.1047
  H  H164  1  0.526200  0.401900  0.401300  1.0  0.0993
  H  H165  1  0.444300  0.315500  0.413600  1.0  0.1105
  H  H166  1  0.188700  0.361700  0.870900  1.0  0.1032
  H  H167  1  0.138100  0.408100  0.879300  1.0  0.1118
  H  H168  1  0.094300  0.368900  0.649000  1.0  0.1151
  H  H169  1  0.145000  0.322400  0.640600  1.0  0.1041
  H  H170  1  0.070100  0.418100  0.901100  1.0  0.1076
  H  H171  1  0.991100  0.486900  0.775000  1.0  0.0997
  H  H172  1  0.077800  0.432700  0.638900  1.0  0.1078
  H  H173  1  0.638500  0.171200  0.734800  1.0  0.0999
  H  H174  1  0.584000  0.142800  0.666100  1.0  0.1139
  H  H175  1  0.627600  0.174700  0.430100  1.0  0.1068
  H  H176  1  0.682100  0.203100  0.498800  1.0  0.0998
  H  H177  1  0.564400  0.089500  0.572300  1.0  0.1047
  H  H178  1  0.473800  0.098100  0.401300  1.0  0.0997
  H  H179  1  0.555700  0.184500  0.413600  1.0  0.111
  H  H180  1  0.811300  0.138300  0.870900  1.0  0.1033
  H  H181  1  0.861900  0.091900  0.879300  1.0  0.1125
  H  H182  1  0.905700  0.131100  0.649000  1.0  0.1151
  H  H183  1  0.855000  0.177600  0.640600  1.0  0.1045
  H  H184  1  0.929900  0.081900  0.901100  1.0  0.1074
  H  H185  1  0.008900  0.013100  0.775000  1.0  0.0988
  H  H186  1  0.922200  0.067300  0.638900  1.0  0.1077
  H  H187  1  0.138500  0.671200  0.234800  1.0  0.0999
  H  H188  1  0.084000  0.642800  0.166100  1.0  0.1139
  H  H189  1  0.127600  0.674700  0.930100  1.0  0.1068
  H  H190  1  0.182100  0.703100  0.998800  1.0  0.0998
  H  H191  1  0.064400  0.589500  0.072300  1.0  0.1047
  H  H192  1  0.973800  0.598100  0.901300  1.0  0.0997
  H  H193  1  0.055700  0.684500  0.913600  1.0  0.111
  H  H194  1  0.311300  0.638300  0.370900  1.0  0.1033
  H  H195  1  0.361900  0.591900  0.379300  1.0  0.1118
  H  H196  1  0.405700  0.631100  0.149000  1.0  0.1151
  H  H197  1  0.355000  0.677600  0.140600  1.0  0.1045
  H  H198  1  0.429900  0.581900  0.401100  1.0  0.1074
  H  H199  1  0.508900  0.513100  0.275000  1.0  0.0988
  H  H200  1  0.422200  0.567300  0.138900  1.0  0.1077
  H  H201  1  0.421200  0.611500  0.984800  1.0  0.1
  H  H202  1  0.392800  0.666000  0.916100  1.0  0.113
  H  H203  1  0.424700  0.622400  0.680100  1.0  0.1075
  H  H204  1  0.453100  0.567900  0.748800  1.0  0.0996
  H  H205  1  0.339500  0.685600  0.822300  1.0  0.1044
  H  H206  1  0.348100  0.776200  0.651300  1.0  0.1005
  H  H207  1  0.434500  0.694300  0.663600  1.0  0.1106
  H  H208  1  0.388300  0.438700  0.120900  1.0  0.1021
  H  H209  1  0.341900  0.388100  0.129300  1.0  0.1122
  H  H210  1  0.381100  0.344300  0.899000  1.0  0.1142
  H  H211  1  0.427600  0.395000  0.890600  1.0  0.1055
  H  H212  1  0.331900  0.320100  0.151100  1.0  0.1071
  H  H213  1  0.263100  0.241100  0.025000  1.0  0.1
  H  H214  1  0.317300  0.327800  0.888900  1.0  0.1069
  H  H215  1  0.921200  0.111500  0.484800  1.0  0.1
  H  H216  1  0.892800  0.166000  0.416100  1.0  0.113
  H  H217  1  0.924700  0.122400  0.180100  1.0  0.1075
  H  H218  1  0.953100  0.067900  0.248800  1.0  0.0996
  H  H219  1  0.839500  0.185600  0.322300  1.0  0.1044
  H  H220  1  0.848100  0.276200  0.151300  1.0  0.1005
  H  H221  1  0.934500  0.194300  0.163600  1.0  0.1106
  H  H222  1  0.888300  0.938700  0.620900  1.0  0.1021
  H  H223  1  0.841900  0.888100  0.629300  1.0  0.1122
  H  H224  1  0.881100  0.844300  0.399000  1.0  0.1142
  H  H225  1  0.927600  0.895000  0.390600  1.0  0.1055
  H  H226  1  0.831900  0.820100  0.651100  1.0  0.1071
  H  H227  1  0.763100  0.741100  0.525000  1.0  0.1
  H  H228  1  0.817300  0.827800  0.388900  1.0  0.1069
  H  H229  1  0.078800  0.388500  0.484800  1.0  0.1004
  H  H230  1  0.107200  0.334000  0.416100  1.0  0.1135
  H  H231  1  0.075300  0.377600  0.180100  1.0  0.1072
  H  H232  1  0.046900  0.432100  0.248800  1.0  0.0996
  H  H233  1  0.160500  0.314400  0.322300  1.0  0.1042
  H  H234  1  0.151900  0.223800  0.151300  1.0  0.1007
  H  H235  1  0.065500  0.305700  0.163600  1.0  0.1106
  H  H236  1  0.111700  0.561300  0.620900  1.0  0.1022
  H  H237  1  0.158100  0.611900  0.629300  1.0  0.1122
  H  H238  1  0.118900  0.655700  0.399000  1.0  0.1142
  H  H239  1  0.072400  0.605000  0.390600  1.0  0.1052
  H  H240  1  0.168100  0.679900  0.651100  1.0  0.1075
  H  H241  1  0.236900  0.758900  0.525000  1.0  0.0997
  H  H242  1  0.182700  0.672200  0.388900  1.0  0.107
  H  H243  1  0.578800  0.888500  0.984800  1.0  0.1004
  H  H244  1  0.607200  0.834000  0.916100  1.0  0.1135
  H  H245  1  0.575300  0.877600  0.680100  1.0  0.1072
  H  H246  1  0.546900  0.932100  0.748800  1.0  0.0996
  H  H247  1  0.660500  0.814400  0.822300  1.0  0.1042
  H  H248  1  0.651900  0.723800  0.651300  1.0  0.1007
  H  H249  1  0.565500  0.805700  0.663600  1.0  0.1106
  H  H250  1  0.611700  0.061300  0.120900  1.0  0.1022
  H  H251  1  0.658100  0.111900  0.129300  1.0  0.1122
  H  H252  1  0.618900  0.155700  0.899000  1.0  0.1142
  H  H253  1  0.572400  0.105000  0.890600  1.0  0.1052
  H  H254  1  0.668100  0.179900  0.151100  1.0  0.1075
  H  H255  1  0.736900  0.258900  0.025000  1.0  0.0997
  H  H256  1  0.682700  0.172200  0.888900  1.0  0.107
  C  C257  1  0.198410  0.210880  0.830900  1.0  0.6884
  C  C258  1  0.165440  0.189800  0.876700  1.0  -0.1409
  C  C259  1  0.136300  0.171890  0.827050  1.0  -0.0829
  C  C260  1  0.103930  0.155030  0.867900  1.0  -0.1345
  C  C261  1  0.100680  0.156090  0.958300  1.0  0.0663
  C  C262  1  0.129820  0.174010  0.008010  1.0  -0.1551
  C  C263  1  0.162200  0.190860  0.967200  1.0  -0.0337
  C  C264  1  0.065450  0.139460  0.001300  1.0  0.0141
  C  C265  1  0.050950  0.103540  0.972300  1.0  0.1436
  C  C266  1  0.997170  0.108670  0.073900  1.0  0.1873
  C  C267  1  0.045800  0.159970  0.066600  1.0  0.1538
  C  C268  1  0.297750  0.193740  0.748000  1.0  0.6895
  C  C269  1  0.328400  0.162300  0.745100  1.0  -0.1346
  C  C270  1  0.330430  0.136850  0.674200  1.0  -0.0465
  C  C271  1  0.360500  0.109270  0.669100  1.0  -0.152
  C  C272  1  0.388530  0.107140  0.735000  1.0  0.0592
  C  C273  1  0.386500  0.132590  0.805900  1.0  -0.1596
  C  C274  1  0.356430  0.160160  0.810900  1.0  -0.0515
  C  C275  1  0.420830  0.078440  0.730300  1.0  0.0169
  C  C276  1  0.439530  0.070620  0.651430  1.0  0.1358
  C  C277  1  0.486430  0.029740  0.726400  1.0  0.2257
  C  C278  1  0.434940  0.061910  0.807180  1.0  0.1291
  C  C279  1  0.698410  0.710880  0.330900  1.0  0.6884
  C  C280  1  0.665440  0.689800  0.376700  1.0  -0.1409
  C  C281  1  0.636300  0.671890  0.327050  1.0  -0.0829
  C  C282  1  0.603930  0.655030  0.367900  1.0  -0.1345
  C  C283  1  0.600680  0.656090  0.458300  1.0  0.0663
  C  C284  1  0.629820  0.674010  0.508010  1.0  -0.1551
  C  C285  1  0.662200  0.690860  0.467200  1.0  -0.0337
  C  C286  1  0.565450  0.639460  0.501300  1.0  0.0141
  C  C287  1  0.550950  0.603540  0.472300  1.0  0.1436
  C  C288  1  0.497170  0.608670  0.573900  1.0  0.1873
  C  C289  1  0.545800  0.659970  0.566600  1.0  0.1538
  C  C290  1  0.797750  0.693740  0.248000  1.0  0.6895
  C  C291  1  0.828400  0.662300  0.245100  1.0  -0.1346
  C  C292  1  0.830430  0.636850  0.174200  1.0  -0.0465
  C  C293  1  0.860500  0.609270  0.169100  1.0  -0.152
  C  C294  1  0.888530  0.607140  0.235000  1.0  0.0592
  C  C295  1  0.886500  0.632590  0.305900  1.0  -0.1596
  C  C296  1  0.856430  0.660160  0.310900  1.0  -0.0515
  C  C297  1  0.920830  0.578440  0.230300  1.0  0.0169
  C  C298  1  0.939530  0.570620  0.151430  1.0  0.1358
  C  C299  1  0.986430  0.529740  0.226400  1.0  0.2257
  C  C300  1  0.934940  0.561910  0.307180  1.0  0.1291
  C  C301  1  0.301590  0.789120  0.330900  1.0  0.6879
  C  C302  1  0.334560  0.810200  0.376700  1.0  -0.1406
  C  C303  1  0.363700  0.828110  0.327050  1.0  -0.084
  C  C304  1  0.396070  0.844970  0.367900  1.0  -0.1347
  C  C305  1  0.399320  0.843910  0.458300  1.0  0.0672
  C  C306  1  0.370180  0.825990  0.508010  1.0  -0.1547
  C  C307  1  0.337800  0.809140  0.467200  1.0  -0.0328
  C  C308  1  0.434550  0.860540  0.501300  1.0  0.0138
  C  C309  1  0.449050  0.896460  0.472300  1.0  0.1443
  C  C310  1  0.502830  0.891330  0.573900  1.0  0.1874
  C  C311  1  0.454200  0.840030  0.566600  1.0  0.1549
  C  C312  1  0.202250  0.806260  0.248000  1.0  0.6895
  C  C313  1  0.171600  0.837700  0.245100  1.0  -0.1344
  C  C314  1  0.169570  0.863150  0.174200  1.0  -0.0474
  C  C315  1  0.139500  0.890730  0.169100  1.0  -0.1526
  C  C316  1  0.111470  0.892860  0.235000  1.0  0.0603
  C  C317  1  0.113500  0.867410  0.305900  1.0  -0.1596
  C  C318  1  0.143570  0.839840  0.310900  1.0  -0.0525
  C  C319  1  0.079170  0.921560  0.230300  1.0  0.0171
  C  C320  1  0.060470  0.929380  0.151430  1.0  0.136
  C  C321  1  0.013570  0.970260  0.226400  1.0  0.224
  C  C322  1  0.065060  0.938090  0.307180  1.0  0.1286
  C  C323  1  0.801590  0.289120  0.830900  1.0  0.6879
  C  C324  1  0.834560  0.310200  0.876700  1.0  -0.1406
  C  C325  1  0.863700  0.328110  0.827050  1.0  -0.084
  C  C326  1  0.896070  0.344970  0.867900  1.0  -0.1347
  C  C327  1  0.899320  0.343910  0.958300  1.0  0.0672
  C  C328  1  0.870180  0.325990  0.008010  1.0  -0.1547
  C  C329  1  0.837800  0.309140  0.967200  1.0  -0.0328
  C  C330  1  0.934550  0.360540  0.001300  1.0  0.0138
  C  C331  1  0.949050  0.396460  0.972300  1.0  0.1443
  C  C332  1  0.002830  0.391330  0.073900  1.0  0.1874
  C  C333  1  0.954200  0.340030  0.066600  1.0  0.1549
  C  C334  1  0.702250  0.306260  0.748000  1.0  0.6895
  C  C335  1  0.671600  0.337700  0.745100  1.0  -0.1344
  C  C336  1  0.669570  0.363150  0.674200  1.0  -0.0474
  C  C337  1  0.639500  0.390730  0.669100  1.0  -0.1526
  C  C338  1  0.611470  0.392860  0.735000  1.0  0.0603
  C  C339  1  0.613500  0.367410  0.805900  1.0  -0.1596
  C  C340  1  0.643570  0.339840  0.810900  1.0  -0.0525
  C  C341  1  0.579170  0.421560  0.730300  1.0  0.0171
  C  C342  1  0.560470  0.429380  0.651430  1.0  0.136
  C  C343  1  0.513570  0.470260  0.726400  1.0  0.224
  C  C344  1  0.565060  0.438090  0.807180  1.0  0.1286
  C  C345  1  0.539120  0.448410  0.080900  1.0  0.6882
  C  C346  1  0.560200  0.415440  0.126700  1.0  -0.1415
  C  C347  1  0.578110  0.386300  0.077050  1.0  -0.0841
  C  C348  1  0.594970  0.353930  0.117900  1.0  -0.1334
  C  C349  1  0.593910  0.350680  0.208300  1.0  0.0657
  C  C350  1  0.575990  0.379820  0.258010  1.0  -0.1549
  C  C351  1  0.559140  0.412200  0.217200  1.0  -0.0331
  C  C352  1  0.610540  0.315450  0.251300  1.0  0.0144
  C  C353  1  0.646460  0.300950  0.222300  1.0  0.1432
  C  C354  1  0.641330  0.247170  0.323900  1.0  0.1884
  C  C355  1  0.590030  0.295800  0.316600  1.0  0.1539
  C  C356  1  0.556260  0.547750  0.998000  1.0  0.6915
  C  C357  1  0.587700  0.578400  0.995100  1.0  -0.1341
  C  C358  1  0.613150  0.580430  0.924200  1.0  -0.0486
  C  C359  1  0.640730  0.610500  0.919100  1.0  -0.1539
  C  C360  1  0.642860  0.638530  0.985000  1.0  0.0626
  C  C361  1  0.617410  0.636500  0.055900  1.0  -0.1609
  C  C362  1  0.589840  0.606430  0.060900  1.0  -0.0525
  C  C363  1  0.671560  0.670830  0.980300  1.0  0.0191
  C  C364  1  0.679380  0.689530  0.901430  1.0  0.1381
  C  C365  1  0.720260  0.736430  0.976400  1.0  0.2246
  C  C366  1  0.688090  0.684940  0.057180  1.0  0.1291
  C  C367  1  0.039120  0.948410  0.580900  1.0  0.6882
  C  C368  1  0.060200  0.915440  0.626700  1.0  -0.1415
  C  C369  1  0.078110  0.886300  0.577050  1.0  -0.0841
  C  C370  1  0.094970  0.853930  0.617900  1.0  -0.1334
  C  C371  1  0.093910  0.850680  0.708300  1.0  0.0657
  C  C372  1  0.075990  0.879820  0.758010  1.0  -0.1549
  C  C373  1  0.059140  0.912200  0.717200  1.0  -0.0331
  C  C374  1  0.110540  0.815450  0.751300  1.0  0.0144
  C  C375  1  0.146460  0.800950  0.722300  1.0  0.1432
  C  C376  1  0.141330  0.747170  0.823900  1.0  0.1884
  C  C377  1  0.090030  0.795800  0.816600  1.0  0.1539
  C  C378  1  0.056260  0.047750  0.498000  1.0  0.6915
  C  C379  1  0.087700  0.078400  0.495100  1.0  -0.1341
  C  C380  1  0.113150  0.080430  0.424200  1.0  -0.0486
  C  C381  1  0.140730  0.110500  0.419100  1.0  -0.1539
  C  C382  1  0.142860  0.138530  0.485000  1.0  0.0626
  C  C383  1  0.117410  0.136500  0.555900  1.0  -0.1609
  C  C384  1  0.089840  0.106430  0.560900  1.0  -0.0525
  C  C385  1  0.171560  0.170830  0.480300  1.0  0.0191
  C  C386  1  0.179380  0.189530  0.401430  1.0  0.1381
  C  C387  1  0.220260  0.236430  0.476400  1.0  0.2246
  C  C388  1  0.188090  0.184940  0.557180  1.0  0.1291
  C  C389  1  0.960880  0.551590  0.580900  1.0  0.6892
  C  C390  1  0.939800  0.584560  0.626700  1.0  -0.1419
  C  C391  1  0.921890  0.613700  0.577050  1.0  -0.0835
  C  C392  1  0.905030  0.646070  0.617900  1.0  -0.1332
  C  C393  1  0.906090  0.649320  0.708300  1.0  0.0652
  C  C394  1  0.924010  0.620180  0.758010  1.0  -0.1539
  C  C395  1  0.940860  0.587800  0.717200  1.0  -0.0323
  C  C396  1  0.889460  0.684550  0.751300  1.0  0.0142
  C  C397  1  0.853540  0.699050  0.722300  1.0  0.1444
  C  C398  1  0.858670  0.752830  0.823900  1.0  0.1873
  C  C399  1  0.909970  0.704200  0.816600  1.0  0.1542
  C  C400  1  0.943740  0.452250  0.498000  1.0  0.6914
  C  C401  1  0.912300  0.421600  0.495100  1.0  -0.1345
  C  C402  1  0.886850  0.419570  0.424200  1.0  -0.0488
  C  C403  1  0.859270  0.389500  0.419100  1.0  -0.1537
  C  C404  1  0.857140  0.361470  0.485000  1.0  0.0626
  C  C405  1  0.882590  0.363500  0.555900  1.0  -0.1613
  C  C406  1  0.910160  0.393570  0.560900  1.0  -0.0525
  C  C407  1  0.828440  0.329170  0.480300  1.0  0.0188
  C  C408  1  0.820620  0.310470  0.401430  1.0  0.1371
  C  C409  1  0.779740  0.263570  0.476400  1.0  0.2249
  C  C410  1  0.811910  0.315060  0.557180  1.0  0.1295
  C  C411  1  0.460880  0.051590  0.080900  1.0  0.6892
  C  C412  1  0.439800  0.084560  0.126700  1.0  -0.1419
  C  C413  1  0.421890  0.113700  0.077050  1.0  -0.0835
  C  C414  1  0.405030  0.146070  0.117900  1.0  -0.1332
  C  C415  1  0.406090  0.149320  0.208300  1.0  0.0652
  C  C416  1  0.424010  0.120180  0.258010  1.0  -0.1539
  C  C417  1  0.440860  0.087800  0.217200  1.0  -0.0323
  C  C418  1  0.389460  0.184550  0.251300  1.0  0.0142
  C  C419  1  0.353540  0.199050  0.222300  1.0  0.1444
  C  C420  1  0.358670  0.252830  0.323900  1.0  0.1873
  C  C421  1  0.409970  0.204200  0.316600  1.0  0.1542
  C  C422  1  0.443740  0.952250  0.998000  1.0  0.6914
  C  C423  1  0.412300  0.921600  0.995100  1.0  -0.1345
  C  C424  1  0.386850  0.919570  0.924200  1.0  -0.0488
  C  C425  1  0.359270  0.889500  0.919100  1.0  -0.1537
  C  C426  1  0.357140  0.861470  0.985000  1.0  0.0626
  C  C427  1  0.382590  0.863500  0.055900  1.0  -0.1613
  C  C428  1  0.410160  0.893570  0.060900  1.0  -0.0525
  C  C429  1  0.328440  0.829170  0.980300  1.0  0.0188
  C  C430  1  0.320620  0.810470  0.901430  1.0  0.1371
  C  C431  1  0.279740  0.763570  0.976400  1.0  0.2249
  C  C432  1  0.311910  0.815060  0.057180  1.0  0.1295
  C  C433  1  0.801590  0.789120  0.169100  1.0  0.6884
  C  C434  1  0.834560  0.810200  0.123300  1.0  -0.1407
  C  C435  1  0.863700  0.828110  0.172950  1.0  -0.0844
  C  C436  1  0.896070  0.844970  0.132100  1.0  -0.1336
  C  C437  1  0.899320  0.843910  0.041700  1.0  0.0673
  C  C438  1  0.870180  0.825990  0.991990  1.0  -0.155
  C  C439  1  0.837800  0.809140  0.032800  1.0  -0.0314
  C  C440  1  0.934550  0.860540  0.998700  1.0  0.0138
  C  C441  1  0.949050  0.896460  0.027700  1.0  0.144
  C  C442  1  0.002830  0.891330  0.926100  1.0  0.1858
  C  C443  1  0.954200  0.840030  0.933400  1.0  0.1536
  C  C444  1  0.702250  0.806260  0.252000  1.0  0.6897
  C  C445  1  0.671600  0.837700  0.254900  1.0  -0.1344
  C  C446  1  0.669570  0.863150  0.325800  1.0  -0.0461
  C  C447  1  0.639500  0.890730  0.330900  1.0  -0.1511
  C  C448  1  0.611470  0.892860  0.265000  1.0  0.0602
  C  C449  1  0.613500  0.867410  0.194100  1.0  -0.159
  C  C450  1  0.643570  0.839840  0.189100  1.0  -0.0527
  C  C451  1  0.579170  0.921560  0.269700  1.0  0.0173
  C  C452  1  0.560470  0.929380  0.348570  1.0  0.1368
  C  C453  1  0.513570  0.970260  0.273600  1.0  0.2238
  C  C454  1  0.565060  0.938090  0.192820  1.0  0.1281
  C  C455  1  0.301590  0.289120  0.669100  1.0  0.6884
  C  C456  1  0.334560  0.310200  0.623300  1.0  -0.1407
  C  C457  1  0.363700  0.328110  0.672950  1.0  -0.0844
  C  C458  1  0.396070  0.344970  0.632100  1.0  -0.1336
  C  C459  1  0.399320  0.343910  0.541700  1.0  0.0673
  C  C460  1  0.370180  0.325990  0.491990  1.0  -0.155
  C  C461  1  0.337800  0.309140  0.532800  1.0  -0.0314
  C  C462  1  0.434550  0.360540  0.498700  1.0  0.0138
  C  C463  1  0.449050  0.396460  0.527700  1.0  0.144
  C  C464  1  0.502830  0.391330  0.426100  1.0  0.1858
  C  C465  1  0.454200  0.340030  0.433400  1.0  0.1536
  C  C466  1  0.202250  0.306260  0.752000  1.0  0.6897
  C  C467  1  0.171600  0.337700  0.754900  1.0  -0.1344
  C  C468  1  0.169570  0.363150  0.825800  1.0  -0.0461
  C  C469  1  0.139500  0.390730  0.830900  1.0  -0.1511
  C  C470  1  0.111470  0.392860  0.765000  1.0  0.0602
  C  C471  1  0.113500  0.367410  0.694100  1.0  -0.159
  C  C472  1  0.143570  0.339840  0.689100  1.0  -0.0527
  C  C473  1  0.079170  0.421560  0.769700  1.0  0.0173
  C  C474  1  0.060470  0.429380  0.848570  1.0  0.1368
  C  C475  1  0.013570  0.470260  0.773600  1.0  0.2238
  C  C476  1  0.065060  0.438090  0.692820  1.0  0.1281
  C  C477  1  0.698410  0.210880  0.669100  1.0  0.6887
  C  C478  1  0.665440  0.189800  0.623300  1.0  -0.1413
  C  C479  1  0.636300  0.171890  0.672950  1.0  -0.0832
  C  C480  1  0.603930  0.155030  0.632100  1.0  -0.1348
  C  C481  1  0.600680  0.156090  0.541700  1.0  0.0663
  C  C482  1  0.629820  0.174010  0.491990  1.0  -0.1555
  C  C483  1  0.662200  0.190860  0.532800  1.0  -0.0326
  C  C484  1  0.565450  0.139460  0.498700  1.0  0.0141
  C  C485  1  0.550950  0.103540  0.527700  1.0  0.1441
  C  C486  1  0.497170  0.108670  0.426100  1.0  0.1859
  C  C487  1  0.545800  0.159970  0.433400  1.0  0.1534
  C  C488  1  0.797750  0.193740  0.752000  1.0  0.6896
  C  C489  1  0.828400  0.162300  0.754900  1.0  -0.1345
  C  C490  1  0.830430  0.136850  0.825800  1.0  -0.047
  C  C491  1  0.860500  0.109270  0.830900  1.0  -0.1514
  C  C492  1  0.888530  0.107140  0.765000  1.0  0.0592
  C  C493  1  0.886500  0.132590  0.694100  1.0  -0.1586
  C  C494  1  0.856430  0.160160  0.689100  1.0  -0.0522
  C  C495  1  0.920830  0.078440  0.769700  1.0  0.0171
  C  C496  1  0.939530  0.070620  0.848570  1.0  0.1358
  C  C497  1  0.986430  0.029740  0.773600  1.0  0.2257
  C  C498  1  0.934940  0.061910  0.692820  1.0  0.1285
  C  C499  1  0.198410  0.710880  0.169100  1.0  0.6887
  C  C500  1  0.165440  0.689800  0.123300  1.0  -0.1413
  C  C501  1  0.136300  0.671890  0.172950  1.0  -0.0832
  C  C502  1  0.103930  0.655030  0.132100  1.0  -0.1348
  C  C503  1  0.100680  0.656090  0.041700  1.0  0.0663
  C  C504  1  0.129820  0.674010  0.991990  1.0  -0.1555
  C  C505  1  0.162200  0.690860  0.032800  1.0  -0.0326
  C  C506  1  0.065450  0.639460  0.998700  1.0  0.0141
  C  C507  1  0.050950  0.603540  0.027700  1.0  0.1441
  C  C508  1  0.997170  0.608670  0.926100  1.0  0.1859
  C  C509  1  0.045800  0.659970  0.933400  1.0  0.1534
  C  C510  1  0.297750  0.693740  0.252000  1.0  0.6896
  C  C511  1  0.328400  0.662300  0.254900  1.0  -0.1345
  C  C512  1  0.330430  0.636850  0.325800  1.0  -0.047
  C  C513  1  0.360500  0.609270  0.330900  1.0  -0.1514
  C  C514  1  0.388530  0.607140  0.265000  1.0  0.0592
  C  C515  1  0.386500  0.632590  0.194100  1.0  -0.1586
  C  C516  1  0.356430  0.660160  0.189100  1.0  -0.0522
  C  C517  1  0.420830  0.578440  0.269700  1.0  0.0171
  C  C518  1  0.439530  0.570620  0.348570  1.0  0.1358
  C  C519  1  0.486430  0.529740  0.273600  1.0  0.2257
  C  C520  1  0.434940  0.561910  0.192820  1.0  0.1285
  C  C521  1  0.460880  0.551590  0.919100  1.0  0.6895
  C  C522  1  0.439800  0.584560  0.873300  1.0  -0.1418
  C  C523  1  0.421890  0.613700  0.922950  1.0  -0.0839
  C  C524  1  0.405030  0.646070  0.882100  1.0  -0.1334
  C  C525  1  0.406090  0.649320  0.791700  1.0  0.0652
  C  C526  1  0.424010  0.620180  0.741990  1.0  -0.1543
  C  C527  1  0.440860  0.587800  0.782800  1.0  -0.0318
  C  C528  1  0.389460  0.684550  0.748700  1.0  0.0141
  C  C529  1  0.353540  0.699050  0.777700  1.0  0.1448
  C  C530  1  0.358670  0.752830  0.676100  1.0  0.1859
  C  C531  1  0.409970  0.704200  0.683400  1.0  0.1532
  C  C532  1  0.443740  0.452250  0.002000  1.0  0.6914
  C  C533  1  0.412300  0.421600  0.004900  1.0  -0.1346
  C  C534  1  0.386850  0.419570  0.075800  1.0  -0.0479
  C  C535  1  0.359270  0.389500  0.080900  1.0  -0.1535
  C  C536  1  0.357140  0.361470  0.015000  1.0  0.0624
  C  C537  1  0.382590  0.363500  0.944100  1.0  -0.1605
  C  C538  1  0.410160  0.393570  0.939100  1.0  -0.0536
  C  C539  1  0.328440  0.329170  0.019700  1.0  0.0191
  C  C540  1  0.320620  0.310470  0.098570  1.0  0.1379
  C  C541  1  0.279740  0.263570  0.023600  1.0  0.2249
  C  C542  1  0.311910  0.315060  0.942820  1.0  0.1291
  C  C543  1  0.960880  0.051590  0.419100  1.0  0.6895
  C  C544  1  0.939800  0.084560  0.373300  1.0  -0.1418
  C  C545  1  0.921890  0.113700  0.422950  1.0  -0.0839
  C  C546  1  0.905030  0.146070  0.382100  1.0  -0.1334
  C  C547  1  0.906090  0.149320  0.291700  1.0  0.0652
  C  C548  1  0.924010  0.120180  0.241990  1.0  -0.1543
  C  C549  1  0.940860  0.087800  0.282800  1.0  -0.0318
  C  C550  1  0.889460  0.184550  0.248700  1.0  0.0141
  C  C551  1  0.853540  0.199050  0.277700  1.0  0.1448
  C  C552  1  0.858670  0.252830  0.176100  1.0  0.1859
  C  C553  1  0.909970  0.204200  0.183400  1.0  0.1532
  C  C554  1  0.943740  0.952250  0.502000  1.0  0.6914
  C  C555  1  0.912300  0.921600  0.504900  1.0  -0.1346
  C  C556  1  0.886850  0.919570  0.575800  1.0  -0.0479
  C  C557  1  0.859270  0.889500  0.580900  1.0  -0.1535
  C  C558  1  0.857140  0.861470  0.515000  1.0  0.0624
  C  C559  1  0.882590  0.863500  0.444100  1.0  -0.1605
  C  C560  1  0.910160  0.893570  0.439100  1.0  -0.0536
  C  C561  1  0.828440  0.829170  0.519700  1.0  0.0191
  C  C562  1  0.820620  0.810470  0.598570  1.0  0.1379
  C  C563  1  0.779740  0.763570  0.523600  1.0  0.2249
  C  C564  1  0.811910  0.815060  0.442820  1.0  0.1291
  C  C565  1  0.039120  0.448410  0.419100  1.0  0.6885
  C  C566  1  0.060200  0.415440  0.373300  1.0  -0.1416
  C  C567  1  0.078110  0.386300  0.422950  1.0  -0.0839
  C  C568  1  0.094970  0.353930  0.382100  1.0  -0.1321
  C  C569  1  0.093910  0.350680  0.291700  1.0  0.0658
  C  C570  1  0.075990  0.379820  0.241990  1.0  -0.155
  C  C571  1  0.059140  0.412200  0.282800  1.0  -0.0318
  C  C572  1  0.110540  0.315450  0.248700  1.0  0.0144
  C  C573  1  0.146460  0.300950  0.277700  1.0  0.1431
  C  C574  1  0.141330  0.247170  0.176100  1.0  0.187
  C  C575  1  0.090030  0.295800  0.183400  1.0  0.1528
  C  C576  1  0.056260  0.547750  0.502000  1.0  0.6915
  C  C577  1  0.087700  0.578400  0.504900  1.0  -0.1341
  C  C578  1  0.113150  0.580430  0.575800  1.0  -0.0476
  C  C579  1  0.140730  0.610500  0.580900  1.0  -0.1518
  C  C580  1  0.142860  0.638530  0.515000  1.0  0.0623
  C  C581  1  0.117410  0.636500  0.444100  1.0  -0.1598
  C  C582  1  0.089840  0.606430  0.439100  1.0  -0.053
  C  C583  1  0.171560  0.670830  0.519700  1.0  0.0194
  C  C584  1  0.179380  0.689530  0.598570  1.0  0.1384
  C  C585  1  0.220260  0.736430  0.523600  1.0  0.2245
  C  C586  1  0.188090  0.684940  0.442820  1.0  0.1283
  C  C587  1  0.539120  0.948410  0.919100  1.0  0.6885
  C  C588  1  0.560200  0.915440  0.873300  1.0  -0.1416
  C  C589  1  0.578110  0.886300  0.922950  1.0  -0.0839
  C  C590  1  0.594970  0.853930  0.882100  1.0  -0.1321
  C  C591  1  0.593910  0.850680  0.791700  1.0  0.0658
  C  C592  1  0.575990  0.879820  0.741990  1.0  -0.155
  C  C593  1  0.559140  0.912200  0.782800  1.0  -0.0318
  C  C594  1  0.610540  0.815450  0.748700  1.0  0.0144
  C  C595  1  0.646460  0.800950  0.777700  1.0  0.1431
  C  C596  1  0.641330  0.747170  0.676100  1.0  0.187
  C  C597  1  0.590030  0.795800  0.683400  1.0  0.1528
  C  C598  1  0.556260  0.047750  0.002000  1.0  0.6915
  C  C599  1  0.587700  0.078400  0.004900  1.0  -0.1341
  C  C600  1  0.613150  0.080430  0.075800  1.0  -0.0476
  C  C601  1  0.640730  0.110500  0.080900  1.0  -0.1518
  C  C602  1  0.642860  0.138530  0.015000  1.0  0.0623
  C  C603  1  0.617410  0.136500  0.944100  1.0  -0.1598
  C  C604  1  0.589840  0.106430  0.939100  1.0  -0.053
  C  C605  1  0.671560  0.170830  0.019700  1.0  0.0194
  C  C606  1  0.679380  0.189530  0.098570  1.0  0.1384
  C  C607  1  0.720260  0.236430  0.023600  1.0  0.2245
  C  C608  1  0.688090  0.184940  0.942820  1.0  0.1283
  I  I609  1  0.060200  0.989760  0.934680  1.0  -0.3775
  I  I610  1  0.560200  0.489760  0.434680  1.0  -0.3775
  I  I611  1  0.439800  0.010240  0.434680  1.0  -0.3777
  I  I612  1  0.939800  0.510240  0.934680  1.0  -0.3777
  I  I613  1  0.760240  0.310200  0.184680  1.0  -0.3812
  I  I614  1  0.260240  0.810200  0.684680  1.0  -0.3812
  I  I615  1  0.739760  0.689800  0.684680  1.0  -0.3791
  I  I616  1  0.239760  0.189800  0.184680  1.0  -0.3791
  I  I617  1  0.939800  0.010240  0.065320  1.0  -0.3779
  I  I618  1  0.439800  0.510240  0.565320  1.0  -0.3779
  I  I619  1  0.560200  0.989760  0.565320  1.0  -0.3776
  I  I620  1  0.060200  0.489760  0.065320  1.0  -0.3776
  I  I621  1  0.239760  0.689800  0.815320  1.0  -0.3794
  I  I622  1  0.739760  0.189800  0.315320  1.0  -0.3794
  I  I623  1  0.260240  0.310200  0.315320  1.0  -0.3812
  I  I624  1  0.760240  0.810200  0.815320  1.0  -0.3812
  N  N625  1  0.016810  0.088150  0.008700  1.0  -0.2897
  N  N626  1  0.011660  0.144580  0.102900  1.0  -0.4253
  N  N627  1  0.472330  0.046270  0.649480  1.0  -0.2977
  N  N628  1  0.467740  0.037560  0.805220  1.0  -0.3293
  N  N629  1  0.516810  0.588150  0.508700  1.0  -0.2897
  N  N630  1  0.511660  0.644580  0.602900  1.0  -0.4253
  N  N631  1  0.972330  0.546270  0.149480  1.0  -0.2977
  N  N632  1  0.967740  0.537560  0.305220  1.0  -0.3293
  N  N633  1  0.483190  0.911850  0.508700  1.0  -0.2891
  N  N634  1  0.488340  0.855420  0.602900  1.0  -0.4233
  N  N635  1  0.027670  0.953730  0.149480  1.0  -0.2972
  N  N636  1  0.032260  0.962440  0.305220  1.0  -0.3297
  N  N637  1  0.983190  0.411850  0.008700  1.0  -0.2891
  N  N638  1  0.988340  0.355420  0.102900  1.0  -0.4233
  N  N639  1  0.527670  0.453730  0.649480  1.0  -0.2972
  N  N640  1  0.532260  0.462440  0.805220  1.0  -0.3297
  N  N641  1  0.661850  0.266810  0.258700  1.0  -0.2946
  N  N642  1  0.605420  0.261660  0.352900  1.0  -0.4252
  N  N643  1  0.703730  0.722330  0.899480  1.0  -0.2984
  N  N644  1  0.712440  0.717740  0.055220  1.0  -0.3294
  N  N645  1  0.161850  0.766810  0.758700  1.0  -0.2946
  N  N646  1  0.105420  0.761660  0.852900  1.0  -0.4252
  N  N647  1  0.203730  0.222330  0.399480  1.0  -0.2984
  N  N648  1  0.212440  0.217740  0.555220  1.0  -0.3294
  N  N649  1  0.838150  0.733190  0.758700  1.0  -0.2917
  N  N650  1  0.894580  0.738340  0.852900  1.0  -0.4252
  N  N651  1  0.796270  0.277670  0.399480  1.0  -0.2997
  N  N652  1  0.787560  0.282260  0.555220  1.0  -0.3292
  N  N653  1  0.338150  0.233190  0.258700  1.0  -0.2917
  N  N654  1  0.394580  0.238340  0.352900  1.0  -0.4252
  N  N655  1  0.296270  0.777670  0.899480  1.0  -0.2997
  N  N656  1  0.287560  0.782260  0.055220  1.0  -0.3292
  N  N657  1  0.983190  0.911850  0.991300  1.0  -0.2892
  N  N658  1  0.988340  0.855420  0.897100  1.0  -0.4248
  N  N659  1  0.527670  0.953730  0.350520  1.0  -0.2964
  N  N660  1  0.532260  0.962440  0.194780  1.0  -0.3296
  N  N661  1  0.483190  0.411850  0.491300  1.0  -0.2892
  N  N662  1  0.488340  0.355420  0.397100  1.0  -0.4248
  N  N663  1  0.027670  0.453730  0.850520  1.0  -0.2964
  N  N664  1  0.032260  0.462440  0.694780  1.0  -0.3296
  N  N665  1  0.516810  0.088150  0.491300  1.0  -0.2895
  N  N666  1  0.511660  0.144580  0.397100  1.0  -0.426
  N  N667  1  0.972330  0.046270  0.850520  1.0  -0.2964
  N  N668  1  0.967740  0.037560  0.694780  1.0  -0.33
  N  N669  1  0.016810  0.588150  0.991300  1.0  -0.2895
  N  N670  1  0.011660  0.644580  0.897100  1.0  -0.426
  N  N671  1  0.472330  0.546270  0.350520  1.0  -0.2964
  N  N672  1  0.467740  0.537560  0.194780  1.0  -0.33
  N  N673  1  0.338150  0.733190  0.741300  1.0  -0.2918
  N  N674  1  0.394580  0.738340  0.647100  1.0  -0.427
  N  N675  1  0.296270  0.277670  0.100520  1.0  -0.2982
  N  N676  1  0.287560  0.282260  0.944780  1.0  -0.3294
  N  N677  1  0.838150  0.233190  0.241300  1.0  -0.2918
  N  N678  1  0.894580  0.238340  0.147100  1.0  -0.427
  N  N679  1  0.796270  0.777670  0.600520  1.0  -0.2982
  N  N680  1  0.787560  0.782260  0.444780  1.0  -0.3294
  N  N681  1  0.161850  0.266810  0.241300  1.0  -0.2945
  N  N682  1  0.105420  0.261660  0.147100  1.0  -0.4267
  N  N683  1  0.203730  0.722330  0.600520  1.0  -0.2983
  N  N684  1  0.212440  0.717740  0.444780  1.0  -0.33
  N  N685  1  0.661850  0.766810  0.741300  1.0  -0.2945
  N  N686  1  0.605420  0.761660  0.647100  1.0  -0.4267
  N  N687  1  0.703730  0.222330  0.100520  1.0  -0.2983
  N  N688  1  0.712440  0.217740  0.944780  1.0  -0.33
  O  O689  1  0.198840  0.209540  0.749500  1.0  -0.5834
  O  O690  1  0.222700  0.228630  0.877700  1.0  -0.5724
  O  O691  1  0.274210  0.195580  0.685800  1.0  -0.5762
  O  O692  1  0.297620  0.215970  0.813400  1.0  -0.5807
  O  O693  1  0.698840  0.709540  0.249500  1.0  -0.5834
  O  O694  1  0.722700  0.728630  0.377700  1.0  -0.5724
  O  O695  1  0.774210  0.695580  0.185800  1.0  -0.5762
  O  O696  1  0.797620  0.715970  0.313400  1.0  -0.5807
  O  O697  1  0.301160  0.790460  0.249500  1.0  -0.584
  O  O698  1  0.277300  0.771370  0.377700  1.0  -0.5733
  O  O699  1  0.225790  0.804420  0.185800  1.0  -0.5752
  O  O700  1  0.202380  0.784030  0.313400  1.0  -0.5808
  O  O701  1  0.801160  0.290460  0.749500  1.0  -0.584
  O  O702  1  0.777300  0.271370  0.877700  1.0  -0.5733
  O  O703  1  0.725790  0.304420  0.685800  1.0  -0.5752
  O  O704  1  0.702380  0.284030  0.813400  1.0  -0.5808
  O  O705  1  0.540460  0.448840  0.999500  1.0  -0.5835
  O  O706  1  0.521370  0.472700  0.127700  1.0  -0.5748
  O  O707  1  0.554420  0.524210  0.935800  1.0  -0.5766
  O  O708  1  0.534030  0.547620  0.063400  1.0  -0.5816
  O  O709  1  0.040460  0.948840  0.499500  1.0  -0.5835
  O  O710  1  0.021370  0.972700  0.627700  1.0  -0.5748
  O  O711  1  0.054420  0.024210  0.435800  1.0  -0.5766
  O  O712  1  0.034030  0.047620  0.563400  1.0  -0.5816
  O  O713  1  0.959540  0.551160  0.499500  1.0  -0.5839
  O  O714  1  0.978630  0.527300  0.627700  1.0  -0.5752
  O  O715  1  0.945580  0.475790  0.435800  1.0  -0.5765
  O  O716  1  0.965970  0.452380  0.563400  1.0  -0.581
  O  O717  1  0.459540  0.051160  0.999500  1.0  -0.5839
  O  O718  1  0.478630  0.027300  0.127700  1.0  -0.5752
  O  O719  1  0.445580  0.975790  0.935800  1.0  -0.5765
  O  O720  1  0.465970  0.952380  0.063400  1.0  -0.581
  O  O721  1  0.801160  0.790460  0.250500  1.0  -0.5838
  O  O722  1  0.777300  0.771370  0.122300  1.0  -0.5725
  O  O723  1  0.725790  0.804420  0.314200  1.0  -0.5735
  O  O724  1  0.702380  0.784030  0.186600  1.0  -0.5804
  O  O725  1  0.301160  0.290460  0.750500  1.0  -0.5838
  O  O726  1  0.277300  0.271370  0.622300  1.0  -0.5725
  O  O727  1  0.225790  0.304420  0.814200  1.0  -0.5735
  O  O728  1  0.202380  0.284030  0.686600  1.0  -0.5804
  O  O729  1  0.698840  0.209540  0.750500  1.0  -0.5827
  O  O730  1  0.722700  0.228630  0.622300  1.0  -0.5722
  O  O731  1  0.774210  0.195580  0.814200  1.0  -0.5753
  O  O732  1  0.797620  0.215970  0.686600  1.0  -0.5809
  O  O733  1  0.198840  0.709540  0.250500  1.0  -0.5827
  O  O734  1  0.222700  0.728630  0.122300  1.0  -0.5722
  O  O735  1  0.274210  0.695580  0.314200  1.0  -0.5753
  O  O736  1  0.297620  0.715970  0.186600  1.0  -0.5809
  O  O737  1  0.459540  0.551160  0.000500  1.0  -0.5833
  O  O738  1  0.478630  0.527300  0.872300  1.0  -0.574
  O  O739  1  0.445580  0.475790  0.064200  1.0  -0.5754
  O  O740  1  0.465970  0.452380  0.936600  1.0  -0.5811
  O  O741  1  0.959540  0.051160  0.500500  1.0  -0.5833
  O  O742  1  0.978630  0.027300  0.372300  1.0  -0.574
  O  O743  1  0.945580  0.975790  0.564200  1.0  -0.5754
  O  O744  1  0.965970  0.952380  0.436600  1.0  -0.5811
  O  O745  1  0.040460  0.448840  0.500500  1.0  -0.583
  O  O746  1  0.021370  0.472700  0.372300  1.0  -0.5745
  O  O747  1  0.054420  0.524210  0.564200  1.0  -0.5758
  O  O748  1  0.034030  0.547620  0.436600  1.0  -0.5812
  O  O749  1  0.540460  0.948840  0.000500  1.0  -0.583
  O  O750  1  0.521370  0.972700  0.872300  1.0  -0.5745
  O  O751  1  0.554420  0.024210  0.064200  1.0  -0.5758
  O  O752  1  0.534030  0.047620  0.936600  1.0  -0.5812
