# generated using pymatgen
data_Ca8H75C137(NO16)2
_symmetry_space_group_name_H-M   'P 1'
_cell_length_a   28.28100000
_cell_length_b   20.84900000
_cell_length_c   30.69900000
_cell_angle_alpha   90.00000000
_cell_angle_beta   90.99400000
_cell_angle_gamma   90.00000000
_symmetry_Int_Tables_number   1
_chemical_formula_structural   Ca8H75C137(NO16)2
_chemical_formula_sum   'Ca32 H300 C548 N8 O128'
_cell_volume   18098.34493976
_cell_formula_units_Z   4
loop_
 _symmetry_equiv_pos_site_id
 _symmetry_equiv_pos_as_xyz
  1  'x, y, z'
loop_
 _atom_site_type_symbol
 _atom_site_label
 _atom_site_symmetry_multiplicity
 _atom_site_fract_x
 _atom_site_fract_y
 _atom_site_fract_z
 _atom_site_occupancy
 _atom_site_charge
  Ca  Ca1  1  0.509800  0.738000  0.312800  1.0  1.5482
  Ca  Ca2  1  0.540600  0.708800  0.430800  1.0  1.5585
  Ca  Ca3  1  0.471000  0.584400  0.496700  1.0  1.5988
  Ca  Ca4  1  0.123900  0.671500  0.986300  1.0  1.6427
  Ca  Ca5  1  0.009800  0.238000  0.312800  1.0  1.5482
  Ca  Ca6  1  0.040600  0.208800  0.430800  1.0  1.5585
  Ca  Ca7  1  0.971000  0.084400  0.496700  1.0  1.5988
  Ca  Ca8  1  0.623900  0.171500  0.986300  1.0  1.6427
  Ca  Ca9  1  0.490200  0.738000  0.187200  1.0  1.548
  Ca  Ca10  1  0.459400  0.708800  0.069200  1.0  1.5559
  Ca  Ca11  1  0.529000  0.584400  0.003300  1.0  1.6019
  Ca  Ca12  1  0.876100  0.671500  0.513700  1.0  1.6403
  Ca  Ca13  1  0.990200  0.238000  0.187200  1.0  1.548
  Ca  Ca14  1  0.959400  0.208800  0.069200  1.0  1.5559
  Ca  Ca15  1  0.029000  0.084400  0.003300  1.0  1.6019
  Ca  Ca16  1  0.376100  0.171500  0.513700  1.0  1.6403
  Ca  Ca17  1  0.490200  0.262000  0.687200  1.0  1.5477
  Ca  Ca18  1  0.459400  0.291200  0.569200  1.0  1.5556
  Ca  Ca19  1  0.529000  0.415600  0.503300  1.0  1.6013
  Ca  Ca20  1  0.876100  0.328500  0.013700  1.0  1.6413
  Ca  Ca21  1  0.990200  0.762000  0.687200  1.0  1.5477
  Ca  Ca22  1  0.959400  0.791200  0.569200  1.0  1.5556
  Ca  Ca23  1  0.029000  0.915600  0.503300  1.0  1.6013
  Ca  Ca24  1  0.376100  0.828500  0.013700  1.0  1.6413
  Ca  Ca25  1  0.509800  0.262000  0.812800  1.0  1.5476
  Ca  Ca26  1  0.540600  0.291200  0.930800  1.0  1.559
  Ca  Ca27  1  0.471000  0.415600  0.996700  1.0  1.5979
  Ca  Ca28  1  0.123900  0.328500  0.486300  1.0  1.6424
  Ca  Ca29  1  0.009800  0.762000  0.812800  1.0  1.5476
  Ca  Ca30  1  0.040600  0.791200  0.930800  1.0  1.559
  Ca  Ca31  1  0.971000  0.915600  0.996700  1.0  1.5979
  Ca  Ca32  1  0.623900  0.828500  0.486300  1.0  1.6424
  H  H33  1  0.362900  0.755400  0.213700  1.0  0.0832
  H  H34  1  0.370300  0.881100  0.311800  1.0  0.1129
  H  H35  1  0.389800  0.728200  0.346700  1.0  0.0954
  H  H36  1  0.404400  0.555200  0.403000  1.0  0.1048
  H  H37  1  0.507000  0.525800  0.314700  1.0  0.1004
  H  H38  1  0.285900  0.782600  0.200400  1.0  0.1042
  H  H39  1  0.293600  0.911800  0.296900  1.0  0.1191
  H  H40  1  0.318600  0.696300  0.315700  1.0  0.1048
  H  H41  1  0.334000  0.522700  0.370500  1.0  0.106
  H  H42  1  0.507300  0.417500  0.314700  1.0  0.113
  H  H43  1  0.224900  0.933000  0.287100  1.0  0.1124
  H  H44  1  0.223900  0.834300  0.175500  1.0  0.1226
  H  H45  1  0.250200  0.523200  0.360600  1.0  0.1115
  H  H46  1  0.288100  0.633000  0.259400  1.0  0.0966
  H  H47  1  0.483500  0.320900  0.312600  1.0  0.0994
  H  H48  1  0.116400  0.951100  0.202600  1.0  0.1126
  H  H49  1  0.171900  0.524900  0.251200  1.0  0.1031
  H  H50  1  0.122900  0.059800  0.234400  1.0  0.0914
  H  H51  1  0.161000  0.949900  0.335200  1.0  0.1198
  H  H52  1  0.085000  0.924900  0.145400  1.0  0.1124
  H  H53  1  0.194700  0.814000  0.117500  1.0  0.1344
  H  H54  1  0.220300  0.423700  0.367600  1.0  0.1079
  H  H55  1  0.113100  0.495900  0.294700  1.0  0.1108
  H  H56  1  0.149600  0.603400  0.199600  1.0  0.109
  H  H57  1  0.290000  0.621600  0.189900  1.0  0.0984
  H  H58  1  0.512600  0.116600  0.314900  1.0  0.0937
  H  H59  1  0.448700  0.264400  0.359600  1.0  0.081
  H  H60  1  0.094400  0.136300  0.281600  1.0  0.0916
  H  H61  1  0.130200  0.024500  0.382500  1.0  0.1104
  H  H62  1  0.050900  0.902300  0.078300  1.0  0.1051
  H  H63  1  0.159200  0.788300  0.051800  1.0  0.0947
  H  H64  1  0.168800  0.351500  0.397500  1.0  0.1033
  H  H65  1  0.062800  0.421700  0.324300  1.0  0.1054
  H  H66  1  0.139800  0.636400  0.129300  1.0  0.091
  H  H67  1  0.279800  0.657400  0.118900  1.0  0.1067
  H  H68  1  0.498900  0.063900  0.381800  1.0  0.0934
  H  H69  1  0.441300  0.217600  0.425500  1.0  0.0757
  H  H70  1  0.862900  0.255400  0.213700  1.0  0.0832
  H  H71  1  0.870300  0.381100  0.311800  1.0  0.1129
  H  H72  1  0.889800  0.228200  0.346700  1.0  0.0954
  H  H73  1  0.904400  0.055200  0.403000  1.0  0.1048
  H  H74  1  0.007000  0.025800  0.314700  1.0  0.1004
  H  H75  1  0.785900  0.282600  0.200400  1.0  0.1042
  H  H76  1  0.793600  0.411800  0.296900  1.0  0.1191
  H  H77  1  0.818600  0.196300  0.315700  1.0  0.1048
  H  H78  1  0.834000  0.022700  0.370500  1.0  0.106
  H  H79  1  0.007300  0.917500  0.314700  1.0  0.113
  H  H80  1  0.724900  0.433000  0.287100  1.0  0.1123
  H  H81  1  0.723900  0.334300  0.175500  1.0  0.1226
  H  H82  1  0.750200  0.023200  0.360600  1.0  0.1115
  H  H83  1  0.788100  0.133000  0.259400  1.0  0.0966
  H  H84  1  0.983500  0.820900  0.312600  1.0  0.0994
  H  H85  1  0.616400  0.451100  0.202600  1.0  0.1127
  H  H86  1  0.671900  0.024900  0.251200  1.0  0.1031
  H  H87  1  0.622900  0.559800  0.234400  1.0  0.0914
  H  H88  1  0.661000  0.449900  0.335200  1.0  0.1198
  H  H89  1  0.585000  0.424900  0.145400  1.0  0.1124
  H  H90  1  0.694700  0.314000  0.117500  1.0  0.1344
  H  H91  1  0.720300  0.923700  0.367600  1.0  0.1079
  H  H92  1  0.613100  0.995900  0.294700  1.0  0.1108
  H  H93  1  0.649600  0.103400  0.199600  1.0  0.109
  H  H94  1  0.790000  0.121600  0.189900  1.0  0.0984
  H  H95  1  0.012600  0.616600  0.314900  1.0  0.0937
  H  H96  1  0.948700  0.764400  0.359600  1.0  0.081
  H  H97  1  0.594400  0.636300  0.281600  1.0  0.0917
  H  H98  1  0.630200  0.524500  0.382500  1.0  0.1104
  H  H99  1  0.550900  0.402300  0.078300  1.0  0.1051
  H  H100  1  0.659200  0.288300  0.051800  1.0  0.0947
  H  H101  1  0.668800  0.851500  0.397500  1.0  0.1033
  H  H102  1  0.562800  0.921700  0.324300  1.0  0.1054
  H  H103  1  0.639800  0.136400  0.129300  1.0  0.091
  H  H104  1  0.779800  0.157400  0.118900  1.0  0.1067
  H  H105  1  0.998900  0.563900  0.381800  1.0  0.0934
  H  H106  1  0.941300  0.717600  0.425500  1.0  0.0757
  H  H107  1  0.637100  0.755400  0.286300  1.0  0.0832
  H  H108  1  0.629700  0.881100  0.188200  1.0  0.1134
  H  H109  1  0.610200  0.728200  0.153300  1.0  0.0959
  H  H110  1  0.595600  0.555200  0.097000  1.0  0.1043
  H  H111  1  0.493000  0.525800  0.185300  1.0  0.1012
  H  H112  1  0.714100  0.782600  0.299600  1.0  0.1045
  H  H113  1  0.706400  0.911800  0.203100  1.0  0.1195
  H  H114  1  0.681400  0.696300  0.184300  1.0  0.1044
  H  H115  1  0.666000  0.522700  0.129500  1.0  0.1069
  H  H116  1  0.492700  0.417500  0.185300  1.0  0.1141
  H  H117  1  0.775100  0.933000  0.212900  1.0  0.1121
  H  H118  1  0.776100  0.834300  0.324500  1.0  0.1229
  H  H119  1  0.749800  0.523200  0.139400  1.0  0.1114
  H  H120  1  0.711900  0.633000  0.240600  1.0  0.0967
  H  H121  1  0.516500  0.320900  0.187400  1.0  0.0993
  H  H122  1  0.883600  0.951100  0.297400  1.0  0.1128
  H  H123  1  0.828100  0.524900  0.248800  1.0  0.1034
  H  H124  1  0.877100  0.059800  0.265600  1.0  0.0917
  H  H125  1  0.839000  0.949900  0.164800  1.0  0.1186
  H  H126  1  0.915000  0.924900  0.354600  1.0  0.1131
  H  H127  1  0.805300  0.814000  0.382500  1.0  0.1348
  H  H128  1  0.779700  0.423700  0.132400  1.0  0.1083
  H  H129  1  0.886900  0.495900  0.205300  1.0  0.1104
  H  H130  1  0.850400  0.603400  0.300400  1.0  0.1087
  H  H131  1  0.710000  0.621600  0.310100  1.0  0.0978
  H  H132  1  0.487400  0.116600  0.185100  1.0  0.0942
  H  H133  1  0.551300  0.264400  0.140400  1.0  0.0811
  H  H134  1  0.905600  0.136300  0.218400  1.0  0.0911
  H  H135  1  0.869800  0.024500  0.117500  1.0  0.1113
  H  H136  1  0.949100  0.902300  0.421700  1.0  0.1045
  H  H137  1  0.840800  0.788300  0.448200  1.0  0.0952
  H  H138  1  0.831200  0.351500  0.102500  1.0  0.1028
  H  H139  1  0.937200  0.421700  0.175700  1.0  0.1054
  H  H140  1  0.860200  0.636400  0.370700  1.0  0.0912
  H  H141  1  0.720200  0.657400  0.381100  1.0  0.1068
  H  H142  1  0.501100  0.063900  0.118200  1.0  0.0929
  H  H143  1  0.558700  0.217600  0.074500  1.0  0.076
  H  H144  1  0.137100  0.255400  0.286300  1.0  0.0832
  H  H145  1  0.129700  0.381100  0.188200  1.0  0.1134
  H  H146  1  0.110200  0.228200  0.153300  1.0  0.0959
  H  H147  1  0.095600  0.055200  0.097000  1.0  0.1043
  H  H148  1  0.993000  0.025800  0.185300  1.0  0.1012
  H  H149  1  0.214100  0.282600  0.299600  1.0  0.1045
  H  H150  1  0.206400  0.411800  0.203100  1.0  0.1195
  H  H151  1  0.181400  0.196300  0.184300  1.0  0.1044
  H  H152  1  0.166000  0.022700  0.129500  1.0  0.1069
  H  H153  1  0.992700  0.917500  0.185300  1.0  0.1141
  H  H154  1  0.275100  0.433000  0.212900  1.0  0.1121
  H  H155  1  0.276100  0.334300  0.324500  1.0  0.1229
  H  H156  1  0.249800  0.023200  0.139400  1.0  0.1114
  H  H157  1  0.211900  0.133000  0.240600  1.0  0.0966
  H  H158  1  0.016500  0.820900  0.187400  1.0  0.0993
  H  H159  1  0.383600  0.451100  0.297400  1.0  0.1128
  H  H160  1  0.328100  0.024900  0.248800  1.0  0.1034
  H  H161  1  0.377100  0.559800  0.265600  1.0  0.0917
  H  H162  1  0.339000  0.449900  0.164800  1.0  0.1186
  H  H163  1  0.415000  0.424900  0.354600  1.0  0.1131
  H  H164  1  0.305300  0.314000  0.382500  1.0  0.1348
  H  H165  1  0.279700  0.923700  0.132400  1.0  0.1083
  H  H166  1  0.386900  0.995900  0.205300  1.0  0.1104
  H  H167  1  0.350400  0.103400  0.300400  1.0  0.1087
  H  H168  1  0.210000  0.121600  0.310100  1.0  0.0978
  H  H169  1  0.987400  0.616600  0.185100  1.0  0.0942
  H  H170  1  0.051300  0.764400  0.140400  1.0  0.0811
  H  H171  1  0.405600  0.636300  0.218400  1.0  0.0911
  H  H172  1  0.369800  0.524500  0.117500  1.0  0.1113
  H  H173  1  0.449100  0.402300  0.421700  1.0  0.1045
  H  H174  1  0.340800  0.288300  0.448200  1.0  0.0952
  H  H175  1  0.331200  0.851500  0.102500  1.0  0.1028
  H  H176  1  0.437200  0.921700  0.175700  1.0  0.1054
  H  H177  1  0.360200  0.136400  0.370700  1.0  0.0912
  H  H178  1  0.220200  0.157400  0.381100  1.0  0.1068
  H  H179  1  0.001100  0.563900  0.118200  1.0  0.0929
  H  H180  1  0.058700  0.717600  0.074500  1.0  0.076
  H  H181  1  0.637100  0.244600  0.786300  1.0  0.0825
  H  H182  1  0.629700  0.118900  0.688200  1.0  0.1128
  H  H183  1  0.610200  0.271800  0.653300  1.0  0.0959
  H  H184  1  0.595600  0.444800  0.597000  1.0  0.1045
  H  H185  1  0.493000  0.474200  0.685300  1.0  0.1014
  H  H186  1  0.714100  0.217400  0.799600  1.0  0.1046
  H  H187  1  0.706400  0.088200  0.703100  1.0  0.1195
  H  H188  1  0.681400  0.303700  0.684300  1.0  0.1036
  H  H189  1  0.666000  0.477300  0.629500  1.0  0.1069
  H  H190  1  0.492700  0.582500  0.685300  1.0  0.1141
  H  H191  1  0.775100  0.067000  0.712900  1.0  0.1123
  H  H192  1  0.776100  0.165700  0.824500  1.0  0.1234
  H  H193  1  0.749800  0.476800  0.639400  1.0  0.1113
  H  H194  1  0.711900  0.367000  0.740600  1.0  0.0971
  H  H195  1  0.516500  0.679100  0.687400  1.0  0.1001
  H  H196  1  0.883600  0.048900  0.797400  1.0  0.1133
  H  H197  1  0.828100  0.475100  0.748800  1.0  0.1033
  H  H198  1  0.877100  0.940200  0.765600  1.0  0.0917
  H  H199  1  0.839000  0.050100  0.664800  1.0  0.1193
  H  H200  1  0.915000  0.075100  0.854600  1.0  0.1129
  H  H201  1  0.805300  0.186000  0.882500  1.0  0.1356
  H  H202  1  0.779700  0.576300  0.632400  1.0  0.108
  H  H203  1  0.886900  0.504100  0.705300  1.0  0.1109
  H  H204  1  0.850400  0.396600  0.800400  1.0  0.1086
  H  H205  1  0.710000  0.378400  0.810100  1.0  0.0978
  H  H206  1  0.487400  0.883400  0.685100  1.0  0.0941
  H  H207  1  0.551300  0.735600  0.640400  1.0  0.0806
  H  H208  1  0.905600  0.863700  0.718400  1.0  0.0918
  H  H209  1  0.869800  0.975500  0.617500  1.0  0.1116
  H  H210  1  0.949100  0.097700  0.921700  1.0  0.105
  H  H211  1  0.840800  0.211700  0.948200  1.0  0.0948
  H  H212  1  0.831200  0.648500  0.602500  1.0  0.1028
  H  H213  1  0.937200  0.578300  0.675700  1.0  0.1059
  H  H214  1  0.860200  0.363600  0.870700  1.0  0.0908
  H  H215  1  0.720200  0.342600  0.881100  1.0  0.107
  H  H216  1  0.501100  0.936100  0.618200  1.0  0.0931
  H  H217  1  0.558700  0.782400  0.574500  1.0  0.076
  H  H218  1  0.137100  0.744600  0.786300  1.0  0.0825
  H  H219  1  0.129700  0.618900  0.688200  1.0  0.1128
  H  H220  1  0.110200  0.771800  0.653300  1.0  0.0959
  H  H221  1  0.095600  0.944800  0.597000  1.0  0.1045
  H  H222  1  0.993000  0.974200  0.685300  1.0  0.1014
  H  H223  1  0.214100  0.717400  0.799600  1.0  0.1046
  H  H224  1  0.206400  0.588200  0.703100  1.0  0.1195
  H  H225  1  0.181400  0.803700  0.684300  1.0  0.1036
  H  H226  1  0.166000  0.977300  0.629500  1.0  0.1069
  H  H227  1  0.992700  0.082500  0.685300  1.0  0.1141
  H  H228  1  0.275100  0.567000  0.712900  1.0  0.1123
  H  H229  1  0.276100  0.665700  0.824500  1.0  0.1234
  H  H230  1  0.249800  0.976800  0.639400  1.0  0.1113
  H  H231  1  0.211900  0.867000  0.740600  1.0  0.097
  H  H232  1  0.016500  0.179100  0.687400  1.0  0.1001
  H  H233  1  0.383600  0.548900  0.797400  1.0  0.1133
  H  H234  1  0.328100  0.975100  0.748800  1.0  0.1033
  H  H235  1  0.377100  0.440200  0.765600  1.0  0.0917
  H  H236  1  0.339000  0.550100  0.664800  1.0  0.1193
  H  H237  1  0.415000  0.575100  0.854600  1.0  0.1129
  H  H238  1  0.305300  0.686000  0.882500  1.0  0.1356
  H  H239  1  0.279700  0.076300  0.632400  1.0  0.108
  H  H240  1  0.386900  0.004100  0.705300  1.0  0.1109
  H  H241  1  0.350400  0.896600  0.800400  1.0  0.1086
  H  H242  1  0.210000  0.878400  0.810100  1.0  0.0978
  H  H243  1  0.987400  0.383400  0.685100  1.0  0.0941
  H  H244  1  0.051300  0.235600  0.640400  1.0  0.0806
  H  H245  1  0.405600  0.363700  0.718400  1.0  0.0918
  H  H246  1  0.369800  0.475500  0.617500  1.0  0.1116
  H  H247  1  0.449100  0.597700  0.921700  1.0  0.105
  H  H248  1  0.340800  0.711700  0.948200  1.0  0.0948
  H  H249  1  0.331200  0.148500  0.602500  1.0  0.1028
  H  H250  1  0.437200  0.078300  0.675700  1.0  0.1059
  H  H251  1  0.360200  0.863600  0.870700  1.0  0.0908
  H  H252  1  0.220200  0.842600  0.881100  1.0  0.107
  H  H253  1  0.001100  0.436100  0.618200  1.0  0.0931
  H  H254  1  0.058700  0.282400  0.574500  1.0  0.076
  H  H255  1  0.362900  0.244600  0.713700  1.0  0.083
  H  H256  1  0.370300  0.118900  0.811800  1.0  0.1129
  H  H257  1  0.389800  0.271800  0.846700  1.0  0.0957
  H  H258  1  0.404400  0.444800  0.903000  1.0  0.1047
  H  H259  1  0.507000  0.474200  0.814700  1.0  0.1004
  H  H260  1  0.285900  0.217400  0.700400  1.0  0.105
  H  H261  1  0.293600  0.088200  0.796900  1.0  0.119
  H  H262  1  0.318600  0.303700  0.815700  1.0  0.1039
  H  H263  1  0.334000  0.477300  0.870500  1.0  0.1063
  H  H264  1  0.507300  0.582500  0.814700  1.0  0.1132
  H  H265  1  0.224900  0.067000  0.787100  1.0  0.1123
  H  H266  1  0.223900  0.165700  0.675500  1.0  0.1238
  H  H267  1  0.250200  0.476800  0.860600  1.0  0.1118
  H  H268  1  0.288100  0.367000  0.759400  1.0  0.0966
  H  H269  1  0.483500  0.679100  0.812600  1.0  0.0998
  H  H270  1  0.116400  0.048900  0.702600  1.0  0.1128
  H  H271  1  0.171900  0.475100  0.751200  1.0  0.1028
  H  H272  1  0.122900  0.940200  0.734400  1.0  0.0914
  H  H273  1  0.161000  0.050100  0.835200  1.0  0.1188
  H  H274  1  0.085000  0.075100  0.645400  1.0  0.1124
  H  H275  1  0.194700  0.186000  0.617500  1.0  0.1352
  H  H276  1  0.220300  0.576300  0.867600  1.0  0.1082
  H  H277  1  0.113100  0.504100  0.794700  1.0  0.1106
  H  H278  1  0.149600  0.396600  0.699600  1.0  0.1089
  H  H279  1  0.290000  0.378400  0.689900  1.0  0.0987
  H  H280  1  0.512600  0.883400  0.814900  1.0  0.0941
  H  H281  1  0.448700  0.735600  0.859600  1.0  0.0806
  H  H282  1  0.094400  0.863700  0.781600  1.0  0.0915
  H  H283  1  0.130200  0.975500  0.882500  1.0  0.1101
  H  H284  1  0.050900  0.097700  0.578300  1.0  0.1049
  H  H285  1  0.159200  0.211700  0.551800  1.0  0.0945
  H  H286  1  0.168800  0.648500  0.897500  1.0  0.1027
  H  H287  1  0.062800  0.578300  0.824300  1.0  0.1051
  H  H288  1  0.139800  0.363600  0.629300  1.0  0.0908
  H  H289  1  0.279800  0.342600  0.618900  1.0  0.1067
  H  H290  1  0.498900  0.936100  0.881800  1.0  0.0931
  H  H291  1  0.441300  0.782400  0.925500  1.0  0.0756
  H  H292  1  0.862900  0.744600  0.713700  1.0  0.083
  H  H293  1  0.870300  0.618900  0.811800  1.0  0.1129
  H  H294  1  0.889800  0.771800  0.846700  1.0  0.0957
  H  H295  1  0.904400  0.944800  0.903000  1.0  0.1047
  H  H296  1  0.007000  0.974200  0.814700  1.0  0.1004
  H  H297  1  0.785900  0.717400  0.700400  1.0  0.105
  H  H298  1  0.793600  0.588200  0.796900  1.0  0.119
  H  H299  1  0.818600  0.803700  0.815700  1.0  0.1039
  H  H300  1  0.834000  0.977300  0.870500  1.0  0.1063
  H  H301  1  0.007300  0.082500  0.814700  1.0  0.1132
  H  H302  1  0.724900  0.567000  0.787100  1.0  0.1122
  H  H303  1  0.723900  0.665700  0.675500  1.0  0.1238
  H  H304  1  0.750200  0.976800  0.860600  1.0  0.1118
  H  H305  1  0.788100  0.867000  0.759400  1.0  0.0966
  H  H306  1  0.983500  0.179100  0.812600  1.0  0.0998
  H  H307  1  0.616400  0.548900  0.702600  1.0  0.1129
  H  H308  1  0.671900  0.975100  0.751200  1.0  0.1028
  H  H309  1  0.622900  0.440200  0.734400  1.0  0.0914
  H  H310  1  0.661000  0.550100  0.835200  1.0  0.1188
  H  H311  1  0.585000  0.575100  0.645400  1.0  0.1124
  H  H312  1  0.694700  0.686000  0.617500  1.0  0.1352
  H  H313  1  0.720300  0.076300  0.867600  1.0  0.1082
  H  H314  1  0.613100  0.004100  0.794700  1.0  0.1106
  H  H315  1  0.649600  0.896600  0.699600  1.0  0.1089
  H  H316  1  0.790000  0.878400  0.689900  1.0  0.0987
  H  H317  1  0.012600  0.383400  0.814900  1.0  0.0941
  H  H318  1  0.948700  0.235600  0.859600  1.0  0.0806
  H  H319  1  0.594400  0.363700  0.781600  1.0  0.0915
  H  H320  1  0.630200  0.475500  0.882500  1.0  0.1101
  H  H321  1  0.550900  0.597700  0.578300  1.0  0.1049
  H  H322  1  0.659200  0.711700  0.551800  1.0  0.0945
  H  H323  1  0.668800  0.148500  0.897500  1.0  0.1027
  H  H324  1  0.562800  0.078300  0.824300  1.0  0.1051
  H  H325  1  0.639800  0.863600  0.629300  1.0  0.0908
  H  H326  1  0.779800  0.842600  0.618900  1.0  0.1067
  H  H327  1  0.998900  0.436100  0.881800  1.0  0.0931
  H  H328  1  0.941300  0.282400  0.925500  1.0  0.0756
  H  H329  1  0.500000  0.154300  0.250000  1.0  0.0934
  H  H330  1  0.000000  0.654300  0.250000  1.0  0.0934
  H  H331  1  0.500000  0.845700  0.750000  1.0  0.095
  H  H332  1  0.000000  0.345700  0.750000  1.0  0.095
  C  C333  1  0.425300  0.795800  0.274100  1.0  0.6796
  C  C334  1  0.451800  0.665100  0.396000  1.0  0.7242
  C  C335  1  0.374900  0.814400  0.264100  1.0  -0.1722
  C  C336  1  0.404900  0.644500  0.377500  1.0  -0.1462
  C  C337  1  0.348900  0.786800  0.230800  1.0  -0.0288
  C  C338  1  0.353600  0.861900  0.289000  1.0  -0.0891
  C  C339  1  0.378700  0.686800  0.351400  1.0  -0.0491
  C  C340  1  0.387700  0.583300  0.385000  1.0  -0.0406
  C  C341  1  0.504200  0.504000  0.288400  1.0  -0.0782
  C  C342  1  0.303000  0.804200  0.222000  1.0  -0.1443
  C  C343  1  0.307400  0.880600  0.279600  1.0  -0.1008
  C  C344  1  0.336100  0.667400  0.332500  1.0  -0.0803
  C  C345  1  0.345300  0.563900  0.365400  1.0  -0.0925
  C  C346  1  0.504300  0.439000  0.288300  1.0  -0.1089
  C  C347  1  0.280900  0.854400  0.245300  1.0  0.0395
  C  C348  1  0.521300  0.492500  0.415100  1.0  0.0646
  C  C349  1  0.319300  0.605100  0.338300  1.0  0.0447
  C  C350  1  0.233100  0.879200  0.234100  1.0  0.0161
  C  C351  1  0.276200  0.583000  0.314600  1.0  0.0618
  C  C352  1  0.210400  0.921700  0.260800  1.0  -0.1176
  C  C353  1  0.209600  0.863100  0.194300  1.0  -0.1152
  C  C354  1  0.244800  0.538400  0.332500  1.0  -0.1006
  C  C355  1  0.267100  0.604200  0.272000  1.0  -0.1224
  C  C356  1  0.490500  0.298500  0.287300  1.0  -0.1229
  C  C357  1  0.166600  0.948900  0.250200  1.0  0.0326
  C  C358  1  0.166200  0.888800  0.182500  1.0  -0.0765
  C  C359  1  0.205500  0.516500  0.308600  1.0  -0.0088
  C  C360  1  0.228300  0.584000  0.248000  1.0  -0.0118
  C  C361  1  0.490900  0.230300  0.288400  1.0  0.0215
  C  C362  1  0.145200  0.932500  0.210500  1.0  -0.1202
  C  C363  1  0.145200  0.997200  0.279600  1.0  -0.001
  C  C364  1  0.143500  0.872300  0.139500  1.0  0.0073
  C  C365  1  0.198000  0.539500  0.267100  1.0  -0.1332
  C  C366  1  0.172000  0.470100  0.328300  1.0  0.0717
  C  C367  1  0.221400  0.606900  0.202400  1.0  0.0208
  C  C368  1  0.481600  0.196500  0.330300  1.0  0.1546
  C  C369  1  0.124900  0.052700  0.264300  1.0  -0.107
  C  C370  1  0.147200  0.987200  0.324200  1.0  -0.136
  C  C371  1  0.100500  0.897400  0.126600  1.0  -0.1151
  C  C372  1  0.165300  0.831400  0.110300  1.0  -0.1298
  C  C373  1  0.188500  0.424200  0.359200  1.0  -0.1576
  C  C374  1  0.124700  0.467200  0.315500  1.0  -0.1392
  C  C375  1  0.176100  0.613100  0.183200  1.0  -0.129
  C  C376  1  0.259700  0.624200  0.177800  1.0  -0.1067
  C  C377  1  0.496600  0.137900  0.336800  1.0  -0.1459
  C  C378  1  0.460600  0.223100  0.363300  1.0  -0.1289
  C  C379  1  0.107300  0.098400  0.292500  1.0  -0.0535
  C  C380  1  0.128900  0.032100  0.352700  1.0  -0.0435
  C  C381  1  0.079400  0.883200  0.086400  1.0  -0.0645
  C  C382  1  0.143900  0.816000  0.070700  1.0  -0.0294
  C  C383  1  0.157700  0.380400  0.376600  1.0  -0.0427
  C  C384  1  0.094500  0.422300  0.333100  1.0  -0.0443
  C  C385  1  0.170200  0.633100  0.141200  1.0  -0.0379
  C  C386  1  0.253700  0.645300  0.134900  1.0  -0.0571
  C  C387  1  0.488700  0.106000  0.378200  1.0  -0.0691
  C  C388  1  0.454800  0.194300  0.403100  1.0  -0.1632
  C  C389  1  0.108800  0.087800  0.336900  1.0  -0.1576
  C  C390  1  0.101100  0.840600  0.058700  1.0  -0.1036
  C  C391  1  0.110700  0.378500  0.363700  1.0  -0.1441
  C  C392  1  0.208400  0.648400  0.116000  1.0  -0.1196
  C  C393  1  0.467700  0.134500  0.410300  1.0  0.0006
  C  C394  1  0.088500  0.134700  0.368100  1.0  0.6724
  C  C395  1  0.078200  0.823200  0.015600  1.0  0.6942
  C  C396  1  0.076700  0.330600  0.382100  1.0  0.7113
  C  C397  1  0.201800  0.667700  0.069100  1.0  0.7958
  C  C398  1  0.459800  0.103300  0.453600  1.0  0.7137
  C  C399  1  0.925300  0.295800  0.274100  1.0  0.6796
  C  C400  1  0.951800  0.165100  0.396000  1.0  0.7242
  C  C401  1  0.874900  0.314400  0.264100  1.0  -0.1722
  C  C402  1  0.904900  0.144500  0.377500  1.0  -0.1462
  C  C403  1  0.848900  0.286800  0.230800  1.0  -0.0288
  C  C404  1  0.853600  0.361900  0.289000  1.0  -0.0891
  C  C405  1  0.878700  0.186800  0.351400  1.0  -0.0491
  C  C406  1  0.887700  0.083300  0.385000  1.0  -0.0406
  C  C407  1  0.004200  0.004000  0.288400  1.0  -0.0782
  C  C408  1  0.803000  0.304200  0.222000  1.0  -0.1443
  C  C409  1  0.807400  0.380600  0.279600  1.0  -0.1008
  C  C410  1  0.836100  0.167400  0.332500  1.0  -0.0803
  C  C411  1  0.845300  0.063900  0.365400  1.0  -0.0925
  C  C412  1  0.004300  0.939000  0.288300  1.0  -0.1089
  C  C413  1  0.780900  0.354400  0.245300  1.0  0.0395
  C  C414  1  0.021300  0.992500  0.415100  1.0  0.0641
  C  C415  1  0.819300  0.105100  0.338300  1.0  0.0447
  C  C416  1  0.733100  0.379200  0.234100  1.0  0.0161
  C  C417  1  0.776200  0.083000  0.314600  1.0  0.0618
  C  C418  1  0.710400  0.421700  0.260800  1.0  -0.1183
  C  C419  1  0.709600  0.363100  0.194300  1.0  -0.1152
  C  C420  1  0.744800  0.038400  0.332500  1.0  -0.1006
  C  C421  1  0.767100  0.104200  0.272000  1.0  -0.1224
  C  C422  1  0.990500  0.798500  0.287300  1.0  -0.1229
  C  C423  1  0.666667  0.448900  0.250200  1.0  0.0294
  C  C424  1  0.666200  0.388800  0.182500  1.0  -0.0765
  C  C425  1  0.705500  0.016500  0.308600  1.0  -0.0088
  C  C426  1  0.728300  0.084000  0.248000  1.0  -0.0118
  C  C427  1  0.990900  0.730300  0.288400  1.0  0.0215
  C  C428  1  0.645200  0.432500  0.210500  1.0  -0.1188
  C  C429  1  0.645200  0.497200  0.279600  1.0  -0.0014
  C  C430  1  0.643500  0.372300  0.139500  1.0  0.0073
  C  C431  1  0.698000  0.039500  0.267100  1.0  -0.1332
  C  C432  1  0.672000  0.970100  0.328300  1.0  0.0717
  C  C433  1  0.721400  0.106900  0.202400  1.0  0.0208
  C  C434  1  0.981600  0.696500  0.330300  1.0  0.1546
  C  C435  1  0.624900  0.552700  0.264300  1.0  -0.1071
  C  C436  1  0.647200  0.487200  0.324200  1.0  -0.136
  C  C437  1  0.600500  0.397400  0.126600  1.0  -0.1151
  C  C438  1  0.665300  0.331400  0.110300  1.0  -0.1298
  C  C439  1  0.688500  0.924200  0.359200  1.0  -0.1576
  C  C440  1  0.624700  0.967200  0.315500  1.0  -0.1392
  C  C441  1  0.676100  0.113100  0.183200  1.0  -0.129
  C  C442  1  0.759700  0.124200  0.177800  1.0  -0.1067
  C  C443  1  0.996600  0.637900  0.336800  1.0  -0.1459
  C  C444  1  0.960600  0.723100  0.363300  1.0  -0.1289
  C  C445  1  0.607300  0.598400  0.292500  1.0  -0.0535
  C  C446  1  0.628900  0.532100  0.352700  1.0  -0.0435
  C  C447  1  0.579400  0.383200  0.086400  1.0  -0.0643
  C  C448  1  0.643900  0.316000  0.070700  1.0  -0.0294
  C  C449  1  0.657700  0.880400  0.376600  1.0  -0.0427
  C  C450  1  0.594500  0.922300  0.333100  1.0  -0.0443
  C  C451  1  0.670200  0.133100  0.141200  1.0  -0.0379
  C  C452  1  0.753700  0.145300  0.134900  1.0  -0.0571
  C  C453  1  0.988700  0.606000  0.378200  1.0  -0.0691
  C  C454  1  0.954800  0.694300  0.403100  1.0  -0.1632
  C  C455  1  0.608800  0.587800  0.336900  1.0  -0.1575
  C  C456  1  0.601100  0.340600  0.058700  1.0  -0.1036
  C  C457  1  0.610700  0.878500  0.363700  1.0  -0.1441
  C  C458  1  0.708400  0.148400  0.116000  1.0  -0.1196
  C  C459  1  0.967700  0.634500  0.410300  1.0  0.0006
  C  C460  1  0.588500  0.634700  0.368100  1.0  0.6724
  C  C461  1  0.578200  0.323200  0.015600  1.0  0.6942
  C  C462  1  0.576700  0.830600  0.382100  1.0  0.7113
  C  C463  1  0.701800  0.167700  0.069100  1.0  0.7958
  C  C464  1  0.959800  0.603300  0.453600  1.0  0.7137
  C  C465  1  0.574700  0.795800  0.225900  1.0  0.6804
  C  C466  1  0.548200  0.665100  0.104000  1.0  0.7263
  C  C467  1  0.625100  0.814400  0.235900  1.0  -0.1727
  C  C468  1  0.595100  0.644500  0.122500  1.0  -0.1484
  C  C469  1  0.651100  0.786800  0.269200  1.0  -0.028
  C  C470  1  0.646400  0.861900  0.211000  1.0  -0.0851
  C  C471  1  0.621300  0.686800  0.148600  1.0  -0.0482
  C  C472  1  0.612300  0.583300  0.115000  1.0  -0.0384
  C  C473  1  0.495800  0.504000  0.211600  1.0  -0.0749
  C  C474  1  0.697000  0.804200  0.278000  1.0  -0.1447
  C  C475  1  0.692600  0.880600  0.220400  1.0  -0.1003
  C  C476  1  0.663900  0.667400  0.167500  1.0  -0.0813
  C  C477  1  0.654700  0.563900  0.134600  1.0  -0.0895
  C  C478  1  0.495700  0.439000  0.211700  1.0  -0.1104
  C  C479  1  0.719100  0.854400  0.254700  1.0  0.0385
  C  C480  1  0.478700  0.492500  0.084900  1.0  0.0633
  C  C481  1  0.680700  0.605100  0.161700  1.0  0.0434
  C  C482  1  0.766900  0.879200  0.265900  1.0  0.0145
  C  C483  1  0.723800  0.583000  0.185400  1.0  0.0616
  C  C484  1  0.789600  0.921700  0.239200  1.0  -0.1146
  C  C485  1  0.790400  0.863100  0.305700  1.0  -0.1147
  C  C486  1  0.755200  0.538400  0.167500  1.0  -0.102
  C  C487  1  0.732900  0.604200  0.228000  1.0  -0.1216
  C  C488  1  0.509500  0.298500  0.212700  1.0  -0.1225
  C  C489  1  0.833400  0.948900  0.249800  1.0  0.0336
  C  C490  1  0.833800  0.888800  0.317500  1.0  -0.076
  C  C491  1  0.794500  0.516500  0.191400  1.0  -0.0107
  C  C492  1  0.771700  0.584000  0.252000  1.0  -0.0131
  C  C493  1  0.509100  0.230300  0.211600  1.0  0.0221
  C  C494  1  0.854800  0.932500  0.289500  1.0  -0.1213
  C  C495  1  0.854800  0.997200  0.220400  1.0  0.0004
  C  C496  1  0.856500  0.872300  0.360500  1.0  0.0079
  C  C497  1  0.802000  0.539500  0.232900  1.0  -0.1313
  C  C498  1  0.828000  0.470100  0.171700  1.0  0.0709
  C  C499  1  0.778600  0.606900  0.297600  1.0  0.0202
  C  C500  1  0.518400  0.196500  0.169700  1.0  0.154
  C  C501  1  0.875100  0.052700  0.235700  1.0  -0.1092
  C  C502  1  0.852800  0.987200  0.175800  1.0  -0.1357
  C  C503  1  0.899500  0.897400  0.373400  1.0  -0.1168
  C  C504  1  0.834700  0.831400  0.389700  1.0  -0.129
  C  C505  1  0.811500  0.424200  0.140800  1.0  -0.1555
  C  C506  1  0.875300  0.467200  0.184500  1.0  -0.1405
  C  C507  1  0.823900  0.613100  0.316800  1.0  -0.1285
  C  C508  1  0.740300  0.624200  0.322200  1.0  -0.1039
  C  C509  1  0.503400  0.137900  0.163200  1.0  -0.1464
  C  C510  1  0.539400  0.223100  0.136700  1.0  -0.1316
  C  C511  1  0.892700  0.098400  0.207500  1.0  -0.055
  C  C512  1  0.871100  0.032100  0.147300  1.0  -0.0425
  C  C513  1  0.920600  0.883200  0.413600  1.0  -0.0665
  C  C514  1  0.856100  0.816000  0.429300  1.0  -0.0299
  C  C515  1  0.842300  0.380400  0.123400  1.0  -0.0419
  C  C516  1  0.905500  0.422300  0.166900  1.0  -0.0434
  C  C517  1  0.829800  0.633100  0.358800  1.0  -0.0372
  C  C518  1  0.746300  0.645300  0.365100  1.0  -0.056
  C  C519  1  0.511300  0.106000  0.121800  1.0  -0.069
  C  C520  1  0.545200  0.194300  0.096900  1.0  -0.1642
  C  C521  1  0.891200  0.087800  0.163100  1.0  -0.1589
  C  C522  1  0.898900  0.840600  0.441300  1.0  -0.1016
  C  C523  1  0.889300  0.378500  0.136300  1.0  -0.1447
  C  C524  1  0.791600  0.648400  0.384000  1.0  -0.1193
  C  C525  1  0.532300  0.134500  0.089700  1.0  0.0015
  C  C526  1  0.911500  0.134700  0.131900  1.0  0.6713
  C  C527  1  0.921800  0.823200  0.484400  1.0  0.6954
  C  C528  1  0.923300  0.330600  0.117900  1.0  0.7133
  C  C529  1  0.798200  0.667700  0.430900  1.0  0.793
  C  C530  1  0.540200  0.103300  0.046400  1.0  0.7148
  C  C531  1  0.074700  0.295800  0.225900  1.0  0.6804
  C  C532  1  0.048200  0.165100  0.104000  1.0  0.7263
  C  C533  1  0.125100  0.314400  0.235900  1.0  -0.1727
  C  C534  1  0.095100  0.144500  0.122500  1.0  -0.1484
  C  C535  1  0.151100  0.286800  0.269200  1.0  -0.028
  C  C536  1  0.146400  0.361900  0.211000  1.0  -0.0851
  C  C537  1  0.121300  0.186800  0.148600  1.0  -0.0482
  C  C538  1  0.112300  0.083300  0.115000  1.0  -0.0384
  C  C539  1  0.995800  0.004000  0.211600  1.0  -0.0749
  C  C540  1  0.197000  0.304200  0.278000  1.0  -0.1447
  C  C541  1  0.192600  0.380600  0.220400  1.0  -0.1003
  C  C542  1  0.163900  0.167400  0.167500  1.0  -0.0813
  C  C543  1  0.154700  0.063900  0.134600  1.0  -0.0895
  C  C544  1  0.995700  0.939000  0.211700  1.0  -0.1104
  C  C545  1  0.219100  0.354400  0.254700  1.0  0.0385
  C  C546  1  0.978700  0.992500  0.084900  1.0  0.0629
  C  C547  1  0.180700  0.105100  0.161700  1.0  0.0434
  C  C548  1  0.266900  0.379200  0.265900  1.0  0.0145
  C  C549  1  0.223800  0.083000  0.185400  1.0  0.0616
  C  C550  1  0.289600  0.421700  0.239200  1.0  -0.1146
  C  C551  1  0.290400  0.363100  0.305700  1.0  -0.1147
  C  C552  1  0.255200  0.038400  0.167500  1.0  -0.102
  C  C553  1  0.232900  0.104200  0.228000  1.0  -0.1216
  C  C554  1  0.009500  0.798500  0.212700  1.0  -0.1225
  C  C555  1  0.333400  0.448900  0.249800  1.0  0.0336
  C  C556  1  0.333800  0.388800  0.317500  1.0  -0.076
  C  C557  1  0.294500  0.016500  0.191400  1.0  -0.0107
  C  C558  1  0.271700  0.084000  0.252000  1.0  -0.0131
  C  C559  1  0.009100  0.730300  0.211600  1.0  0.0221
  C  C560  1  0.354800  0.432500  0.289500  1.0  -0.1213
  C  C561  1  0.354800  0.497200  0.220400  1.0  0.0004
  C  C562  1  0.356500  0.372300  0.360500  1.0  0.0079
  C  C563  1  0.302000  0.039500  0.232900  1.0  -0.1313
  C  C564  1  0.328000  0.970100  0.171700  1.0  0.0709
  C  C565  1  0.278600  0.106900  0.297600  1.0  0.0202
  C  C566  1  0.018400  0.696500  0.169700  1.0  0.154
  C  C567  1  0.375100  0.552700  0.235700  1.0  -0.1092
  C  C568  1  0.352800  0.487200  0.175800  1.0  -0.1357
  C  C569  1  0.399500  0.397400  0.373400  1.0  -0.1168
  C  C570  1  0.334700  0.331400  0.389700  1.0  -0.129
  C  C571  1  0.311500  0.924200  0.140800  1.0  -0.1556
  C  C572  1  0.375300  0.967200  0.184500  1.0  -0.1405
  C  C573  1  0.323900  0.113100  0.316800  1.0  -0.1285
  C  C574  1  0.240300  0.124200  0.322200  1.0  -0.1039
  C  C575  1  0.003400  0.637900  0.163200  1.0  -0.1464
  C  C576  1  0.039400  0.723100  0.136700  1.0  -0.1316
  C  C577  1  0.392700  0.598400  0.207500  1.0  -0.055
  C  C578  1  0.371100  0.532100  0.147300  1.0  -0.0425
  C  C579  1  0.420600  0.383200  0.413600  1.0  -0.0665
  C  C580  1  0.356100  0.316000  0.429300  1.0  -0.0299
  C  C581  1  0.342300  0.880400  0.123400  1.0  -0.0419
  C  C582  1  0.405500  0.922300  0.166900  1.0  -0.0434
  C  C583  1  0.329800  0.133100  0.358800  1.0  -0.0373
  C  C584  1  0.246300  0.145300  0.365100  1.0  -0.056
  C  C585  1  0.011300  0.606000  0.121800  1.0  -0.069
  C  C586  1  0.045200  0.694300  0.096900  1.0  -0.1642
  C  C587  1  0.391200  0.587800  0.163100  1.0  -0.1589
  C  C588  1  0.398900  0.340600  0.441300  1.0  -0.1016
  C  C589  1  0.389300  0.878500  0.136300  1.0  -0.1447
  C  C590  1  0.291600  0.148400  0.384000  1.0  -0.1193
  C  C591  1  0.032300  0.634500  0.089700  1.0  0.0015
  C  C592  1  0.411500  0.634700  0.131900  1.0  0.6713
  C  C593  1  0.421800  0.323200  0.484400  1.0  0.6954
  C  C594  1  0.423300  0.830600  0.117900  1.0  0.7133
  C  C595  1  0.298200  0.167700  0.430900  1.0  0.793
  C  C596  1  0.040200  0.603300  0.046400  1.0  0.7148
  C  C597  1  0.574700  0.204200  0.725900  1.0  0.6799
  C  C598  1  0.548200  0.334900  0.604000  1.0  0.7257
  C  C599  1  0.625100  0.185600  0.735900  1.0  -0.1731
  C  C600  1  0.595100  0.355500  0.622500  1.0  -0.1502
  C  C601  1  0.651100  0.213200  0.769200  1.0  -0.028
  C  C602  1  0.646400  0.138100  0.711000  1.0  -0.0852
  C  C603  1  0.621300  0.313200  0.648600  1.0  -0.0461
  C  C604  1  0.612300  0.416700  0.615000  1.0  -0.038
  C  C605  1  0.495800  0.496000  0.711600  1.0  -0.0777
  C  C606  1  0.697000  0.195800  0.778000  1.0  -0.1452
  C  C607  1  0.692600  0.119400  0.720400  1.0  -0.0996
  C  C608  1  0.663900  0.332600  0.667500  1.0  -0.0802
  C  C609  1  0.654700  0.436100  0.634600  1.0  -0.0891
  C  C610  1  0.495700  0.561000  0.711700  1.0  -0.1099
  C  C611  1  0.719100  0.145600  0.754700  1.0  0.0384
  C  C612  1  0.478700  0.507500  0.584900  1.0  0.0634
  C  C613  1  0.680700  0.394900  0.661700  1.0  0.0431
  C  C614  1  0.766900  0.120800  0.765900  1.0  0.0143
  C  C615  1  0.723800  0.417000  0.685400  1.0  0.0611
  C  C616  1  0.789600  0.078300  0.739200  1.0  -0.1141
  C  C617  1  0.790400  0.136900  0.805700  1.0  -0.116
  C  C618  1  0.755200  0.461600  0.667500  1.0  -0.1012
  C  C619  1  0.732900  0.395800  0.728000  1.0  -0.1213
  C  C620  1  0.509500  0.701500  0.712700  1.0  -0.1233
  C  C621  1  0.833400  0.051100  0.749800  1.0  0.0339
  C  C622  1  0.833800  0.111200  0.817500  1.0  -0.0762
  C  C623  1  0.794500  0.483500  0.691400  1.0  -0.0117
  C  C624  1  0.771700  0.416000  0.752000  1.0  -0.0141
  C  C625  1  0.509100  0.769700  0.711600  1.0  0.0227
  C  C626  1  0.854800  0.067500  0.789500  1.0  -0.121
  C  C627  1  0.854800  0.002800  0.720400  1.0  0.0014
  C  C628  1  0.856500  0.127700  0.860500  1.0  0.0074
  C  C629  1  0.802000  0.460500  0.732900  1.0  -0.1308
  C  C630  1  0.828000  0.529900  0.671700  1.0  0.0692
  C  C631  1  0.778600  0.393100  0.797600  1.0  0.0202
  C  C632  1  0.518400  0.803500  0.669700  1.0  0.1542
  C  C633  1  0.875100  0.947300  0.735700  1.0  -0.1094
  C  C634  1  0.852800  0.012800  0.675800  1.0  -0.137
  C  C635  1  0.899500  0.102600  0.873400  1.0  -0.117
  C  C636  1  0.834700  0.168600  0.889700  1.0  -0.1293
  C  C637  1  0.811500  0.575800  0.640800  1.0  -0.1554
  C  C638  1  0.875300  0.532800  0.684500  1.0  -0.14
  C  C639  1  0.823900  0.386900  0.816800  1.0  -0.1285
  C  C640  1  0.740300  0.375800  0.822200  1.0  -0.1039
  C  C641  1  0.503400  0.862100  0.663200  1.0  -0.1456
  C  C642  1  0.539400  0.776900  0.636700  1.0  -0.1324
  C  C643  1  0.892700  0.901600  0.707500  1.0  -0.0549
  C  C644  1  0.871100  0.967900  0.647300  1.0  -0.0445
  C  C645  1  0.920600  0.116800  0.913600  1.0  -0.0663
  C  C646  1  0.856100  0.184000  0.929300  1.0  -0.0304
  C  C647  1  0.842300  0.619600  0.623400  1.0  -0.0414
  C  C648  1  0.905500  0.577700  0.666900  1.0  -0.0446
  C  C649  1  0.829800  0.366900  0.858800  1.0  -0.0366
  C  C650  1  0.746300  0.354700  0.865100  1.0  -0.0557
  C  C651  1  0.511300  0.894000  0.621800  1.0  -0.0675
  C  C652  1  0.545200  0.805700  0.596900  1.0  -0.1642
  C  C653  1  0.891200  0.912200  0.663100  1.0  -0.16
  C  C654  1  0.898900  0.159400  0.941300  1.0  -0.1023
  C  C655  1  0.889300  0.621500  0.636300  1.0  -0.1441
  C  C656  1  0.791600  0.351600  0.884000  1.0  -0.1189
  C  C657  1  0.532300  0.865500  0.589700  1.0  0.0036
  C  C658  1  0.911500  0.865300  0.631900  1.0  0.6712
  C  C659  1  0.921800  0.176800  0.984400  1.0  0.6957
  C  C660  1  0.923300  0.669400  0.617900  1.0  0.7131
  C  C661  1  0.798200  0.332300  0.930900  1.0  0.7946
  C  C662  1  0.540200  0.896700  0.546400  1.0  0.7141
  C  C663  1  0.074700  0.704200  0.725900  1.0  0.6799
  C  C664  1  0.048200  0.834900  0.604000  1.0  0.7257
  C  C665  1  0.125100  0.685600  0.735900  1.0  -0.1731
  C  C666  1  0.095100  0.855500  0.622500  1.0  -0.1502
  C  C667  1  0.151100  0.713200  0.769200  1.0  -0.028
  C  C668  1  0.146400  0.638100  0.711000  1.0  -0.0852
  C  C669  1  0.121300  0.813200  0.648600  1.0  -0.0461
  C  C670  1  0.112300  0.916700  0.615000  1.0  -0.038
  C  C671  1  0.995800  0.996000  0.711600  1.0  -0.0777
  C  C672  1  0.197000  0.695800  0.778000  1.0  -0.1452
  C  C673  1  0.192600  0.619400  0.720400  1.0  -0.0996
  C  C674  1  0.163900  0.832600  0.667500  1.0  -0.0802
  C  C675  1  0.154700  0.936100  0.634600  1.0  -0.0891
  C  C676  1  0.995700  0.061000  0.711700  1.0  -0.1099
  C  C677  1  0.219100  0.645600  0.754700  1.0  0.0384
  C  C678  1  0.978700  0.007500  0.584900  1.0  0.063
  C  C679  1  0.180700  0.894900  0.661700  1.0  0.0431
  C  C680  1  0.266900  0.620800  0.765900  1.0  0.0143
  C  C681  1  0.223800  0.917000  0.685400  1.0  0.0611
  C  C682  1  0.289600  0.578300  0.739200  1.0  -0.1141
  C  C683  1  0.290400  0.636900  0.805700  1.0  -0.116
  C  C684  1  0.255200  0.961600  0.667500  1.0  -0.1013
  C  C685  1  0.232900  0.895800  0.728000  1.0  -0.1213
  C  C686  1  0.009500  0.201500  0.712700  1.0  -0.1233
  C  C687  1  0.333400  0.551100  0.749800  1.0  0.0339
  C  C688  1  0.333800  0.611200  0.817500  1.0  -0.0762
  C  C689  1  0.294500  0.983500  0.691400  1.0  -0.0117
  C  C690  1  0.271700  0.916000  0.752000  1.0  -0.0141
  C  C691  1  0.009100  0.269700  0.711600  1.0  0.0227
  C  C692  1  0.354800  0.567500  0.789500  1.0  -0.121
  C  C693  1  0.354800  0.502800  0.720400  1.0  0.0014
  C  C694  1  0.356500  0.627700  0.860500  1.0  0.0074
  C  C695  1  0.302000  0.960500  0.732900  1.0  -0.1308
  C  C696  1  0.328000  0.029900  0.671700  1.0  0.0692
  C  C697  1  0.278600  0.893100  0.797600  1.0  0.0202
  C  C698  1  0.018400  0.303500  0.669700  1.0  0.1542
  C  C699  1  0.375100  0.447300  0.735700  1.0  -0.1094
  C  C700  1  0.352800  0.512800  0.675800  1.0  -0.137
  C  C701  1  0.399500  0.602600  0.873400  1.0  -0.117
  C  C702  1  0.334700  0.668600  0.889700  1.0  -0.1293
  C  C703  1  0.311500  0.075800  0.640800  1.0  -0.1554
  C  C704  1  0.375300  0.032800  0.684500  1.0  -0.14
  C  C705  1  0.323900  0.886900  0.816800  1.0  -0.1285
  C  C706  1  0.240300  0.875800  0.822200  1.0  -0.1039
  C  C707  1  0.003400  0.362100  0.663200  1.0  -0.1456
  C  C708  1  0.039400  0.276900  0.636700  1.0  -0.1324
  C  C709  1  0.392700  0.401600  0.707500  1.0  -0.0549
  C  C710  1  0.371100  0.467900  0.647300  1.0  -0.0445
  C  C711  1  0.420600  0.616800  0.913600  1.0  -0.0663
  C  C712  1  0.356100  0.684000  0.929300  1.0  -0.0304
  C  C713  1  0.342300  0.119600  0.623400  1.0  -0.0414
  C  C714  1  0.405500  0.077700  0.666900  1.0  -0.0446
  C  C715  1  0.329800  0.866900  0.858800  1.0  -0.0366
  C  C716  1  0.246300  0.854700  0.865100  1.0  -0.0557
  C  C717  1  0.011300  0.394000  0.621800  1.0  -0.0675
  C  C718  1  0.045200  0.305700  0.596900  1.0  -0.1642
  C  C719  1  0.391200  0.412200  0.663100  1.0  -0.16
  C  C720  1  0.398900  0.659400  0.941300  1.0  -0.1023
  C  C721  1  0.389300  0.121500  0.636300  1.0  -0.1441
  C  C722  1  0.291600  0.851600  0.884000  1.0  -0.1189
  C  C723  1  0.032300  0.365500  0.589700  1.0  0.0036
  C  C724  1  0.411500  0.365300  0.631900  1.0  0.6712
  C  C725  1  0.421800  0.676800  0.984400  1.0  0.6957
  C  C726  1  0.423300  0.169400  0.617900  1.0  0.7131
  C  C727  1  0.298200  0.832300  0.930900  1.0  0.7946
  C  C728  1  0.040200  0.396700  0.546400  1.0  0.7141
  C  C729  1  0.425300  0.204200  0.774100  1.0  0.6792
  C  C730  1  0.451800  0.334900  0.896000  1.0  0.7249
  C  C731  1  0.374900  0.185600  0.764100  1.0  -0.1722
  C  C732  1  0.404900  0.355500  0.877500  1.0  -0.1444
  C  C733  1  0.348900  0.213200  0.730800  1.0  -0.0287
  C  C734  1  0.353600  0.138100  0.789000  1.0  -0.0888
  C  C735  1  0.378700  0.313200  0.851400  1.0  -0.0462
  C  C736  1  0.387700  0.416700  0.885000  1.0  -0.0403
  C  C737  1  0.504200  0.496000  0.788400  1.0  -0.0764
  C  C738  1  0.303000  0.195800  0.722000  1.0  -0.1443
  C  C739  1  0.307400  0.119400  0.779600  1.0  -0.1005
  C  C740  1  0.336100  0.332600  0.832500  1.0  -0.0801
  C  C741  1  0.345300  0.436100  0.865400  1.0  -0.0922
  C  C742  1  0.504300  0.561000  0.788300  1.0  -0.1099
  C  C743  1  0.280900  0.145600  0.745300  1.0  0.0391
  C  C744  1  0.521300  0.507500  0.915100  1.0  0.0649
  C  C745  1  0.319300  0.394900  0.838300  1.0  0.0437
  C  C746  1  0.233100  0.120800  0.734100  1.0  0.0148
  C  C747  1  0.276200  0.417000  0.814600  1.0  0.0628
  C  C748  1  0.210400  0.078300  0.760800  1.0  -0.1163
  C  C749  1  0.209600  0.136900  0.694300  1.0  -0.1157
  C  C750  1  0.244800  0.461600  0.832500  1.0  -0.1024
  C  C751  1  0.267100  0.395800  0.772000  1.0  -0.123
  C  C752  1  0.490500  0.701500  0.787300  1.0  -0.1231
  C  C753  1  0.166600  0.051100  0.750200  1.0  0.0334
  C  C754  1  0.166200  0.111200  0.682500  1.0  -0.0768
  C  C755  1  0.205500  0.483500  0.808600  1.0  -0.0093
  C  C756  1  0.228300  0.416000  0.748000  1.0  -0.0123
  C  C757  1  0.490900  0.769700  0.788400  1.0  0.0219
  C  C758  1  0.145200  0.067500  0.710500  1.0  -0.1202
  C  C759  1  0.145200  0.002800  0.779600  1.0  -0.0003
  C  C760  1  0.143500  0.127700  0.639500  1.0  0.007
  C  C761  1  0.198000  0.460500  0.767100  1.0  -0.1317
  C  C762  1  0.172000  0.529900  0.828300  1.0  0.0723
  C  C763  1  0.221400  0.393100  0.702400  1.0  0.0211
  C  C764  1  0.481600  0.803500  0.830300  1.0  0.1554
  C  C765  1  0.124900  0.947300  0.764300  1.0  -0.1072
  C  C766  1  0.147200  0.012800  0.824200  1.0  -0.1362
  C  C767  1  0.100500  0.102600  0.626600  1.0  -0.115
  C  C768  1  0.165300  0.168600  0.610300  1.0  -0.1302
  C  C769  1  0.188500  0.575800  0.859200  1.0  -0.1576
  C  C770  1  0.124700  0.532800  0.815500  1.0  -0.1385
  C  C771  1  0.176100  0.386900  0.683200  1.0  -0.1291
  C  C772  1  0.259700  0.375800  0.677800  1.0  -0.1066
  C  C773  1  0.496600  0.862100  0.836800  1.0  -0.1452
  C  C774  1  0.460600  0.776900  0.863300  1.0  -0.1304
  C  C775  1  0.107300  0.901600  0.792500  1.0  -0.0535
  C  C776  1  0.128900  0.967900  0.852700  1.0  -0.043
  C  C777  1  0.079400  0.116800  0.586400  1.0  -0.0645
  C  C778  1  0.143900  0.184000  0.570700  1.0  -0.0289
  C  C779  1  0.157700  0.619600  0.876600  1.0  -0.0429
  C  C780  1  0.094500  0.577700  0.833100  1.0  -0.0439
  C  C781  1  0.170200  0.366900  0.641200  1.0  -0.0381
  C  C782  1  0.253700  0.354700  0.634900  1.0  -0.0564
  C  C783  1  0.488700  0.894000  0.878200  1.0  -0.0696
  C  C784  1  0.454800  0.805700  0.903100  1.0  -0.1631
  C  C785  1  0.108800  0.912200  0.836900  1.0  -0.1569
  C  C786  1  0.101100  0.159400  0.558700  1.0  -0.1036
  C  C787  1  0.110700  0.621500  0.863700  1.0  -0.146
  C  C788  1  0.208400  0.351600  0.616000  1.0  -0.1198
  C  C789  1  0.467700  0.865500  0.910300  1.0  0.001
  C  C790  1  0.088500  0.865300  0.868100  1.0  0.6729
  C  C791  1  0.078200  0.176800  0.515600  1.0  0.694
  C  C792  1  0.076700  0.669400  0.882100  1.0  0.7116
  C  C793  1  0.201800  0.332300  0.569100  1.0  0.7978
  C  C794  1  0.459800  0.896700  0.953600  1.0  0.7143
  C  C795  1  0.925300  0.704200  0.774100  1.0  0.6792
  C  C796  1  0.951800  0.834900  0.896000  1.0  0.7249
  C  C797  1  0.874900  0.685600  0.764100  1.0  -0.1722
  C  C798  1  0.904900  0.855500  0.877500  1.0  -0.1444
  C  C799  1  0.848900  0.713200  0.730800  1.0  -0.0287
  C  C800  1  0.853600  0.638100  0.789000  1.0  -0.0888
  C  C801  1  0.878700  0.813200  0.851400  1.0  -0.0462
  C  C802  1  0.887700  0.916700  0.885000  1.0  -0.0403
  C  C803  1  0.004200  0.996000  0.788400  1.0  -0.0763
  C  C804  1  0.803000  0.695800  0.722000  1.0  -0.1443
  C  C805  1  0.807400  0.619400  0.779600  1.0  -0.1005
  C  C806  1  0.836100  0.832600  0.832500  1.0  -0.0801
  C  C807  1  0.845300  0.936100  0.865400  1.0  -0.0922
  C  C808  1  0.004300  0.061000  0.788300  1.0  -0.1099
  C  C809  1  0.780900  0.645600  0.745300  1.0  0.0391
  C  C810  1  0.021300  0.007500  0.915100  1.0  0.0644
  C  C811  1  0.819300  0.894900  0.838300  1.0  0.0437
  C  C812  1  0.733100  0.620800  0.734100  1.0  0.0148
  C  C813  1  0.776200  0.917000  0.814600  1.0  0.0628
  C  C814  1  0.710400  0.578300  0.760800  1.0  -0.1171
  C  C815  1  0.709600  0.636900  0.694300  1.0  -0.1157
  C  C816  1  0.744800  0.961600  0.832500  1.0  -0.1024
  C  C817  1  0.767100  0.895800  0.772000  1.0  -0.123
  C  C818  1  0.990500  0.201500  0.787300  1.0  -0.1231
  C  C819  1  0.666667  0.551100  0.750200  1.0  0.03
  C  C820  1  0.666200  0.611200  0.682500  1.0  -0.0768
  C  C821  1  0.705500  0.983500  0.808600  1.0  -0.0093
  C  C822  1  0.728300  0.916000  0.748000  1.0  -0.0123
  C  C823  1  0.990900  0.269700  0.788400  1.0  0.0219
  C  C824  1  0.645200  0.567500  0.710500  1.0  -0.1189
  C  C825  1  0.645200  0.502800  0.779600  1.0  -0.0007
  C  C826  1  0.643500  0.627700  0.639500  1.0  0.007
  C  C827  1  0.698000  0.960500  0.767100  1.0  -0.1317
  C  C828  1  0.672000  0.029900  0.828300  1.0  0.0723
  C  C829  1  0.721400  0.893100  0.702400  1.0  0.0211
  C  C830  1  0.981600  0.303500  0.830300  1.0  0.1554
  C  C831  1  0.624900  0.447300  0.764300  1.0  -0.1074
  C  C832  1  0.647200  0.512800  0.824200  1.0  -0.1362
  C  C833  1  0.600500  0.602600  0.626600  1.0  -0.115
  C  C834  1  0.665300  0.668600  0.610300  1.0  -0.1302
  C  C835  1  0.688500  0.075800  0.859200  1.0  -0.1576
  C  C836  1  0.624700  0.032800  0.815500  1.0  -0.1385
  C  C837  1  0.676100  0.886900  0.683200  1.0  -0.1291
  C  C838  1  0.759700  0.875800  0.677800  1.0  -0.1066
  C  C839  1  0.996600  0.362100  0.836800  1.0  -0.1452
  C  C840  1  0.960600  0.276900  0.863300  1.0  -0.1304
  C  C841  1  0.607300  0.401600  0.792500  1.0  -0.0536
  C  C842  1  0.628900  0.467900  0.852700  1.0  -0.043
  C  C843  1  0.579400  0.616800  0.586400  1.0  -0.0643
  C  C844  1  0.643900  0.684000  0.570700  1.0  -0.0289
  C  C845  1  0.657700  0.119600  0.876600  1.0  -0.0429
  C  C846  1  0.594500  0.077700  0.833100  1.0  -0.0439
  C  C847  1  0.670200  0.866900  0.641200  1.0  -0.0381
  C  C848  1  0.753700  0.854700  0.634900  1.0  -0.0564
  C  C849  1  0.988700  0.394000  0.878200  1.0  -0.0696
  C  C850  1  0.954800  0.305700  0.903100  1.0  -0.1631
  C  C851  1  0.608800  0.412200  0.836900  1.0  -0.1569
  C  C852  1  0.601100  0.659400  0.558700  1.0  -0.1036
  C  C853  1  0.610700  0.121500  0.863700  1.0  -0.146
  C  C854  1  0.708400  0.851600  0.616000  1.0  -0.1198
  C  C855  1  0.967700  0.365500  0.910300  1.0  0.001
  C  C856  1  0.588500  0.365300  0.868100  1.0  0.6729
  C  C857  1  0.578200  0.676800  0.515600  1.0  0.694
  C  C858  1  0.576700  0.169400  0.882100  1.0  0.7116
  C  C859  1  0.701800  0.832300  0.569100  1.0  0.7978
  C  C860  1  0.959800  0.396700  0.953600  1.0  0.7143
  C  C861  1  0.500000  0.609700  0.250000  1.0  0.6891
  C  C862  1  0.500000  0.538500  0.250000  1.0  -0.0987
  C  C863  1  0.500000  0.403100  0.250000  1.0  0.0805
  C  C864  1  0.500000  0.332400  0.250000  1.0  -0.0263
  C  C865  1  0.500000  0.198900  0.250000  1.0  -0.0959
  C  C866  1  0.000000  0.109700  0.250000  1.0  0.6892
  C  C867  1  0.000000  0.038500  0.250000  1.0  -0.0987
  C  C868  1  0.000000  0.903100  0.250000  1.0  0.0805
  C  C869  1  0.000000  0.832400  0.250000  1.0  -0.0263
  C  C870  1  0.000000  0.698900  0.250000  1.0  -0.0958
  C  C871  1  0.500000  0.390300  0.750000  1.0  0.6878
  C  C872  1  0.500000  0.461500  0.750000  1.0  -0.0969
  C  C873  1  0.500000  0.596900  0.750000  1.0  0.081
  C  C874  1  0.500000  0.667600  0.750000  1.0  -0.0262
  C  C875  1  0.500000  0.801100  0.750000  1.0  -0.0959
  C  C876  1  0.000000  0.890300  0.750000  1.0  0.6878
  C  C877  1  0.000000  0.961500  0.750000  1.0  -0.0969
  C  C878  1  0.000000  0.096900  0.750000  1.0  0.0811
  C  C879  1  0.000000  0.167600  0.750000  1.0  -0.0263
  C  C880  1  0.000000  0.301100  0.750000  1.0  -0.0959
  N  N881  1  0.457200  0.569700  0.580500  1.0  -0.3109
  N  N882  1  0.957200  0.069700  0.580500  1.0  -0.3109
  N  N883  1  0.542800  0.569700  0.919500  1.0  -0.3094
  N  N884  1  0.042800  0.069700  0.919500  1.0  -0.3094
  N  N885  1  0.542800  0.430300  0.419500  1.0  -0.3087
  N  N886  1  0.042800  0.930300  0.419500  1.0  -0.3087
  N  N887  1  0.457200  0.430300  0.080500  1.0  -0.309
  N  N888  1  0.957200  0.930300  0.080500  1.0  -0.309
  O  O889  1  0.444300  0.814000  0.309100  1.0  -0.7054
  O  O890  1  0.445600  0.761200  0.247500  1.0  -0.7304
  O  O891  1  0.471400  0.713500  0.380200  1.0  -0.7152
  O  O892  1  0.493800  0.637700  0.285800  1.0  -0.6952
  O  O893  1  0.539300  0.819200  0.361900  1.0  -0.7853
  O  O894  1  0.570400  0.686400  0.353600  1.0  -0.728
  O  O895  1  0.469900  0.634900  0.427200  1.0  -0.7567
  O  O896  1  0.589100  0.622000  0.408000  1.0  -0.6111
  O  O897  1  0.587500  0.804800  0.418600  1.0  -0.7647
  O  O898  1  0.594200  0.724200  0.494800  1.0  -0.7737
  O  O899  1  0.543200  0.646000  0.501600  1.0  -0.7976
  O  O900  1  0.507700  0.503800  0.454100  1.0  -0.7668
  O  O901  1  0.162300  0.657600  0.052100  1.0  -0.7613
  O  O902  1  0.235600  0.692300  0.050100  1.0  -0.5368
  O  O903  1  0.448000  0.136500  0.485400  1.0  -0.6876
  O  O904  1  0.466600  0.044800  0.456600  1.0  -0.4321
  O  O905  1  0.944300  0.314000  0.309100  1.0  -0.7054
  O  O906  1  0.945600  0.261200  0.247500  1.0  -0.7304
  O  O907  1  0.971400  0.213500  0.380200  1.0  -0.7152
  O  O908  1  0.993800  0.137700  0.285800  1.0  -0.6952
  O  O909  1  0.039300  0.319200  0.361900  1.0  -0.7853
  O  O910  1  0.070400  0.186400  0.353600  1.0  -0.728
  O  O911  1  0.969900  0.134900  0.427200  1.0  -0.7567
  O  O912  1  0.089100  0.122000  0.408000  1.0  -0.6111
  O  O913  1  0.087500  0.304800  0.418600  1.0  -0.7647
  O  O914  1  0.094200  0.224200  0.494800  1.0  -0.7737
  O  O915  1  0.043200  0.146000  0.501600  1.0  -0.7976
  O  O916  1  0.007700  0.003800  0.454100  1.0  -0.7668
  O  O917  1  0.662300  0.157600  0.052100  1.0  -0.7613
  O  O918  1  0.735600  0.192300  0.050100  1.0  -0.5368
  O  O919  1  0.948000  0.636500  0.485400  1.0  -0.6876
  O  O920  1  0.966600  0.544800  0.456600  1.0  -0.4321
  O  O921  1  0.555700  0.814000  0.190900  1.0  -0.7073
  O  O922  1  0.554400  0.761200  0.252500  1.0  -0.7311
  O  O923  1  0.528600  0.713500  0.119800  1.0  -0.7145
  O  O924  1  0.506200  0.637700  0.214200  1.0  -0.6957
  O  O925  1  0.460700  0.819200  0.138100  1.0  -0.7861
  O  O926  1  0.429600  0.686400  0.146400  1.0  -0.726
  O  O927  1  0.530100  0.634900  0.072800  1.0  -0.7587
  O  O928  1  0.410900  0.622000  0.092000  1.0  -0.6081
  O  O929  1  0.412500  0.804800  0.081400  1.0  -0.7639
  O  O930  1  0.405800  0.724200  0.005200  1.0  -0.7711
  O  O931  1  0.456800  0.646000  0.998400  1.0  -0.7968
  O  O932  1  0.492300  0.503800  0.045900  1.0  -0.7673
  O  O933  1  0.837700  0.657600  0.447900  1.0  -0.7626
  O  O934  1  0.764400  0.692300  0.449900  1.0  -0.5382
  O  O935  1  0.552000  0.136500  0.014600  1.0  -0.6853
  O  O936  1  0.533400  0.044800  0.043400  1.0  -0.4326
  O  O937  1  0.055700  0.314000  0.190900  1.0  -0.7073
  O  O938  1  0.054400  0.261200  0.252500  1.0  -0.7311
  O  O939  1  0.028600  0.213500  0.119800  1.0  -0.7145
  O  O940  1  0.006200  0.137700  0.214200  1.0  -0.6957
  O  O941  1  0.960700  0.319200  0.138100  1.0  -0.7861
  O  O942  1  0.929600  0.186400  0.146400  1.0  -0.726
  O  O943  1  0.030100  0.134900  0.072800  1.0  -0.7587
  O  O944  1  0.910900  0.122000  0.092000  1.0  -0.6082
  O  O945  1  0.912500  0.304800  0.081400  1.0  -0.7639
  O  O946  1  0.905800  0.224200  0.005200  1.0  -0.7711
  O  O947  1  0.956800  0.146000  0.998400  1.0  -0.7968
  O  O948  1  0.992300  0.003800  0.045900  1.0  -0.7673
  O  O949  1  0.337700  0.157600  0.447900  1.0  -0.7626
  O  O950  1  0.264400  0.192300  0.449900  1.0  -0.5382
  O  O951  1  0.052000  0.636500  0.014600  1.0  -0.6853
  O  O952  1  0.033400  0.544800  0.043400  1.0  -0.4326
  O  O953  1  0.555700  0.186000  0.690900  1.0  -0.7064
  O  O954  1  0.554400  0.238800  0.752500  1.0  -0.7306
  O  O955  1  0.528600  0.286500  0.619800  1.0  -0.7152
  O  O956  1  0.506200  0.362300  0.714200  1.0  -0.6963
  O  O957  1  0.460700  0.180800  0.638100  1.0  -0.7859
  O  O958  1  0.429600  0.313600  0.646400  1.0  -0.727
  O  O959  1  0.530100  0.365100  0.572800  1.0  -0.757
  O  O960  1  0.410900  0.378000  0.592000  1.0  -0.6083
  O  O961  1  0.412500  0.195200  0.581400  1.0  -0.7622
  O  O962  1  0.405800  0.275800  0.505200  1.0  -0.7715
  O  O963  1  0.456800  0.354000  0.498400  1.0  -0.797
  O  O964  1  0.492300  0.496200  0.545900  1.0  -0.7678
  O  O965  1  0.837700  0.342400  0.947900  1.0  -0.7634
  O  O966  1  0.764400  0.307700  0.949900  1.0  -0.5381
  O  O967  1  0.552000  0.863500  0.514600  1.0  -0.6866
  O  O968  1  0.533400  0.955200  0.543400  1.0  -0.4312
  O  O969  1  0.055700  0.686000  0.690900  1.0  -0.7064
  O  O970  1  0.054400  0.738800  0.752500  1.0  -0.7306
  O  O971  1  0.028600  0.786500  0.619800  1.0  -0.7152
  O  O972  1  0.006200  0.862300  0.714200  1.0  -0.6963
  O  O973  1  0.960700  0.680800  0.638100  1.0  -0.7859
  O  O974  1  0.929600  0.813600  0.646400  1.0  -0.727
  O  O975  1  0.030100  0.865100  0.572800  1.0  -0.757
  O  O976  1  0.910900  0.878000  0.592000  1.0  -0.6083
  O  O977  1  0.912500  0.695200  0.581400  1.0  -0.7622
  O  O978  1  0.905800  0.775800  0.505200  1.0  -0.7715
  O  O979  1  0.956800  0.854000  0.498400  1.0  -0.797
  O  O980  1  0.992300  0.996200  0.545900  1.0  -0.7678
  O  O981  1  0.337700  0.842400  0.947900  1.0  -0.7634
  O  O982  1  0.264400  0.807700  0.949900  1.0  -0.5381
  O  O983  1  0.052000  0.363500  0.514600  1.0  -0.6866
  O  O984  1  0.033400  0.455200  0.543400  1.0  -0.4312
  O  O985  1  0.444300  0.186000  0.809100  1.0  -0.7056
  O  O986  1  0.445600  0.238800  0.747500  1.0  -0.7304
  O  O987  1  0.471400  0.286500  0.880200  1.0  -0.7148
  O  O988  1  0.493800  0.362300  0.785800  1.0  -0.6954
  O  O989  1  0.539300  0.180800  0.861900  1.0  -0.784
  O  O990  1  0.570400  0.313600  0.853600  1.0  -0.7282
  O  O991  1  0.469900  0.365100  0.927200  1.0  -0.755
  O  O992  1  0.589100  0.378000  0.908000  1.0  -0.6109
  O  O993  1  0.587500  0.195200  0.918600  1.0  -0.7628
  O  O994  1  0.594200  0.275800  0.994800  1.0  -0.7746
  O  O995  1  0.543200  0.354000  0.001600  1.0  -0.797
  O  O996  1  0.507700  0.496200  0.954100  1.0  -0.7668
  O  O997  1  0.162300  0.342400  0.552100  1.0  -0.7616
  O  O998  1  0.235600  0.307700  0.550100  1.0  -0.5363
  O  O999  1  0.448000  0.863500  0.985400  1.0  -0.6885
  O  O1000  1  0.466600  0.955200  0.956600  1.0  -0.4315
  O  O1001  1  0.944300  0.686000  0.809100  1.0  -0.7056
  O  O1002  1  0.945600  0.738800  0.747500  1.0  -0.7304
  O  O1003  1  0.971400  0.786500  0.880200  1.0  -0.7148
  O  O1004  1  0.993800  0.862300  0.785800  1.0  -0.6954
  O  O1005  1  0.039300  0.680800  0.861900  1.0  -0.784
  O  O1006  1  0.070400  0.813600  0.853600  1.0  -0.7282
  O  O1007  1  0.969900  0.865100  0.927200  1.0  -0.755
  O  O1008  1  0.089100  0.878000  0.908000  1.0  -0.611
  O  O1009  1  0.087500  0.695200  0.918600  1.0  -0.7628
  O  O1010  1  0.094200  0.775800  0.994800  1.0  -0.7746
  O  O1011  1  0.043200  0.854000  0.001600  1.0  -0.797
  O  O1012  1  0.007700  0.996200  0.954100  1.0  -0.7668
  O  O1013  1  0.662300  0.842400  0.552100  1.0  -0.7616
  O  O1014  1  0.735600  0.807700  0.550100  1.0  -0.5363
  O  O1015  1  0.948000  0.363500  0.985400  1.0  -0.6885
  O  O1016  1  0.966600  0.455200  0.956600  1.0  -0.4315
