# generated using pymatgen
data_Sr5H68(C27O7)4
_symmetry_space_group_name_H-M   'P 1'
_cell_length_a   18.21970000
_cell_length_b   31.59780000
_cell_length_c   29.86200000
_cell_angle_alpha   90.00000000
_cell_angle_beta   101.31100000
_cell_angle_gamma   90.00000000
_symmetry_Int_Tables_number   1
_chemical_formula_structural   Sr5H68(C27O7)4
_chemical_formula_sum   'Sr20 H272 C432 O112'
_cell_volume   16857.71357846
_cell_formula_units_Z   4
loop_
 _symmetry_equiv_pos_site_id
 _symmetry_equiv_pos_as_xyz
  1  'x, y, z'
loop_
 _atom_site_type_symbol
 _atom_site_label
 _atom_site_symmetry_multiplicity
 _atom_site_fract_x
 _atom_site_fract_y
 _atom_site_fract_z
 _atom_site_occupancy
 _atom_site_charge
  Sr  Sr1  1  0.303820  0.350180  0.577900  1.0  1.5297
  Sr  Sr2  1  0.351430  0.460560  0.530120  1.0  1.5753
  Sr  Sr3  1  0.803820  0.850180  0.577900  1.0  1.5297
  Sr  Sr4  1  0.851430  0.960560  0.530120  1.0  1.5753
  Sr  Sr5  1  0.696180  0.350180  0.922100  1.0  1.5289
  Sr  Sr6  1  0.648570  0.460560  0.969880  1.0  1.5777
  Sr  Sr7  1  0.196180  0.850180  0.922100  1.0  1.5289
  Sr  Sr8  1  0.148570  0.960560  0.969880  1.0  1.5777
  Sr  Sr9  1  0.696180  0.649820  0.422100  1.0  1.5297
  Sr  Sr10  1  0.648570  0.539440  0.469880  1.0  1.5778
  Sr  Sr11  1  0.196180  0.149820  0.422100  1.0  1.5294
  Sr  Sr12  1  0.148570  0.039440  0.469880  1.0  1.5778
  Sr  Sr13  1  0.303820  0.649820  0.077900  1.0  1.5309
  Sr  Sr14  1  0.351430  0.539440  0.030120  1.0  1.5765
  Sr  Sr15  1  0.803820  0.149820  0.077900  1.0  1.5307
  Sr  Sr16  1  0.851430  0.039440  0.030120  1.0  1.5765
  Sr  Sr17  1  0.250000  0.250000  0.500000  1.0  1.592
  Sr  Sr18  1  0.750000  0.250000  0.000000  1.0  1.592
  Sr  Sr19  1  0.750000  0.750000  0.500000  1.0  1.592
  Sr  Sr20  1  0.250000  0.750000  0.000000  1.0  1.592
  H  H21  1  0.424400  0.505300  0.634100  1.0  0.4539
  H  H22  1  0.359700  0.491100  0.605400  1.0  0.44
  H  H23  1  0.461600  0.520300  0.508100  1.0  0.4283
  H  H24  1  0.433000  0.515700  0.547700  1.0  0.3894
  H  H25  1  0.256900  0.304600  0.405600  1.0  0.098
  H  H26  1  0.214900  0.313600  0.327800  1.0  0.1153
  H  H27  1  0.181900  0.436500  0.347700  1.0  0.1154
  H  H28  1  0.222600  0.427900  0.425400  1.0  0.1091
  H  H29  1  0.108200  0.329000  0.267100  1.0  0.1135
  H  H30  1  0.106600  0.398900  0.155700  1.0  0.113
  H  H31  1  0.224300  0.436900  0.275300  1.0  0.1072
  H  H32  1  0.192500  0.437100  0.129500  1.0  0.1086
  H  H33  1  0.197900  0.502300  0.243300  1.0  0.1186
  H  H34  1  0.249200  0.560300  0.211600  1.0  0.1172
  H  H35  1  0.064800  0.280200  0.222400  1.0  0.1149
  H  H36  1  0.005200  0.364700  0.125500  1.0  0.1136
  H  H37  1  0.920200  0.317200  0.085800  1.0  0.1045
  H  H38  1  0.063500  0.253100  0.516400  1.0  0.1247
  H  H39  1  0.042200  0.341900  0.609100  1.0  0.1203
  H  H40  1  0.980800  0.232900  0.182000  1.0  0.1177
  H  H41  1  0.232500  0.495800  0.095400  1.0  0.0939
  H  H42  1  0.610000  0.400000  0.530700  1.0  0.1138
  H  H43  1  0.704300  0.350800  0.536400  1.0  0.0987
  H  H44  1  0.587400  0.270900  0.598100  1.0  0.1151
  H  H45  1  0.494200  0.320900  0.593900  1.0  0.0983
  H  H46  1  0.802900  0.312900  0.575600  1.0  0.1148
  H  H47  1  0.860200  0.193400  0.552500  1.0  0.113
  H  H48  1  0.647300  0.221600  0.558800  1.0  0.1082
  H  H49  1  0.947300  0.227600  0.521400  1.0  0.0999
  H  H50  1  0.923800  0.318500  0.609000  1.0  0.1158
  H  H51  1  0.799900  0.060000  0.551400  1.0  0.0955
  H  H52  1  0.827200  0.128600  0.574300  1.0  0.1169
  H  H53  1  0.624400  0.164600  0.509800  1.0  0.1099
  H  H54  1  0.598500  0.096300  0.486600  1.0  0.1102
  H  H55  1  0.924400  0.005300  0.634100  1.0  0.4537
  H  H56  1  0.859700  0.991100  0.605400  1.0  0.44
  H  H57  1  0.961600  0.020300  0.508100  1.0  0.4283
  H  H58  1  0.933000  0.015700  0.547700  1.0  0.3899
  H  H59  1  0.756900  0.804600  0.405600  1.0  0.098
  H  H60  1  0.714900  0.813600  0.327800  1.0  0.1153
  H  H61  1  0.681900  0.936500  0.347700  1.0  0.1154
  H  H62  1  0.722600  0.927900  0.425400  1.0  0.1091
  H  H63  1  0.608200  0.829000  0.267100  1.0  0.1135
  H  H64  1  0.606600  0.898900  0.155700  1.0  0.113
  H  H65  1  0.724300  0.936900  0.275300  1.0  0.1072
  H  H66  1  0.692500  0.937100  0.129500  1.0  0.1086
  H  H67  1  0.697900  0.002300  0.243300  1.0  0.1186
  H  H68  1  0.749200  0.060300  0.211600  1.0  0.1172
  H  H69  1  0.564800  0.780200  0.222400  1.0  0.1149
  H  H70  1  0.505200  0.864700  0.125500  1.0  0.1136
  H  H71  1  0.420200  0.817200  0.085800  1.0  0.1045
  H  H72  1  0.563500  0.753100  0.516400  1.0  0.1247
  H  H73  1  0.542200  0.841900  0.609100  1.0  0.1203
  H  H74  1  0.480800  0.732900  0.182000  1.0  0.1177
  H  H75  1  0.732500  0.995800  0.095400  1.0  0.0939
  H  H76  1  0.110000  0.900000  0.530700  1.0  0.1138
  H  H77  1  0.204300  0.850800  0.536400  1.0  0.0987
  H  H78  1  0.087400  0.770900  0.598100  1.0  0.1151
  H  H79  1  0.994200  0.820900  0.593900  1.0  0.0983
  H  H80  1  0.302900  0.812900  0.575600  1.0  0.1148
  H  H81  1  0.360200  0.693400  0.552500  1.0  0.113
  H  H82  1  0.147300  0.721600  0.558800  1.0  0.1082
  H  H83  1  0.447300  0.727600  0.521400  1.0  0.0999
  H  H84  1  0.423800  0.818500  0.609000  1.0  0.1158
  H  H85  1  0.299900  0.560000  0.551400  1.0  0.0955
  H  H86  1  0.327200  0.628600  0.574300  1.0  0.1169
  H  H87  1  0.124400  0.664600  0.509800  1.0  0.1099
  H  H88  1  0.098500  0.596300  0.486600  1.0  0.1102
  H  H89  1  0.575600  0.505300  0.865900  1.0  0.4527
  H  H90  1  0.640300  0.491100  0.894600  1.0  0.4388
  H  H91  1  0.538400  0.520300  0.991900  1.0  0.4288
  H  H92  1  0.567000  0.515700  0.952300  1.0  0.3902
  H  H93  1  0.743100  0.304600  0.094400  1.0  0.0985
  H  H94  1  0.785100  0.313600  0.172200  1.0  0.1167
  H  H95  1  0.818100  0.436500  0.152300  1.0  0.1153
  H  H96  1  0.777400  0.427900  0.074600  1.0  0.1097
  H  H97  1  0.891800  0.329000  0.232900  1.0  0.114
  H  H98  1  0.893400  0.398900  0.344300  1.0  0.1126
  H  H99  1  0.775700  0.436900  0.224700  1.0  0.1075
  H  H100  1  0.807500  0.437100  0.370500  1.0  0.1084
  H  H101  1  0.802100  0.502300  0.256700  1.0  0.1178
  H  H102  1  0.750800  0.560300  0.288400  1.0  0.117
  H  H103  1  0.935200  0.280200  0.277600  1.0  0.1155
  H  H104  1  0.994800  0.364700  0.374500  1.0  0.1136
  H  H105  1  0.079800  0.317200  0.414200  1.0  0.1038
  H  H106  1  0.936500  0.253100  0.983600  1.0  0.125
  H  H107  1  0.957800  0.341900  0.890900  1.0  0.1205
  H  H108  1  0.019200  0.232900  0.318000  1.0  0.1174
  H  H109  1  0.767500  0.495800  0.404600  1.0  0.0935
  H  H110  1  0.390000  0.400000  0.969300  1.0  0.1132
  H  H111  1  0.295700  0.350800  0.963600  1.0  0.0983
  H  H112  1  0.412600  0.270900  0.901900  1.0  0.1141
  H  H113  1  0.505800  0.320900  0.906100  1.0  0.0983
  H  H114  1  0.197100  0.312900  0.924400  1.0  0.1153
  H  H115  1  0.139800  0.193400  0.947500  1.0  0.1134
  H  H116  1  0.352700  0.221600  0.941200  1.0  0.1077
  H  H117  1  0.052700  0.227600  0.978600  1.0  0.1001
  H  H118  1  0.076200  0.318500  0.891000  1.0  0.1163
  H  H119  1  0.200100  0.060000  0.948600  1.0  0.0952
  H  H120  1  0.172800  0.128600  0.925700  1.0  0.1166
  H  H121  1  0.375600  0.164600  0.990200  1.0  0.1101
  H  H122  1  0.401500  0.096300  0.013400  1.0  0.1113
  H  H123  1  0.075600  0.005300  0.865900  1.0  0.4526
  H  H124  1  0.140300  0.991100  0.894600  1.0  0.4388
  H  H125  1  0.038400  0.020300  0.991900  1.0  0.4288
  H  H126  1  0.067000  0.015700  0.952300  1.0  0.3908
  H  H127  1  0.243100  0.804600  0.094400  1.0  0.0985
  H  H128  1  0.285100  0.813600  0.172200  1.0  0.1167
  H  H129  1  0.318100  0.936500  0.152300  1.0  0.1153
  H  H130  1  0.277400  0.927900  0.074600  1.0  0.1097
  H  H131  1  0.391800  0.829000  0.232900  1.0  0.114
  H  H132  1  0.393400  0.898900  0.344300  1.0  0.1126
  H  H133  1  0.275700  0.936900  0.224700  1.0  0.1075
  H  H134  1  0.307500  0.937100  0.370500  1.0  0.1084
  H  H135  1  0.302100  0.002300  0.256700  1.0  0.1178
  H  H136  1  0.250800  0.060300  0.288400  1.0  0.117
  H  H137  1  0.435200  0.780200  0.277600  1.0  0.1155
  H  H138  1  0.494800  0.864700  0.374500  1.0  0.1136
  H  H139  1  0.579800  0.817200  0.414200  1.0  0.1038
  H  H140  1  0.436500  0.753100  0.983600  1.0  0.125
  H  H141  1  0.457800  0.841900  0.890900  1.0  0.1205
  H  H142  1  0.519200  0.732900  0.318000  1.0  0.1174
  H  H143  1  0.267500  0.995800  0.404600  1.0  0.0935
  H  H144  1  0.890000  0.900000  0.969300  1.0  0.1132
  H  H145  1  0.795700  0.850800  0.963600  1.0  0.0983
  H  H146  1  0.912600  0.770900  0.901900  1.0  0.1141
  H  H147  1  0.005800  0.820900  0.906100  1.0  0.0983
  H  H148  1  0.697100  0.812900  0.924400  1.0  0.1153
  H  H149  1  0.639800  0.693400  0.947500  1.0  0.1134
  H  H150  1  0.852700  0.721600  0.941200  1.0  0.1077
  H  H151  1  0.552700  0.727600  0.978600  1.0  0.1001
  H  H152  1  0.576200  0.818500  0.891000  1.0  0.1163
  H  H153  1  0.700100  0.560000  0.948600  1.0  0.0952
  H  H154  1  0.672800  0.628600  0.925700  1.0  0.1166
  H  H155  1  0.875600  0.664600  0.990200  1.0  0.1101
  H  H156  1  0.901500  0.596300  0.013400  1.0  0.1113
  H  H157  1  0.575600  0.494700  0.365900  1.0  0.4528
  H  H158  1  0.640300  0.508900  0.394600  1.0  0.4393
  H  H159  1  0.538400  0.479700  0.491900  1.0  0.4281
  H  H160  1  0.567000  0.484300  0.452300  1.0  0.3893
  H  H161  1  0.743100  0.695400  0.594400  1.0  0.0986
  H  H162  1  0.785100  0.686400  0.672200  1.0  0.1171
  H  H163  1  0.818100  0.563500  0.652300  1.0  0.1152
  H  H164  1  0.777400  0.572100  0.574600  1.0  0.1096
  H  H165  1  0.891800  0.671000  0.732900  1.0  0.1145
  H  H166  1  0.893400  0.601100  0.844300  1.0  0.1127
  H  H167  1  0.775700  0.563100  0.724700  1.0  0.1074
  H  H168  1  0.807500  0.562900  0.870500  1.0  0.1084
  H  H169  1  0.802100  0.497700  0.756700  1.0  0.1178
  H  H170  1  0.750800  0.439700  0.788400  1.0  0.116
  H  H171  1  0.935200  0.719800  0.777600  1.0  0.1154
  H  H172  1  0.994800  0.635300  0.874500  1.0  0.1136
  H  H173  1  0.079800  0.682800  0.914200  1.0  0.1041
  H  H174  1  0.936500  0.746900  0.483600  1.0  0.1245
  H  H175  1  0.957800  0.658100  0.390900  1.0  0.1195
  H  H176  1  0.019200  0.767100  0.818000  1.0  0.1177
  H  H177  1  0.767500  0.504200  0.904600  1.0  0.0937
  H  H178  1  0.390000  0.600000  0.469300  1.0  0.1131
  H  H179  1  0.295700  0.649200  0.463600  1.0  0.0982
  H  H180  1  0.412600  0.729100  0.401900  1.0  0.1142
  H  H181  1  0.505800  0.679100  0.406100  1.0  0.0985
  H  H182  1  0.197100  0.687100  0.424400  1.0  0.1155
  H  H183  1  0.139800  0.806600  0.447500  1.0  0.1141
  H  H184  1  0.352700  0.778400  0.441200  1.0  0.1079
  H  H185  1  0.052700  0.772400  0.478600  1.0  0.1003
  H  H186  1  0.076200  0.681500  0.391000  1.0  0.1162
  H  H187  1  0.200100  0.940000  0.448600  1.0  0.0953
  H  H188  1  0.172800  0.871400  0.425700  1.0  0.1166
  H  H189  1  0.375600  0.835400  0.490200  1.0  0.1104
  H  H190  1  0.401500  0.903700  0.513400  1.0  0.1112
  H  H191  1  0.075600  0.994700  0.365900  1.0  0.4531
  H  H192  1  0.140300  0.008900  0.394600  1.0  0.4393
  H  H193  1  0.038400  0.979700  0.491900  1.0  0.4281
  H  H194  1  0.067000  0.984300  0.452300  1.0  0.3899
  H  H195  1  0.243100  0.195400  0.594400  1.0  0.0986
  H  H196  1  0.285100  0.186400  0.672200  1.0  0.1171
  H  H197  1  0.318100  0.063500  0.652300  1.0  0.1152
  H  H198  1  0.277400  0.072100  0.574600  1.0  0.1096
  H  H199  1  0.391800  0.171000  0.732900  1.0  0.1145
  H  H200  1  0.393400  0.101100  0.844300  1.0  0.1127
  H  H201  1  0.275700  0.063100  0.724700  1.0  0.1074
  H  H202  1  0.307500  0.062900  0.870500  1.0  0.1084
  H  H203  1  0.302100  0.997700  0.756700  1.0  0.1178
  H  H204  1  0.250800  0.939700  0.788400  1.0  0.116
  H  H205  1  0.435200  0.219800  0.777600  1.0  0.1154
  H  H206  1  0.494800  0.135300  0.874500  1.0  0.1136
  H  H207  1  0.579800  0.182800  0.914200  1.0  0.1041
  H  H208  1  0.436500  0.246900  0.483600  1.0  0.1245
  H  H209  1  0.457800  0.158100  0.390900  1.0  0.1195
  H  H210  1  0.519200  0.267100  0.818000  1.0  0.1177
  H  H211  1  0.267500  0.004200  0.904600  1.0  0.0937
  H  H212  1  0.890000  0.100000  0.469300  1.0  0.1131
  H  H213  1  0.795700  0.149200  0.463600  1.0  0.0982
  H  H214  1  0.912600  0.229100  0.401900  1.0  0.1142
  H  H215  1  0.005800  0.179100  0.406100  1.0  0.0985
  H  H216  1  0.697100  0.187100  0.424400  1.0  0.1155
  H  H217  1  0.639800  0.306600  0.447500  1.0  0.1141
  H  H218  1  0.852700  0.278400  0.441200  1.0  0.1079
  H  H219  1  0.552700  0.272400  0.478600  1.0  0.1003
  H  H220  1  0.576200  0.181500  0.391000  1.0  0.1162
  H  H221  1  0.700100  0.440000  0.448600  1.0  0.0953
  H  H222  1  0.672800  0.371400  0.425700  1.0  0.1166
  H  H223  1  0.875600  0.335400  0.490200  1.0  0.1104
  H  H224  1  0.901500  0.403700  0.513400  1.0  0.1112
  H  H225  1  0.424400  0.494700  0.134100  1.0  0.4528
  H  H226  1  0.359700  0.508900  0.105400  1.0  0.4401
  H  H227  1  0.461600  0.479700  0.008100  1.0  0.4281
  H  H228  1  0.433000  0.484300  0.047700  1.0  0.3895
  H  H229  1  0.256900  0.695400  0.905600  1.0  0.098
  H  H230  1  0.214900  0.686400  0.827800  1.0  0.1159
  H  H231  1  0.181900  0.563500  0.847700  1.0  0.115
  H  H232  1  0.222600  0.572100  0.925400  1.0  0.1093
  H  H233  1  0.108200  0.671000  0.767100  1.0  0.1137
  H  H234  1  0.106600  0.601100  0.655700  1.0  0.1129
  H  H235  1  0.224300  0.563100  0.775300  1.0  0.1077
  H  H236  1  0.192500  0.562900  0.629500  1.0  0.1085
  H  H237  1  0.197900  0.497700  0.743300  1.0  0.1185
  H  H238  1  0.249200  0.439700  0.711600  1.0  0.1168
  H  H239  1  0.064800  0.719800  0.722400  1.0  0.1151
  H  H240  1  0.005200  0.635300  0.625500  1.0  0.1133
  H  H241  1  0.920200  0.682800  0.585800  1.0  0.1044
  H  H242  1  0.063500  0.746900  0.016400  1.0  0.1246
  H  H243  1  0.042200  0.658100  0.109100  1.0  0.1196
  H  H244  1  0.980800  0.767100  0.682000  1.0  0.1172
  H  H245  1  0.232500  0.504200  0.595400  1.0  0.0936
  H  H246  1  0.610000  0.600000  0.030700  1.0  0.1137
  H  H247  1  0.704300  0.649200  0.036400  1.0  0.0989
  H  H248  1  0.587400  0.729100  0.098100  1.0  0.1149
  H  H249  1  0.494200  0.679100  0.093900  1.0  0.0987
  H  H250  1  0.802900  0.687100  0.075600  1.0  0.1151
  H  H251  1  0.860200  0.806600  0.052500  1.0  0.1122
  H  H252  1  0.647300  0.778400  0.058800  1.0  0.1079
  H  H253  1  0.947300  0.772400  0.021400  1.0  0.0999
  H  H254  1  0.923800  0.681500  0.109000  1.0  0.1158
  H  H255  1  0.799900  0.940000  0.051400  1.0  0.0951
  H  H256  1  0.827200  0.871400  0.074300  1.0  0.117
  H  H257  1  0.624400  0.835400  0.009800  1.0  0.1095
  H  H258  1  0.598500  0.903700  0.986600  1.0  0.1104
  H  H259  1  0.924400  0.994700  0.134100  1.0  0.4531
  H  H260  1  0.859700  0.008900  0.105400  1.0  0.4401
  H  H261  1  0.961600  0.979700  0.008100  1.0  0.4281
  H  H262  1  0.933000  0.984300  0.047700  1.0  0.39
  H  H263  1  0.756900  0.195400  0.905600  1.0  0.098
  H  H264  1  0.714900  0.186400  0.827800  1.0  0.1159
  H  H265  1  0.681900  0.063500  0.847700  1.0  0.115
  H  H266  1  0.722600  0.072100  0.925400  1.0  0.1093
  H  H267  1  0.608200  0.171000  0.767100  1.0  0.1137
  H  H268  1  0.606600  0.101100  0.655700  1.0  0.1129
  H  H269  1  0.724300  0.063100  0.775300  1.0  0.1077
  H  H270  1  0.692500  0.062900  0.629500  1.0  0.1085
  H  H271  1  0.697900  0.997700  0.743300  1.0  0.1185
  H  H272  1  0.749200  0.939700  0.711600  1.0  0.1168
  H  H273  1  0.564800  0.219800  0.722400  1.0  0.1151
  H  H274  1  0.505200  0.135300  0.625500  1.0  0.1133
  H  H275  1  0.420200  0.182800  0.585800  1.0  0.1044
  H  H276  1  0.563500  0.246900  0.016400  1.0  0.1246
  H  H277  1  0.542200  0.158100  0.109100  1.0  0.1196
  H  H278  1  0.480800  0.267100  0.682000  1.0  0.1172
  H  H279  1  0.732500  0.004200  0.595400  1.0  0.0936
  H  H280  1  0.110000  0.100000  0.030700  1.0  0.1137
  H  H281  1  0.204300  0.149200  0.036400  1.0  0.0989
  H  H282  1  0.087400  0.229100  0.098100  1.0  0.1149
  H  H283  1  0.994200  0.179100  0.093900  1.0  0.0987
  H  H284  1  0.302900  0.187100  0.075600  1.0  0.1151
  H  H285  1  0.360200  0.306600  0.052500  1.0  0.1122
  H  H286  1  0.147300  0.278400  0.058800  1.0  0.1079
  H  H287  1  0.447300  0.272400  0.021400  1.0  0.0999
  H  H288  1  0.423800  0.181500  0.109000  1.0  0.1158
  H  H289  1  0.299900  0.440000  0.051400  1.0  0.0951
  H  H290  1  0.327200  0.371400  0.074300  1.0  0.117
  H  H291  1  0.124400  0.335400  0.009800  1.0  0.1095
  H  H292  1  0.098500  0.403700  0.986600  1.0  0.1104
  C  C293  1  0.272900  0.360560  0.472700  1.0  0.7005
  C  C294  1  0.247000  0.365420  0.423900  1.0  -0.1198
  C  C295  1  0.242600  0.331400  0.394200  1.0  -0.0366
  C  C296  1  0.216900  0.336700  0.347300  1.0  -0.1196
  C  C297  1  0.194500  0.376200  0.329700  1.0  0.0049
  C  C298  1  0.197100  0.409900  0.359200  1.0  -0.1271
  C  C299  1  0.222300  0.404900  0.405900  1.0  -0.0799
  C  C300  1  0.169200  0.382300  0.279900  1.0  0.0206
  C  C301  1  0.122200  0.353400  0.253500  1.0  -0.105
  C  C302  1  0.095200  0.360100  0.206800  1.0  0.0095
  C  C303  1  0.121100  0.395000  0.187100  1.0  -0.1013
  C  C304  1  0.168200  0.424600  0.212700  1.0  0.0177
  C  C305  1  0.191900  0.417500  0.258200  1.0  -0.1008
  C  C306  1  0.193200  0.463200  0.190600  1.0  0.0177
  C  C307  1  0.202800  0.462000  0.146200  1.0  -0.1237
  C  C308  1  0.207400  0.500400  0.213900  1.0  -0.133
  C  C309  1  0.236100  0.535900  0.194500  1.0  -0.0589
  C  C310  1  0.044600  0.327700  0.179100  1.0  0.0678
  C  C311  1  0.036100  0.288500  0.194500  1.0  -0.1392
  C  C312  1  0.000900  0.337900  0.137700  1.0  -0.1094
  C  C313  1  0.950100  0.309200  0.113500  1.0  -0.0689
  C  C314  1  0.144400  0.315100  0.563800  1.0  0.7333
  C  C315  1  0.067400  0.299200  0.564100  1.0  -0.1118
  C  C316  1  0.036600  0.265700  0.536300  1.0  -0.1044
  C  C317  1  0.023400  0.318900  0.591000  1.0  -0.0798
  C  C318  1  0.887300  0.238700  0.103400  1.0  0.686
  C  C319  1  0.944000  0.270400  0.129700  1.0  -0.0811
  C  C320  1  0.985600  0.259700  0.170100  1.0  -0.0852
  C  C321  1  0.272400  0.571870  0.127100  1.0  0.6981
  C  C322  1  0.244400  0.533600  0.149600  1.0  -0.0635
  C  C323  1  0.227500  0.497190  0.125700  1.0  -0.1323
  C  C324  1  0.478700  0.397000  0.555300  1.0  0.7172
  C  C325  1  0.541700  0.364820  0.561300  1.0  -0.1363
  C  C326  1  0.605300  0.374000  0.544300  1.0  -0.044
  C  C327  1  0.661600  0.344300  0.547700  1.0  -0.1162
  C  C328  1  0.656200  0.305470  0.567400  1.0  0.0666
  C  C329  1  0.592500  0.296900  0.584500  1.0  -0.1099
  C  C330  1  0.536300  0.326900  0.581700  1.0  -0.0236
  C  C331  1  0.715700  0.272750  0.567200  1.0  0.0125
  C  C332  1  0.789800  0.284700  0.570000  1.0  -0.1408
  C  C333  1  0.845500  0.255700  0.564700  1.0  0.0689
  C  C334  1  0.824400  0.213200  0.556800  1.0  -0.1273
  C  C335  1  0.751200  0.200230  0.555100  1.0  -0.0288
  C  C336  1  0.696500  0.230200  0.560200  1.0  -0.0831
  C  C337  1  0.922100  0.270090  0.565400  1.0  0.054
  C  C338  1  0.966000  0.251200  0.538700  1.0  -0.0892
  C  C339  1  0.952500  0.304600  0.591100  1.0  -0.1218
  C  C340  1  0.678900  0.026000  0.500600  1.0  0.724
  C  C341  1  0.697500  0.071190  0.516300  1.0  -0.1607
  C  C342  1  0.764500  0.081150  0.542500  1.0  -0.0699
  C  C343  1  0.780700  0.122500  0.556300  1.0  -0.111
  C  C344  1  0.729700  0.155100  0.544200  1.0  0.0662
  C  C345  1  0.660800  0.143900  0.518100  1.0  -0.117
  C  C346  1  0.645100  0.102900  0.504300  1.0  -0.0492
  C  C347  1  0.772900  0.860560  0.472700  1.0  0.7005
  C  C348  1  0.747000  0.865420  0.423900  1.0  -0.1198
  C  C349  1  0.742600  0.831400  0.394200  1.0  -0.0366
  C  C350  1  0.716900  0.836700  0.347300  1.0  -0.1196
  C  C351  1  0.694500  0.876200  0.329700  1.0  0.0049
  C  C352  1  0.697100  0.909900  0.359200  1.0  -0.1271
  C  C353  1  0.722300  0.904900  0.405900  1.0  -0.0799
  C  C354  1  0.669200  0.882300  0.279900  1.0  0.0206
  C  C355  1  0.622200  0.853400  0.253500  1.0  -0.105
  C  C356  1  0.595200  0.860100  0.206800  1.0  0.0095
  C  C357  1  0.621100  0.895000  0.187100  1.0  -0.1013
  C  C358  1  0.668200  0.924600  0.212700  1.0  0.0177
  C  C359  1  0.691900  0.917500  0.258200  1.0  -0.1008
  C  C360  1  0.693200  0.963200  0.190600  1.0  0.0177
  C  C361  1  0.702800  0.962000  0.146200  1.0  -0.1237
  C  C362  1  0.707400  0.000400  0.213900  1.0  -0.133
  C  C363  1  0.736100  0.035900  0.194500  1.0  -0.0589
  C  C364  1  0.544600  0.827700  0.179100  1.0  0.0678
  C  C365  1  0.536100  0.788500  0.194500  1.0  -0.1392
  C  C366  1  0.500900  0.837900  0.137700  1.0  -0.1094
  C  C367  1  0.450100  0.809200  0.113500  1.0  -0.0689
  C  C368  1  0.644400  0.815100  0.563800  1.0  0.7333
  C  C369  1  0.567400  0.799200  0.564100  1.0  -0.1118
  C  C370  1  0.536600  0.765700  0.536300  1.0  -0.1044
  C  C371  1  0.523400  0.818900  0.591000  1.0  -0.0798
  C  C372  1  0.387300  0.738700  0.103400  1.0  0.686
  C  C373  1  0.444000  0.770400  0.129700  1.0  -0.0811
  C  C374  1  0.485600  0.759700  0.170100  1.0  -0.0852
  C  C375  1  0.772400  0.071870  0.127100  1.0  0.6981
  C  C376  1  0.744400  0.033600  0.149600  1.0  -0.0635
  C  C377  1  0.727500  0.997190  0.125700  1.0  -0.1323
  C  C378  1  0.978700  0.897000  0.555300  1.0  0.7172
  C  C379  1  0.041700  0.864820  0.561300  1.0  -0.1363
  C  C380  1  0.105300  0.874000  0.544300  1.0  -0.044
  C  C381  1  0.161600  0.844300  0.547700  1.0  -0.1162
  C  C382  1  0.156200  0.805470  0.567400  1.0  0.0666
  C  C383  1  0.092500  0.796900  0.584500  1.0  -0.1099
  C  C384  1  0.036300  0.826900  0.581700  1.0  -0.0236
  C  C385  1  0.215700  0.772750  0.567200  1.0  0.0125
  C  C386  1  0.289800  0.784700  0.570000  1.0  -0.1408
  C  C387  1  0.345500  0.755700  0.564700  1.0  0.0689
  C  C388  1  0.324400  0.713200  0.556800  1.0  -0.1273
  C  C389  1  0.251200  0.700230  0.555100  1.0  -0.0288
  C  C390  1  0.196500  0.730200  0.560200  1.0  -0.0831
  C  C391  1  0.422100  0.770090  0.565400  1.0  0.054
  C  C392  1  0.466000  0.751200  0.538700  1.0  -0.0892
  C  C393  1  0.452500  0.804600  0.591100  1.0  -0.1218
  C  C394  1  0.178900  0.526000  0.500600  1.0  0.724
  C  C395  1  0.197500  0.571190  0.516300  1.0  -0.1607
  C  C396  1  0.264500  0.581150  0.542500  1.0  -0.0699
  C  C397  1  0.280700  0.622500  0.556300  1.0  -0.111
  C  C398  1  0.229700  0.655100  0.544200  1.0  0.0662
  C  C399  1  0.160800  0.643900  0.518100  1.0  -0.117
  C  C400  1  0.145100  0.602900  0.504300  1.0  -0.0492
  C  C401  1  0.727100  0.360560  0.027300  1.0  0.6991
  C  C402  1  0.753000  0.365420  0.076100  1.0  -0.1212
  C  C403  1  0.757400  0.331400  0.105800  1.0  -0.0368
  C  C404  1  0.783100  0.336700  0.152700  1.0  -0.1207
  C  C405  1  0.805500  0.376200  0.170300  1.0  0.0037
  C  C406  1  0.802900  0.409900  0.140800  1.0  -0.1279
  C  C407  1  0.777700  0.404900  0.094100  1.0  -0.0814
  C  C408  1  0.830800  0.382300  0.220100  1.0  0.0204
  C  C409  1  0.877800  0.353400  0.246500  1.0  -0.1053
  C  C410  1  0.904800  0.360100  0.293200  1.0  0.0092
  C  C411  1  0.878900  0.395000  0.312900  1.0  -0.0998
  C  C412  1  0.831800  0.424600  0.287300  1.0  0.0177
  C  C413  1  0.808100  0.417500  0.241800  1.0  -0.0997
  C  C414  1  0.806800  0.463200  0.309400  1.0  0.0168
  C  C415  1  0.797200  0.462000  0.353800  1.0  -0.1229
  C  C416  1  0.792600  0.500400  0.286100  1.0  -0.1326
  C  C417  1  0.763900  0.535900  0.305500  1.0  -0.0588
  C  C418  1  0.955400  0.327700  0.320900  1.0  0.0672
  C  C419  1  0.963900  0.288500  0.305500  1.0  -0.1396
  C  C420  1  0.999100  0.337900  0.362300  1.0  -0.1087
  C  C421  1  0.049900  0.309200  0.386500  1.0  -0.0698
  C  C422  1  0.855600  0.315100  0.936200  1.0  0.7348
  C  C423  1  0.932600  0.299200  0.935900  1.0  -0.1115
  C  C424  1  0.963400  0.265700  0.963700  1.0  -0.1034
  C  C425  1  0.976600  0.318900  0.909000  1.0  -0.0779
  C  C426  1  0.112700  0.238700  0.396600  1.0  0.6864
  C  C427  1  0.056000  0.270400  0.370300  1.0  -0.0807
  C  C428  1  0.014400  0.259700  0.329900  1.0  -0.0852
  C  C429  1  0.727600  0.571870  0.372900  1.0  0.6976
  C  C430  1  0.755600  0.533600  0.350400  1.0  -0.0636
  C  C431  1  0.772500  0.497190  0.374300  1.0  -0.1328
  C  C432  1  0.521300  0.397000  0.944700  1.0  0.7171
  C  C433  1  0.458300  0.364820  0.938700  1.0  -0.1363
  C  C434  1  0.394700  0.374000  0.955700  1.0  -0.0449
  C  C435  1  0.338400  0.344300  0.952300  1.0  -0.1144
  C  C436  1  0.343800  0.305470  0.932600  1.0  0.0645
  C  C437  1  0.407500  0.296900  0.915500  1.0  -0.1109
  C  C438  1  0.463700  0.326900  0.918300  1.0  -0.0232
  C  C439  1  0.284300  0.272750  0.932800  1.0  0.0105
  C  C440  1  0.210200  0.284700  0.930000  1.0  -0.1384
  C  C441  1  0.154500  0.255700  0.935300  1.0  0.0677
  C  C442  1  0.175600  0.213200  0.943200  1.0  -0.1283
  C  C443  1  0.248800  0.200230  0.944900  1.0  -0.0328
  C  C444  1  0.303500  0.230200  0.939800  1.0  -0.0813
  C  C445  1  0.077900  0.270090  0.934600  1.0  0.0503
  C  C446  1  0.034000  0.251200  0.961300  1.0  -0.0914
  C  C447  1  0.047500  0.304600  0.908900  1.0  -0.1205
  C  C448  1  0.321100  0.026000  0.999400  1.0  0.7246
  C  C449  1  0.302500  0.071190  0.983700  1.0  -0.1597
  C  C450  1  0.235500  0.081150  0.957500  1.0  -0.0692
  C  C451  1  0.219300  0.122500  0.943700  1.0  -0.1125
  C  C452  1  0.270300  0.155100  0.955800  1.0  0.0653
  C  C453  1  0.339200  0.143900  0.981900  1.0  -0.1172
  C  C454  1  0.354900  0.102900  0.995700  1.0  -0.0519
  C  C455  1  0.227100  0.860560  0.027300  1.0  0.6991
  C  C456  1  0.253000  0.865420  0.076100  1.0  -0.1212
  C  C457  1  0.257400  0.831400  0.105800  1.0  -0.0368
  C  C458  1  0.283100  0.836700  0.152700  1.0  -0.1207
  C  C459  1  0.305500  0.876200  0.170300  1.0  0.0037
  C  C460  1  0.302900  0.909900  0.140800  1.0  -0.1279
  C  C461  1  0.277700  0.904900  0.094100  1.0  -0.0814
  C  C462  1  0.330800  0.882300  0.220100  1.0  0.0204
  C  C463  1  0.377800  0.853400  0.246500  1.0  -0.1053
  C  C464  1  0.404800  0.860100  0.293200  1.0  0.0092
  C  C465  1  0.378900  0.895000  0.312900  1.0  -0.0998
  C  C466  1  0.331800  0.924600  0.287300  1.0  0.0177
  C  C467  1  0.308100  0.917500  0.241800  1.0  -0.0997
  C  C468  1  0.306800  0.963200  0.309400  1.0  0.0168
  C  C469  1  0.297200  0.962000  0.353800  1.0  -0.1229
  C  C470  1  0.292600  0.000400  0.286100  1.0  -0.1326
  C  C471  1  0.263900  0.035900  0.305500  1.0  -0.0588
  C  C472  1  0.455400  0.827700  0.320900  1.0  0.0672
  C  C473  1  0.463900  0.788500  0.305500  1.0  -0.1396
  C  C474  1  0.499100  0.837900  0.362300  1.0  -0.1087
  C  C475  1  0.549900  0.809200  0.386500  1.0  -0.0698
  C  C476  1  0.355600  0.815100  0.936200  1.0  0.7348
  C  C477  1  0.432600  0.799200  0.935900  1.0  -0.1115
  C  C478  1  0.463400  0.765700  0.963700  1.0  -0.1034
  C  C479  1  0.476600  0.818900  0.909000  1.0  -0.0779
  C  C480  1  0.612700  0.738700  0.396600  1.0  0.6864
  C  C481  1  0.556000  0.770400  0.370300  1.0  -0.0807
  C  C482  1  0.514400  0.759700  0.329900  1.0  -0.0852
  C  C483  1  0.227600  0.071870  0.372900  1.0  0.6976
  C  C484  1  0.255600  0.033600  0.350400  1.0  -0.0636
  C  C485  1  0.272500  0.997190  0.374300  1.0  -0.1328
  C  C486  1  0.021300  0.897000  0.944700  1.0  0.7171
  C  C487  1  0.958300  0.864820  0.938700  1.0  -0.1363
  C  C488  1  0.894700  0.874000  0.955700  1.0  -0.0449
  C  C489  1  0.838400  0.844300  0.952300  1.0  -0.1144
  C  C490  1  0.843800  0.805470  0.932600  1.0  0.0645
  C  C491  1  0.907500  0.796900  0.915500  1.0  -0.1109
  C  C492  1  0.963700  0.826900  0.918300  1.0  -0.0232
  C  C493  1  0.784300  0.772750  0.932800  1.0  0.0105
  C  C494  1  0.710200  0.784700  0.930000  1.0  -0.1384
  C  C495  1  0.654500  0.755700  0.935300  1.0  0.0677
  C  C496  1  0.675600  0.713200  0.943200  1.0  -0.1283
  C  C497  1  0.748800  0.700230  0.944900  1.0  -0.0328
  C  C498  1  0.803500  0.730200  0.939800  1.0  -0.0813
  C  C499  1  0.577900  0.770090  0.934600  1.0  0.0503
  C  C500  1  0.534000  0.751200  0.961300  1.0  -0.0914
  C  C501  1  0.547500  0.804600  0.908900  1.0  -0.1205
  C  C502  1  0.821100  0.526000  0.999400  1.0  0.7246
  C  C503  1  0.802500  0.571190  0.983700  1.0  -0.1597
  C  C504  1  0.735500  0.581150  0.957500  1.0  -0.0692
  C  C505  1  0.719300  0.622500  0.943700  1.0  -0.1125
  C  C506  1  0.770300  0.655100  0.955800  1.0  0.0653
  C  C507  1  0.839200  0.643900  0.981900  1.0  -0.1172
  C  C508  1  0.854900  0.602900  0.995700  1.0  -0.0519
  C  C509  1  0.727100  0.639440  0.527300  1.0  0.6986
  C  C510  1  0.753000  0.634580  0.576100  1.0  -0.122
  C  C511  1  0.757400  0.668600  0.605800  1.0  -0.0384
  C  C512  1  0.783100  0.663300  0.652700  1.0  -0.1217
  C  C513  1  0.805500  0.623800  0.670300  1.0  0.0039
  C  C514  1  0.802900  0.590100  0.640800  1.0  -0.128
  C  C515  1  0.777700  0.595100  0.594100  1.0  -0.081
  C  C516  1  0.830800  0.617700  0.720100  1.0  0.0205
  C  C517  1  0.877800  0.646600  0.746500  1.0  -0.1059
  C  C518  1  0.904800  0.639900  0.793200  1.0  0.009
  C  C519  1  0.878900  0.605000  0.812900  1.0  -0.0998
  C  C520  1  0.831800  0.575400  0.787300  1.0  0.0174
  C  C521  1  0.808100  0.582500  0.741800  1.0  -0.0999
  C  C522  1  0.806800  0.536800  0.809400  1.0  0.0167
  C  C523  1  0.797200  0.538000  0.853800  1.0  -0.1233
  C  C524  1  0.792600  0.499600  0.786100  1.0  -0.1312
  C  C525  1  0.763900  0.464100  0.805500  1.0  -0.0592
  C  C526  1  0.955400  0.672300  0.820900  1.0  0.0669
  C  C527  1  0.963900  0.711500  0.805500  1.0  -0.1409
  C  C528  1  0.999100  0.662100  0.862300  1.0  -0.1089
  C  C529  1  0.049900  0.690800  0.886500  1.0  -0.0692
  C  C530  1  0.855600  0.684900  0.436200  1.0  0.7351
  C  C531  1  0.932600  0.700800  0.435900  1.0  -0.1125
  C  C532  1  0.963400  0.734300  0.463700  1.0  -0.1035
  C  C533  1  0.976600  0.681100  0.409000  1.0  -0.0783
  C  C534  1  0.112700  0.761300  0.896600  1.0  0.6854
  C  C535  1  0.056000  0.729600  0.870300  1.0  -0.0814
  C  C536  1  0.014400  0.740300  0.829900  1.0  -0.085
  C  C537  1  0.727600  0.428130  0.872900  1.0  0.6957
  C  C538  1  0.755600  0.466400  0.850400  1.0  -0.0665
  C  C539  1  0.772500  0.502810  0.874300  1.0  -0.134
  C  C540  1  0.521300  0.603000  0.444700  1.0  0.7169
  C  C541  1  0.458300  0.635180  0.438700  1.0  -0.1357
  C  C542  1  0.394700  0.626000  0.455700  1.0  -0.0454
  C  C543  1  0.338400  0.655700  0.452300  1.0  -0.115
  C  C544  1  0.343800  0.694530  0.432600  1.0  0.0647
  C  C545  1  0.407500  0.703100  0.415500  1.0  -0.1097
  C  C546  1  0.463700  0.673100  0.418300  1.0  -0.0246
  C  C547  1  0.284300  0.727250  0.432800  1.0  0.0094
  C  C548  1  0.210200  0.715300  0.430000  1.0  -0.138
  C  C549  1  0.154500  0.744300  0.435300  1.0  0.0677
  C  C550  1  0.175600  0.786800  0.443200  1.0  -0.1292
  C  C551  1  0.248800  0.799770  0.444900  1.0  -0.0304
  C  C552  1  0.303500  0.769800  0.439800  1.0  -0.0808
  C  C553  1  0.077900  0.729910  0.434600  1.0  0.0508
  C  C554  1  0.034000  0.748800  0.461300  1.0  -0.0927
  C  C555  1  0.047500  0.695400  0.408900  1.0  -0.12
  C  C556  1  0.321100  0.974000  0.499400  1.0  0.7224
  C  C557  1  0.302500  0.928810  0.483700  1.0  -0.1608
  C  C558  1  0.235500  0.918850  0.457500  1.0  -0.0694
  C  C559  1  0.219300  0.877500  0.443700  1.0  -0.1125
  C  C560  1  0.270300  0.844900  0.455800  1.0  0.0644
  C  C561  1  0.339200  0.856100  0.481900  1.0  -0.1172
  C  C562  1  0.354900  0.897100  0.495700  1.0  -0.0515
  C  C563  1  0.227100  0.139440  0.527300  1.0  0.6986
  C  C564  1  0.253000  0.134580  0.576100  1.0  -0.122
  C  C565  1  0.257400  0.168600  0.605800  1.0  -0.0384
  C  C566  1  0.283100  0.163300  0.652700  1.0  -0.1217
  C  C567  1  0.305500  0.123800  0.670300  1.0  0.0039
  C  C568  1  0.302900  0.090100  0.640800  1.0  -0.128
  C  C569  1  0.277700  0.095100  0.594100  1.0  -0.081
  C  C570  1  0.330800  0.117700  0.720100  1.0  0.0205
  C  C571  1  0.377800  0.146600  0.746500  1.0  -0.1059
  C  C572  1  0.404800  0.139900  0.793200  1.0  0.009
  C  C573  1  0.378900  0.105000  0.812900  1.0  -0.0998
  C  C574  1  0.331800  0.075400  0.787300  1.0  0.0174
  C  C575  1  0.308100  0.082500  0.741800  1.0  -0.0999
  C  C576  1  0.306800  0.036800  0.809400  1.0  0.0167
  C  C577  1  0.297200  0.038000  0.853800  1.0  -0.1233
  C  C578  1  0.292600  0.999600  0.786100  1.0  -0.1312
  C  C579  1  0.263900  0.964100  0.805500  1.0  -0.0592
  C  C580  1  0.455400  0.172300  0.820900  1.0  0.0669
  C  C581  1  0.463900  0.211500  0.805500  1.0  -0.1409
  C  C582  1  0.499100  0.162100  0.862300  1.0  -0.1089
  C  C583  1  0.549900  0.190800  0.886500  1.0  -0.0692
  C  C584  1  0.355600  0.184900  0.436200  1.0  0.7351
  C  C585  1  0.432600  0.200800  0.435900  1.0  -0.1125
  C  C586  1  0.463400  0.234300  0.463700  1.0  -0.1035
  C  C587  1  0.476600  0.181100  0.409000  1.0  -0.0783
  C  C588  1  0.612700  0.261300  0.896600  1.0  0.6854
  C  C589  1  0.556000  0.229600  0.870300  1.0  -0.0814
  C  C590  1  0.514400  0.240300  0.829900  1.0  -0.085
  C  C591  1  0.227600  0.928130  0.872900  1.0  0.6957
  C  C592  1  0.255600  0.966400  0.850400  1.0  -0.0665
  C  C593  1  0.272500  0.002810  0.874300  1.0  -0.134
  C  C594  1  0.021300  0.103000  0.444700  1.0  0.7169
  C  C595  1  0.958300  0.135180  0.438700  1.0  -0.1357
  C  C596  1  0.894700  0.126000  0.455700  1.0  -0.0454
  C  C597  1  0.838400  0.155700  0.452300  1.0  -0.115
  C  C598  1  0.843800  0.194530  0.432600  1.0  0.0647
  C  C599  1  0.907500  0.203100  0.415500  1.0  -0.1097
  C  C600  1  0.963700  0.173100  0.418300  1.0  -0.0246
  C  C601  1  0.784300  0.227250  0.432800  1.0  0.0094
  C  C602  1  0.710200  0.215300  0.430000  1.0  -0.138
  C  C603  1  0.654500  0.244300  0.435300  1.0  0.0677
  C  C604  1  0.675600  0.286800  0.443200  1.0  -0.1292
  C  C605  1  0.748800  0.299770  0.444900  1.0  -0.0304
  C  C606  1  0.803500  0.269800  0.439800  1.0  -0.0808
  C  C607  1  0.577900  0.229910  0.434600  1.0  0.0508
  C  C608  1  0.534000  0.248800  0.461300  1.0  -0.0927
  C  C609  1  0.547500  0.195400  0.408900  1.0  -0.12
  C  C610  1  0.821100  0.474000  0.499400  1.0  0.7224
  C  C611  1  0.802500  0.428810  0.483700  1.0  -0.1608
  C  C612  1  0.735500  0.418850  0.457500  1.0  -0.0694
  C  C613  1  0.719300  0.377500  0.443700  1.0  -0.1125
  C  C614  1  0.770300  0.344900  0.455800  1.0  0.0644
  C  C615  1  0.839200  0.356100  0.481900  1.0  -0.1172
  C  C616  1  0.854900  0.397100  0.495700  1.0  -0.0515
  C  C617  1  0.272900  0.639440  0.972700  1.0  0.7006
  C  C618  1  0.247000  0.634580  0.923900  1.0  -0.1206
  C  C619  1  0.242600  0.668600  0.894200  1.0  -0.0371
  C  C620  1  0.216900  0.663300  0.847300  1.0  -0.1207
  C  C621  1  0.194500  0.623800  0.829700  1.0  0.0045
  C  C622  1  0.197100  0.590100  0.859200  1.0  -0.1276
  C  C623  1  0.222300  0.595100  0.905900  1.0  -0.081
  C  C624  1  0.169200  0.617700  0.779900  1.0  0.0206
  C  C625  1  0.122200  0.646600  0.753500  1.0  -0.1051
  C  C626  1  0.095200  0.639900  0.706800  1.0  0.0095
  C  C627  1  0.121100  0.605000  0.687100  1.0  -0.1007
  C  C628  1  0.168200  0.575400  0.712700  1.0  0.0171
  C  C629  1  0.191900  0.582500  0.758200  1.0  -0.1001
  C  C630  1  0.193200  0.536800  0.690600  1.0  0.0172
  C  C631  1  0.202800  0.538000  0.646200  1.0  -0.1247
  C  C632  1  0.207400  0.499600  0.713900  1.0  -0.1344
  C  C633  1  0.236100  0.464100  0.694500  1.0  -0.0606
  C  C634  1  0.044600  0.672300  0.679100  1.0  0.0679
  C  C635  1  0.036100  0.711500  0.694500  1.0  -0.1407
  C  C636  1  0.000900  0.662100  0.637700  1.0  -0.1089
  C  C637  1  0.950100  0.690800  0.613500  1.0  -0.0686
  C  C638  1  0.144400  0.684900  0.063800  1.0  0.7333
  C  C639  1  0.067400  0.700800  0.064100  1.0  -0.1119
  C  C640  1  0.036600  0.734300  0.036300  1.0  -0.1047
  C  C641  1  0.023400  0.681100  0.091000  1.0  -0.0798
  C  C642  1  0.887300  0.761300  0.603400  1.0  0.6862
  C  C643  1  0.944000  0.729600  0.629700  1.0  -0.0812
  C  C644  1  0.985600  0.740300  0.670100  1.0  -0.0853
  C  C645  1  0.272400  0.428130  0.627100  1.0  0.6948
  C  C646  1  0.244400  0.466400  0.649600  1.0  -0.066
  C  C647  1  0.227500  0.502810  0.625700  1.0  -0.133
  C  C648  1  0.478700  0.603000  0.055300  1.0  0.7171
  C  C649  1  0.541700  0.635180  0.061300  1.0  -0.1366
  C  C650  1  0.605300  0.626000  0.044300  1.0  -0.0449
  C  C651  1  0.661600  0.655700  0.047700  1.0  -0.1156
  C  C652  1  0.656200  0.694530  0.067400  1.0  0.0659
  C  C653  1  0.592500  0.703100  0.084500  1.0  -0.1095
  C  C654  1  0.536300  0.673100  0.081700  1.0  -0.0236
  C  C655  1  0.715700  0.727250  0.067200  1.0  0.0131
  C  C656  1  0.789800  0.715300  0.070000  1.0  -0.1398
  C  C657  1  0.845500  0.744300  0.064700  1.0  0.0685
  C  C658  1  0.824400  0.786800  0.056800  1.0  -0.1286
  C  C659  1  0.751200  0.799770  0.055100  1.0  -0.0294
  C  C660  1  0.696500  0.769800  0.060200  1.0  -0.0835
  C  C661  1  0.922100  0.729910  0.065400  1.0  0.0528
  C  C662  1  0.966000  0.748800  0.038700  1.0  -0.09
  C  C663  1  0.952500  0.695400  0.091100  1.0  -0.1212
  C  C664  1  0.678900  0.974000  0.000600  1.0  0.7249
  C  C665  1  0.697500  0.928810  0.016300  1.0  -0.1587
  C  C666  1  0.764500  0.918850  0.042500  1.0  -0.0702
  C  C667  1  0.780700  0.877500  0.056300  1.0  -0.1114
  C  C668  1  0.729700  0.844900  0.044200  1.0  0.0672
  C  C669  1  0.660800  0.856100  0.018100  1.0  -0.117
  C  C670  1  0.645100  0.897100  0.004300  1.0  -0.0499
  C  C671  1  0.772900  0.139440  0.972700  1.0  0.7006
  C  C672  1  0.747000  0.134580  0.923900  1.0  -0.1206
  C  C673  1  0.742600  0.168600  0.894200  1.0  -0.0371
  C  C674  1  0.716900  0.163300  0.847300  1.0  -0.1207
  C  C675  1  0.694500  0.123800  0.829700  1.0  0.0045
  C  C676  1  0.697100  0.090100  0.859200  1.0  -0.1276
  C  C677  1  0.722300  0.095100  0.905900  1.0  -0.081
  C  C678  1  0.669200  0.117700  0.779900  1.0  0.0206
  C  C679  1  0.622200  0.146600  0.753500  1.0  -0.1051
  C  C680  1  0.595200  0.139900  0.706800  1.0  0.0095
  C  C681  1  0.621100  0.105000  0.687100  1.0  -0.1007
  C  C682  1  0.668200  0.075400  0.712700  1.0  0.0171
  C  C683  1  0.691900  0.082500  0.758200  1.0  -0.1001
  C  C684  1  0.693200  0.036800  0.690600  1.0  0.0172
  C  C685  1  0.702800  0.038000  0.646200  1.0  -0.1247
  C  C686  1  0.707400  0.999600  0.713900  1.0  -0.1344
  C  C687  1  0.736100  0.964100  0.694500  1.0  -0.0606
  C  C688  1  0.544600  0.172300  0.679100  1.0  0.0679
  C  C689  1  0.536100  0.211500  0.694500  1.0  -0.1407
  C  C690  1  0.500900  0.162100  0.637700  1.0  -0.1089
  C  C691  1  0.450100  0.190800  0.613500  1.0  -0.0686
  C  C692  1  0.644400  0.184900  0.063800  1.0  0.7333
  C  C693  1  0.567400  0.200800  0.064100  1.0  -0.1119
  C  C694  1  0.536600  0.234300  0.036300  1.0  -0.1047
  C  C695  1  0.523400  0.181100  0.091000  1.0  -0.0798
  C  C696  1  0.387300  0.261300  0.603400  1.0  0.6862
  C  C697  1  0.444000  0.229600  0.629700  1.0  -0.0812
  C  C698  1  0.485600  0.240300  0.670100  1.0  -0.0853
  C  C699  1  0.772400  0.928130  0.627100  1.0  0.6948
  C  C700  1  0.744400  0.966400  0.649600  1.0  -0.066
  C  C701  1  0.727500  0.002810  0.625700  1.0  -0.133
  C  C702  1  0.978700  0.103000  0.055300  1.0  0.7171
  C  C703  1  0.041700  0.135180  0.061300  1.0  -0.1366
  C  C704  1  0.105300  0.126000  0.044300  1.0  -0.0449
  C  C705  1  0.161600  0.155700  0.047700  1.0  -0.1156
  C  C706  1  0.156200  0.194530  0.067400  1.0  0.0659
  C  C707  1  0.092500  0.203100  0.084500  1.0  -0.1095
  C  C708  1  0.036300  0.173100  0.081700  1.0  -0.0236
  C  C709  1  0.215700  0.227250  0.067200  1.0  0.0131
  C  C710  1  0.289800  0.215300  0.070000  1.0  -0.1398
  C  C711  1  0.345500  0.244300  0.064700  1.0  0.0685
  C  C712  1  0.324400  0.286800  0.056800  1.0  -0.1286
  C  C713  1  0.251200  0.299770  0.055100  1.0  -0.0294
  C  C714  1  0.196500  0.269800  0.060200  1.0  -0.0835
  C  C715  1  0.422100  0.229910  0.065400  1.0  0.0528
  C  C716  1  0.466000  0.248800  0.038700  1.0  -0.09
  C  C717  1  0.452500  0.195400  0.091100  1.0  -0.1212
  C  C718  1  0.178900  0.474000  0.000600  1.0  0.7249
  C  C719  1  0.197500  0.428810  0.016300  1.0  -0.1587
  C  C720  1  0.264500  0.418850  0.042500  1.0  -0.0702
  C  C721  1  0.280700  0.377500  0.056300  1.0  -0.1114
  C  C722  1  0.229700  0.344900  0.044200  1.0  0.0672
  C  C723  1  0.160800  0.356100  0.018100  1.0  -0.117
  C  C724  1  0.145100  0.397100  0.004300  1.0  -0.0499
  O  O725  1  0.274300  0.392280  0.498750  1.0  -0.7337
  O  O726  1  0.291200  0.324040  0.489710  1.0  -0.7782
  O  O727  1  0.161700  0.351920  0.576200  1.0  -0.6781
  O  O728  1  0.191000  0.290010  0.552550  1.0  -0.7555
  O  O729  1  0.856900  0.246500  0.064300  1.0  -0.7432
  O  O730  1  0.876500  0.205800  0.124400  1.0  -0.6987
  O  O731  1  0.272100  0.569520  0.085220  1.0  -0.7385
  O  O732  1  0.292600  0.604300  0.149910  1.0  -0.6818
  O  O733  1  0.420400  0.387610  0.570190  1.0  -0.7594
  O  O734  1  0.485700  0.431240  0.535600  1.0  -0.7186
  O  O735  1  0.406500  0.494910  0.607940  1.0  -0.7614
  O  O736  1  0.430600  0.530060  0.523330  1.0  -0.736
  O  O737  1  0.731400  0.999260  0.508260  1.0  -0.7083
  O  O738  1  0.614300  0.017450  0.482500  1.0  -0.4746
  O  O739  1  0.774300  0.892280  0.498750  1.0  -0.7337
  O  O740  1  0.791200  0.824040  0.489710  1.0  -0.7782
  O  O741  1  0.661700  0.851920  0.576200  1.0  -0.6781
  O  O742  1  0.691000  0.790010  0.552550  1.0  -0.7555
  O  O743  1  0.356900  0.746500  0.064300  1.0  -0.7432
  O  O744  1  0.376500  0.705800  0.124400  1.0  -0.6987
  O  O745  1  0.772100  0.069520  0.085220  1.0  -0.7385
  O  O746  1  0.792600  0.104300  0.149910  1.0  -0.6818
  O  O747  1  0.920400  0.887610  0.570190  1.0  -0.7594
  O  O748  1  0.985700  0.931240  0.535600  1.0  -0.7186
  O  O749  1  0.906500  0.994910  0.607940  1.0  -0.7614
  O  O750  1  0.930600  0.030060  0.523330  1.0  -0.736
  O  O751  1  0.231400  0.499260  0.508260  1.0  -0.7083
  O  O752  1  0.114300  0.517450  0.482500  1.0  -0.4746
  O  O753  1  0.725700  0.392280  0.001250  1.0  -0.7331
  O  O754  1  0.708800  0.324040  0.010290  1.0  -0.7782
  O  O755  1  0.838300  0.351920  0.923800  1.0  -0.6775
  O  O756  1  0.809000  0.290010  0.947450  1.0  -0.7573
  O  O757  1  0.143100  0.246500  0.435700  1.0  -0.7396
  O  O758  1  0.123500  0.205800  0.375600  1.0  -0.7006
  O  O759  1  0.727900  0.569520  0.414780  1.0  -0.7397
  O  O760  1  0.707400  0.604300  0.350090  1.0  -0.6841
  O  O761  1  0.579600  0.387610  0.929810  1.0  -0.7605
  O  O762  1  0.514300  0.431240  0.964400  1.0  -0.7185
  O  O763  1  0.593500  0.494910  0.892060  1.0  -0.7631
  O  O764  1  0.569400  0.530060  0.976670  1.0  -0.735
  O  O765  1  0.268600  0.999260  0.991740  1.0  -0.7083
  O  O766  1  0.385700  0.017450  0.017500  1.0  -0.4715
  O  O767  1  0.225700  0.892280  0.001250  1.0  -0.7331
  O  O768  1  0.208800  0.824040  0.010290  1.0  -0.7782
  O  O769  1  0.338300  0.851920  0.923800  1.0  -0.6775
  O  O770  1  0.309000  0.790010  0.947450  1.0  -0.7573
  O  O771  1  0.643100  0.746500  0.435700  1.0  -0.7396
  O  O772  1  0.623500  0.705800  0.375600  1.0  -0.7006
  O  O773  1  0.227900  0.069520  0.414780  1.0  -0.7397
  O  O774  1  0.207400  0.104300  0.350090  1.0  -0.6841
  O  O775  1  0.079600  0.887610  0.929810  1.0  -0.7605
  O  O776  1  0.014300  0.931240  0.964400  1.0  -0.7185
  O  O777  1  0.093500  0.994910  0.892060  1.0  -0.7631
  O  O778  1  0.069400  0.030060  0.976670  1.0  -0.735
  O  O779  1  0.768600  0.499260  0.991740  1.0  -0.7083
  O  O780  1  0.885700  0.517450  0.017500  1.0  -0.4715
  O  O781  1  0.725700  0.607720  0.501250  1.0  -0.733
  O  O782  1  0.708800  0.675960  0.510290  1.0  -0.7779
  O  O783  1  0.838300  0.648080  0.423800  1.0  -0.6795
  O  O784  1  0.809000  0.709990  0.447450  1.0  -0.7567
  O  O785  1  0.143100  0.753500  0.935700  1.0  -0.7397
  O  O786  1  0.123500  0.794200  0.875600  1.0  -0.703
  O  O787  1  0.727900  0.430480  0.914780  1.0  -0.739
  O  O788  1  0.707400  0.395700  0.850090  1.0  -0.6817
  O  O789  1  0.579600  0.612390  0.429810  1.0  -0.7602
  O  O790  1  0.514300  0.568760  0.464400  1.0  -0.7182
  O  O791  1  0.593500  0.505090  0.392060  1.0  -0.7646
  O  O792  1  0.569400  0.469940  0.476670  1.0  -0.7369
  O  O793  1  0.268600  0.000740  0.491740  1.0  -0.7079
  O  O794  1  0.385700  0.982550  0.517500  1.0  -0.4716
  O  O795  1  0.225700  0.107720  0.501250  1.0  -0.733
  O  O796  1  0.208800  0.175960  0.510290  1.0  -0.7779
  O  O797  1  0.338300  0.148080  0.423800  1.0  -0.6795
  O  O798  1  0.309000  0.209990  0.447450  1.0  -0.7567
  O  O799  1  0.643100  0.253500  0.935700  1.0  -0.7397
  O  O800  1  0.623500  0.294200  0.875600  1.0  -0.703
  O  O801  1  0.227900  0.930480  0.914780  1.0  -0.739
  O  O802  1  0.207400  0.895700  0.850090  1.0  -0.6817
  O  O803  1  0.079600  0.112390  0.429810  1.0  -0.7602
  O  O804  1  0.014300  0.068760  0.464400  1.0  -0.7182
  O  O805  1  0.093500  0.005090  0.392060  1.0  -0.7643
  O  O806  1  0.069400  0.969940  0.476670  1.0  -0.7368
  O  O807  1  0.768600  0.500740  0.491740  1.0  -0.7079
  O  O808  1  0.885700  0.482550  0.517500  1.0  -0.4716
  O  O809  1  0.274300  0.607720  0.998750  1.0  -0.7331
  O  O810  1  0.291200  0.675960  0.989710  1.0  -0.7793
  O  O811  1  0.161700  0.648080  0.076200  1.0  -0.6782
  O  O812  1  0.191000  0.709990  0.052550  1.0  -0.7552
  O  O813  1  0.856900  0.753500  0.564300  1.0  -0.7423
  O  O814  1  0.876500  0.794200  0.624400  1.0  -0.7017
  O  O815  1  0.272100  0.430480  0.585220  1.0  -0.7384
  O  O816  1  0.292600  0.395700  0.649910  1.0  -0.6788
  O  O817  1  0.420400  0.612390  0.070190  1.0  -0.7596
  O  O818  1  0.485700  0.568760  0.035600  1.0  -0.7191
  O  O819  1  0.406500  0.505090  0.107940  1.0  -0.7618
  O  O820  1  0.430600  0.469940  0.023330  1.0  -0.738
  O  O821  1  0.731400  0.000740  0.008260  1.0  -0.7095
  O  O822  1  0.614300  0.982550  0.982500  1.0  -0.4755
  O  O823  1  0.774300  0.107720  0.998750  1.0  -0.7331
  O  O824  1  0.791200  0.175960  0.989710  1.0  -0.7793
  O  O825  1  0.661700  0.148080  0.076200  1.0  -0.6782
  O  O826  1  0.691000  0.209990  0.052550  1.0  -0.7552
  O  O827  1  0.356900  0.253500  0.564300  1.0  -0.7423
  O  O828  1  0.376500  0.294200  0.624400  1.0  -0.7017
  O  O829  1  0.772100  0.930480  0.585220  1.0  -0.7384
  O  O830  1  0.792600  0.895700  0.649910  1.0  -0.6788
  O  O831  1  0.920400  0.112390  0.070190  1.0  -0.7596
  O  O832  1  0.985700  0.068760  0.035600  1.0  -0.7191
  O  O833  1  0.906500  0.005090  0.107940  1.0  -0.7615
  O  O834  1  0.930600  0.969940  0.023330  1.0  -0.7379
  O  O835  1  0.231400  0.500740  0.008260  1.0  -0.7095
  O  O836  1  0.114300  0.482550  0.982500  1.0  -0.4755
