# generated using pymatgen
data_Cu6H18C51O28
_symmetry_space_group_name_H-M   'P 1'
_cell_length_a   30.64110000
_cell_length_b   30.64110000
_cell_length_c   22.96140000
_cell_angle_alpha   90.00000000
_cell_angle_beta   90.00000000
_cell_angle_gamma   90.00000000
_symmetry_Int_Tables_number   1
_chemical_formula_structural   Cu6H18C51O28
_chemical_formula_sum   'Cu48 H144 C408 O224'
_cell_volume   21557.93055927
_cell_formula_units_Z   8
loop_
 _symmetry_equiv_pos_site_id
 _symmetry_equiv_pos_as_xyz
  1  'x, y, z'
loop_
 _atom_site_type_symbol
 _atom_site_label
 _atom_site_symmetry_multiplicity
 _atom_site_fract_x
 _atom_site_fract_y
 _atom_site_fract_z
 _atom_site_occupancy
 _atom_site_charge
  Cu  Cu1  1  0.345140  0.000000  0.000000  1.0  0.9087
  Cu  Cu2  1  0.258260  0.000000  0.000000  1.0  0.9216
  Cu  Cu3  1  0.845140  0.500000  0.500000  1.0  0.9087
  Cu  Cu4  1  0.758260  0.500000  0.500000  1.0  0.9203
  Cu  Cu5  1  0.654860  0.000000  0.000000  1.0  0.908
  Cu  Cu6  1  0.741740  0.000000  0.000000  1.0  0.922
  Cu  Cu7  1  0.154860  0.500000  0.500000  1.0  0.908
  Cu  Cu8  1  0.241740  0.500000  0.500000  1.0  0.921
  Cu  Cu9  1  0.000000  0.345140  0.000000  1.0  0.9087
  Cu  Cu10  1  0.000000  0.258260  0.000000  1.0  0.9234
  Cu  Cu11  1  0.500000  0.845140  0.500000  1.0  0.9087
  Cu  Cu12  1  0.500000  0.758260  0.500000  1.0  0.9224
  Cu  Cu13  1  0.000000  0.654860  0.000000  1.0  0.9115
  Cu  Cu14  1  0.000000  0.741740  0.000000  1.0  0.9226
  Cu  Cu15  1  0.500000  0.154860  0.500000  1.0  0.9115
  Cu  Cu16  1  0.500000  0.241740  0.500000  1.0  0.9212
  Cu  Cu17  1  0.172740  0.172740  0.331960  1.0  0.9216
  Cu  Cu18  1  0.128430  0.128430  0.252040  1.0  0.9037
  Cu  Cu19  1  0.672740  0.672740  0.831960  1.0  0.9216
  Cu  Cu20  1  0.628430  0.628430  0.752040  1.0  0.9036
  Cu  Cu21  1  0.827260  0.827260  0.331960  1.0  0.9209
  Cu  Cu22  1  0.871570  0.871570  0.252040  1.0  0.9022
  Cu  Cu23  1  0.327260  0.327260  0.831960  1.0  0.9209
  Cu  Cu24  1  0.371570  0.371570  0.752040  1.0  0.9022
  Cu  Cu25  1  0.827260  0.172740  0.331960  1.0  0.9204
  Cu  Cu26  1  0.871570  0.128430  0.252040  1.0  0.9025
  Cu  Cu27  1  0.327260  0.672740  0.831960  1.0  0.9204
  Cu  Cu28  1  0.371570  0.628430  0.752040  1.0  0.9025
  Cu  Cu29  1  0.172740  0.827260  0.331960  1.0  0.9213
  Cu  Cu30  1  0.128430  0.871570  0.252040  1.0  0.9029
  Cu  Cu31  1  0.672740  0.327260  0.831960  1.0  0.9213
  Cu  Cu32  1  0.628430  0.371570  0.752040  1.0  0.9029
  Cu  Cu33  1  0.827260  0.172740  0.668040  1.0  0.9221
  Cu  Cu34  1  0.871570  0.128430  0.747960  1.0  0.9036
  Cu  Cu35  1  0.327260  0.672740  0.168040  1.0  0.9221
  Cu  Cu36  1  0.371570  0.628430  0.247960  1.0  0.9035
  Cu  Cu37  1  0.172740  0.827260  0.668040  1.0  0.9206
  Cu  Cu38  1  0.128430  0.871570  0.747960  1.0  0.9022
  Cu  Cu39  1  0.672740  0.327260  0.168040  1.0  0.9206
  Cu  Cu40  1  0.628430  0.371570  0.247960  1.0  0.9021
  Cu  Cu41  1  0.172740  0.172740  0.668040  1.0  0.9209
  Cu  Cu42  1  0.128430  0.128430  0.747960  1.0  0.9035
  Cu  Cu43  1  0.672740  0.672740  0.168040  1.0  0.9209
  Cu  Cu44  1  0.628430  0.628430  0.247960  1.0  0.9033
  Cu  Cu45  1  0.827260  0.827260  0.668040  1.0  0.9222
  Cu  Cu46  1  0.871570  0.871570  0.747960  1.0  0.9033
  Cu  Cu47  1  0.327260  0.327260  0.168040  1.0  0.9222
  Cu  Cu48  1  0.371570  0.371570  0.247960  1.0  0.9033
  H  H49  1  0.366800  0.076900  0.150000  1.0  0.134
  H  H50  1  0.301600  0.146200  0.273100  1.0  0.1298
  H  H51  1  0.235200  0.090200  0.139400  1.0  0.1336
  H  H52  1  0.217700  0.066100  0.438800  1.0  0.1265
  H  H53  1  0.866800  0.576900  0.650000  1.0  0.134
  H  H54  1  0.801600  0.646200  0.773100  1.0  0.1291
  H  H55  1  0.735200  0.590200  0.639400  1.0  0.1336
  H  H56  1  0.717700  0.566100  0.938800  1.0  0.1264
  H  H57  1  0.633200  0.923100  0.150000  1.0  0.1344
  H  H58  1  0.698400  0.853800  0.273100  1.0  0.1298
  H  H59  1  0.764800  0.909800  0.139400  1.0  0.1336
  H  H60  1  0.782300  0.933900  0.438800  1.0  0.1267
  H  H61  1  0.133200  0.423100  0.650000  1.0  0.1344
  H  H62  1  0.198400  0.353800  0.773100  1.0  0.1298
  H  H63  1  0.264800  0.409800  0.639400  1.0  0.1336
  H  H64  1  0.282300  0.433900  0.938800  1.0  0.1267
  H  H65  1  0.923100  0.366800  0.150000  1.0  0.1345
  H  H66  1  0.853800  0.301600  0.273100  1.0  0.1299
  H  H67  1  0.909800  0.235200  0.139400  1.0  0.1346
  H  H68  1  0.933900  0.217700  0.438800  1.0  0.1256
  H  H69  1  0.423100  0.866800  0.650000  1.0  0.1345
  H  H70  1  0.353800  0.801600  0.773100  1.0  0.1292
  H  H71  1  0.409800  0.735200  0.639400  1.0  0.1346
  H  H72  1  0.433900  0.717700  0.938800  1.0  0.1255
  H  H73  1  0.076900  0.633200  0.150000  1.0  0.1348
  H  H74  1  0.146200  0.698400  0.273100  1.0  0.1297
  H  H75  1  0.090200  0.764800  0.139400  1.0  0.1344
  H  H76  1  0.066100  0.782300  0.438800  1.0  0.1264
  H  H77  1  0.576900  0.133200  0.650000  1.0  0.1348
  H  H78  1  0.646200  0.198400  0.773100  1.0  0.1297
  H  H79  1  0.590200  0.264800  0.639400  1.0  0.1344
  H  H80  1  0.566100  0.282300  0.938800  1.0  0.1264
  H  H81  1  0.633200  0.076900  0.850000  1.0  0.135
  H  H82  1  0.698400  0.146200  0.726900  1.0  0.1302
  H  H83  1  0.764800  0.090200  0.860600  1.0  0.1333
  H  H84  1  0.782300  0.066100  0.561200  1.0  0.1264
  H  H85  1  0.133200  0.576900  0.350000  1.0  0.135
  H  H86  1  0.198400  0.646200  0.226900  1.0  0.1302
  H  H87  1  0.264800  0.590200  0.360600  1.0  0.1333
  H  H88  1  0.282300  0.566100  0.061200  1.0  0.1264
  H  H89  1  0.366800  0.923100  0.850000  1.0  0.1341
  H  H90  1  0.301600  0.853800  0.726900  1.0  0.1302
  H  H91  1  0.235200  0.909800  0.860600  1.0  0.1335
  H  H92  1  0.217700  0.933900  0.561200  1.0  0.1269
  H  H93  1  0.866800  0.423100  0.350000  1.0  0.1341
  H  H94  1  0.801600  0.353800  0.226900  1.0  0.1296
  H  H95  1  0.735200  0.409800  0.360600  1.0  0.1335
  H  H96  1  0.717700  0.433900  0.061200  1.0  0.1268
  H  H97  1  0.076900  0.366800  0.850000  1.0  0.1355
  H  H98  1  0.146200  0.301600  0.726900  1.0  0.1301
  H  H99  1  0.090200  0.235200  0.860600  1.0  0.1348
  H  H100  1  0.066100  0.217700  0.561200  1.0  0.1262
  H  H101  1  0.576900  0.866800  0.350000  1.0  0.1355
  H  H102  1  0.646200  0.801600  0.226900  1.0  0.1295
  H  H103  1  0.590200  0.735200  0.360600  1.0  0.1348
  H  H104  1  0.566100  0.717700  0.061200  1.0  0.1261
  H  H105  1  0.923100  0.633200  0.850000  1.0  0.135
  H  H106  1  0.853800  0.698400  0.726900  1.0  0.1302
  H  H107  1  0.909800  0.764800  0.860600  1.0  0.1342
  H  H108  1  0.933900  0.782300  0.561200  1.0  0.1256
  H  H109  1  0.423100  0.133200  0.350000  1.0  0.135
  H  H110  1  0.353800  0.198400  0.226900  1.0  0.1302
  H  H111  1  0.409800  0.264800  0.360600  1.0  0.1342
  H  H112  1  0.433900  0.282300  0.061200  1.0  0.1256
  H  H113  1  0.633200  0.923100  0.850000  1.0  0.1346
  H  H114  1  0.698400  0.853800  0.726900  1.0  0.1302
  H  H115  1  0.764800  0.909800  0.860600  1.0  0.1336
  H  H116  1  0.782300  0.933900  0.561200  1.0  0.1263
  H  H117  1  0.133200  0.423100  0.350000  1.0  0.1346
  H  H118  1  0.198400  0.353800  0.226900  1.0  0.1302
  H  H119  1  0.264800  0.409800  0.360600  1.0  0.1336
  H  H120  1  0.282300  0.433900  0.061200  1.0  0.1263
  H  H121  1  0.366800  0.076900  0.850000  1.0  0.1342
  H  H122  1  0.301600  0.146200  0.726900  1.0  0.1301
  H  H123  1  0.235200  0.090200  0.860600  1.0  0.1334
  H  H124  1  0.217700  0.066100  0.561200  1.0  0.1263
  H  H125  1  0.866800  0.576900  0.350000  1.0  0.1342
  H  H126  1  0.801600  0.646200  0.226900  1.0  0.1295
  H  H127  1  0.735200  0.590200  0.360600  1.0  0.1334
  H  H128  1  0.717700  0.566100  0.061200  1.0  0.1263
  H  H129  1  0.076900  0.633200  0.850000  1.0  0.1353
  H  H130  1  0.146200  0.698400  0.726900  1.0  0.1301
  H  H131  1  0.090200  0.764800  0.860600  1.0  0.1345
  H  H132  1  0.066100  0.782300  0.561200  1.0  0.126
  H  H133  1  0.576900  0.133200  0.350000  1.0  0.1353
  H  H134  1  0.646200  0.198400  0.226900  1.0  0.1301
  H  H135  1  0.590200  0.264800  0.360600  1.0  0.1345
  H  H136  1  0.566100  0.282300  0.061200  1.0  0.126
  H  H137  1  0.923100  0.366800  0.850000  1.0  0.1349
  H  H138  1  0.853800  0.301600  0.726900  1.0  0.13
  H  H139  1  0.909800  0.235200  0.860600  1.0  0.1345
  H  H140  1  0.933900  0.217700  0.561200  1.0  0.1256
  H  H141  1  0.423100  0.866800  0.350000  1.0  0.1349
  H  H142  1  0.353800  0.801600  0.226900  1.0  0.1293
  H  H143  1  0.409800  0.735200  0.360600  1.0  0.1345
  H  H144  1  0.433900  0.717700  0.061200  1.0  0.1255
  H  H145  1  0.366800  0.923100  0.150000  1.0  0.1342
  H  H146  1  0.301600  0.853800  0.273100  1.0  0.1301
  H  H147  1  0.235200  0.909800  0.139400  1.0  0.1338
  H  H148  1  0.217700  0.933900  0.438800  1.0  0.1272
  H  H149  1  0.866800  0.423100  0.650000  1.0  0.1342
  H  H150  1  0.801600  0.353800  0.773100  1.0  0.1294
  H  H151  1  0.735200  0.409800  0.639400  1.0  0.1338
  H  H152  1  0.717700  0.433900  0.938800  1.0  0.1271
  H  H153  1  0.633200  0.076900  0.150000  1.0  0.1345
  H  H154  1  0.698400  0.146200  0.273100  1.0  0.1296
  H  H155  1  0.764800  0.090200  0.139400  1.0  0.1334
  H  H156  1  0.782300  0.066100  0.438800  1.0  0.1265
  H  H157  1  0.133200  0.576900  0.650000  1.0  0.1345
  H  H158  1  0.198400  0.646200  0.773100  1.0  0.1296
  H  H159  1  0.264800  0.590200  0.639400  1.0  0.1334
  H  H160  1  0.282300  0.566100  0.938800  1.0  0.1265
  H  H161  1  0.923100  0.633200  0.150000  1.0  0.1345
  H  H162  1  0.853800  0.698400  0.273100  1.0  0.1298
  H  H163  1  0.909800  0.764800  0.139400  1.0  0.1341
  H  H164  1  0.933900  0.782300  0.438800  1.0  0.126
  H  H165  1  0.423100  0.133200  0.650000  1.0  0.1345
  H  H166  1  0.353800  0.198400  0.773100  1.0  0.1298
  H  H167  1  0.409800  0.264800  0.639400  1.0  0.1341
  H  H168  1  0.433900  0.282300  0.938800  1.0  0.126
  H  H169  1  0.076900  0.366800  0.150000  1.0  0.1351
  H  H170  1  0.146200  0.301600  0.273100  1.0  0.13
  H  H171  1  0.090200  0.235200  0.139400  1.0  0.1349
  H  H172  1  0.066100  0.217700  0.438800  1.0  0.126
  H  H173  1  0.576900  0.866800  0.650000  1.0  0.1351
  H  H174  1  0.646200  0.801600  0.773100  1.0  0.1293
  H  H175  1  0.590200  0.735200  0.639400  1.0  0.1349
  H  H176  1  0.566100  0.717700  0.938800  1.0  0.126
  H  H177  1  0.146400  0.000000  0.317900  1.0  0.1342
  H  H178  1  0.646400  0.500000  0.817900  1.0  0.1326
  H  H179  1  0.853600  0.000000  0.317900  1.0  0.1344
  H  H180  1  0.353600  0.500000  0.817900  1.0  0.1322
  H  H181  1  0.000000  0.146400  0.317900  1.0  0.1342
  H  H182  1  0.500000  0.646400  0.817900  1.0  0.1324
  H  H183  1  0.000000  0.853600  0.317900  1.0  0.1344
  H  H184  1  0.500000  0.353600  0.817900  1.0  0.1322
  H  H185  1  0.853600  0.000000  0.682100  1.0  0.1339
  H  H186  1  0.353600  0.500000  0.182100  1.0  0.1323
  H  H187  1  0.146400  0.000000  0.682100  1.0  0.134
  H  H188  1  0.646400  0.500000  0.182100  1.0  0.1328
  H  H189  1  0.000000  0.146400  0.682100  1.0  0.1337
  H  H190  1  0.500000  0.646400  0.182100  1.0  0.1325
  H  H191  1  0.000000  0.853600  0.682100  1.0  0.1344
  H  H192  1  0.500000  0.353600  0.182100  1.0  0.1325
  C  C193  1  0.301070  0.081930  0.136000  1.0  -0.0998
  C  C194  1  0.340400  0.088580  0.165000  1.0  -0.018
  C  C195  1  0.340160  0.112840  0.216700  1.0  -0.014
  C  C196  1  0.301480  0.129130  0.238500  1.0  -0.0834
  C  C197  1  0.261770  0.120570  0.209800  1.0  -0.1349
  C  C198  1  0.261870  0.096580  0.158700  1.0  0.0272
  C  C199  1  0.301430  0.053550  0.081030  1.0  0.7205
  C  C200  1  0.220140  0.134200  0.238400  1.0  0.7122
  C  C201  1  0.179610  0.039330  0.374300  1.0  -0.1134
  C  C202  1  0.207980  0.039260  0.422600  1.0  -0.0248
  C  C203  1  0.166730  0.081610  0.346100  1.0  0.7098
  C  C204  1  0.801070  0.581930  0.636000  1.0  -0.0998
  C  C205  1  0.840400  0.588580  0.665000  1.0  -0.018
  C  C206  1  0.840160  0.612840  0.716700  1.0  -0.014
  C  C207  1  0.801480  0.629130  0.738500  1.0  -0.0823
  C  C208  1  0.761770  0.620570  0.709800  1.0  -0.1338
  C  C209  1  0.761870  0.596580  0.658700  1.0  0.0272
  C  C210  1  0.801430  0.553550  0.581030  1.0  0.7205
  C  C211  1  0.720140  0.634200  0.738400  1.0  0.7122
  C  C212  1  0.679610  0.539330  0.874300  1.0  -0.1104
  C  C213  1  0.707980  0.539260  0.922600  1.0  -0.0248
  C  C214  1  0.666667  0.581610  0.846100  1.0  0.7108
  C  C215  1  0.698930  0.918070  0.136000  1.0  -0.0996
  C  C216  1  0.659600  0.911420  0.165000  1.0  -0.0181
  C  C217  1  0.659840  0.887160  0.216700  1.0  -0.0124
  C  C218  1  0.698520  0.870870  0.238500  1.0  -0.0827
  C  C219  1  0.738230  0.879430  0.209800  1.0  -0.1345
  C  C220  1  0.738130  0.903420  0.158700  1.0  0.0282
  C  C221  1  0.698570  0.946450  0.081030  1.0  0.7209
  C  C222  1  0.779860  0.865800  0.238400  1.0  0.7129
  C  C223  1  0.820390  0.960670  0.374300  1.0  -0.1128
  C  C224  1  0.792020  0.960740  0.422600  1.0  -0.0246
  C  C225  1  0.833270  0.918390  0.346100  1.0  0.7094
  C  C226  1  0.198930  0.418070  0.636000  1.0  -0.0996
  C  C227  1  0.159600  0.411420  0.665000  1.0  -0.0181
  C  C228  1  0.159840  0.387160  0.716700  1.0  -0.0124
  C  C229  1  0.198520  0.370870  0.738500  1.0  -0.0827
  C  C230  1  0.238230  0.379430  0.709800  1.0  -0.1345
  C  C231  1  0.238130  0.403420  0.658700  1.0  0.0282
  C  C232  1  0.198570  0.446450  0.581030  1.0  0.7209
  C  C233  1  0.279860  0.365800  0.738400  1.0  0.7129
  C  C234  1  0.320390  0.460670  0.874300  1.0  -0.1128
  C  C235  1  0.292020  0.460740  0.922600  1.0  -0.0246
  C  C236  1  0.333270  0.418390  0.846100  1.0  0.7094
  C  C237  1  0.918070  0.301070  0.136000  1.0  -0.1024
  C  C238  1  0.911420  0.340400  0.165000  1.0  -0.017
  C  C239  1  0.887160  0.340160  0.216700  1.0  -0.0142
  C  C240  1  0.870870  0.301480  0.238500  1.0  -0.0858
  C  C241  1  0.879430  0.261770  0.209800  1.0  -0.1341
  C  C242  1  0.903420  0.261870  0.158700  1.0  0.0292
  C  C243  1  0.946450  0.301430  0.081030  1.0  0.7208
  C  C244  1  0.865800  0.220140  0.238400  1.0  0.7141
  C  C245  1  0.960670  0.179610  0.374300  1.0  -0.1123
  C  C246  1  0.960740  0.207980  0.422600  1.0  -0.0253
  C  C247  1  0.918390  0.166730  0.346100  1.0  0.7104
  C  C248  1  0.418070  0.801070  0.636000  1.0  -0.1024
  C  C249  1  0.411420  0.840400  0.665000  1.0  -0.017
  C  C250  1  0.387160  0.840160  0.716700  1.0  -0.0142
  C  C251  1  0.370870  0.801480  0.738500  1.0  -0.0847
  C  C252  1  0.379430  0.761770  0.709800  1.0  -0.1328
  C  C253  1  0.403420  0.761870  0.658700  1.0  0.0292
  C  C254  1  0.446450  0.801430  0.581030  1.0  0.7208
  C  C255  1  0.365800  0.720140  0.738400  1.0  0.7141
  C  C256  1  0.460670  0.679610  0.874300  1.0  -0.1092
  C  C257  1  0.460740  0.707980  0.922600  1.0  -0.0253
  C  C258  1  0.418390  0.666667  0.846100  1.0  0.7125
  C  C259  1  0.081930  0.698930  0.136000  1.0  -0.1015
  C  C260  1  0.088580  0.659600  0.165000  1.0  -0.0167
  C  C261  1  0.112840  0.659840  0.216700  1.0  -0.0134
  C  C262  1  0.129130  0.698520  0.238500  1.0  -0.0835
  C  C263  1  0.120570  0.738230  0.209800  1.0  -0.1331
  C  C264  1  0.096580  0.738130  0.158700  1.0  0.0295
  C  C265  1  0.053550  0.698570  0.081030  1.0  0.7202
  C  C266  1  0.134200  0.779860  0.238400  1.0  0.7138
  C  C267  1  0.039330  0.820390  0.374300  1.0  -0.1113
  C  C268  1  0.039260  0.792020  0.422600  1.0  -0.025
  C  C269  1  0.081610  0.833270  0.346100  1.0  0.7099
  C  C270  1  0.581930  0.198930  0.636000  1.0  -0.1015
  C  C271  1  0.588580  0.159600  0.665000  1.0  -0.0167
  C  C272  1  0.612840  0.159840  0.716700  1.0  -0.0134
  C  C273  1  0.629130  0.198520  0.738500  1.0  -0.0835
  C  C274  1  0.620570  0.238230  0.709800  1.0  -0.1331
  C  C275  1  0.596580  0.238130  0.658700  1.0  0.0295
  C  C276  1  0.553550  0.198570  0.581030  1.0  0.7202
  C  C277  1  0.634200  0.279860  0.738400  1.0  0.7138
  C  C278  1  0.539330  0.320390  0.874300  1.0  -0.1091
  C  C279  1  0.539260  0.292020  0.922600  1.0  -0.025
  C  C280  1  0.581610  0.333270  0.846100  1.0  0.71
  C  C281  1  0.698930  0.081930  0.864000  1.0  -0.1001
  C  C282  1  0.659600  0.088580  0.835000  1.0  -0.0165
  C  C283  1  0.659840  0.112840  0.783300  1.0  -0.0133
  C  C284  1  0.698520  0.129130  0.761500  1.0  -0.087
  C  C285  1  0.738230  0.120570  0.790200  1.0  -0.1344
  C  C286  1  0.738130  0.096580  0.841300  1.0  0.0283
  C  C287  1  0.698570  0.053550  0.918970  1.0  0.7208
  C  C288  1  0.779860  0.134200  0.761600  1.0  0.7123
  C  C289  1  0.820390  0.039330  0.625700  1.0  -0.1133
  C  C290  1  0.792020  0.039260  0.577400  1.0  -0.0258
  C  C291  1  0.833270  0.081610  0.653900  1.0  0.7096
  C  C292  1  0.198930  0.581930  0.364000  1.0  -0.1001
  C  C293  1  0.159600  0.588580  0.335000  1.0  -0.0165
  C  C294  1  0.159840  0.612840  0.283300  1.0  -0.0133
  C  C295  1  0.198520  0.629130  0.261500  1.0  -0.087
  C  C296  1  0.238230  0.620570  0.290200  1.0  -0.1344
  C  C297  1  0.238130  0.596580  0.341300  1.0  0.0283
  C  C298  1  0.198570  0.553550  0.418970  1.0  0.7208
  C  C299  1  0.279860  0.634200  0.261600  1.0  0.7123
  C  C300  1  0.320390  0.539330  0.125700  1.0  -0.111
  C  C301  1  0.292020  0.539260  0.077400  1.0  -0.0258
  C  C302  1  0.333270  0.581610  0.153900  1.0  0.7097
  C  C303  1  0.301070  0.918070  0.864000  1.0  -0.1
  C  C304  1  0.340400  0.911420  0.835000  1.0  -0.0179
  C  C305  1  0.340160  0.887160  0.783300  1.0  -0.0142
  C  C306  1  0.301480  0.870870  0.761500  1.0  -0.0874
  C  C307  1  0.261770  0.879430  0.790200  1.0  -0.1349
  C  C308  1  0.261870  0.903420  0.841300  1.0  0.0266
  C  C309  1  0.301430  0.946450  0.918970  1.0  0.7212
  C  C310  1  0.220140  0.865800  0.761600  1.0  0.7111
  C  C311  1  0.179610  0.960670  0.625700  1.0  -0.1138
  C  C312  1  0.207980  0.960740  0.577400  1.0  -0.0245
  C  C313  1  0.166730  0.918390  0.653900  1.0  0.7097
  C  C314  1  0.801070  0.418070  0.364000  1.0  -0.1
  C  C315  1  0.840400  0.411420  0.335000  1.0  -0.0179
  C  C316  1  0.840160  0.387160  0.283300  1.0  -0.0142
  C  C317  1  0.801480  0.370870  0.261500  1.0  -0.0863
  C  C318  1  0.761770  0.379430  0.290200  1.0  -0.1337
  C  C319  1  0.761870  0.403420  0.341300  1.0  0.0266
  C  C320  1  0.801430  0.446450  0.418970  1.0  0.7212
  C  C321  1  0.720140  0.365800  0.261600  1.0  0.7112
  C  C322  1  0.679610  0.460670  0.125700  1.0  -0.1108
  C  C323  1  0.707980  0.460740  0.077400  1.0  -0.0245
  C  C324  1  0.666667  0.418390  0.153900  1.0  0.7133
  C  C325  1  0.081930  0.301070  0.864000  1.0  -0.1018
  C  C326  1  0.088580  0.340400  0.835000  1.0  -0.0172
  C  C327  1  0.112840  0.340160  0.783300  1.0  -0.0131
  C  C328  1  0.129130  0.301480  0.761500  1.0  -0.0888
  C  C329  1  0.120570  0.261770  0.790200  1.0  -0.1333
  C  C330  1  0.096580  0.261870  0.841300  1.0  0.0285
  C  C331  1  0.053550  0.301430  0.918970  1.0  0.7207
  C  C332  1  0.134200  0.220140  0.761600  1.0  0.7128
  C  C333  1  0.039330  0.179610  0.625700  1.0  -0.1119
  C  C334  1  0.039260  0.207980  0.577400  1.0  -0.0252
  C  C335  1  0.081610  0.166730  0.653900  1.0  0.71
  C  C336  1  0.581930  0.801070  0.364000  1.0  -0.1018
  C  C337  1  0.588580  0.840400  0.335000  1.0  -0.0172
  C  C338  1  0.612840  0.840160  0.283300  1.0  -0.0131
  C  C339  1  0.629130  0.801480  0.261500  1.0  -0.0877
  C  C340  1  0.620570  0.761770  0.290200  1.0  -0.1319
  C  C341  1  0.596580  0.761870  0.341300  1.0  0.0285
  C  C342  1  0.553550  0.801430  0.418970  1.0  0.7207
  C  C343  1  0.634200  0.720140  0.261600  1.0  0.7128
  C  C344  1  0.539330  0.679610  0.125700  1.0  -0.1087
  C  C345  1  0.539260  0.707980  0.077400  1.0  -0.0252
  C  C346  1  0.581610  0.666667  0.153900  1.0  0.7108
  C  C347  1  0.918070  0.698930  0.864000  1.0  -0.1027
  C  C348  1  0.911420  0.659600  0.835000  1.0  -0.0159
  C  C349  1  0.887160  0.659840  0.783300  1.0  -0.0141
  C  C350  1  0.870870  0.698520  0.761500  1.0  -0.0891
  C  C351  1  0.879430  0.738230  0.790200  1.0  -0.1331
  C  C352  1  0.903420  0.738130  0.841300  1.0  0.03
  C  C353  1  0.946450  0.698570  0.918970  1.0  0.721
  C  C354  1  0.865800  0.779860  0.761600  1.0  0.7132
  C  C355  1  0.960670  0.820390  0.625700  1.0  -0.1122
  C  C356  1  0.960740  0.792020  0.577400  1.0  -0.0255
  C  C357  1  0.918390  0.833270  0.653900  1.0  0.7103
  C  C358  1  0.418070  0.198930  0.364000  1.0  -0.1027
  C  C359  1  0.411420  0.159600  0.335000  1.0  -0.0159
  C  C360  1  0.387160  0.159840  0.283300  1.0  -0.0141
  C  C361  1  0.370870  0.198520  0.261500  1.0  -0.0891
  C  C362  1  0.379430  0.238230  0.290200  1.0  -0.1331
  C  C363  1  0.403420  0.238130  0.341300  1.0  0.03
  C  C364  1  0.446450  0.198570  0.418970  1.0  0.721
  C  C365  1  0.365800  0.279860  0.261600  1.0  0.7132
  C  C366  1  0.460670  0.320390  0.125700  1.0  -0.1122
  C  C367  1  0.460740  0.292020  0.077400  1.0  -0.0255
  C  C368  1  0.418390  0.333270  0.153900  1.0  0.7103
  C  C369  1  0.698930  0.918070  0.864000  1.0  -0.1
  C  C370  1  0.659600  0.911420  0.835000  1.0  -0.0174
  C  C371  1  0.659840  0.887160  0.783300  1.0  -0.0125
  C  C372  1  0.698520  0.870870  0.761500  1.0  -0.0821
  C  C373  1  0.738230  0.879430  0.790200  1.0  -0.1341
  C  C374  1  0.738130  0.903420  0.841300  1.0  0.0281
  C  C375  1  0.698570  0.946450  0.918970  1.0  0.7213
  C  C376  1  0.779860  0.865800  0.761600  1.0  0.7121
  C  C377  1  0.820390  0.960670  0.625700  1.0  -0.113
  C  C378  1  0.792020  0.960740  0.577400  1.0  -0.0249
  C  C379  1  0.833270  0.918390  0.653900  1.0  0.7094
  C  C380  1  0.198930  0.418070  0.364000  1.0  -0.1
  C  C381  1  0.159600  0.411420  0.335000  1.0  -0.0174
  C  C382  1  0.159840  0.387160  0.283300  1.0  -0.0125
  C  C383  1  0.198520  0.370870  0.261500  1.0  -0.0821
  C  C384  1  0.238230  0.379430  0.290200  1.0  -0.1341
  C  C385  1  0.238130  0.403420  0.341300  1.0  0.0281
  C  C386  1  0.198570  0.446450  0.418970  1.0  0.7213
  C  C387  1  0.279860  0.365800  0.261600  1.0  0.7121
  C  C388  1  0.320390  0.460670  0.125700  1.0  -0.113
  C  C389  1  0.292020  0.460740  0.077400  1.0  -0.0249
  C  C390  1  0.333270  0.418390  0.153900  1.0  0.7094
  C  C391  1  0.301070  0.081930  0.864000  1.0  -0.1001
  C  C392  1  0.340400  0.088580  0.835000  1.0  -0.0171
  C  C393  1  0.340160  0.112840  0.783300  1.0  -0.014
  C  C394  1  0.301480  0.129130  0.761500  1.0  -0.0831
  C  C395  1  0.261770  0.120570  0.790200  1.0  -0.1346
  C  C396  1  0.261870  0.096580  0.841300  1.0  0.0269
  C  C397  1  0.301430  0.053550  0.918970  1.0  0.7208
  C  C398  1  0.220140  0.134200  0.761600  1.0  0.7114
  C  C399  1  0.179610  0.039330  0.625700  1.0  -0.1137
  C  C400  1  0.207980  0.039260  0.577400  1.0  -0.0251
  C  C401  1  0.166730  0.081610  0.653900  1.0  0.7097
  C  C402  1  0.801070  0.581930  0.364000  1.0  -0.1001
  C  C403  1  0.840400  0.588580  0.335000  1.0  -0.0171
  C  C404  1  0.840160  0.612840  0.283300  1.0  -0.014
  C  C405  1  0.801480  0.629130  0.261500  1.0  -0.0819
  C  C406  1  0.761770  0.620570  0.290200  1.0  -0.1335
  C  C407  1  0.761870  0.596580  0.341300  1.0  0.0269
  C  C408  1  0.801430  0.553550  0.418970  1.0  0.7208
  C  C409  1  0.720140  0.634200  0.261600  1.0  0.7115
  C  C410  1  0.679610  0.539330  0.125700  1.0  -0.1107
  C  C411  1  0.707980  0.539260  0.077400  1.0  -0.0251
  C  C412  1  0.666667  0.581610  0.153900  1.0  0.7107
  C  C413  1  0.081930  0.698930  0.864000  1.0  -0.1017
  C  C414  1  0.088580  0.659600  0.835000  1.0  -0.0157
  C  C415  1  0.112840  0.659840  0.783300  1.0  -0.0136
  C  C416  1  0.129130  0.698520  0.761500  1.0  -0.083
  C  C417  1  0.120570  0.738230  0.790200  1.0  -0.1328
  C  C418  1  0.096580  0.738130  0.841300  1.0  0.0294
  C  C419  1  0.053550  0.698570  0.918970  1.0  0.7207
  C  C420  1  0.134200  0.779860  0.761600  1.0  0.7131
  C  C421  1  0.039330  0.820390  0.625700  1.0  -0.1116
  C  C422  1  0.039260  0.792020  0.577400  1.0  -0.0252
  C  C423  1  0.081610  0.833270  0.653900  1.0  0.7099
  C  C424  1  0.581930  0.198930  0.364000  1.0  -0.1017
  C  C425  1  0.588580  0.159600  0.335000  1.0  -0.0157
  C  C426  1  0.612840  0.159840  0.283300  1.0  -0.0136
  C  C427  1  0.629130  0.198520  0.261500  1.0  -0.083
  C  C428  1  0.620570  0.238230  0.290200  1.0  -0.1328
  C  C429  1  0.596580  0.238130  0.341300  1.0  0.0294
  C  C430  1  0.553550  0.198570  0.418970  1.0  0.7207
  C  C431  1  0.634200  0.279860  0.261600  1.0  0.7131
  C  C432  1  0.539330  0.320390  0.125700  1.0  -0.1095
  C  C433  1  0.539260  0.292020  0.077400  1.0  -0.0252
  C  C434  1  0.581610  0.333270  0.153900  1.0  0.71
  C  C435  1  0.918070  0.301070  0.864000  1.0  -0.1028
  C  C436  1  0.911420  0.340400  0.835000  1.0  -0.0167
  C  C437  1  0.887160  0.340160  0.783300  1.0  -0.0141
  C  C438  1  0.870870  0.301480  0.761500  1.0  -0.0856
  C  C439  1  0.879430  0.261770  0.790200  1.0  -0.1339
  C  C440  1  0.903420  0.261870  0.841300  1.0  0.0296
  C  C441  1  0.946450  0.301430  0.918970  1.0  0.721
  C  C442  1  0.865800  0.220140  0.761600  1.0  0.713
  C  C443  1  0.960670  0.179610  0.625700  1.0  -0.1125
  C  C444  1  0.960740  0.207980  0.577400  1.0  -0.0256
  C  C445  1  0.918390  0.166730  0.653900  1.0  0.7103
  C  C446  1  0.418070  0.801070  0.364000  1.0  -0.1028
  C  C447  1  0.411420  0.840400  0.335000  1.0  -0.0167
  C  C448  1  0.387160  0.840160  0.283300  1.0  -0.0141
  C  C449  1  0.370870  0.801480  0.261500  1.0  -0.0845
  C  C450  1  0.379430  0.761770  0.290200  1.0  -0.1326
  C  C451  1  0.403420  0.761870  0.341300  1.0  0.0296
  C  C452  1  0.446450  0.801430  0.418970  1.0  0.721
  C  C453  1  0.365800  0.720140  0.261600  1.0  0.7131
  C  C454  1  0.460670  0.679610  0.125700  1.0  -0.1093
  C  C455  1  0.460740  0.707980  0.077400  1.0  -0.0256
  C  C456  1  0.418390  0.666667  0.153900  1.0  0.7124
  C  C457  1  0.301070  0.918070  0.136000  1.0  -0.0996
  C  C458  1  0.340400  0.911420  0.165000  1.0  -0.0182
  C  C459  1  0.340160  0.887160  0.216700  1.0  -0.0142
  C  C460  1  0.301480  0.870870  0.238500  1.0  -0.088
  C  C461  1  0.261770  0.879430  0.209800  1.0  -0.1352
  C  C462  1  0.261870  0.903420  0.158700  1.0  0.0271
  C  C463  1  0.301430  0.946450  0.081030  1.0  0.7209
  C  C464  1  0.220140  0.865800  0.238400  1.0  0.7121
  C  C465  1  0.179610  0.960670  0.374300  1.0  -0.1138
  C  C466  1  0.207980  0.960740  0.422600  1.0  -0.0242
  C  C467  1  0.166730  0.918390  0.346100  1.0  0.7098
  C  C468  1  0.801070  0.418070  0.636000  1.0  -0.0996
  C  C469  1  0.840400  0.411420  0.665000  1.0  -0.0182
  C  C470  1  0.840160  0.387160  0.716700  1.0  -0.0142
  C  C471  1  0.801480  0.370870  0.738500  1.0  -0.0869
  C  C472  1  0.761770  0.379430  0.709800  1.0  -0.134
  C  C473  1  0.761870  0.403420  0.658700  1.0  0.0271
  C  C474  1  0.801430  0.446450  0.581030  1.0  0.7209
  C  C475  1  0.720140  0.365800  0.738400  1.0  0.7122
  C  C476  1  0.679610  0.460670  0.874300  1.0  -0.1107
  C  C477  1  0.707980  0.460740  0.922600  1.0  -0.0242
  C  C478  1  0.666667  0.418390  0.846100  1.0  0.7133
  C  C479  1  0.698930  0.081930  0.136000  1.0  -0.0998
  C  C480  1  0.659600  0.088580  0.165000  1.0  -0.0176
  C  C481  1  0.659840  0.112840  0.216700  1.0  -0.0132
  C  C482  1  0.698520  0.129130  0.238500  1.0  -0.0871
  C  C483  1  0.738230  0.120570  0.209800  1.0  -0.1348
  C  C484  1  0.738130  0.096580  0.158700  1.0  0.0284
  C  C485  1  0.698570  0.053550  0.081030  1.0  0.7205
  C  C486  1  0.779860  0.134200  0.238400  1.0  0.713
  C  C487  1  0.820390  0.039330  0.374300  1.0  -0.113
  C  C488  1  0.792020  0.039260  0.422600  1.0  -0.0255
  C  C489  1  0.833270  0.081610  0.346100  1.0  0.7096
  C  C490  1  0.198930  0.581930  0.636000  1.0  -0.0998
  C  C491  1  0.159600  0.588580  0.665000  1.0  -0.0176
  C  C492  1  0.159840  0.612840  0.716700  1.0  -0.0132
  C  C493  1  0.198520  0.629130  0.738500  1.0  -0.0871
  C  C494  1  0.238230  0.620570  0.709800  1.0  -0.1348
  C  C495  1  0.238130  0.596580  0.658700  1.0  0.0284
  C  C496  1  0.198570  0.553550  0.581030  1.0  0.7205
  C  C497  1  0.279860  0.634200  0.738400  1.0  0.713
  C  C498  1  0.320390  0.539330  0.874300  1.0  -0.1106
  C  C499  1  0.292020  0.539260  0.922600  1.0  -0.0255
  C  C500  1  0.333270  0.581610  0.846100  1.0  0.7097
  C  C501  1  0.918070  0.698930  0.136000  1.0  -0.1024
  C  C502  1  0.911420  0.659600  0.165000  1.0  -0.0168
  C  C503  1  0.887160  0.659840  0.216700  1.0  -0.014
  C  C504  1  0.870870  0.698520  0.238500  1.0  -0.0893
  C  C505  1  0.879430  0.738230  0.209800  1.0  -0.1335
  C  C506  1  0.903420  0.738130  0.158700  1.0  0.0297
  C  C507  1  0.946450  0.698570  0.081030  1.0  0.7208
  C  C508  1  0.865800  0.779860  0.238400  1.0  0.7141
  C  C509  1  0.960670  0.820390  0.374300  1.0  -0.112
  C  C510  1  0.960740  0.792020  0.422600  1.0  -0.0254
  C  C511  1  0.918390  0.833270  0.346100  1.0  0.7103
  C  C512  1  0.418070  0.198930  0.636000  1.0  -0.1024
  C  C513  1  0.411420  0.159600  0.665000  1.0  -0.0168
  C  C514  1  0.387160  0.159840  0.716700  1.0  -0.014
  C  C515  1  0.370870  0.198520  0.738500  1.0  -0.0893
  C  C516  1  0.379430  0.238230  0.709800  1.0  -0.1335
  C  C517  1  0.403420  0.238130  0.658700  1.0  0.0297
  C  C518  1  0.446450  0.198570  0.581030  1.0  0.7208
  C  C519  1  0.365800  0.279860  0.738400  1.0  0.7141
  C  C520  1  0.460670  0.320390  0.874300  1.0  -0.112
  C  C521  1  0.460740  0.292020  0.922600  1.0  -0.0254
  C  C522  1  0.418390  0.333270  0.846100  1.0  0.7103
  C  C523  1  0.081930  0.301070  0.136000  1.0  -0.1016
  C  C524  1  0.088580  0.340400  0.165000  1.0  -0.0175
  C  C525  1  0.112840  0.340160  0.216700  1.0  -0.0131
  C  C526  1  0.129130  0.301480  0.238500  1.0  -0.0888
  C  C527  1  0.120570  0.261770  0.209800  1.0  -0.1335
  C  C528  1  0.096580  0.261870  0.158700  1.0  0.0286
  C  C529  1  0.053550  0.301430  0.081030  1.0  0.7201
  C  C530  1  0.134200  0.220140  0.238400  1.0  0.7137
  C  C531  1  0.039330  0.179610  0.374300  1.0  -0.1116
  C  C532  1  0.039260  0.207980  0.422600  1.0  -0.025
  C  C533  1  0.081610  0.166730  0.346100  1.0  0.7101
  C  C534  1  0.581930  0.801070  0.636000  1.0  -0.1016
  C  C535  1  0.588580  0.840400  0.665000  1.0  -0.0175
  C  C536  1  0.612840  0.840160  0.716700  1.0  -0.0131
  C  C537  1  0.629130  0.801480  0.738500  1.0  -0.0878
  C  C538  1  0.620570  0.761770  0.709800  1.0  -0.1322
  C  C539  1  0.596580  0.761870  0.658700  1.0  0.0286
  C  C540  1  0.553550  0.801430  0.581030  1.0  0.7201
  C  C541  1  0.634200  0.720140  0.738400  1.0  0.7137
  C  C542  1  0.539330  0.679610  0.874300  1.0  -0.1084
  C  C543  1  0.539260  0.707980  0.922600  1.0  -0.025
  C  C544  1  0.581610  0.666667  0.846100  1.0  0.7108
  C  C545  1  0.381900  0.118100  0.250000  1.0  0.1782
  C  C546  1  0.618100  0.881900  0.250000  1.0  0.1771
  C  C547  1  0.881900  0.381900  0.250000  1.0  0.1768
  C  C548  1  0.118100  0.618100  0.250000  1.0  0.1783
  C  C549  1  0.618100  0.118100  0.750000  1.0  0.1783
  C  C550  1  0.381900  0.881900  0.750000  1.0  0.1768
  C  C551  1  0.118100  0.381900  0.750000  1.0  0.1771
  C  C552  1  0.881900  0.618100  0.750000  1.0  0.1782
  C  C553  1  0.618100  0.881900  0.750000  1.0  0.1771
  C  C554  1  0.118100  0.381900  0.250000  1.0  0.1771
  C  C555  1  0.381900  0.118100  0.750000  1.0  0.1782
  C  C556  1  0.118100  0.618100  0.750000  1.0  0.1783
  C  C557  1  0.881900  0.381900  0.750000  1.0  0.1768
  C  C558  1  0.381900  0.881900  0.250000  1.0  0.1768
  C  C559  1  0.618100  0.118100  0.250000  1.0  0.1783
  C  C560  1  0.881900  0.618100  0.250000  1.0  0.1781
  C  C561  1  0.221800  0.000000  0.446600  1.0  -0.0328
  C  C562  1  0.165500  0.000000  0.350400  1.0  0.041
  C  C563  1  0.721800  0.500000  0.946600  1.0  -0.0328
  C  C564  1  0.665500  0.500000  0.850400  1.0  0.041
  C  C565  1  0.778200  0.000000  0.446600  1.0  -0.0319
  C  C566  1  0.834500  0.000000  0.350400  1.0  0.041
  C  C567  1  0.278200  0.500000  0.946600  1.0  -0.0319
  C  C568  1  0.334500  0.500000  0.850400  1.0  0.041
  C  C569  1  0.000000  0.221800  0.446600  1.0  -0.0301
  C  C570  1  0.000000  0.165500  0.350400  1.0  0.0416
  C  C571  1  0.500000  0.721800  0.946600  1.0  -0.0302
  C  C572  1  0.500000  0.665500  0.850400  1.0  0.0416
  C  C573  1  0.000000  0.778200  0.446600  1.0  -0.0295
  C  C574  1  0.000000  0.834500  0.350400  1.0  0.0413
  C  C575  1  0.500000  0.278200  0.946600  1.0  -0.0295
  C  C576  1  0.500000  0.334500  0.850400  1.0  0.0413
  C  C577  1  0.778200  0.000000  0.553400  1.0  -0.0321
  C  C578  1  0.834500  0.000000  0.649600  1.0  0.0409
  C  C579  1  0.278200  0.500000  0.053400  1.0  -0.032
  C  C580  1  0.334500  0.500000  0.149600  1.0  0.0409
  C  C581  1  0.221800  0.000000  0.553400  1.0  -0.0332
  C  C582  1  0.165500  0.000000  0.649600  1.0  0.0409
  C  C583  1  0.721800  0.500000  0.053400  1.0  -0.0332
  C  C584  1  0.665500  0.500000  0.149600  1.0  0.0409
  C  C585  1  0.000000  0.221800  0.553400  1.0  -0.0302
  C  C586  1  0.000000  0.165500  0.649600  1.0  0.0421
  C  C587  1  0.500000  0.721800  0.053400  1.0  -0.0303
  C  C588  1  0.500000  0.665500  0.149600  1.0  0.0421
  C  C589  1  0.000000  0.778200  0.553400  1.0  -0.0296
  C  C590  1  0.000000  0.834500  0.649600  1.0  0.0412
  C  C591  1  0.500000  0.278200  0.053400  1.0  -0.0296
  C  C592  1  0.500000  0.334500  0.149600  1.0  0.0412
  C  C593  1  0.252400  0.000000  0.500000  1.0  0.2328
  C  C594  1  0.752400  0.500000  0.000000  1.0  0.2326
  C  C595  1  0.747600  0.000000  0.500000  1.0  0.2332
  C  C596  1  0.247600  0.500000  0.000000  1.0  0.2332
  C  C597  1  0.000000  0.252400  0.500000  1.0  0.2359
  C  C598  1  0.500000  0.752400  0.000000  1.0  0.236
  C  C599  1  0.000000  0.747600  0.500000  1.0  0.2392
  C  C600  1  0.500000  0.247600  0.000000  1.0  0.2392
  O  O601  1  0.337940  0.043980  0.060690  1.0  -0.5581
  O  O602  1  0.265260  0.044020  0.060770  1.0  -0.5609
  O  O603  1  0.222490  0.157890  0.282430  1.0  -0.5623
  O  O604  1  0.185340  0.121360  0.213520  1.0  -0.5577
  O  O605  1  0.180300  0.115850  0.369240  1.0  -0.555
  O  O606  1  0.142870  0.078900  0.302200  1.0  -0.5564
  O  O607  1  0.837940  0.543980  0.560690  1.0  -0.5581
  O  O608  1  0.765260  0.544020  0.560770  1.0  -0.5609
  O  O609  1  0.722490  0.657890  0.782430  1.0  -0.5623
  O  O610  1  0.685340  0.621360  0.713520  1.0  -0.5577
  O  O611  1  0.680300  0.615850  0.869240  1.0  -0.5556
  O  O612  1  0.642870  0.578900  0.802200  1.0  -0.5551
  O  O613  1  0.662060  0.956020  0.060690  1.0  -0.5583
  O  O614  1  0.734740  0.955980  0.060770  1.0  -0.5607
  O  O615  1  0.777510  0.842110  0.282430  1.0  -0.5619
  O  O616  1  0.814660  0.878640  0.213520  1.0  -0.558
  O  O617  1  0.819700  0.884150  0.369240  1.0  -0.5547
  O  O618  1  0.857130  0.921100  0.302200  1.0  -0.5565
  O  O619  1  0.162060  0.456020  0.560690  1.0  -0.5583
  O  O620  1  0.234740  0.455980  0.560770  1.0  -0.5607
  O  O621  1  0.277510  0.342110  0.782430  1.0  -0.5619
  O  O622  1  0.314660  0.378640  0.713520  1.0  -0.558
  O  O623  1  0.319700  0.384150  0.869240  1.0  -0.5547
  O  O624  1  0.357130  0.421100  0.802200  1.0  -0.5565
  O  O625  1  0.956020  0.337940  0.060690  1.0  -0.561
  O  O626  1  0.955980  0.265260  0.060770  1.0  -0.5632
  O  O627  1  0.842110  0.222490  0.282430  1.0  -0.5613
  O  O628  1  0.878640  0.185340  0.213520  1.0  -0.5586
  O  O629  1  0.884150  0.180300  0.369240  1.0  -0.555
  O  O630  1  0.921100  0.142870  0.302200  1.0  -0.5563
  O  O631  1  0.456020  0.837940  0.560690  1.0  -0.5618
  O  O632  1  0.455980  0.765260  0.560770  1.0  -0.5633
  O  O633  1  0.342110  0.722490  0.782430  1.0  -0.5613
  O  O634  1  0.378640  0.685340  0.713520  1.0  -0.5586
  O  O635  1  0.384150  0.680300  0.869240  1.0  -0.5554
  O  O636  1  0.421100  0.642870  0.802200  1.0  -0.5551
  O  O637  1  0.043980  0.662060  0.060690  1.0  -0.5619
  O  O638  1  0.044020  0.734740  0.060770  1.0  -0.5624
  O  O639  1  0.157890  0.777510  0.282430  1.0  -0.5627
  O  O640  1  0.121360  0.814660  0.213520  1.0  -0.5582
  O  O641  1  0.115850  0.819700  0.369240  1.0  -0.5544
  O  O642  1  0.078900  0.857130  0.302200  1.0  -0.5564
  O  O643  1  0.543980  0.162060  0.560690  1.0  -0.5619
  O  O644  1  0.544020  0.234740  0.560770  1.0  -0.5624
  O  O645  1  0.657890  0.277510  0.782430  1.0  -0.5627
  O  O646  1  0.621360  0.314660  0.713520  1.0  -0.5582
  O  O647  1  0.615850  0.319700  0.869240  1.0  -0.5532
  O  O648  1  0.578900  0.357130  0.802200  1.0  -0.5577
  O  O649  1  0.662060  0.043980  0.939310  1.0  -0.5574
  O  O650  1  0.734740  0.044020  0.939230  1.0  -0.5608
  O  O651  1  0.777510  0.157890  0.717570  1.0  -0.5618
  O  O652  1  0.814660  0.121360  0.786480  1.0  -0.5578
  O  O653  1  0.819700  0.115850  0.630760  1.0  -0.5557
  O  O654  1  0.857130  0.078900  0.697800  1.0  -0.5564
  O  O655  1  0.162060  0.543980  0.439310  1.0  -0.5574
  O  O656  1  0.234740  0.544020  0.439230  1.0  -0.5608
  O  O657  1  0.277510  0.657890  0.217570  1.0  -0.5618
  O  O658  1  0.314660  0.621360  0.286480  1.0  -0.5578
  O  O659  1  0.319700  0.615850  0.130760  1.0  -0.5543
  O  O660  1  0.357130  0.578900  0.197800  1.0  -0.5574
  O  O661  1  0.337940  0.956020  0.939310  1.0  -0.5577
  O  O662  1  0.265260  0.955980  0.939230  1.0  -0.5605
  O  O663  1  0.222490  0.842110  0.717570  1.0  -0.5621
  O  O664  1  0.185340  0.878640  0.786480  1.0  -0.5583
  O  O665  1  0.180300  0.884150  0.630760  1.0  -0.5553
  O  O666  1  0.142870  0.921100  0.697800  1.0  -0.5555
  O  O667  1  0.837940  0.456020  0.439310  1.0  -0.5577
  O  O668  1  0.765260  0.455980  0.439230  1.0  -0.5605
  O  O669  1  0.722490  0.342110  0.217570  1.0  -0.5621
  O  O670  1  0.685340  0.378640  0.286480  1.0  -0.5583
  O  O671  1  0.680300  0.384150  0.130760  1.0  -0.5558
  O  O672  1  0.642870  0.421100  0.197800  1.0  -0.5545
  O  O673  1  0.043980  0.337940  0.939310  1.0  -0.5603
  O  O674  1  0.044020  0.265260  0.939230  1.0  -0.5624
  O  O675  1  0.157890  0.222490  0.717570  1.0  -0.5629
  O  O676  1  0.121360  0.185340  0.786480  1.0  -0.5584
  O  O677  1  0.115850  0.180300  0.630760  1.0  -0.5554
  O  O678  1  0.078900  0.142870  0.697800  1.0  -0.556
  O  O679  1  0.543980  0.837940  0.439310  1.0  -0.5603
  O  O680  1  0.544020  0.765260  0.439230  1.0  -0.5624
  O  O681  1  0.657890  0.722490  0.217570  1.0  -0.5629
  O  O682  1  0.621360  0.685340  0.286480  1.0  -0.5584
  O  O683  1  0.615850  0.680300  0.130760  1.0  -0.5557
  O  O684  1  0.578900  0.642870  0.197800  1.0  -0.555
  O  O685  1  0.956020  0.662060  0.939310  1.0  -0.5607
  O  O686  1  0.955980  0.734740  0.939230  1.0  -0.5621
  O  O687  1  0.842110  0.777510  0.717570  1.0  -0.5615
  O  O688  1  0.878640  0.814660  0.786480  1.0  -0.5582
  O  O689  1  0.884150  0.819700  0.630760  1.0  -0.5551
  O  O690  1  0.921100  0.857130  0.697800  1.0  -0.5558
  O  O691  1  0.456020  0.162060  0.439310  1.0  -0.5607
  O  O692  1  0.455980  0.234740  0.439230  1.0  -0.5621
  O  O693  1  0.342110  0.277510  0.217570  1.0  -0.5615
  O  O694  1  0.378640  0.314660  0.286480  1.0  -0.5582
  O  O695  1  0.384150  0.319700  0.130760  1.0  -0.5551
  O  O696  1  0.421100  0.357130  0.197800  1.0  -0.5558
  O  O697  1  0.662060  0.956020  0.939310  1.0  -0.5574
  O  O698  1  0.734740  0.955980  0.939230  1.0  -0.5607
  O  O699  1  0.777510  0.842110  0.717570  1.0  -0.5619
  O  O700  1  0.814660  0.878640  0.786480  1.0  -0.5579
  O  O701  1  0.819700  0.884150  0.630760  1.0  -0.5555
  O  O702  1  0.857130  0.921100  0.697800  1.0  -0.5564
  O  O703  1  0.162060  0.456020  0.439310  1.0  -0.5574
  O  O704  1  0.234740  0.455980  0.439230  1.0  -0.5607
  O  O705  1  0.277510  0.342110  0.217570  1.0  -0.5619
  O  O706  1  0.314660  0.378640  0.286480  1.0  -0.5579
  O  O707  1  0.319700  0.384150  0.130760  1.0  -0.5555
  O  O708  1  0.357130  0.421100  0.197800  1.0  -0.5564
  O  O709  1  0.337940  0.043980  0.939310  1.0  -0.5574
  O  O710  1  0.265260  0.044020  0.939230  1.0  -0.5611
  O  O711  1  0.222490  0.157890  0.717570  1.0  -0.5624
  O  O712  1  0.185340  0.121360  0.786480  1.0  -0.5579
  O  O713  1  0.180300  0.115850  0.630760  1.0  -0.5557
  O  O714  1  0.142870  0.078900  0.697800  1.0  -0.5556
  O  O715  1  0.837940  0.543980  0.439310  1.0  -0.5574
  O  O716  1  0.765260  0.544020  0.439230  1.0  -0.5611
  O  O717  1  0.722490  0.657890  0.217570  1.0  -0.5624
  O  O718  1  0.685340  0.621360  0.286480  1.0  -0.5579
  O  O719  1  0.680300  0.615850  0.130760  1.0  -0.5562
  O  O720  1  0.642870  0.578900  0.197800  1.0  -0.5545
  O  O721  1  0.043980  0.662060  0.939310  1.0  -0.5613
  O  O722  1  0.044020  0.734740  0.939230  1.0  -0.5624
  O  O723  1  0.157890  0.777510  0.717570  1.0  -0.5629
  O  O724  1  0.121360  0.814660  0.786480  1.0  -0.5584
  O  O725  1  0.115850  0.819700  0.630760  1.0  -0.5551
  O  O726  1  0.078900  0.857130  0.697800  1.0  -0.556
  O  O727  1  0.543980  0.162060  0.439310  1.0  -0.5613
  O  O728  1  0.544020  0.234740  0.439230  1.0  -0.5624
  O  O729  1  0.657890  0.277510  0.217570  1.0  -0.5629
  O  O730  1  0.621360  0.314660  0.286480  1.0  -0.5584
  O  O731  1  0.615850  0.319700  0.130760  1.0  -0.5539
  O  O732  1  0.578900  0.357130  0.197800  1.0  -0.5571
  O  O733  1  0.956020  0.337940  0.939310  1.0  -0.561
  O  O734  1  0.955980  0.265260  0.939230  1.0  -0.5629
  O  O735  1  0.842110  0.222490  0.717570  1.0  -0.5615
  O  O736  1  0.878640  0.185340  0.786480  1.0  -0.5585
  O  O737  1  0.884150  0.180300  0.630760  1.0  -0.5552
  O  O738  1  0.921100  0.142870  0.697800  1.0  -0.5562
  O  O739  1  0.456020  0.837940  0.439310  1.0  -0.561
  O  O740  1  0.455980  0.765260  0.439230  1.0  -0.5629
  O  O741  1  0.342110  0.722490  0.217570  1.0  -0.5615
  O  O742  1  0.378640  0.685340  0.286480  1.0  -0.5585
  O  O743  1  0.384150  0.680300  0.130760  1.0  -0.5555
  O  O744  1  0.421100  0.642870  0.197800  1.0  -0.5554
  O  O745  1  0.337940  0.956020  0.060690  1.0  -0.5578
  O  O746  1  0.265260  0.955980  0.060770  1.0  -0.561
  O  O747  1  0.222490  0.842110  0.282430  1.0  -0.5625
  O  O748  1  0.185340  0.878640  0.213520  1.0  -0.5574
  O  O749  1  0.180300  0.884150  0.369240  1.0  -0.5546
  O  O750  1  0.142870  0.921100  0.302200  1.0  -0.5557
  O  O751  1  0.837940  0.456020  0.560690  1.0  -0.5577
  O  O752  1  0.765260  0.455980  0.560770  1.0  -0.561
  O  O753  1  0.722490  0.342110  0.782430  1.0  -0.5625
  O  O754  1  0.685340  0.378640  0.713520  1.0  -0.5574
  O  O755  1  0.680300  0.384150  0.869240  1.0  -0.555
  O  O756  1  0.642870  0.421100  0.802200  1.0  -0.5546
  O  O757  1  0.662060  0.043980  0.060690  1.0  -0.5573
  O  O758  1  0.734740  0.044020  0.060770  1.0  -0.5613
  O  O759  1  0.777510  0.157890  0.282430  1.0  -0.5619
  O  O760  1  0.814660  0.121360  0.213520  1.0  -0.5581
  O  O761  1  0.819700  0.115850  0.369240  1.0  -0.5554
  O  O762  1  0.857130  0.078900  0.302200  1.0  -0.5567
  O  O763  1  0.162060  0.543980  0.560690  1.0  -0.5573
  O  O764  1  0.234740  0.544020  0.560770  1.0  -0.5613
  O  O765  1  0.277510  0.657890  0.782430  1.0  -0.5619
  O  O766  1  0.314660  0.621360  0.713520  1.0  -0.5581
  O  O767  1  0.319700  0.615850  0.869240  1.0  -0.554
  O  O768  1  0.357130  0.578900  0.802200  1.0  -0.5578
  O  O769  1  0.956020  0.662060  0.060690  1.0  -0.5608
  O  O770  1  0.955980  0.734740  0.060770  1.0  -0.5632
  O  O771  1  0.842110  0.777510  0.282430  1.0  -0.5613
  O  O772  1  0.878640  0.814660  0.213520  1.0  -0.5581
  O  O773  1  0.884150  0.819700  0.369240  1.0  -0.5543
  O  O774  1  0.921100  0.857130  0.302200  1.0  -0.5561
  O  O775  1  0.456020  0.162060  0.560690  1.0  -0.5608
  O  O776  1  0.455980  0.234740  0.560770  1.0  -0.5632
  O  O777  1  0.342110  0.277510  0.782430  1.0  -0.5613
  O  O778  1  0.378640  0.314660  0.713520  1.0  -0.5581
  O  O779  1  0.384150  0.319700  0.869240  1.0  -0.5543
  O  O780  1  0.421100  0.357130  0.802200  1.0  -0.5561
  O  O781  1  0.043980  0.337940  0.060690  1.0  -0.5603
  O  O782  1  0.044020  0.265260  0.060770  1.0  -0.563
  O  O783  1  0.157890  0.222490  0.282430  1.0  -0.5627
  O  O784  1  0.121360  0.185340  0.213520  1.0  -0.5585
  O  O785  1  0.115850  0.180300  0.369240  1.0  -0.5551
  O  O786  1  0.078900  0.142870  0.302200  1.0  -0.5562
  O  O787  1  0.543980  0.837940  0.560690  1.0  -0.5603
  O  O788  1  0.544020  0.765260  0.560770  1.0  -0.563
  O  O789  1  0.657890  0.722490  0.782430  1.0  -0.5627
  O  O790  1  0.621360  0.685340  0.713520  1.0  -0.5585
  O  O791  1  0.615850  0.680300  0.869240  1.0  -0.5554
  O  O792  1  0.578900  0.642870  0.802200  1.0  -0.5551
  O  O793  1  0.409930  0.090070  0.250000  1.0  -0.4051
  O  O794  1  0.590070  0.909930  0.250000  1.0  -0.4077
  O  O795  1  0.909930  0.409930  0.250000  1.0  -0.4088
  O  O796  1  0.090070  0.590070  0.250000  1.0  -0.4057
  O  O797  1  0.590070  0.090070  0.750000  1.0  -0.4057
  O  O798  1  0.409930  0.909930  0.750000  1.0  -0.4086
  O  O799  1  0.090070  0.409930  0.750000  1.0  -0.4077
  O  O800  1  0.909930  0.590070  0.750000  1.0  -0.4051
  O  O801  1  0.590070  0.909930  0.750000  1.0  -0.4076
  O  O802  1  0.090070  0.409930  0.250000  1.0  -0.4077
  O  O803  1  0.409930  0.090070  0.750000  1.0  -0.4051
  O  O804  1  0.090070  0.590070  0.750000  1.0  -0.4057
  O  O805  1  0.909930  0.409930  0.750000  1.0  -0.4086
  O  O806  1  0.409930  0.909930  0.250000  1.0  -0.4088
  O  O807  1  0.590070  0.090070  0.250000  1.0  -0.4057
  O  O808  1  0.909930  0.590070  0.250000  1.0  -0.4052
  O  O809  1  0.277400  0.037600  0.500000  1.0  -0.4874
  O  O810  1  0.777400  0.537600  0.000000  1.0  -0.4874
  O  O811  1  0.722600  0.962400  0.500000  1.0  -0.4838
  O  O812  1  0.222600  0.462400  0.000000  1.0  -0.4838
  O  O813  1  0.962400  0.277400  0.500000  1.0  -0.4823
  O  O814  1  0.462400  0.777400  0.000000  1.0  -0.4823
  O  O815  1  0.037600  0.722600  0.500000  1.0  -0.4871
  O  O816  1  0.537600  0.222600  0.000000  1.0  -0.4871
  O  O817  1  0.722600  0.037600  0.500000  1.0  -0.4852
  O  O818  1  0.222600  0.537600  0.000000  1.0  -0.4852
  O  O819  1  0.277400  0.962400  0.500000  1.0  -0.4869
  O  O820  1  0.777400  0.462400  0.000000  1.0  -0.4869
  O  O821  1  0.037600  0.277400  0.500000  1.0  -0.4839
  O  O822  1  0.537600  0.777400  0.000000  1.0  -0.4839
  O  O823  1  0.962400  0.722600  0.500000  1.0  -0.4867
  O  O824  1  0.462400  0.222600  0.000000  1.0  -0.4867
