# generated using pymatgen
data_NdH14C16(N3O4)2
_symmetry_space_group_name_H-M   'P 1'
_cell_length_a   26.86500000
_cell_length_b   26.86500000
_cell_length_c   26.86500000
_cell_angle_alpha   90.00000000
_cell_angle_beta   90.00000000
_cell_angle_gamma   90.00000000
_symmetry_Int_Tables_number   1
_chemical_formula_structural   NdH14C16(N3O4)2
_chemical_formula_sum   'Nd24 H336 C384 N144 O192'
_cell_volume   19389.22876462
_cell_formula_units_Z   24
loop_
 _symmetry_equiv_pos_site_id
 _symmetry_equiv_pos_as_xyz
  1  'x, y, z'
loop_
 _atom_site_type_symbol
 _atom_site_label
 _atom_site_symmetry_multiplicity
 _atom_site_fract_x
 _atom_site_fract_y
 _atom_site_fract_z
 _atom_site_occupancy
 _atom_site_charge
  Nd  Nd1  1  0.915250  0.415250  0.084750  1.0  2.2027
  Nd  Nd2  1  0.415250  0.915250  0.584750  1.0  2.2027
  Nd  Nd3  1  0.584750  0.584750  0.584750  1.0  2.2011
  Nd  Nd4  1  0.084750  0.084750  0.084750  1.0  2.2011
  Nd  Nd5  1  0.084750  0.915250  0.415250  1.0  2.2019
  Nd  Nd6  1  0.584750  0.415250  0.915250  1.0  2.2019
  Nd  Nd7  1  0.415250  0.084750  0.915250  1.0  2.2016
  Nd  Nd8  1  0.915250  0.584750  0.415250  1.0  2.2016
  Nd  Nd9  1  0.084750  0.584750  0.915250  1.0  2.2012
  Nd  Nd10  1  0.584750  0.084750  0.415250  1.0  2.2012
  Nd  Nd11  1  0.415250  0.415250  0.415250  1.0  2.2027
  Nd  Nd12  1  0.915250  0.915250  0.915250  1.0  2.2027
  Nd  Nd13  1  0.915250  0.084750  0.584750  1.0  2.2017
  Nd  Nd14  1  0.415250  0.584750  0.084750  1.0  2.2017
  Nd  Nd15  1  0.584750  0.915250  0.084750  1.0  2.2018
  Nd  Nd16  1  0.084750  0.415250  0.584750  1.0  2.2018
  Nd  Nd17  1  0.000000  0.500000  0.000000  1.0  2.1952
  Nd  Nd18  1  0.500000  0.000000  0.500000  1.0  2.1952
  Nd  Nd19  1  0.500000  0.500000  0.500000  1.0  2.1952
  Nd  Nd20  1  0.000000  0.000000  0.000000  1.0  2.1952
  Nd  Nd21  1  0.000000  0.000000  0.500000  1.0  2.1952
  Nd  Nd22  1  0.500000  0.500000  0.000000  1.0  2.1952
  Nd  Nd23  1  0.500000  0.000000  0.000000  1.0  2.1952
  Nd  Nd24  1  0.000000  0.500000  0.500000  1.0  2.1952
  H  H25  1  0.895600  0.536700  0.154100  1.0  0.0765
  H  H26  1  0.033700  0.590500  0.297900  1.0  0.3069
  H  H27  1  0.066900  0.575500  0.256100  1.0  0.3003
  H  H28  1  0.068800  0.531800  0.154800  1.0  0.3261
  H  H29  1  0.080500  0.552200  0.205000  1.0  0.3169
  H  H30  1  0.839700  0.554800  0.211700  1.0  0.3164
  H  H31  1  0.852000  0.569600  0.263700  1.0  0.3045
  H  H32  1  0.395600  0.036700  0.654100  1.0  0.0765
  H  H33  1  0.533700  0.090500  0.797900  1.0  0.3069
  H  H34  1  0.566900  0.075500  0.756100  1.0  0.3003
  H  H35  1  0.568800  0.031800  0.654800  1.0  0.3261
  H  H36  1  0.580500  0.052200  0.705000  1.0  0.3169
  H  H37  1  0.339700  0.054800  0.711700  1.0  0.3164
  H  H38  1  0.352000  0.069600  0.763700  1.0  0.3045
  H  H39  1  0.604400  0.463300  0.654100  1.0  0.0771
  H  H40  1  0.466300  0.409500  0.797900  1.0  0.3099
  H  H41  1  0.433100  0.424500  0.756100  1.0  0.3006
  H  H42  1  0.431200  0.468200  0.654800  1.0  0.3245
  H  H43  1  0.419500  0.447800  0.705000  1.0  0.3151
  H  H44  1  0.660300  0.445200  0.711700  1.0  0.3193
  H  H45  1  0.648000  0.430400  0.763700  1.0  0.3044
  H  H46  1  0.104400  0.963300  0.154100  1.0  0.0771
  H  H47  1  0.966300  0.909500  0.297900  1.0  0.3099
  H  H48  1  0.933100  0.924500  0.256100  1.0  0.3006
  H  H49  1  0.931200  0.968200  0.154800  1.0  0.3245
  H  H50  1  0.919500  0.947800  0.205000  1.0  0.3151
  H  H51  1  0.160300  0.945200  0.211700  1.0  0.3193
  H  H52  1  0.148000  0.930400  0.263700  1.0  0.3044
  H  H53  1  0.104400  0.036700  0.345900  1.0  0.0778
  H  H54  1  0.966300  0.090500  0.202100  1.0  0.3095
  H  H55  1  0.933100  0.075500  0.243900  1.0  0.3007
  H  H56  1  0.931200  0.031800  0.345200  1.0  0.3246
  H  H57  1  0.919500  0.052200  0.295000  1.0  0.3151
  H  H58  1  0.160300  0.054800  0.288300  1.0  0.3179
  H  H59  1  0.148000  0.069600  0.236300  1.0  0.3045
  H  H60  1  0.604400  0.536700  0.845900  1.0  0.0778
  H  H61  1  0.466300  0.590500  0.702100  1.0  0.3095
  H  H62  1  0.433100  0.575500  0.743900  1.0  0.3007
  H  H63  1  0.431200  0.531800  0.845200  1.0  0.3246
  H  H64  1  0.419500  0.552200  0.795000  1.0  0.3151
  H  H65  1  0.660300  0.554800  0.788300  1.0  0.3179
  H  H66  1  0.648000  0.569600  0.736300  1.0  0.3045
  H  H67  1  0.395600  0.963300  0.845900  1.0  0.0779
  H  H68  1  0.533700  0.909500  0.702100  1.0  0.3103
  H  H69  1  0.566900  0.924500  0.743900  1.0  0.3007
  H  H70  1  0.568800  0.968200  0.845200  1.0  0.3241
  H  H71  1  0.580500  0.947800  0.795000  1.0  0.3163
  H  H72  1  0.339700  0.945200  0.788300  1.0  0.3173
  H  H73  1  0.352000  0.930400  0.736300  1.0  0.3025
  H  H74  1  0.895600  0.463300  0.345900  1.0  0.0779
  H  H75  1  0.033700  0.409500  0.202100  1.0  0.3103
  H  H76  1  0.066900  0.424500  0.243900  1.0  0.3007
  H  H77  1  0.068800  0.468200  0.345200  1.0  0.3241
  H  H78  1  0.080500  0.447800  0.295000  1.0  0.3163
  H  H79  1  0.839700  0.445200  0.288300  1.0  0.3173
  H  H80  1  0.852000  0.430400  0.236300  1.0  0.3025
  H  H81  1  0.154100  0.895600  0.536700  1.0  0.0793
  H  H82  1  0.297900  0.033700  0.590500  1.0  0.3073
  H  H83  1  0.256100  0.066900  0.575500  1.0  0.299
  H  H84  1  0.154800  0.068800  0.531800  1.0  0.325
  H  H85  1  0.205000  0.080500  0.552200  1.0  0.3169
  H  H86  1  0.211700  0.839700  0.554800  1.0  0.3232
  H  H87  1  0.263700  0.852000  0.569600  1.0  0.3065
  H  H88  1  0.654100  0.395600  0.036700  1.0  0.0793
  H  H89  1  0.797900  0.533700  0.090500  1.0  0.3073
  H  H90  1  0.756100  0.566900  0.075500  1.0  0.299
  H  H91  1  0.654800  0.568800  0.031800  1.0  0.325
  H  H92  1  0.705000  0.580500  0.052200  1.0  0.3169
  H  H93  1  0.711700  0.339700  0.054800  1.0  0.3232
  H  H94  1  0.763700  0.352000  0.069600  1.0  0.3065
  H  H95  1  0.654100  0.604400  0.463300  1.0  0.0789
  H  H96  1  0.797900  0.466300  0.409500  1.0  0.3095
  H  H97  1  0.756100  0.433100  0.424500  1.0  0.2971
  H  H98  1  0.654800  0.431200  0.468200  1.0  0.3263
  H  H99  1  0.705000  0.419500  0.447800  1.0  0.315
  H  H100  1  0.711700  0.660300  0.445200  1.0  0.3221
  H  H101  1  0.763700  0.648000  0.430400  1.0  0.3073
  H  H102  1  0.154100  0.104400  0.963300  1.0  0.0789
  H  H103  1  0.297900  0.966300  0.909500  1.0  0.3095
  H  H104  1  0.256100  0.933100  0.924500  1.0  0.2971
  H  H105  1  0.154800  0.931200  0.968200  1.0  0.3263
  H  H106  1  0.205000  0.919500  0.947800  1.0  0.315
  H  H107  1  0.211700  0.160300  0.945200  1.0  0.3221
  H  H108  1  0.263700  0.148000  0.930400  1.0  0.3073
  H  H109  1  0.345900  0.104400  0.036700  1.0  0.0787
  H  H110  1  0.202100  0.966300  0.090500  1.0  0.3096
  H  H111  1  0.243900  0.933100  0.075500  1.0  0.2981
  H  H112  1  0.345200  0.931200  0.031800  1.0  0.3247
  H  H113  1  0.295000  0.919500  0.052200  1.0  0.3143
  H  H114  1  0.288300  0.160300  0.054800  1.0  0.3195
  H  H115  1  0.236300  0.148000  0.069600  1.0  0.3054
  H  H116  1  0.845900  0.604400  0.536700  1.0  0.0787
  H  H117  1  0.702100  0.466300  0.590500  1.0  0.3096
  H  H118  1  0.743900  0.433100  0.575500  1.0  0.2981
  H  H119  1  0.845200  0.431200  0.531800  1.0  0.3247
  H  H120  1  0.795000  0.419500  0.552200  1.0  0.3143
  H  H121  1  0.788300  0.660300  0.554800  1.0  0.3195
  H  H122  1  0.736300  0.648000  0.569600  1.0  0.3054
  H  H123  1  0.845900  0.395600  0.963300  1.0  0.0794
  H  H124  1  0.702100  0.533700  0.909500  1.0  0.312
  H  H125  1  0.743900  0.566900  0.924500  1.0  0.2997
  H  H126  1  0.845200  0.568800  0.968200  1.0  0.3245
  H  H127  1  0.795000  0.580500  0.947800  1.0  0.3163
  H  H128  1  0.788300  0.339700  0.945200  1.0  0.3214
  H  H129  1  0.736300  0.352000  0.930400  1.0  0.306
  H  H130  1  0.345900  0.895600  0.463300  1.0  0.0794
  H  H131  1  0.202100  0.033700  0.409500  1.0  0.312
  H  H132  1  0.243900  0.066900  0.424500  1.0  0.2997
  H  H133  1  0.345200  0.068800  0.468200  1.0  0.3245
  H  H134  1  0.295000  0.080500  0.447800  1.0  0.3163
  H  H135  1  0.288300  0.839700  0.445200  1.0  0.3214
  H  H136  1  0.236300  0.852000  0.430400  1.0  0.306
  H  H137  1  0.536700  0.154100  0.895600  1.0  0.0779
  H  H138  1  0.590500  0.297900  0.033700  1.0  0.3121
  H  H139  1  0.575500  0.256100  0.066900  1.0  0.2996
  H  H140  1  0.531800  0.154800  0.068800  1.0  0.3277
  H  H141  1  0.552200  0.205000  0.080500  1.0  0.3132
  H  H142  1  0.554800  0.211700  0.839700  1.0  0.3199
  H  H143  1  0.569600  0.263700  0.852000  1.0  0.3068
  H  H144  1  0.036700  0.654100  0.395600  1.0  0.0779
  H  H145  1  0.090500  0.797900  0.533700  1.0  0.3121
  H  H146  1  0.075500  0.756100  0.566900  1.0  0.2996
  H  H147  1  0.031800  0.654800  0.568800  1.0  0.3277
  H  H148  1  0.052200  0.705000  0.580500  1.0  0.3132
  H  H149  1  0.054800  0.711700  0.339700  1.0  0.3199
  H  H150  1  0.069600  0.763700  0.352000  1.0  0.3068
  H  H151  1  0.463300  0.654100  0.604400  1.0  0.0795
  H  H152  1  0.409500  0.797900  0.466300  1.0  0.312
  H  H153  1  0.424500  0.756100  0.433100  1.0  0.3003
  H  H154  1  0.468200  0.654800  0.431200  1.0  0.3278
  H  H155  1  0.447800  0.705000  0.419500  1.0  0.3134
  H  H156  1  0.445200  0.711700  0.660300  1.0  0.3193
  H  H157  1  0.430400  0.763700  0.648000  1.0  0.3051
  H  H158  1  0.963300  0.154100  0.104400  1.0  0.0795
  H  H159  1  0.909500  0.297900  0.966300  1.0  0.312
  H  H160  1  0.924500  0.256100  0.933100  1.0  0.3003
  H  H161  1  0.968200  0.154800  0.931200  1.0  0.3278
  H  H162  1  0.947800  0.205000  0.919500  1.0  0.3134
  H  H163  1  0.945200  0.211700  0.160300  1.0  0.3193
  H  H164  1  0.930400  0.263700  0.148000  1.0  0.3051
  H  H165  1  0.036700  0.345900  0.104400  1.0  0.0779
  H  H166  1  0.090500  0.202100  0.966300  1.0  0.3142
  H  H167  1  0.075500  0.243900  0.933100  1.0  0.2989
  H  H168  1  0.031800  0.345200  0.931200  1.0  0.328
  H  H169  1  0.052200  0.295000  0.919500  1.0  0.3126
  H  H170  1  0.054800  0.288300  0.160300  1.0  0.3174
  H  H171  1  0.069600  0.236300  0.148000  1.0  0.3036
  H  H172  1  0.536700  0.845900  0.604400  1.0  0.0779
  H  H173  1  0.590500  0.702100  0.466300  1.0  0.3142
  H  H174  1  0.575500  0.743900  0.433100  1.0  0.2989
  H  H175  1  0.531800  0.845200  0.431200  1.0  0.328
  H  H176  1  0.552200  0.795000  0.419500  1.0  0.3126
  H  H177  1  0.554800  0.788300  0.660300  1.0  0.3174
  H  H178  1  0.569600  0.736300  0.648000  1.0  0.3036
  H  H179  1  0.963300  0.845900  0.395600  1.0  0.0777
  H  H180  1  0.909500  0.702100  0.533700  1.0  0.3137
  H  H181  1  0.924500  0.743900  0.566900  1.0  0.3014
  H  H182  1  0.968200  0.845200  0.568800  1.0  0.328
  H  H183  1  0.947800  0.795000  0.580500  1.0  0.3139
  H  H184  1  0.945200  0.788300  0.339700  1.0  0.3176
  H  H185  1  0.930400  0.736300  0.352000  1.0  0.3032
  H  H186  1  0.463300  0.345900  0.895600  1.0  0.0777
  H  H187  1  0.409500  0.202100  0.033700  1.0  0.3137
  H  H188  1  0.424500  0.243900  0.066900  1.0  0.3014
  H  H189  1  0.468200  0.345200  0.068800  1.0  0.328
  H  H190  1  0.447800  0.295000  0.080500  1.0  0.3139
  H  H191  1  0.445200  0.288300  0.839700  1.0  0.3176
  H  H192  1  0.430400  0.236300  0.852000  1.0  0.3032
  H  H193  1  0.104400  0.463300  0.845900  1.0  0.0782
  H  H194  1  0.966300  0.409500  0.702100  1.0  0.3107
  H  H195  1  0.933100  0.424500  0.743900  1.0  0.3007
  H  H196  1  0.931200  0.468200  0.845200  1.0  0.3242
  H  H197  1  0.919500  0.447800  0.795000  1.0  0.3145
  H  H198  1  0.160300  0.445200  0.788300  1.0  0.3184
  H  H199  1  0.148000  0.430400  0.736300  1.0  0.3036
  H  H200  1  0.604400  0.963300  0.345900  1.0  0.0782
  H  H201  1  0.466300  0.909500  0.202100  1.0  0.3107
  H  H202  1  0.433100  0.924500  0.243900  1.0  0.3007
  H  H203  1  0.431200  0.968200  0.345200  1.0  0.3242
  H  H204  1  0.419500  0.947800  0.295000  1.0  0.3145
  H  H205  1  0.660300  0.945200  0.288300  1.0  0.3184
  H  H206  1  0.648000  0.930400  0.236300  1.0  0.3036
  H  H207  1  0.395600  0.536700  0.345900  1.0  0.0775
  H  H208  1  0.533700  0.590500  0.202100  1.0  0.3097
  H  H209  1  0.566900  0.575500  0.243900  1.0  0.3009
  H  H210  1  0.568800  0.531800  0.345200  1.0  0.3247
  H  H211  1  0.580500  0.552200  0.295000  1.0  0.3165
  H  H212  1  0.339700  0.554800  0.288300  1.0  0.3171
  H  H213  1  0.352000  0.569600  0.236300  1.0  0.3033
  H  H214  1  0.895600  0.036700  0.845900  1.0  0.0775
  H  H215  1  0.033700  0.090500  0.702100  1.0  0.3097
  H  H216  1  0.066900  0.075500  0.743900  1.0  0.3009
  H  H217  1  0.068800  0.031800  0.845200  1.0  0.3247
  H  H218  1  0.080500  0.052200  0.795000  1.0  0.3165
  H  H219  1  0.839700  0.054800  0.788300  1.0  0.3171
  H  H220  1  0.852000  0.069600  0.736300  1.0  0.3033
  H  H221  1  0.895600  0.963300  0.654100  1.0  0.077
  H  H222  1  0.033700  0.909500  0.797900  1.0  0.3078
  H  H223  1  0.066900  0.924500  0.756100  1.0  0.3011
  H  H224  1  0.068800  0.968200  0.654800  1.0  0.3254
  H  H225  1  0.080500  0.947800  0.705000  1.0  0.3168
  H  H226  1  0.839700  0.945200  0.711700  1.0  0.3168
  H  H227  1  0.852000  0.930400  0.763700  1.0  0.304
  H  H228  1  0.395600  0.463300  0.154100  1.0  0.077
  H  H229  1  0.533700  0.409500  0.297900  1.0  0.3078
  H  H230  1  0.566900  0.424500  0.256100  1.0  0.3011
  H  H231  1  0.568800  0.468200  0.154800  1.0  0.3254
  H  H232  1  0.580500  0.447800  0.205000  1.0  0.3168
  H  H233  1  0.339700  0.445200  0.211700  1.0  0.3168
  H  H234  1  0.352000  0.430400  0.263700  1.0  0.304
  H  H235  1  0.604400  0.036700  0.154100  1.0  0.0767
  H  H236  1  0.466300  0.090500  0.297900  1.0  0.3081
  H  H237  1  0.433100  0.075500  0.256100  1.0  0.3002
  H  H238  1  0.431200  0.031800  0.154800  1.0  0.325
  H  H239  1  0.419500  0.052200  0.205000  1.0  0.3156
  H  H240  1  0.660300  0.054800  0.211700  1.0  0.3184
  H  H241  1  0.648000  0.069600  0.263700  1.0  0.3045
  H  H242  1  0.104400  0.536700  0.654100  1.0  0.0767
  H  H243  1  0.966300  0.590500  0.797900  1.0  0.3081
  H  H244  1  0.933100  0.575500  0.756100  1.0  0.3002
  H  H245  1  0.931200  0.531800  0.654800  1.0  0.325
  H  H246  1  0.919500  0.552200  0.705000  1.0  0.3156
  H  H247  1  0.160300  0.554800  0.711700  1.0  0.3184
  H  H248  1  0.148000  0.569600  0.763700  1.0  0.3045
  H  H249  1  0.845900  0.104400  0.463300  1.0  0.0786
  H  H250  1  0.702100  0.966300  0.409500  1.0  0.3122
  H  H251  1  0.743900  0.933100  0.424500  1.0  0.2975
  H  H252  1  0.845200  0.931200  0.468200  1.0  0.3255
  H  H253  1  0.795000  0.919500  0.447800  1.0  0.3145
  H  H254  1  0.788300  0.160300  0.445200  1.0  0.3204
  H  H255  1  0.736300  0.148000  0.430400  1.0  0.3059
  H  H256  1  0.345900  0.604400  0.963300  1.0  0.0786
  H  H257  1  0.202100  0.466300  0.909500  1.0  0.3122
  H  H258  1  0.243900  0.433100  0.924500  1.0  0.2975
  H  H259  1  0.345200  0.431200  0.968200  1.0  0.3255
  H  H260  1  0.295000  0.419500  0.947800  1.0  0.3145
  H  H261  1  0.288300  0.660300  0.945200  1.0  0.3204
  H  H262  1  0.236300  0.648000  0.930400  1.0  0.3059
  H  H263  1  0.345900  0.395600  0.536700  1.0  0.0802
  H  H264  1  0.202100  0.533700  0.590500  1.0  0.3099
  H  H265  1  0.243900  0.566900  0.575500  1.0  0.2983
  H  H266  1  0.345200  0.568800  0.531800  1.0  0.3241
  H  H267  1  0.295000  0.580500  0.552200  1.0  0.316
  H  H268  1  0.288300  0.339700  0.554800  1.0  0.321
  H  H269  1  0.236300  0.352000  0.569600  1.0  0.3058
  H  H270  1  0.845900  0.895600  0.036700  1.0  0.0802
  H  H271  1  0.702100  0.033700  0.090500  1.0  0.3099
  H  H272  1  0.743900  0.066900  0.075500  1.0  0.2983
  H  H273  1  0.845200  0.068800  0.031800  1.0  0.3241
  H  H274  1  0.795000  0.080500  0.052200  1.0  0.316
  H  H275  1  0.788300  0.839700  0.054800  1.0  0.321
  H  H276  1  0.736300  0.852000  0.069600  1.0  0.3058
  H  H277  1  0.654100  0.895600  0.963300  1.0  0.0785
  H  H278  1  0.797900  0.033700  0.909500  1.0  0.3079
  H  H279  1  0.756100  0.066900  0.924500  1.0  0.2999
  H  H280  1  0.654800  0.068800  0.968200  1.0  0.3249
  H  H281  1  0.705000  0.080500  0.947800  1.0  0.317
  H  H282  1  0.711700  0.839700  0.945200  1.0  0.3239
  H  H283  1  0.763700  0.852000  0.930400  1.0  0.3055
  H  H284  1  0.154100  0.395600  0.463300  1.0  0.0785
  H  H285  1  0.297900  0.533700  0.409500  1.0  0.3079
  H  H286  1  0.256100  0.566900  0.424500  1.0  0.2999
  H  H287  1  0.154800  0.568800  0.468200  1.0  0.3249
  H  H288  1  0.205000  0.580500  0.447800  1.0  0.317
  H  H289  1  0.211700  0.339700  0.445200  1.0  0.3239
  H  H290  1  0.263700  0.352000  0.430400  1.0  0.3055
  H  H291  1  0.154100  0.604400  0.036700  1.0  0.079
  H  H292  1  0.297900  0.466300  0.090500  1.0  0.3089
  H  H293  1  0.256100  0.433100  0.075500  1.0  0.2978
  H  H294  1  0.154800  0.431200  0.031800  1.0  0.3262
  H  H295  1  0.205000  0.419500  0.052200  1.0  0.3153
  H  H296  1  0.211700  0.660300  0.054800  1.0  0.3215
  H  H297  1  0.263700  0.648000  0.069600  1.0  0.3065
  H  H298  1  0.654100  0.104400  0.536700  1.0  0.079
  H  H299  1  0.797900  0.966300  0.590500  1.0  0.3089
  H  H300  1  0.756100  0.933100  0.575500  1.0  0.2978
  H  H301  1  0.654800  0.931200  0.531800  1.0  0.3262
  H  H302  1  0.705000  0.919500  0.552200  1.0  0.3153
  H  H303  1  0.711700  0.160300  0.554800  1.0  0.3215
  H  H304  1  0.763700  0.148000  0.569600  1.0  0.3065
  H  H305  1  0.463300  0.845900  0.104400  1.0  0.0787
  H  H306  1  0.409500  0.702100  0.966300  1.0  0.3137
  H  H307  1  0.424500  0.743900  0.933100  1.0  0.2998
  H  H308  1  0.468200  0.845200  0.931200  1.0  0.3281
  H  H309  1  0.447800  0.795000  0.919500  1.0  0.3129
  H  H310  1  0.445200  0.788300  0.160300  1.0  0.318
  H  H311  1  0.430400  0.736300  0.148000  1.0  0.3038
  H  H312  1  0.963300  0.345900  0.604400  1.0  0.0787
  H  H313  1  0.909500  0.202100  0.466300  1.0  0.3137
  H  H314  1  0.924500  0.243900  0.433100  1.0  0.2998
  H  H315  1  0.968200  0.345200  0.431200  1.0  0.3281
  H  H316  1  0.947800  0.295000  0.419500  1.0  0.3129
  H  H317  1  0.945200  0.288300  0.660300  1.0  0.318
  H  H318  1  0.930400  0.236300  0.648000  1.0  0.3038
  H  H319  1  0.536700  0.345900  0.395600  1.0  0.0778
  H  H320  1  0.590500  0.202100  0.533700  1.0  0.3139
  H  H321  1  0.575500  0.243900  0.566900  1.0  0.2997
  H  H322  1  0.531800  0.345200  0.568800  1.0  0.3269
  H  H323  1  0.552200  0.295000  0.580500  1.0  0.3131
  H  H324  1  0.554800  0.288300  0.339700  1.0  0.3195
  H  H325  1  0.569600  0.236300  0.352000  1.0  0.3042
  H  H326  1  0.036700  0.845900  0.895600  1.0  0.0778
  H  H327  1  0.090500  0.702100  0.033700  1.0  0.3139
  H  H328  1  0.075500  0.743900  0.066900  1.0  0.2997
  H  H329  1  0.031800  0.845200  0.068800  1.0  0.3269
  H  H330  1  0.052200  0.795000  0.080500  1.0  0.3131
  H  H331  1  0.054800  0.788300  0.839700  1.0  0.3195
  H  H332  1  0.069600  0.736300  0.852000  1.0  0.3042
  H  H333  1  0.963300  0.654100  0.895600  1.0  0.078
  H  H334  1  0.909500  0.797900  0.033700  1.0  0.3114
  H  H335  1  0.924500  0.756100  0.066900  1.0  0.301
  H  H336  1  0.968200  0.654800  0.068800  1.0  0.3278
  H  H337  1  0.947800  0.705000  0.080500  1.0  0.3135
  H  H338  1  0.945200  0.711700  0.839700  1.0  0.3176
  H  H339  1  0.930400  0.763700  0.852000  1.0  0.3052
  H  H340  1  0.463300  0.154100  0.395600  1.0  0.078
  H  H341  1  0.409500  0.297900  0.533700  1.0  0.3114
  H  H342  1  0.424500  0.256100  0.566900  1.0  0.301
  H  H343  1  0.468200  0.154800  0.568800  1.0  0.3278
  H  H344  1  0.447800  0.205000  0.580500  1.0  0.3135
  H  H345  1  0.445200  0.211700  0.339700  1.0  0.3176
  H  H346  1  0.430400  0.263700  0.352000  1.0  0.3052
  H  H347  1  0.036700  0.154100  0.604400  1.0  0.0788
  H  H348  1  0.090500  0.297900  0.466300  1.0  0.3132
  H  H349  1  0.075500  0.256100  0.433100  1.0  0.2993
  H  H350  1  0.031800  0.154800  0.431200  1.0  0.3286
  H  H351  1  0.052200  0.205000  0.419500  1.0  0.3132
  H  H352  1  0.054800  0.211700  0.660300  1.0  0.3182
  H  H353  1  0.069600  0.263700  0.648000  1.0  0.3059
  H  H354  1  0.536700  0.654100  0.104400  1.0  0.0788
  H  H355  1  0.590500  0.797900  0.966300  1.0  0.3132
  H  H356  1  0.575500  0.756100  0.933100  1.0  0.2993
  H  H357  1  0.531800  0.654800  0.931200  1.0  0.3286
  H  H358  1  0.552200  0.705000  0.919500  1.0  0.3132
  H  H359  1  0.554800  0.711700  0.160300  1.0  0.3182
  H  H360  1  0.569600  0.763700  0.148000  1.0  0.3059
  C  C361  1  0.980700  0.523200  0.108400  1.0  0.6986
  C  C362  1  0.969000  0.540300  0.159500  1.0  -0.1084
  C  C363  1  0.007600  0.551400  0.191700  1.0  0.1101
  C  C364  1  0.997100  0.564800  0.241400  1.0  0.2107
  C  C365  1  0.947800  0.568000  0.257200  1.0  -0.1003
  C  C366  1  0.909800  0.557600  0.223900  1.0  0.2954
  C  C367  1  0.921400  0.543900  0.176100  1.0  -0.1646
  C  C368  1  0.936000  0.577800  0.311200  1.0  0.6538
  C  C369  1  0.480700  0.023200  0.608400  1.0  0.6986
  C  C370  1  0.469000  0.040300  0.659500  1.0  -0.1084
  C  C371  1  0.507600  0.051400  0.691700  1.0  0.1101
  C  C372  1  0.497100  0.064800  0.741400  1.0  0.2107
  C  C373  1  0.447800  0.068000  0.757200  1.0  -0.1003
  C  C374  1  0.409800  0.057600  0.723900  1.0  0.2954
  C  C375  1  0.421400  0.043900  0.676100  1.0  -0.1646
  C  C376  1  0.436000  0.077800  0.811200  1.0  0.6538
  C  C377  1  0.519300  0.476800  0.608400  1.0  0.6985
  C  C378  1  0.531000  0.459700  0.659500  1.0  -0.1088
  C  C379  1  0.492400  0.448600  0.691700  1.0  0.1105
  C  C380  1  0.502900  0.435200  0.741400  1.0  0.2104
  C  C381  1  0.552200  0.432000  0.757200  1.0  -0.1009
  C  C382  1  0.590200  0.442400  0.723900  1.0  0.2966
  C  C383  1  0.578600  0.456100  0.676100  1.0  -0.165
  C  C384  1  0.564000  0.422200  0.811200  1.0  0.6546
  C  C385  1  0.019300  0.976800  0.108400  1.0  0.6985
  C  C386  1  0.031000  0.959700  0.159500  1.0  -0.1088
  C  C387  1  0.992400  0.948600  0.191700  1.0  0.1105
  C  C388  1  0.002900  0.935200  0.241400  1.0  0.2104
  C  C389  1  0.052200  0.932000  0.257200  1.0  -0.1009
  C  C390  1  0.090200  0.942400  0.223900  1.0  0.2966
  C  C391  1  0.078600  0.956100  0.176100  1.0  -0.165
  C  C392  1  0.064000  0.922200  0.311200  1.0  0.6546
  C  C393  1  0.019300  0.023200  0.391600  1.0  0.6984
  C  C394  1  0.031000  0.040300  0.340500  1.0  -0.1082
  C  C395  1  0.992400  0.051400  0.308300  1.0  0.1101
  C  C396  1  0.002900  0.064800  0.258600  1.0  0.2098
  C  C397  1  0.052200  0.068000  0.242800  1.0  -0.1014
  C  C398  1  0.090200  0.057600  0.276100  1.0  0.2949
  C  C399  1  0.078600  0.043900  0.323900  1.0  -0.1646
  C  C400  1  0.064000  0.077800  0.188800  1.0  0.6552
  C  C401  1  0.519300  0.523200  0.891600  1.0  0.6984
  C  C402  1  0.531000  0.540300  0.840500  1.0  -0.1082
  C  C403  1  0.492400  0.551400  0.808300  1.0  0.1101
  C  C404  1  0.502900  0.564800  0.758600  1.0  0.2098
  C  C405  1  0.552200  0.568000  0.742800  1.0  -0.1014
  C  C406  1  0.590200  0.557600  0.776100  1.0  0.2949
  C  C407  1  0.578600  0.543900  0.823900  1.0  -0.1646
  C  C408  1  0.564000  0.577800  0.688800  1.0  0.6552
  C  C409  1  0.480700  0.976800  0.891600  1.0  0.6997
  C  C410  1  0.469000  0.959700  0.840500  1.0  -0.1093
  C  C411  1  0.507600  0.948600  0.808300  1.0  0.1112
  C  C412  1  0.497100  0.935200  0.758600  1.0  0.2116
  C  C413  1  0.447800  0.932000  0.742800  1.0  -0.0992
  C  C414  1  0.409800  0.942400  0.776100  1.0  0.2961
  C  C415  1  0.421400  0.956100  0.823900  1.0  -0.1635
  C  C416  1  0.436000  0.922200  0.688800  1.0  0.6555
  C  C417  1  0.980700  0.476800  0.391600  1.0  0.6997
  C  C418  1  0.969000  0.459700  0.340500  1.0  -0.1093
  C  C419  1  0.007600  0.448600  0.308300  1.0  0.1112
  C  C420  1  0.997100  0.435200  0.258600  1.0  0.2116
  C  C421  1  0.947800  0.432000  0.242800  1.0  -0.0992
  C  C422  1  0.909800  0.442400  0.276100  1.0  0.2961
  C  C423  1  0.921400  0.456100  0.323900  1.0  -0.1635
  C  C424  1  0.936000  0.422200  0.188800  1.0  0.6555
  C  C425  1  0.108400  0.980700  0.523200  1.0  0.6977
  C  C426  1  0.159500  0.969000  0.540300  1.0  -0.1157
  C  C427  1  0.191700  0.007600  0.551400  1.0  0.1101
  C  C428  1  0.241400  0.997100  0.564800  1.0  0.21
  C  C429  1  0.257200  0.947800  0.568000  1.0  -0.103
  C  C430  1  0.223900  0.909800  0.557600  1.0  0.2975
  C  C431  1  0.176100  0.921400  0.543900  1.0  -0.1666
  C  C432  1  0.311200  0.936000  0.577800  1.0  0.6536
  C  C433  1  0.608400  0.480700  0.023200  1.0  0.6977
  C  C434  1  0.659500  0.469000  0.040300  1.0  -0.1157
  C  C435  1  0.691700  0.507600  0.051400  1.0  0.1101
  C  C436  1  0.741400  0.497100  0.064800  1.0  0.21
  C  C437  1  0.757200  0.447800  0.068000  1.0  -0.103
  C  C438  1  0.723900  0.409800  0.057600  1.0  0.2975
  C  C439  1  0.676100  0.421400  0.043900  1.0  -0.1666
  C  C440  1  0.811200  0.436000  0.077800  1.0  0.6536
  C  C441  1  0.608400  0.519300  0.476800  1.0  0.6978
  C  C442  1  0.659500  0.531000  0.459700  1.0  -0.1145
  C  C443  1  0.691700  0.492400  0.448600  1.0  0.1074
  C  C444  1  0.741400  0.502900  0.435200  1.0  0.2074
  C  C445  1  0.757200  0.552200  0.432000  1.0  -0.1033
  C  C446  1  0.723900  0.590200  0.442400  1.0  0.2922
  C  C447  1  0.676100  0.578600  0.456100  1.0  -0.1677
  C  C448  1  0.811200  0.564000  0.422200  1.0  0.6532
  C  C449  1  0.108400  0.019300  0.976800  1.0  0.6978
  C  C450  1  0.159500  0.031000  0.959700  1.0  -0.1145
  C  C451  1  0.191700  0.992400  0.948600  1.0  0.1074
  C  C452  1  0.241400  0.002900  0.935200  1.0  0.2074
  C  C453  1  0.257200  0.052200  0.932000  1.0  -0.1033
  C  C454  1  0.223900  0.090200  0.942400  1.0  0.2922
  C  C455  1  0.176100  0.078600  0.956100  1.0  -0.1677
  C  C456  1  0.311200  0.064000  0.922200  1.0  0.6532
  C  C457  1  0.391600  0.019300  0.023200  1.0  0.697
  C  C458  1  0.340500  0.031000  0.040300  1.0  -0.1148
  C  C459  1  0.308300  0.992400  0.051400  1.0  0.1092
  C  C460  1  0.258600  0.002900  0.064800  1.0  0.2096
  C  C461  1  0.242800  0.052200  0.068000  1.0  -0.1021
  C  C462  1  0.276100  0.090200  0.057600  1.0  0.2957
  C  C463  1  0.323900  0.078600  0.043900  1.0  -0.168
  C  C464  1  0.188800  0.064000  0.077800  1.0  0.6503
  C  C465  1  0.891600  0.519300  0.523200  1.0  0.697
  C  C466  1  0.840500  0.531000  0.540300  1.0  -0.1148
  C  C467  1  0.808300  0.492400  0.551400  1.0  0.1092
  C  C468  1  0.758600  0.502900  0.564800  1.0  0.2096
  C  C469  1  0.742800  0.552200  0.568000  1.0  -0.1021
  C  C470  1  0.776100  0.590200  0.557600  1.0  0.2957
  C  C471  1  0.823900  0.578600  0.543900  1.0  -0.168
  C  C472  1  0.688800  0.564000  0.577800  1.0  0.6503
  C  C473  1  0.891600  0.480700  0.976800  1.0  0.6972
  C  C474  1  0.840500  0.469000  0.959700  1.0  -0.1138
  C  C475  1  0.808300  0.507600  0.948600  1.0  0.1084
  C  C476  1  0.758600  0.497100  0.935200  1.0  0.2084
  C  C477  1  0.742800  0.447800  0.932000  1.0  -0.103
  C  C478  1  0.776100  0.409800  0.942400  1.0  0.2945
  C  C479  1  0.823900  0.421400  0.956100  1.0  -0.1696
  C  C480  1  0.688800  0.436000  0.922200  1.0  0.6519
  C  C481  1  0.391600  0.980700  0.476800  1.0  0.6972
  C  C482  1  0.340500  0.969000  0.459700  1.0  -0.1138
  C  C483  1  0.308300  0.007600  0.448600  1.0  0.1084
  C  C484  1  0.258600  0.997100  0.435200  1.0  0.2084
  C  C485  1  0.242800  0.947800  0.432000  1.0  -0.103
  C  C486  1  0.276100  0.909800  0.442400  1.0  0.2945
  C  C487  1  0.323900  0.921400  0.456100  1.0  -0.1696
  C  C488  1  0.188800  0.936000  0.422200  1.0  0.6519
  C  C489  1  0.523200  0.108400  0.980700  1.0  0.6996
  C  C490  1  0.540300  0.159500  0.969000  1.0  -0.11
  C  C491  1  0.551400  0.191700  0.007600  1.0  0.1121
  C  C492  1  0.564800  0.241400  0.997100  1.0  0.2079
  C  C493  1  0.568000  0.257200  0.947800  1.0  -0.1069
  C  C494  1  0.557600  0.223900  0.909800  1.0  0.2891
  C  C495  1  0.543900  0.176100  0.921400  1.0  -0.1644
  C  C496  1  0.577800  0.311200  0.936000  1.0  0.6478
  C  C497  1  0.023200  0.608400  0.480700  1.0  0.6996
  C  C498  1  0.040300  0.659500  0.469000  1.0  -0.11
  C  C499  1  0.051400  0.691700  0.507600  1.0  0.1121
  C  C500  1  0.064800  0.741400  0.497100  1.0  0.2079
  C  C501  1  0.068000  0.757200  0.447800  1.0  -0.1069
  C  C502  1  0.057600  0.723900  0.409800  1.0  0.2891
  C  C503  1  0.043900  0.676100  0.421400  1.0  -0.1644
  C  C504  1  0.077800  0.811200  0.436000  1.0  0.6478
  C  C505  1  0.476800  0.608400  0.519300  1.0  0.6988
  C  C506  1  0.459700  0.659500  0.531000  1.0  -0.1102
  C  C507  1  0.448600  0.691700  0.492400  1.0  0.1102
  C  C508  1  0.435200  0.741400  0.502900  1.0  0.2056
  C  C509  1  0.432000  0.757200  0.552200  1.0  -0.1045
  C  C510  1  0.442400  0.723900  0.590200  1.0  0.2906
  C  C511  1  0.456100  0.676100  0.578600  1.0  -0.1643
  C  C512  1  0.422200  0.811200  0.564000  1.0  0.648
  C  C513  1  0.976800  0.108400  0.019300  1.0  0.6988
  C  C514  1  0.959700  0.159500  0.031000  1.0  -0.1102
  C  C515  1  0.948600  0.191700  0.992400  1.0  0.1102
  C  C516  1  0.935200  0.241400  0.002900  1.0  0.2056
  C  C517  1  0.932000  0.257200  0.052200  1.0  -0.1045
  C  C518  1  0.942400  0.223900  0.090200  1.0  0.2906
  C  C519  1  0.956100  0.176100  0.078600  1.0  -0.1643
  C  C520  1  0.922200  0.311200  0.064000  1.0  0.648
  C  C521  1  0.023200  0.391600  0.019300  1.0  0.6984
  C  C522  1  0.040300  0.340500  0.031000  1.0  -0.1105
  C  C523  1  0.051400  0.308300  0.992400  1.0  0.1113
  C  C524  1  0.064800  0.258600  0.002900  1.0  0.2067
  C  C525  1  0.068000  0.242800  0.052200  1.0  -0.1078
  C  C526  1  0.057600  0.276100  0.090200  1.0  0.2912
  C  C527  1  0.043900  0.323900  0.078600  1.0  -0.165
  C  C528  1  0.077800  0.188800  0.064000  1.0  0.6489
  C  C529  1  0.523200  0.891600  0.519300  1.0  0.6984
  C  C530  1  0.540300  0.840500  0.531000  1.0  -0.1105
  C  C531  1  0.551400  0.808300  0.492400  1.0  0.1113
  C  C532  1  0.564800  0.758600  0.502900  1.0  0.2067
  C  C533  1  0.568000  0.742800  0.552200  1.0  -0.1078
  C  C534  1  0.557600  0.776100  0.590200  1.0  0.2912
  C  C535  1  0.543900  0.823900  0.578600  1.0  -0.165
  C  C536  1  0.577800  0.688800  0.564000  1.0  0.6489
  C  C537  1  0.976800  0.891600  0.480700  1.0  0.6986
  C  C538  1  0.959700  0.840500  0.469000  1.0  -0.1093
  C  C539  1  0.948600  0.808300  0.507600  1.0  0.1122
  C  C540  1  0.935200  0.758600  0.497100  1.0  0.2073
  C  C541  1  0.932000  0.742800  0.447800  1.0  -0.1042
  C  C542  1  0.942400  0.776100  0.409800  1.0  0.2899
  C  C543  1  0.956100  0.823900  0.421400  1.0  -0.1646
  C  C544  1  0.922200  0.688800  0.436000  1.0  0.648
  C  C545  1  0.476800  0.391600  0.980700  1.0  0.6986
  C  C546  1  0.459700  0.340500  0.969000  1.0  -0.1093
  C  C547  1  0.448600  0.308300  0.007600  1.0  0.1122
  C  C548  1  0.435200  0.258600  0.997100  1.0  0.2073
  C  C549  1  0.432000  0.242800  0.947800  1.0  -0.1042
  C  C550  1  0.442400  0.276100  0.909800  1.0  0.2899
  C  C551  1  0.456100  0.323900  0.921400  1.0  -0.1646
  C  C552  1  0.422200  0.188800  0.936000  1.0  0.648
  C  C553  1  0.019300  0.476800  0.891600  1.0  0.6987
  C  C554  1  0.031000  0.459700  0.840500  1.0  -0.1093
  C  C555  1  0.992400  0.448600  0.808300  1.0  0.111
  C  C556  1  0.002900  0.435200  0.758600  1.0  0.2108
  C  C557  1  0.052200  0.432000  0.742800  1.0  -0.1003
  C  C558  1  0.090200  0.442400  0.776100  1.0  0.2968
  C  C559  1  0.078600  0.456100  0.823900  1.0  -0.1648
  C  C560  1  0.064000  0.422200  0.688800  1.0  0.6545
  C  C561  1  0.519300  0.976800  0.391600  1.0  0.6987
  C  C562  1  0.531000  0.959700  0.340500  1.0  -0.1093
  C  C563  1  0.492400  0.948600  0.308300  1.0  0.111
  C  C564  1  0.502900  0.935200  0.258600  1.0  0.2108
  C  C565  1  0.552200  0.932000  0.242800  1.0  -0.1003
  C  C566  1  0.590200  0.942400  0.276100  1.0  0.2968
  C  C567  1  0.578600  0.956100  0.323900  1.0  -0.1648
  C  C568  1  0.564000  0.922200  0.188800  1.0  0.6545
  C  C569  1  0.480700  0.523200  0.391600  1.0  0.6997
  C  C570  1  0.469000  0.540300  0.340500  1.0  -0.1081
  C  C571  1  0.507600  0.551400  0.308300  1.0  0.1103
  C  C572  1  0.497100  0.564800  0.258600  1.0  0.211
  C  C573  1  0.447800  0.568000  0.242800  1.0  -0.101
  C  C574  1  0.409800  0.557600  0.276100  1.0  0.2955
  C  C575  1  0.421400  0.543900  0.323900  1.0  -0.1648
  C  C576  1  0.436000  0.577800  0.188800  1.0  0.6558
  C  C577  1  0.980700  0.023200  0.891600  1.0  0.6997
  C  C578  1  0.969000  0.040300  0.840500  1.0  -0.1081
  C  C579  1  0.007600  0.051400  0.808300  1.0  0.1103
  C  C580  1  0.997100  0.064800  0.758600  1.0  0.211
  C  C581  1  0.947800  0.068000  0.742800  1.0  -0.101
  C  C582  1  0.909800  0.057600  0.776100  1.0  0.2955
  C  C583  1  0.921400  0.043900  0.823900  1.0  -0.1648
  C  C584  1  0.936000  0.077800  0.688800  1.0  0.6558
  C  C585  1  0.980700  0.976800  0.608400  1.0  0.6987
  C  C586  1  0.969000  0.959700  0.659500  1.0  -0.1089
  C  C587  1  0.007600  0.948600  0.691700  1.0  0.1106
  C  C588  1  0.997100  0.935200  0.741400  1.0  0.211
  C  C589  1  0.947800  0.932000  0.757200  1.0  -0.1001
  C  C590  1  0.909800  0.942400  0.723900  1.0  0.2958
  C  C591  1  0.921400  0.956100  0.676100  1.0  -0.1637
  C  C592  1  0.936000  0.922200  0.811200  1.0  0.6547
  C  C593  1  0.480700  0.476800  0.108400  1.0  0.6987
  C  C594  1  0.469000  0.459700  0.159500  1.0  -0.1089
  C  C595  1  0.507600  0.448600  0.191700  1.0  0.1106
  C  C596  1  0.497100  0.435200  0.241400  1.0  0.211
  C  C597  1  0.447800  0.432000  0.257200  1.0  -0.1001
  C  C598  1  0.409800  0.442400  0.223900  1.0  0.2958
  C  C599  1  0.421400  0.456100  0.176100  1.0  -0.1637
  C  C600  1  0.436000  0.422200  0.311200  1.0  0.6547
  C  C601  1  0.519300  0.023200  0.108400  1.0  0.6982
  C  C602  1  0.531000  0.040300  0.159500  1.0  -0.1083
  C  C603  1  0.492400  0.051400  0.191700  1.0  0.11
  C  C604  1  0.502900  0.064800  0.241400  1.0  0.2095
  C  C605  1  0.552200  0.068000  0.257200  1.0  -0.1006
  C  C606  1  0.590200  0.057600  0.223900  1.0  0.2947
  C  C607  1  0.578600  0.043900  0.176100  1.0  -0.1648
  C  C608  1  0.564000  0.077800  0.311200  1.0  0.6542
  C  C609  1  0.019300  0.523200  0.608400  1.0  0.6982
  C  C610  1  0.031000  0.540300  0.659500  1.0  -0.1083
  C  C611  1  0.992400  0.551400  0.691700  1.0  0.11
  C  C612  1  0.002900  0.564800  0.741400  1.0  0.2095
  C  C613  1  0.052200  0.568000  0.757200  1.0  -0.1006
  C  C614  1  0.090200  0.557600  0.723900  1.0  0.2947
  C  C615  1  0.078600  0.543900  0.676100  1.0  -0.1648
  C  C616  1  0.064000  0.577800  0.811200  1.0  0.6542
  C  C617  1  0.891600  0.019300  0.476800  1.0  0.6972
  C  C618  1  0.840500  0.031000  0.459700  1.0  -0.114
  C  C619  1  0.808300  0.992400  0.448600  1.0  0.1081
  C  C620  1  0.758600  0.002900  0.435200  1.0  0.2084
  C  C621  1  0.742800  0.052200  0.432000  1.0  -0.102
  C  C622  1  0.776100  0.090200  0.442400  1.0  0.2917
  C  C623  1  0.823900  0.078600  0.456100  1.0  -0.1703
  C  C624  1  0.688800  0.064000  0.422200  1.0  0.6517
  C  C625  1  0.391600  0.519300  0.976800  1.0  0.6972
  C  C626  1  0.340500  0.531000  0.959700  1.0  -0.114
  C  C627  1  0.308300  0.492400  0.948600  1.0  0.1081
  C  C628  1  0.258600  0.502900  0.935200  1.0  0.2084
  C  C629  1  0.242800  0.552200  0.932000  1.0  -0.102
  C  C630  1  0.276100  0.590200  0.942400  1.0  0.2917
  C  C631  1  0.323900  0.578600  0.956100  1.0  -0.1703
  C  C632  1  0.188800  0.564000  0.922200  1.0  0.6517
  C  C633  1  0.391600  0.480700  0.523200  1.0  0.6972
  C  C634  1  0.340500  0.469000  0.540300  1.0  -0.1154
  C  C635  1  0.308300  0.507600  0.551400  1.0  0.1105
  C  C636  1  0.258600  0.497100  0.564800  1.0  0.2105
  C  C637  1  0.242800  0.447800  0.568000  1.0  -0.1026
  C  C638  1  0.276100  0.409800  0.557600  1.0  0.2973
  C  C639  1  0.323900  0.421400  0.543900  1.0  -0.1677
  C  C640  1  0.188800  0.436000  0.577800  1.0  0.6505
  C  C641  1  0.891600  0.980700  0.023200  1.0  0.6972
  C  C642  1  0.840500  0.969000  0.040300  1.0  -0.1154
  C  C643  1  0.808300  0.007600  0.051400  1.0  0.1105
  C  C644  1  0.758600  0.997100  0.064800  1.0  0.2105
  C  C645  1  0.742800  0.947800  0.068000  1.0  -0.1026
  C  C646  1  0.776100  0.909800  0.057600  1.0  0.2973
  C  C647  1  0.823900  0.921400  0.043900  1.0  -0.1677
  C  C648  1  0.688800  0.936000  0.077800  1.0  0.6505
  C  C649  1  0.608400  0.980700  0.976800  1.0  0.6977
  C  C650  1  0.659500  0.969000  0.959700  1.0  -0.114
  C  C651  1  0.691700  0.007600  0.948600  1.0  0.1073
  C  C652  1  0.741400  0.997100  0.935200  1.0  0.2077
  C  C653  1  0.757200  0.947800  0.932000  1.0  -0.1039
  C  C654  1  0.723900  0.909800  0.942400  1.0  0.2952
  C  C655  1  0.676100  0.921400  0.956100  1.0  -0.1678
  C  C656  1  0.811200  0.936000  0.922200  1.0  0.6529
  C  C657  1  0.108400  0.480700  0.476800  1.0  0.6977
  C  C658  1  0.159500  0.469000  0.459700  1.0  -0.114
  C  C659  1  0.191700  0.507600  0.448600  1.0  0.1073
  C  C660  1  0.241400  0.497100  0.435200  1.0  0.2077
  C  C661  1  0.257200  0.447800  0.432000  1.0  -0.1039
  C  C662  1  0.223900  0.409800  0.442400  1.0  0.2952
  C  C663  1  0.176100  0.421400  0.456100  1.0  -0.1678
  C  C664  1  0.311200  0.436000  0.422200  1.0  0.6529
  C  C665  1  0.108400  0.519300  0.023200  1.0  0.6978
  C  C666  1  0.159500  0.531000  0.040300  1.0  -0.115
  C  C667  1  0.191700  0.492400  0.051400  1.0  0.1089
  C  C668  1  0.241400  0.502900  0.064800  1.0  0.2087
  C  C669  1  0.257200  0.552200  0.068000  1.0  -0.1028
  C  C670  1  0.223900  0.590200  0.057600  1.0  0.2958
  C  C671  1  0.176100  0.578600  0.043900  1.0  -0.1668
  C  C672  1  0.311200  0.564000  0.077800  1.0  0.6533
  C  C673  1  0.608400  0.019300  0.523200  1.0  0.6978
  C  C674  1  0.659500  0.031000  0.540300  1.0  -0.115
  C  C675  1  0.691700  0.992400  0.551400  1.0  0.1089
  C  C676  1  0.741400  0.002900  0.564800  1.0  0.2087
  C  C677  1  0.757200  0.052200  0.568000  1.0  -0.1028
  C  C678  1  0.723900  0.090200  0.557600  1.0  0.2958
  C  C679  1  0.676100  0.078600  0.543900  1.0  -0.1668
  C  C680  1  0.811200  0.064000  0.577800  1.0  0.6533
  C  C681  1  0.476800  0.891600  0.019300  1.0  0.6985
  C  C682  1  0.459700  0.840500  0.031000  1.0  -0.11
  C  C683  1  0.448600  0.808300  0.992400  1.0  0.1107
  C  C684  1  0.435200  0.758600  0.002900  1.0  0.2058
  C  C685  1  0.432000  0.742800  0.052200  1.0  -0.1042
  C  C686  1  0.442400  0.776100  0.090200  1.0  0.292
  C  C687  1  0.456100  0.823900  0.078600  1.0  -0.1653
  C  C688  1  0.422200  0.688800  0.064000  1.0  0.6482
  C  C689  1  0.976800  0.391600  0.519300  1.0  0.6985
  C  C690  1  0.959700  0.340500  0.531000  1.0  -0.11
  C  C691  1  0.948600  0.308300  0.492400  1.0  0.1107
  C  C692  1  0.935200  0.258600  0.502900  1.0  0.2058
  C  C693  1  0.932000  0.242800  0.552200  1.0  -0.1042
  C  C694  1  0.942400  0.276100  0.590200  1.0  0.292
  C  C695  1  0.956100  0.323900  0.578600  1.0  -0.1653
  C  C696  1  0.922200  0.188800  0.564000  1.0  0.6482
  C  C697  1  0.523200  0.391600  0.480700  1.0  0.6986
  C  C698  1  0.540300  0.340500  0.469000  1.0  -0.1104
  C  C699  1  0.551400  0.308300  0.507600  1.0  0.1126
  C  C700  1  0.564800  0.258600  0.497100  1.0  0.2087
  C  C701  1  0.568000  0.242800  0.447800  1.0  -0.1074
  C  C702  1  0.557600  0.276100  0.409800  1.0  0.2896
  C  C703  1  0.543900  0.323900  0.421400  1.0  -0.1638
  C  C704  1  0.577800  0.188800  0.436000  1.0  0.6485
  C  C705  1  0.023200  0.891600  0.980700  1.0  0.6986
  C  C706  1  0.040300  0.840500  0.969000  1.0  -0.1104
  C  C707  1  0.051400  0.808300  0.007600  1.0  0.1126
  C  C708  1  0.064800  0.758600  0.997100  1.0  0.2087
  C  C709  1  0.068000  0.742800  0.947800  1.0  -0.1074
  C  C710  1  0.057600  0.776100  0.909800  1.0  0.2896
  C  C711  1  0.043900  0.823900  0.921400  1.0  -0.1638
  C  C712  1  0.077800  0.688800  0.936000  1.0  0.6485
  C  C713  1  0.976800  0.608400  0.980700  1.0  0.6989
  C  C714  1  0.959700  0.659500  0.969000  1.0  -0.1091
  C  C715  1  0.948600  0.691700  0.007600  1.0  0.1112
  C  C716  1  0.935200  0.741400  0.997100  1.0  0.2067
  C  C717  1  0.932000  0.757200  0.947800  1.0  -0.1043
  C  C718  1  0.942400  0.723900  0.909800  1.0  0.2883
  C  C719  1  0.956100  0.676100  0.921400  1.0  -0.1648
  C  C720  1  0.922200  0.811200  0.936000  1.0  0.6478
  C  C721  1  0.476800  0.108400  0.480700  1.0  0.6989
  C  C722  1  0.459700  0.159500  0.469000  1.0  -0.1091
  C  C723  1  0.448600  0.191700  0.507600  1.0  0.1112
  C  C724  1  0.435200  0.241400  0.497100  1.0  0.2067
  C  C725  1  0.432000  0.257200  0.447800  1.0  -0.1043
  C  C726  1  0.442400  0.223900  0.409800  1.0  0.2883
  C  C727  1  0.456100  0.176100  0.421400  1.0  -0.1648
  C  C728  1  0.422200  0.311200  0.436000  1.0  0.6478
  C  C729  1  0.023200  0.108400  0.519300  1.0  0.6994
  C  C730  1  0.040300  0.159500  0.531000  1.0  -0.1103
  C  C731  1  0.051400  0.191700  0.492400  1.0  0.1113
  C  C732  1  0.064800  0.241400  0.502900  1.0  0.2065
  C  C733  1  0.068000  0.257200  0.552200  1.0  -0.1075
  C  C734  1  0.057600  0.223900  0.590200  1.0  0.2912
  C  C735  1  0.043900  0.176100  0.578600  1.0  -0.1643
  C  C736  1  0.077800  0.311200  0.564000  1.0  0.6482
  C  C737  1  0.523200  0.608400  0.019300  1.0  0.6994
  C  C738  1  0.540300  0.659500  0.031000  1.0  -0.1103
  C  C739  1  0.551400  0.691700  0.992400  1.0  0.1113
  C  C740  1  0.564800  0.741400  0.002900  1.0  0.2065
  C  C741  1  0.568000  0.757200  0.052200  1.0  -0.1075
  C  C742  1  0.557600  0.723900  0.090200  1.0  0.2912
  C  C743  1  0.543900  0.676100  0.078600  1.0  -0.1643
  C  C744  1  0.577800  0.811200  0.064000  1.0  0.6482
  N  N745  1  0.037500  0.578600  0.268400  1.0  -0.6587
  N  N746  1  0.059000  0.544200  0.182700  1.0  -0.6697
  N  N747  1  0.861400  0.561100  0.234300  1.0  -0.6419
  N  N748  1  0.537500  0.078600  0.768400  1.0  -0.6587
  N  N749  1  0.559000  0.044200  0.682700  1.0  -0.6697
  N  N750  1  0.361400  0.061100  0.734300  1.0  -0.6419
  N  N751  1  0.462500  0.421400  0.768400  1.0  -0.6591
  N  N752  1  0.441000  0.455800  0.682700  1.0  -0.6699
  N  N753  1  0.638600  0.438900  0.734300  1.0  -0.6487
  N  N754  1  0.962500  0.921400  0.268400  1.0  -0.6591
  N  N755  1  0.941000  0.955800  0.182700  1.0  -0.6699
  N  N756  1  0.138600  0.938900  0.234300  1.0  -0.6487
  N  N757  1  0.962500  0.078600  0.231600  1.0  -0.6583
  N  N758  1  0.941000  0.044200  0.317300  1.0  -0.6677
  N  N759  1  0.138600  0.061100  0.265700  1.0  -0.6518
  N  N760  1  0.462500  0.578600  0.731600  1.0  -0.6583
  N  N761  1  0.441000  0.544200  0.817300  1.0  -0.6677
  N  N762  1  0.638600  0.561100  0.765700  1.0  -0.6518
  N  N763  1  0.537500  0.921400  0.731600  1.0  -0.6626
  N  N764  1  0.559000  0.955800  0.817300  1.0  -0.6673
  N  N765  1  0.361400  0.938900  0.765700  1.0  -0.6422
  N  N766  1  0.037500  0.421400  0.231600  1.0  -0.6626
  N  N767  1  0.059000  0.455800  0.317300  1.0  -0.6673
  N  N768  1  0.861400  0.438900  0.265700  1.0  -0.6422
  N  N769  1  0.268400  0.037500  0.578600  1.0  -0.6578
  N  N770  1  0.182700  0.059000  0.544200  1.0  -0.6689
  N  N771  1  0.234300  0.861400  0.561100  1.0  -0.6436
  N  N772  1  0.768400  0.537500  0.078600  1.0  -0.6578
  N  N773  1  0.682700  0.559000  0.044200  1.0  -0.6689
  N  N774  1  0.734300  0.361400  0.061100  1.0  -0.6436
  N  N775  1  0.768400  0.462500  0.421400  1.0  -0.6574
  N  N776  1  0.682700  0.441000  0.455800  1.0  -0.6681
  N  N777  1  0.734300  0.638600  0.438900  1.0  -0.6392
  N  N778  1  0.268400  0.962500  0.921400  1.0  -0.6574
  N  N779  1  0.182700  0.941000  0.955800  1.0  -0.6681
  N  N780  1  0.234300  0.138600  0.938900  1.0  -0.6392
  N  N781  1  0.231600  0.962500  0.078600  1.0  -0.658
  N  N782  1  0.317300  0.941000  0.044200  1.0  -0.6684
  N  N783  1  0.265700  0.138600  0.061100  1.0  -0.6416
  N  N784  1  0.731600  0.462500  0.578600  1.0  -0.658
  N  N785  1  0.817300  0.441000  0.544200  1.0  -0.6684
  N  N786  1  0.765700  0.638600  0.561100  1.0  -0.6416
  N  N787  1  0.731600  0.537500  0.921400  1.0  -0.6595
  N  N788  1  0.817300  0.559000  0.955800  1.0  -0.67
  N  N789  1  0.765700  0.361400  0.938900  1.0  -0.6416
  N  N790  1  0.231600  0.037500  0.421400  1.0  -0.6595
  N  N791  1  0.317300  0.059000  0.455800  1.0  -0.67
  N  N792  1  0.265700  0.861400  0.438900  1.0  -0.6416
  N  N793  1  0.578600  0.268400  0.037500  1.0  -0.6611
  N  N794  1  0.544200  0.182700  0.059000  1.0  -0.6604
  N  N795  1  0.561100  0.234300  0.861400  1.0  -0.6436
  N  N796  1  0.078600  0.768400  0.537500  1.0  -0.6611
  N  N797  1  0.044200  0.682700  0.559000  1.0  -0.6604
  N  N798  1  0.061100  0.734300  0.361400  1.0  -0.6436
  N  N799  1  0.421400  0.768400  0.462500  1.0  -0.6594
  N  N800  1  0.455800  0.682700  0.441000  1.0  -0.6604
  N  N801  1  0.438900  0.734300  0.638600  1.0  -0.6373
  N  N802  1  0.921400  0.268400  0.962500  1.0  -0.6594
  N  N803  1  0.955800  0.182700  0.941000  1.0  -0.6604
  N  N804  1  0.938900  0.234300  0.138600  1.0  -0.6373
  N  N805  1  0.078600  0.231600  0.962500  1.0  -0.6617
  N  N806  1  0.044200  0.317300  0.941000  1.0  -0.6625
  N  N807  1  0.061100  0.265700  0.138600  1.0  -0.6398
  N  N808  1  0.578600  0.731600  0.462500  1.0  -0.6617
  N  N809  1  0.544200  0.817300  0.441000  1.0  -0.6625
  N  N810  1  0.561100  0.765700  0.638600  1.0  -0.6398
  N  N811  1  0.921400  0.731600  0.537500  1.0  -0.658
  N  N812  1  0.955800  0.817300  0.559000  1.0  -0.6617
  N  N813  1  0.938900  0.765700  0.361400  1.0  -0.6391
  N  N814  1  0.421400  0.231600  0.037500  1.0  -0.658
  N  N815  1  0.455800  0.317300  0.059000  1.0  -0.6617
  N  N816  1  0.438900  0.265700  0.861400  1.0  -0.6391
  N  N817  1  0.962500  0.421400  0.731600  1.0  -0.6597
  N  N818  1  0.941000  0.455800  0.817300  1.0  -0.6681
  N  N819  1  0.138600  0.438900  0.765700  1.0  -0.6489
  N  N820  1  0.462500  0.921400  0.231600  1.0  -0.6597
  N  N821  1  0.441000  0.955800  0.317300  1.0  -0.6681
  N  N822  1  0.638600  0.938900  0.265700  1.0  -0.6489
  N  N823  1  0.537500  0.578600  0.231600  1.0  -0.6615
  N  N824  1  0.559000  0.544200  0.317300  1.0  -0.6676
  N  N825  1  0.361400  0.561100  0.265700  1.0  -0.6416
  N  N826  1  0.037500  0.078600  0.731600  1.0  -0.6615
  N  N827  1  0.059000  0.044200  0.817300  1.0  -0.6676
  N  N828  1  0.861400  0.061100  0.765700  1.0  -0.6416
  N  N829  1  0.037500  0.921400  0.768400  1.0  -0.6602
  N  N830  1  0.059000  0.955800  0.682700  1.0  -0.6695
  N  N831  1  0.861400  0.938900  0.734300  1.0  -0.6428
  N  N832  1  0.537500  0.421400  0.268400  1.0  -0.6602
  N  N833  1  0.559000  0.455800  0.182700  1.0  -0.6695
  N  N834  1  0.361400  0.438900  0.234300  1.0  -0.6428
  N  N835  1  0.462500  0.078600  0.268400  1.0  -0.6577
  N  N836  1  0.441000  0.044200  0.182700  1.0  -0.6686
  N  N837  1  0.638600  0.061100  0.234300  1.0  -0.6511
  N  N838  1  0.962500  0.578600  0.768400  1.0  -0.6577
  N  N839  1  0.941000  0.544200  0.682700  1.0  -0.6686
  N  N840  1  0.138600  0.561100  0.734300  1.0  -0.6511
  N  N841  1  0.731600  0.962500  0.421400  1.0  -0.6572
  N  N842  1  0.817300  0.941000  0.455800  1.0  -0.6695
  N  N843  1  0.765700  0.138600  0.438900  1.0  -0.6402
  N  N844  1  0.231600  0.462500  0.921400  1.0  -0.6572
  N  N845  1  0.317300  0.441000  0.955800  1.0  -0.6695
  N  N846  1  0.265700  0.638600  0.938900  1.0  -0.6402
  N  N847  1  0.231600  0.537500  0.578600  1.0  -0.6582
  N  N848  1  0.317300  0.559000  0.544200  1.0  -0.6702
  N  N849  1  0.265700  0.361400  0.561100  1.0  -0.6441
  N  N850  1  0.731600  0.037500  0.078600  1.0  -0.6582
  N  N851  1  0.817300  0.059000  0.044200  1.0  -0.6702
  N  N852  1  0.765700  0.861400  0.061100  1.0  -0.6441
  N  N853  1  0.768400  0.037500  0.921400  1.0  -0.6604
  N  N854  1  0.682700  0.059000  0.955800  1.0  -0.6687
  N  N855  1  0.734300  0.861400  0.938900  1.0  -0.6414
  N  N856  1  0.268400  0.537500  0.421400  1.0  -0.6604
  N  N857  1  0.182700  0.559000  0.455800  1.0  -0.6687
  N  N858  1  0.234300  0.361400  0.438900  1.0  -0.6414
  N  N859  1  0.268400  0.462500  0.078600  1.0  -0.6571
  N  N860  1  0.182700  0.441000  0.044200  1.0  -0.6678
  N  N861  1  0.234300  0.638600  0.061100  1.0  -0.6403
  N  N862  1  0.768400  0.962500  0.578600  1.0  -0.6571
  N  N863  1  0.682700  0.941000  0.544200  1.0  -0.6678
  N  N864  1  0.734300  0.138600  0.561100  1.0  -0.6403
  N  N865  1  0.421400  0.731600  0.962500  1.0  -0.6589
  N  N866  1  0.455800  0.817300  0.941000  1.0  -0.6612
  N  N867  1  0.438900  0.765700  0.138600  1.0  -0.6376
  N  N868  1  0.921400  0.231600  0.462500  1.0  -0.6589
  N  N869  1  0.955800  0.317300  0.441000  1.0  -0.6612
  N  N870  1  0.938900  0.265700  0.638600  1.0  -0.6376
  N  N871  1  0.578600  0.231600  0.537500  1.0  -0.66
  N  N872  1  0.544200  0.317300  0.559000  1.0  -0.6621
  N  N873  1  0.561100  0.265700  0.361400  1.0  -0.6435
  N  N874  1  0.078600  0.731600  0.037500  1.0  -0.66
  N  N875  1  0.044200  0.817300  0.059000  1.0  -0.6621
  N  N876  1  0.061100  0.765700  0.861400  1.0  -0.6435
  N  N877  1  0.921400  0.768400  0.037500  1.0  -0.6596
  N  N878  1  0.955800  0.682700  0.059000  1.0  -0.6608
  N  N879  1  0.938900  0.734300  0.861400  1.0  -0.6398
  N  N880  1  0.421400  0.268400  0.537500  1.0  -0.6596
  N  N881  1  0.455800  0.182700  0.559000  1.0  -0.6608
  N  N882  1  0.438900  0.234300  0.361400  1.0  -0.6398
  N  N883  1  0.078600  0.268400  0.462500  1.0  -0.6613
  N  N884  1  0.044200  0.182700  0.441000  1.0  -0.6608
  N  N885  1  0.061100  0.234300  0.638600  1.0  -0.6398
  N  N886  1  0.578600  0.768400  0.962500  1.0  -0.6613
  N  N887  1  0.544200  0.682700  0.941000  1.0  -0.6608
  N  N888  1  0.561100  0.734300  0.138600  1.0  -0.6398
  O  O889  1  0.946900  0.501100  0.083400  1.0  -0.8104
  O  O890  1  0.021600  0.530200  0.089700  1.0  -0.6087
  O  O891  1  0.971500  0.583400  0.340900  1.0  -0.6291
  O  O892  1  0.892300  0.580200  0.325700  1.0  -0.6188
  O  O893  1  0.446900  0.001100  0.583400  1.0  -0.8104
  O  O894  1  0.521600  0.030200  0.589700  1.0  -0.6087
  O  O895  1  0.471500  0.083400  0.840900  1.0  -0.6291
  O  O896  1  0.392300  0.080200  0.825700  1.0  -0.6188
  O  O897  1  0.553100  0.498900  0.583400  1.0  -0.812
  O  O898  1  0.478400  0.469800  0.589700  1.0  -0.6074
  O  O899  1  0.528500  0.416600  0.840900  1.0  -0.6288
  O  O900  1  0.607700  0.419800  0.825700  1.0  -0.6187
  O  O901  1  0.053100  0.998900  0.083400  1.0  -0.812
  O  O902  1  0.978400  0.969800  0.089700  1.0  -0.6074
  O  O903  1  0.028500  0.916600  0.340900  1.0  -0.6288
  O  O904  1  0.107700  0.919800  0.325700  1.0  -0.6187
  O  O905  1  0.053100  0.001100  0.416600  1.0  -0.8112
  O  O906  1  0.978400  0.030200  0.410300  1.0  -0.6072
  O  O907  1  0.028500  0.083400  0.159100  1.0  -0.6292
  O  O908  1  0.107700  0.080200  0.174300  1.0  -0.6193
  O  O909  1  0.553100  0.501100  0.916600  1.0  -0.8112
  O  O910  1  0.478400  0.530200  0.910300  1.0  -0.6072
  O  O911  1  0.528500  0.583400  0.659100  1.0  -0.6292
  O  O912  1  0.607700  0.580200  0.674300  1.0  -0.6193
  O  O913  1  0.446900  0.998900  0.916600  1.0  -0.8096
  O  O914  1  0.521600  0.969800  0.910300  1.0  -0.6085
  O  O915  1  0.471500  0.916600  0.659100  1.0  -0.6272
  O  O916  1  0.392300  0.919800  0.674300  1.0  -0.619
  O  O917  1  0.946900  0.498900  0.416600  1.0  -0.8096
  O  O918  1  0.021600  0.469800  0.410300  1.0  -0.6085
  O  O919  1  0.971500  0.416600  0.159100  1.0  -0.6272
  O  O920  1  0.892300  0.419800  0.174300  1.0  -0.619
  O  O921  1  0.083400  0.946900  0.501100  1.0  -0.8106
  O  O922  1  0.089700  0.021600  0.530200  1.0  -0.6072
  O  O923  1  0.340900  0.971500  0.583400  1.0  -0.6299
  O  O924  1  0.325700  0.892300  0.580200  1.0  -0.6182
  O  O925  1  0.583400  0.446900  0.001100  1.0  -0.8106
  O  O926  1  0.589700  0.521600  0.030200  1.0  -0.6072
  O  O927  1  0.840900  0.471500  0.083400  1.0  -0.6299
  O  O928  1  0.825700  0.392300  0.080200  1.0  -0.6182
  O  O929  1  0.583400  0.553100  0.498900  1.0  -0.812
  O  O930  1  0.589700  0.478400  0.469800  1.0  -0.607
  O  O931  1  0.840900  0.528500  0.416600  1.0  -0.6282
  O  O932  1  0.825700  0.607700  0.419800  1.0  -0.6161
  O  O933  1  0.083400  0.053100  0.998900  1.0  -0.812
  O  O934  1  0.089700  0.978400  0.969800  1.0  -0.607
  O  O935  1  0.340900  0.028500  0.916600  1.0  -0.6282
  O  O936  1  0.325700  0.107700  0.919800  1.0  -0.6161
  O  O937  1  0.416600  0.053100  0.001100  1.0  -0.8122
  O  O938  1  0.410300  0.978400  0.030200  1.0  -0.6072
  O  O939  1  0.159100  0.028500  0.083400  1.0  -0.629
  O  O940  1  0.174300  0.107700  0.080200  1.0  -0.617
  O  O941  1  0.916600  0.553100  0.501100  1.0  -0.8122
  O  O942  1  0.910300  0.478400  0.530200  1.0  -0.6072
  O  O943  1  0.659100  0.528500  0.583400  1.0  -0.629
  O  O944  1  0.674300  0.607700  0.580200  1.0  -0.617
  O  O945  1  0.916600  0.446900  0.998900  1.0  -0.8126
  O  O946  1  0.910300  0.521600  0.969800  1.0  -0.6078
  O  O947  1  0.659100  0.471500  0.916600  1.0  -0.6285
  O  O948  1  0.674300  0.392300  0.919800  1.0  -0.6166
  O  O949  1  0.416600  0.946900  0.498900  1.0  -0.8126
  O  O950  1  0.410300  0.021600  0.469800  1.0  -0.6078
  O  O951  1  0.159100  0.971500  0.416600  1.0  -0.6285
  O  O952  1  0.174300  0.892300  0.419800  1.0  -0.6166
  O  O953  1  0.501100  0.083400  0.946900  1.0  -0.8155
  O  O954  1  0.530200  0.089700  0.021600  1.0  -0.6095
  O  O955  1  0.583400  0.340900  0.971500  1.0  -0.6293
  O  O956  1  0.580200  0.325700  0.892300  1.0  -0.6209
  O  O957  1  0.001100  0.583400  0.446900  1.0  -0.8155
  O  O958  1  0.030200  0.589700  0.521600  1.0  -0.6095
  O  O959  1  0.083400  0.840900  0.471500  1.0  -0.6293
  O  O960  1  0.080200  0.825700  0.392300  1.0  -0.6209
  O  O961  1  0.498900  0.583400  0.553100  1.0  -0.8149
  O  O962  1  0.469800  0.589700  0.478400  1.0  -0.6087
  O  O963  1  0.416600  0.840900  0.528500  1.0  -0.6289
  O  O964  1  0.419800  0.825700  0.607700  1.0  -0.6199
  O  O965  1  0.998900  0.083400  0.053100  1.0  -0.8149
  O  O966  1  0.969800  0.089700  0.978400  1.0  -0.6087
  O  O967  1  0.916600  0.340900  0.028500  1.0  -0.6289
  O  O968  1  0.919800  0.325700  0.107700  1.0  -0.6199
  O  O969  1  0.001100  0.416600  0.053100  1.0  -0.8158
  O  O970  1  0.030200  0.410300  0.978400  1.0  -0.6094
  O  O971  1  0.083400  0.159100  0.028500  1.0  -0.6281
  O  O972  1  0.080200  0.174300  0.107700  1.0  -0.6192
  O  O973  1  0.501100  0.916600  0.553100  1.0  -0.8158
  O  O974  1  0.530200  0.910300  0.478400  1.0  -0.6094
  O  O975  1  0.583400  0.659100  0.528500  1.0  -0.6281
  O  O976  1  0.580200  0.674300  0.607700  1.0  -0.6192
  O  O977  1  0.998900  0.916600  0.446900  1.0  -0.8148
  O  O978  1  0.969800  0.910300  0.521600  1.0  -0.6088
  O  O979  1  0.916600  0.659100  0.471500  1.0  -0.6276
  O  O980  1  0.919800  0.674300  0.392300  1.0  -0.6216
  O  O981  1  0.498900  0.416600  0.946900  1.0  -0.8148
  O  O982  1  0.469800  0.410300  0.021600  1.0  -0.6088
  O  O983  1  0.416600  0.159100  0.971500  1.0  -0.6276
  O  O984  1  0.419800  0.174300  0.892300  1.0  -0.6216
  O  O985  1  0.053100  0.498900  0.916600  1.0  -0.8109
  O  O986  1  0.978400  0.469800  0.910300  1.0  -0.6072
  O  O987  1  0.028500  0.416600  0.659100  1.0  -0.6283
  O  O988  1  0.107700  0.419800  0.674300  1.0  -0.6188
  O  O989  1  0.553100  0.998900  0.416600  1.0  -0.8109
  O  O990  1  0.478400  0.969800  0.410300  1.0  -0.6072
  O  O991  1  0.528500  0.916600  0.159100  1.0  -0.6283
  O  O992  1  0.607700  0.919800  0.174300  1.0  -0.6188
  O  O993  1  0.446900  0.501100  0.416600  1.0  -0.8099
  O  O994  1  0.521600  0.530200  0.410300  1.0  -0.6087
  O  O995  1  0.471500  0.583400  0.159100  1.0  -0.6287
  O  O996  1  0.392300  0.580200  0.174300  1.0  -0.6185
  O  O997  1  0.946900  0.001100  0.916600  1.0  -0.8099
  O  O998  1  0.021600  0.030200  0.910300  1.0  -0.6087
  O  O999  1  0.971500  0.083400  0.659100  1.0  -0.6287
  O  O1000  1  0.892300  0.080200  0.674300  1.0  -0.6185
  O  O1001  1  0.946900  0.998900  0.583400  1.0  -0.8108
  O  O1002  1  0.021600  0.969800  0.589700  1.0  -0.6087
  O  O1003  1  0.971500  0.916600  0.840900  1.0  -0.6277
  O  O1004  1  0.892300  0.919800  0.825700  1.0  -0.619
  O  O1005  1  0.446900  0.498900  0.083400  1.0  -0.8108
  O  O1006  1  0.521600  0.469800  0.089700  1.0  -0.6087
  O  O1007  1  0.471500  0.416600  0.340900  1.0  -0.6277
  O  O1008  1  0.392300  0.419800  0.325700  1.0  -0.619
  O  O1009  1  0.553100  0.001100  0.083400  1.0  -0.8114
  O  O1010  1  0.478400  0.030200  0.089700  1.0  -0.6073
  O  O1011  1  0.528500  0.083400  0.340900  1.0  -0.6296
  O  O1012  1  0.607700  0.080200  0.325700  1.0  -0.6191
  O  O1013  1  0.053100  0.501100  0.583400  1.0  -0.8114
  O  O1014  1  0.978400  0.530200  0.589700  1.0  -0.6073
  O  O1015  1  0.028500  0.583400  0.840900  1.0  -0.6296
  O  O1016  1  0.107700  0.580200  0.825700  1.0  -0.6191
  O  O1017  1  0.916600  0.053100  0.498900  1.0  -0.8129
  O  O1018  1  0.910300  0.978400  0.469800  1.0  -0.6075
  O  O1019  1  0.659100  0.028500  0.416600  1.0  -0.6283
  O  O1020  1  0.674300  0.107700  0.419800  1.0  -0.616
  O  O1021  1  0.416600  0.553100  0.998900  1.0  -0.8129
  O  O1022  1  0.410300  0.478400  0.969800  1.0  -0.6075
  O  O1023  1  0.159100  0.528500  0.916600  1.0  -0.6283
  O  O1024  1  0.174300  0.607700  0.919800  1.0  -0.616
  O  O1025  1  0.416600  0.446900  0.501100  1.0  -0.8118
  O  O1026  1  0.410300  0.521600  0.530200  1.0  -0.6077
  O  O1027  1  0.159100  0.471500  0.583400  1.0  -0.6296
  O  O1028  1  0.174300  0.392300  0.580200  1.0  -0.6185
  O  O1029  1  0.916600  0.946900  0.001100  1.0  -0.8118
  O  O1030  1  0.910300  0.021600  0.030200  1.0  -0.6077
  O  O1031  1  0.659100  0.971500  0.083400  1.0  -0.6296
  O  O1032  1  0.674300  0.892300  0.080200  1.0  -0.6185
  O  O1033  1  0.583400  0.946900  0.998900  1.0  -0.8113
  O  O1034  1  0.589700  0.021600  0.969800  1.0  -0.6072
  O  O1035  1  0.840900  0.971500  0.916600  1.0  -0.6291
  O  O1036  1  0.825700  0.892300  0.919800  1.0  -0.6156
  O  O1037  1  0.083400  0.446900  0.498900  1.0  -0.8113
  O  O1038  1  0.089700  0.521600  0.469800  1.0  -0.6072
  O  O1039  1  0.340900  0.471500  0.416600  1.0  -0.6291
  O  O1040  1  0.325700  0.392300  0.419800  1.0  -0.6156
  O  O1041  1  0.083400  0.553100  0.001100  1.0  -0.8113
  O  O1042  1  0.089700  0.478400  0.030200  1.0  -0.6069
  O  O1043  1  0.340900  0.528500  0.083400  1.0  -0.6288
  O  O1044  1  0.325700  0.607700  0.080200  1.0  -0.6176
  O  O1045  1  0.583400  0.053100  0.501100  1.0  -0.8113
  O  O1046  1  0.589700  0.978400  0.530200  1.0  -0.6069
  O  O1047  1  0.840900  0.028500  0.583400  1.0  -0.6288
  O  O1048  1  0.825700  0.107700  0.580200  1.0  -0.6176
  O  O1049  1  0.498900  0.916600  0.053100  1.0  -0.8156
  O  O1050  1  0.469800  0.910300  0.978400  1.0  -0.6088
  O  O1051  1  0.416600  0.659100  0.028500  1.0  -0.628
  O  O1052  1  0.419800  0.674300  0.107700  1.0  -0.6196
  O  O1053  1  0.998900  0.416600  0.553100  1.0  -0.8156
  O  O1054  1  0.969800  0.410300  0.478400  1.0  -0.6088
  O  O1055  1  0.916600  0.159100  0.528500  1.0  -0.628
  O  O1056  1  0.919800  0.174300  0.607700  1.0  -0.6196
  O  O1057  1  0.501100  0.416600  0.446900  1.0  -0.8147
  O  O1058  1  0.530200  0.410300  0.521600  1.0  -0.6093
  O  O1059  1  0.583400  0.159100  0.471500  1.0  -0.628
  O  O1060  1  0.580200  0.174300  0.392300  1.0  -0.6207
  O  O1061  1  0.001100  0.916600  0.946900  1.0  -0.8147
  O  O1062  1  0.030200  0.910300  0.021600  1.0  -0.6093
  O  O1063  1  0.083400  0.659100  0.971500  1.0  -0.628
  O  O1064  1  0.080200  0.674300  0.892300  1.0  -0.6207
  O  O1065  1  0.998900  0.583400  0.946900  1.0  -0.8158
  O  O1066  1  0.969800  0.589700  0.021600  1.0  -0.6089
  O  O1067  1  0.916600  0.840900  0.971500  1.0  -0.6291
  O  O1068  1  0.919800  0.825700  0.892300  1.0  -0.6216
  O  O1069  1  0.498900  0.083400  0.446900  1.0  -0.8158
  O  O1070  1  0.469800  0.089700  0.521600  1.0  -0.6089
  O  O1071  1  0.416600  0.340900  0.471500  1.0  -0.6291
  O  O1072  1  0.419800  0.325700  0.392300  1.0  -0.6216
  O  O1073  1  0.001100  0.083400  0.553100  1.0  -0.8146
  O  O1074  1  0.030200  0.089700  0.478400  1.0  -0.6091
  O  O1075  1  0.083400  0.340900  0.528500  1.0  -0.6288
  O  O1076  1  0.080200  0.325700  0.607700  1.0  -0.6198
  O  O1077  1  0.501100  0.583400  0.053100  1.0  -0.8146
  O  O1078  1  0.530200  0.589700  0.978400  1.0  -0.6091
  O  O1079  1  0.583400  0.840900  0.028500  1.0  -0.6288
  O  O1080  1  0.580200  0.825700  0.107700  1.0  -0.6198
