# generated using pymatgen
data_CoH32C49(N3O2)2
_symmetry_space_group_name_H-M   'P 1'
_cell_length_a   32.61400000
_cell_length_b   18.97600000
_cell_length_c   17.57000000
_cell_angle_alpha   90.00000000
_cell_angle_beta   103.20600000
_cell_angle_gamma   90.00000000
_symmetry_Int_Tables_number   1
_chemical_formula_structural   CoH32C49(N3O2)2
_chemical_formula_sum   'Co8 H256 C392 N48 O32'
_cell_volume   10586.22169769
_cell_formula_units_Z   8
loop_
 _symmetry_equiv_pos_site_id
 _symmetry_equiv_pos_as_xyz
  1  'x, y, z'
loop_
 _atom_site_type_symbol
 _atom_site_label
 _atom_site_symmetry_multiplicity
 _atom_site_fract_x
 _atom_site_fract_y
 _atom_site_fract_z
 _atom_site_occupancy
 _atom_site_charge
  Co  Co1  1  0.901000  0.353510  0.959370  1.0  0.9257
  Co  Co2  1  0.401000  0.853510  0.959370  1.0  0.9257
  Co  Co3  1  0.099000  0.353510  0.540630  1.0  0.9274
  Co  Co4  1  0.599000  0.853510  0.540630  1.0  0.9274
  Co  Co5  1  0.099000  0.646490  0.040630  1.0  0.927
  Co  Co6  1  0.599000  0.146490  0.040630  1.0  0.927
  Co  Co7  1  0.901000  0.646490  0.459370  1.0  0.9248
  Co  Co8  1  0.401000  0.146490  0.459370  1.0  0.9248
  H  H9  1  0.894100  0.361900  0.167300  1.0  0.1083
  H  H10  1  0.861400  0.362200  0.270200  1.0  0.0953
  H  H11  1  0.901000  0.361100  0.400100  1.0  0.1098
  H  H12  1  0.026800  0.359200  0.073100  1.0  0.1071
  H  H13  1  0.786400  0.375900  0.893300  1.0  0.0902
  H  H14  1  0.741400  0.376600  0.773000  1.0  0.0909
  H  H15  1  0.681700  0.301900  0.746000  1.0  0.1106
  H  H16  1  0.831500  0.272100  0.159700  1.0  0.0928
  H  H17  1  0.849100  0.394400  0.783100  1.0  0.1016
  H  H18  1  0.806000  0.500900  0.746000  1.0  0.1209
  H  H19  1  0.853100  0.502600  0.977000  1.0  0.1025
  H  H20  1  0.754300  0.577900  0.773900  1.0  0.1132
  H  H21  1  0.724800  0.689100  0.778700  1.0  0.0948
  H  H22  1  0.814600  0.737100  0.970900  1.0  0.1091
  H  H23  1  0.845000  0.626600  0.965700  1.0  0.1125
  H  H24  1  0.687100  0.760600  0.866200  1.0  0.1093
  H  H25  1  0.700100  0.971900  0.886700  1.0  0.1109
  H  H26  1  0.801700  0.849900  0.888500  1.0  0.1129
  H  H27  1  0.822300  0.936800  0.824300  1.0  0.1101
  H  H28  1  0.861300  0.036600  0.808000  1.0  0.1232
  H  H29  1  0.783200  0.155900  0.903300  1.0  0.1076
  H  H30  1  0.745200  0.056100  0.922000  1.0  0.108
  H  H31  1  0.876200  0.153500  0.750400  1.0  0.1277
  H  H32  1  0.910100  0.268200  0.788300  1.0  0.11
  H  H33  1  0.842900  0.223800  0.942500  1.0  0.0996
  H  H34  1  0.636000  0.979500  0.853200  1.0  0.1116
  H  H35  1  0.565600  0.992300  0.853600  1.0  0.1103
  H  H36  1  0.558100  0.783900  0.895700  1.0  0.1242
  H  H37  1  0.628800  0.771600  0.896000  1.0  0.1253
  H  H38  1  0.497600  0.998800  0.827500  1.0  0.1133
  H  H39  1  0.427700  0.980700  0.854100  1.0  0.0993
  H  H40  1  0.494300  0.810400  0.925900  1.0  0.1065
  H  H41  1  0.394100  0.861900  0.167300  1.0  0.1083
  H  H42  1  0.361400  0.862200  0.270200  1.0  0.0953
  H  H43  1  0.401000  0.861100  0.400100  1.0  0.1098
  H  H44  1  0.526800  0.859200  0.073100  1.0  0.1071
  H  H45  1  0.286400  0.875900  0.893300  1.0  0.0902
  H  H46  1  0.241400  0.876600  0.773000  1.0  0.0909
  H  H47  1  0.181700  0.801900  0.746000  1.0  0.1106
  H  H48  1  0.331500  0.772100  0.159700  1.0  0.0928
  H  H49  1  0.349100  0.894400  0.783100  1.0  0.1016
  H  H50  1  0.306000  0.000900  0.746000  1.0  0.1209
  H  H51  1  0.353100  0.002600  0.977000  1.0  0.1025
  H  H52  1  0.254300  0.077900  0.773900  1.0  0.1132
  H  H53  1  0.224800  0.189100  0.778700  1.0  0.0948
  H  H54  1  0.314600  0.237100  0.970900  1.0  0.1091
  H  H55  1  0.345000  0.126600  0.965700  1.0  0.1125
  H  H56  1  0.187100  0.260600  0.866200  1.0  0.1093
  H  H57  1  0.200100  0.471900  0.886700  1.0  0.1109
  H  H58  1  0.301700  0.349900  0.888500  1.0  0.1129
  H  H59  1  0.322300  0.436800  0.824300  1.0  0.1101
  H  H60  1  0.361300  0.536600  0.808000  1.0  0.1232
  H  H61  1  0.283200  0.655900  0.903300  1.0  0.1076
  H  H62  1  0.245200  0.556100  0.922000  1.0  0.108
  H  H63  1  0.376200  0.653500  0.750400  1.0  0.1277
  H  H64  1  0.410100  0.768200  0.788300  1.0  0.11
  H  H65  1  0.342900  0.723800  0.942500  1.0  0.0996
  H  H66  1  0.136000  0.479500  0.853200  1.0  0.1116
  H  H67  1  0.065600  0.492300  0.853600  1.0  0.1103
  H  H68  1  0.058100  0.283900  0.895700  1.0  0.1242
  H  H69  1  0.128800  0.271600  0.896000  1.0  0.1253
  H  H70  1  0.997600  0.498800  0.827500  1.0  0.1133
  H  H71  1  0.927700  0.480700  0.854100  1.0  0.0993
  H  H72  1  0.994300  0.310400  0.925900  1.0  0.1065
  H  H73  1  0.105900  0.361900  0.332700  1.0  0.109
  H  H74  1  0.138600  0.362200  0.229800  1.0  0.095
  H  H75  1  0.099000  0.361100  0.099900  1.0  0.1101
  H  H76  1  0.973200  0.359200  0.426900  1.0  0.1078
  H  H77  1  0.213600  0.375900  0.606700  1.0  0.0899
  H  H78  1  0.258600  0.376600  0.727000  1.0  0.0922
  H  H79  1  0.318300  0.301900  0.754000  1.0  0.1104
  H  H80  1  0.168500  0.272100  0.340300  1.0  0.0938
  H  H81  1  0.150900  0.394400  0.716900  1.0  0.1019
  H  H82  1  0.194000  0.500900  0.754000  1.0  0.1211
  H  H83  1  0.146900  0.502600  0.523000  1.0  0.1027
  H  H84  1  0.245700  0.577900  0.726100  1.0  0.1127
  H  H85  1  0.275200  0.689100  0.721300  1.0  0.0947
  H  H86  1  0.185400  0.737100  0.529100  1.0  0.109
  H  H87  1  0.155000  0.626600  0.534300  1.0  0.1131
  H  H88  1  0.312900  0.760600  0.633800  1.0  0.1089
  H  H89  1  0.299900  0.971900  0.613300  1.0  0.1118
  H  H90  1  0.198300  0.849900  0.611500  1.0  0.1125
  H  H91  1  0.177700  0.936800  0.675700  1.0  0.1096
  H  H92  1  0.138700  0.036600  0.692000  1.0  0.123
  H  H93  1  0.216800  0.155900  0.596700  1.0  0.1076
  H  H94  1  0.254800  0.056100  0.578000  1.0  0.1084
  H  H95  1  0.123800  0.153500  0.749600  1.0  0.1284
  H  H96  1  0.089900  0.268200  0.711700  1.0  0.11
  H  H97  1  0.157100  0.223800  0.557500  1.0  0.0984
  H  H98  1  0.364000  0.979500  0.646800  1.0  0.112
  H  H99  1  0.434400  0.992300  0.646400  1.0  0.1106
  H  H100  1  0.441900  0.783900  0.604300  1.0  0.1246
  H  H101  1  0.371200  0.771600  0.604000  1.0  0.1248
  H  H102  1  0.502400  0.998800  0.672500  1.0  0.1136
  H  H103  1  0.572300  0.980700  0.645900  1.0  0.0984
  H  H104  1  0.505700  0.810400  0.574100  1.0  0.1063
  H  H105  1  0.605900  0.861900  0.332700  1.0  0.109
  H  H106  1  0.638600  0.862200  0.229800  1.0  0.095
  H  H107  1  0.599000  0.861100  0.099900  1.0  0.1101
  H  H108  1  0.473200  0.859200  0.426900  1.0  0.1078
  H  H109  1  0.713600  0.875900  0.606700  1.0  0.0899
  H  H110  1  0.758600  0.876600  0.727000  1.0  0.0922
  H  H111  1  0.818300  0.801900  0.754000  1.0  0.1104
  H  H112  1  0.668500  0.772100  0.340300  1.0  0.0938
  H  H113  1  0.650900  0.894400  0.716900  1.0  0.1019
  H  H114  1  0.694000  0.000900  0.754000  1.0  0.1211
  H  H115  1  0.646900  0.002600  0.523000  1.0  0.1027
  H  H116  1  0.745700  0.077900  0.726100  1.0  0.1127
  H  H117  1  0.775200  0.189100  0.721300  1.0  0.0947
  H  H118  1  0.685400  0.237100  0.529100  1.0  0.109
  H  H119  1  0.655000  0.126600  0.534300  1.0  0.1131
  H  H120  1  0.812900  0.260600  0.633800  1.0  0.1089
  H  H121  1  0.799900  0.471900  0.613300  1.0  0.1118
  H  H122  1  0.698300  0.349900  0.611500  1.0  0.1125
  H  H123  1  0.677700  0.436800  0.675700  1.0  0.1096
  H  H124  1  0.638700  0.536600  0.692000  1.0  0.123
  H  H125  1  0.716800  0.655900  0.596700  1.0  0.1076
  H  H126  1  0.754800  0.556100  0.578000  1.0  0.1084
  H  H127  1  0.623800  0.653500  0.749600  1.0  0.1284
  H  H128  1  0.589900  0.768200  0.711700  1.0  0.11
  H  H129  1  0.657100  0.723800  0.557500  1.0  0.0984
  H  H130  1  0.864000  0.479500  0.646800  1.0  0.112
  H  H131  1  0.934400  0.492300  0.646400  1.0  0.1106
  H  H132  1  0.941900  0.283900  0.604300  1.0  0.1246
  H  H133  1  0.871200  0.271600  0.604000  1.0  0.1248
  H  H134  1  0.002400  0.498800  0.672500  1.0  0.1136
  H  H135  1  0.072300  0.480700  0.645900  1.0  0.0984
  H  H136  1  0.005700  0.310400  0.574100  1.0  0.1063
  H  H137  1  0.105900  0.638100  0.832700  1.0  0.1086
  H  H138  1  0.138600  0.637800  0.729800  1.0  0.0947
  H  H139  1  0.099000  0.638900  0.599900  1.0  0.11
  H  H140  1  0.973200  0.640800  0.926900  1.0  0.1071
  H  H141  1  0.213600  0.624100  0.106700  1.0  0.0894
  H  H142  1  0.258600  0.623400  0.227000  1.0  0.0921
  H  H143  1  0.318300  0.698100  0.254000  1.0  0.1105
  H  H144  1  0.168500  0.727900  0.840300  1.0  0.0937
  H  H145  1  0.150900  0.605600  0.216900  1.0  0.1018
  H  H146  1  0.194000  0.499100  0.254000  1.0  0.1212
  H  H147  1  0.146900  0.497400  0.023000  1.0  0.1029
  H  H148  1  0.245700  0.422100  0.226100  1.0  0.113
  H  H149  1  0.275200  0.310900  0.221300  1.0  0.0946
  H  H150  1  0.185400  0.262900  0.029100  1.0  0.1086
  H  H151  1  0.155000  0.373400  0.034300  1.0  0.1131
  H  H152  1  0.312900  0.239400  0.133800  1.0  0.1086
  H  H153  1  0.299900  0.028100  0.113300  1.0  0.1125
  H  H154  1  0.198300  0.150100  0.111500  1.0  0.1123
  H  H155  1  0.177700  0.063200  0.175700  1.0  0.1092
  H  H156  1  0.138700  0.963400  0.192000  1.0  0.1224
  H  H157  1  0.216800  0.844100  0.096700  1.0  0.1084
  H  H158  1  0.254800  0.943900  0.078000  1.0  0.1086
  H  H159  1  0.123800  0.846500  0.249600  1.0  0.1282
  H  H160  1  0.089900  0.731800  0.211700  1.0  0.1102
  H  H161  1  0.157100  0.776200  0.057500  1.0  0.0988
  H  H162  1  0.364000  0.020500  0.146800  1.0  0.1119
  H  H163  1  0.434400  0.007700  0.146400  1.0  0.1108
  H  H164  1  0.441900  0.216100  0.104300  1.0  0.1273
  H  H165  1  0.371200  0.228400  0.104000  1.0  0.1248
  H  H166  1  0.502400  0.001200  0.172500  1.0  0.1136
  H  H167  1  0.572300  0.019300  0.145900  1.0  0.0985
  H  H168  1  0.505700  0.189600  0.074100  1.0  0.1069
  H  H169  1  0.605900  0.138100  0.832700  1.0  0.1086
  H  H170  1  0.638600  0.137800  0.729800  1.0  0.0947
  H  H171  1  0.599000  0.138900  0.599900  1.0  0.11
  H  H172  1  0.473200  0.140800  0.926900  1.0  0.1071
  H  H173  1  0.713600  0.124100  0.106700  1.0  0.0894
  H  H174  1  0.758600  0.123400  0.227000  1.0  0.0921
  H  H175  1  0.818300  0.198100  0.254000  1.0  0.1105
  H  H176  1  0.668500  0.227900  0.840300  1.0  0.0937
  H  H177  1  0.650900  0.105600  0.216900  1.0  0.1018
  H  H178  1  0.694000  0.999100  0.254000  1.0  0.1212
  H  H179  1  0.646900  0.997400  0.023000  1.0  0.1029
  H  H180  1  0.745700  0.922100  0.226100  1.0  0.113
  H  H181  1  0.775200  0.810900  0.221300  1.0  0.0946
  H  H182  1  0.685400  0.762900  0.029100  1.0  0.1086
  H  H183  1  0.655000  0.873400  0.034300  1.0  0.1131
  H  H184  1  0.812900  0.739400  0.133800  1.0  0.1086
  H  H185  1  0.799900  0.528100  0.113300  1.0  0.1125
  H  H186  1  0.698300  0.650100  0.111500  1.0  0.1123
  H  H187  1  0.677700  0.563200  0.175700  1.0  0.1092
  H  H188  1  0.638700  0.463400  0.192000  1.0  0.1224
  H  H189  1  0.716800  0.344100  0.096700  1.0  0.1084
  H  H190  1  0.754800  0.443900  0.078000  1.0  0.1086
  H  H191  1  0.623800  0.346500  0.249600  1.0  0.1282
  H  H192  1  0.589900  0.231800  0.211700  1.0  0.1102
  H  H193  1  0.657100  0.276200  0.057500  1.0  0.0988
  H  H194  1  0.864000  0.520500  0.146800  1.0  0.1119
  H  H195  1  0.934400  0.507700  0.146400  1.0  0.1108
  H  H196  1  0.941900  0.716100  0.104300  1.0  0.1273
  H  H197  1  0.871200  0.728400  0.104000  1.0  0.1248
  H  H198  1  0.002400  0.501200  0.172500  1.0  0.1136
  H  H199  1  0.072300  0.519300  0.145900  1.0  0.0985
  H  H200  1  0.005700  0.689600  0.074100  1.0  0.1069
  H  H201  1  0.894100  0.638100  0.667300  1.0  0.1089
  H  H202  1  0.861400  0.637800  0.770200  1.0  0.0959
  H  H203  1  0.901000  0.638900  0.900100  1.0  0.1096
  H  H204  1  0.026800  0.640800  0.573100  1.0  0.1072
  H  H205  1  0.786400  0.624100  0.393300  1.0  0.0898
  H  H206  1  0.741400  0.623400  0.273000  1.0  0.0909
  H  H207  1  0.681700  0.698100  0.246000  1.0  0.1103
  H  H208  1  0.831500  0.727900  0.659700  1.0  0.0931
  H  H209  1  0.849100  0.605600  0.283100  1.0  0.1017
  H  H210  1  0.806000  0.499100  0.246000  1.0  0.1207
  H  H211  1  0.853100  0.497400  0.477000  1.0  0.1027
  H  H212  1  0.754300  0.422100  0.273900  1.0  0.1131
  H  H213  1  0.724800  0.310900  0.278700  1.0  0.0948
  H  H214  1  0.814600  0.262900  0.470900  1.0  0.1093
  H  H215  1  0.845000  0.373400  0.465700  1.0  0.1128
  H  H216  1  0.687100  0.239400  0.366200  1.0  0.1092
  H  H217  1  0.700100  0.028100  0.386700  1.0  0.1121
  H  H218  1  0.801700  0.150100  0.388500  1.0  0.1129
  H  H219  1  0.822300  0.063200  0.324300  1.0  0.1098
  H  H220  1  0.861300  0.963400  0.308000  1.0  0.123
  H  H221  1  0.783200  0.844100  0.403300  1.0  0.1081
  H  H222  1  0.745200  0.943900  0.422000  1.0  0.1083
  H  H223  1  0.876200  0.846500  0.250400  1.0  0.1277
  H  H224  1  0.910100  0.731800  0.288300  1.0  0.1101
  H  H225  1  0.842900  0.776200  0.442500  1.0  0.1001
  H  H226  1  0.636000  0.020500  0.353200  1.0  0.1114
  H  H227  1  0.565600  0.007700  0.353600  1.0  0.1103
  H  H228  1  0.558100  0.216100  0.395700  1.0  0.127
  H  H229  1  0.628800  0.228400  0.396000  1.0  0.1248
  H  H230  1  0.497600  0.001200  0.327500  1.0  0.1133
  H  H231  1  0.427700  0.019300  0.354100  1.0  0.0992
  H  H232  1  0.494300  0.189600  0.425900  1.0  0.1066
  H  H233  1  0.394100  0.138100  0.667300  1.0  0.1089
  H  H234  1  0.361400  0.137800  0.770200  1.0  0.0959
  H  H235  1  0.401000  0.138900  0.900100  1.0  0.1096
  H  H236  1  0.526800  0.140800  0.573100  1.0  0.1072
  H  H237  1  0.286400  0.124100  0.393300  1.0  0.0898
  H  H238  1  0.241400  0.123400  0.273000  1.0  0.0909
  H  H239  1  0.181700  0.198100  0.246000  1.0  0.1103
  H  H240  1  0.331500  0.227900  0.659700  1.0  0.0931
  H  H241  1  0.349100  0.105600  0.283100  1.0  0.1017
  H  H242  1  0.306000  0.999100  0.246000  1.0  0.1207
  H  H243  1  0.353100  0.997400  0.477000  1.0  0.1027
  H  H244  1  0.254300  0.922100  0.273900  1.0  0.1131
  H  H245  1  0.224800  0.810900  0.278700  1.0  0.0948
  H  H246  1  0.314600  0.762900  0.470900  1.0  0.1093
  H  H247  1  0.345000  0.873400  0.465700  1.0  0.1128
  H  H248  1  0.187100  0.739400  0.366200  1.0  0.1092
  H  H249  1  0.200100  0.528100  0.386700  1.0  0.1121
  H  H250  1  0.301700  0.650100  0.388500  1.0  0.1129
  H  H251  1  0.322300  0.563200  0.324300  1.0  0.1098
  H  H252  1  0.361300  0.463400  0.308000  1.0  0.123
  H  H253  1  0.283200  0.344100  0.403300  1.0  0.1081
  H  H254  1  0.245200  0.443900  0.422000  1.0  0.1083
  H  H255  1  0.376200  0.346500  0.250400  1.0  0.1277
  H  H256  1  0.410100  0.231800  0.288300  1.0  0.1101
  H  H257  1  0.342900  0.276200  0.442500  1.0  0.1001
  H  H258  1  0.136000  0.520500  0.353200  1.0  0.1114
  H  H259  1  0.065600  0.507700  0.353600  1.0  0.1103
  H  H260  1  0.058100  0.716100  0.395700  1.0  0.127
  H  H261  1  0.128800  0.728400  0.396000  1.0  0.1248
  H  H262  1  0.997600  0.501200  0.327500  1.0  0.1133
  H  H263  1  0.927700  0.519300  0.354100  1.0  0.0992
  H  H264  1  0.994300  0.689600  0.425900  1.0  0.1066
  C  C265  1  0.951010  0.355380  0.089100  1.0  0.6569
  C  C266  1  0.976410  0.356950  0.172100  1.0  -0.0728
  C  C267  1  0.955530  0.358210  0.233400  1.0  0.031
  C  C268  1  0.910510  0.360660  0.219400  1.0  -0.134
  C  C269  1  0.891240  0.361300  0.280200  1.0  -0.0891
  C  C270  1  0.915030  0.360600  0.358300  1.0  -0.0864
  C  C271  1  0.042350  0.359100  0.125900  1.0  -0.0709
  C  C272  1  0.020530  0.357410  0.187600  1.0  0.0054
  C  C273  1  0.823100  0.345310  0.033280  1.0  0.6874
  C  C274  1  0.785110  0.296130  0.016470  1.0  -0.09
  C  C275  1  0.756890  0.298290  0.943700  1.0  0.0089
  C  C276  1  0.762960  0.344860  0.883200  1.0  -0.0899
  C  C277  1  0.736260  0.345800  0.812400  1.0  -0.0819
  C  C278  1  0.700440  0.300800  0.796100  1.0  -0.092
  C  C279  1  0.807050  0.243400  0.148500  1.0  -0.0826
  C  C280  1  0.778890  0.247880  0.073100  1.0  -0.0204
  C  C281  1  0.844340  0.430130  0.818100  1.0  -0.013
  C  C282  1  0.820680  0.488170  0.797300  1.0  -0.1198
  C  C283  1  0.846660  0.488420  0.923680  1.0  0.1357
  C  C284  1  0.802750  0.592260  0.869800  1.0  0.1606
  C  C285  1  0.766650  0.610340  0.813700  1.0  -0.1685
  C  C286  1  0.749250  0.676310  0.817100  1.0  -0.1169
  C  C287  1  0.766440  0.724180  0.874900  1.0  0.0522
  C  C288  1  0.802390  0.704970  0.930670  1.0  -0.1313
  C  C289  1  0.820370  0.639250  0.927670  1.0  -0.1757
  C  C290  1  0.747330  0.794860  0.877600  1.0  0.0544
  C  C291  1  0.704320  0.801530  0.872640  1.0  -0.1381
  C  C292  1  0.686210  0.867500  0.876940  1.0  -0.05
  C  C293  1  0.711910  0.926730  0.882710  1.0  -0.1444
  C  C294  1  0.754630  0.921580  0.882850  1.0  0.0331
  C  C295  1  0.772240  0.854620  0.883700  1.0  -0.1549
  C  C296  1  0.779790  0.985270  0.875610  1.0  0.0448
  C  C297  1  0.814480  0.981330  0.841200  1.0  -0.126
  C  C298  1  0.837740  0.040550  0.831000  1.0  -0.1574
  C  C299  1  0.825970  0.105290  0.855000  1.0  0.1542
  C  C300  1  0.791360  0.111040  0.888000  1.0  -0.183
  C  C301  1  0.768670  0.051660  0.898600  1.0  -0.1208
  C  C302  1  0.873540  0.181650  0.793800  1.0  -0.1072
  C  C303  1  0.892030  0.244290  0.815200  1.0  0.0235
  C  C304  1  0.855670  0.220810  0.899100  1.0  0.154
  C  C305  1  0.640510  0.874630  0.874680  1.0  -0.0004
  C  C306  1  0.620340  0.939330  0.862200  1.0  -0.146
  C  C307  1  0.578420  0.947190  0.862300  1.0  -0.1797
  C  C308  1  0.555020  0.889380  0.875100  1.0  0.1235
  C  C309  1  0.574010  0.823950  0.887300  1.0  -0.1756
  C  C310  1  0.616040  0.816800  0.887300  1.0  -0.1158
  C  C311  1  0.488530  0.958400  0.851100  1.0  -0.1192
  C  C312  1  0.450410  0.948100  0.866000  1.0  0.0288
  C  C313  1  0.486290  0.855860  0.905100  1.0  0.1444
  C  C314  1  0.451010  0.855380  0.089100  1.0  0.6569
  C  C315  1  0.476410  0.856950  0.172100  1.0  -0.0728
  C  C316  1  0.455530  0.858210  0.233400  1.0  0.031
  C  C317  1  0.410510  0.860660  0.219400  1.0  -0.134
  C  C318  1  0.391240  0.861300  0.280200  1.0  -0.0891
  C  C319  1  0.415030  0.860600  0.358300  1.0  -0.0864
  C  C320  1  0.542350  0.859100  0.125900  1.0  -0.0709
  C  C321  1  0.520530  0.857410  0.187600  1.0  0.0054
  C  C322  1  0.323100  0.845310  0.033280  1.0  0.6874
  C  C323  1  0.285110  0.796130  0.016470  1.0  -0.09
  C  C324  1  0.256890  0.798290  0.943700  1.0  0.0089
  C  C325  1  0.262960  0.844860  0.883200  1.0  -0.0899
  C  C326  1  0.236260  0.845800  0.812400  1.0  -0.0819
  C  C327  1  0.200440  0.800800  0.796100  1.0  -0.092
  C  C328  1  0.307050  0.743400  0.148500  1.0  -0.0826
  C  C329  1  0.278890  0.747880  0.073100  1.0  -0.0204
  C  C330  1  0.344340  0.930130  0.818100  1.0  -0.013
  C  C331  1  0.320680  0.988170  0.797300  1.0  -0.1198
  C  C332  1  0.346660  0.988420  0.923680  1.0  0.1357
  C  C333  1  0.302750  0.092260  0.869800  1.0  0.1606
  C  C334  1  0.266650  0.110340  0.813700  1.0  -0.1685
  C  C335  1  0.249250  0.176310  0.817100  1.0  -0.1169
  C  C336  1  0.266440  0.224180  0.874900  1.0  0.0522
  C  C337  1  0.302390  0.204970  0.930670  1.0  -0.1313
  C  C338  1  0.320370  0.139250  0.927670  1.0  -0.1757
  C  C339  1  0.247330  0.294860  0.877600  1.0  0.0544
  C  C340  1  0.204320  0.301530  0.872640  1.0  -0.1381
  C  C341  1  0.186210  0.367500  0.876940  1.0  -0.05
  C  C342  1  0.211910  0.426730  0.882710  1.0  -0.1444
  C  C343  1  0.254630  0.421580  0.882850  1.0  0.0331
  C  C344  1  0.272240  0.354620  0.883700  1.0  -0.1549
  C  C345  1  0.279790  0.485270  0.875610  1.0  0.0448
  C  C346  1  0.314480  0.481330  0.841200  1.0  -0.126
  C  C347  1  0.337740  0.540550  0.831000  1.0  -0.1574
  C  C348  1  0.325970  0.605290  0.855000  1.0  0.1541
  C  C349  1  0.291360  0.611040  0.888000  1.0  -0.1831
  C  C350  1  0.268670  0.551660  0.898600  1.0  -0.1208
  C  C351  1  0.373540  0.681650  0.793800  1.0  -0.1072
  C  C352  1  0.392030  0.744290  0.815200  1.0  0.0235
  C  C353  1  0.355670  0.720810  0.899100  1.0  0.1547
  C  C354  1  0.140510  0.374630  0.874680  1.0  -0.0004
  C  C355  1  0.120340  0.439330  0.862200  1.0  -0.146
  C  C356  1  0.078420  0.447190  0.862300  1.0  -0.1797
  C  C357  1  0.055020  0.389380  0.875100  1.0  0.1235
  C  C358  1  0.074010  0.323950  0.887300  1.0  -0.1756
  C  C359  1  0.116040  0.316800  0.887300  1.0  -0.1158
  C  C360  1  0.988530  0.458400  0.851100  1.0  -0.1192
  C  C361  1  0.950410  0.448100  0.866000  1.0  0.0288
  C  C362  1  0.986290  0.355860  0.905100  1.0  0.1444
  C  C363  1  0.048990  0.355380  0.410900  1.0  0.6563
  C  C364  1  0.023590  0.356950  0.327900  1.0  -0.0734
  C  C365  1  0.044470  0.358210  0.266600  1.0  0.0309
  C  C366  1  0.089490  0.360660  0.280600  1.0  -0.133
  C  C367  1  0.108760  0.361300  0.219800  1.0  -0.0913
  C  C368  1  0.084970  0.360600  0.141700  1.0  -0.088
  C  C369  1  0.957650  0.359100  0.374100  1.0  -0.0729
  C  C370  1  0.979470  0.357410  0.312400  1.0  0.0052
  C  C371  1  0.176900  0.345310  0.466720  1.0  0.6872
  C  C372  1  0.214890  0.296130  0.483530  1.0  -0.0908
  C  C373  1  0.243110  0.298290  0.556300  1.0  0.0096
  C  C374  1  0.237040  0.344860  0.616800  1.0  -0.09
  C  C375  1  0.263740  0.345800  0.687600  1.0  -0.0805
  C  C376  1  0.299560  0.300800  0.703900  1.0  -0.0913
  C  C377  1  0.192950  0.243400  0.351500  1.0  -0.0818
  C  C378  1  0.221110  0.247880  0.426900  1.0  -0.021
  C  C379  1  0.155660  0.430130  0.681900  1.0  -0.0125
  C  C380  1  0.179320  0.488170  0.702700  1.0  -0.1187
  C  C381  1  0.153340  0.488420  0.576320  1.0  0.1366
  C  C382  1  0.197250  0.592260  0.630200  1.0  0.1598
  C  C383  1  0.233350  0.610340  0.686300  1.0  -0.1699
  C  C384  1  0.250750  0.676310  0.682900  1.0  -0.117
  C  C385  1  0.233560  0.724180  0.625100  1.0  0.0517
  C  C386  1  0.197610  0.704970  0.569330  1.0  -0.1307
  C  C387  1  0.179630  0.639250  0.572330  1.0  -0.1763
  C  C388  1  0.252670  0.794860  0.622400  1.0  0.0514
  C  C389  1  0.295680  0.801530  0.627360  1.0  -0.1378
  C  C390  1  0.313790  0.867500  0.623060  1.0  -0.0504
  C  C391  1  0.288090  0.926730  0.617290  1.0  -0.1449
  C  C392  1  0.245370  0.921580  0.617150  1.0  0.0336
  C  C393  1  0.227760  0.854620  0.616300  1.0  -0.1552
  C  C394  1  0.220210  0.985270  0.624390  1.0  0.044
  C  C395  1  0.185520  0.981330  0.658800  1.0  -0.126
  C  C396  1  0.162260  0.040550  0.669000  1.0  -0.1599
  C  C397  1  0.174030  0.105290  0.645000  1.0  0.1553
  C  C398  1  0.208640  0.111040  0.612000  1.0  -0.1824
  C  C399  1  0.231330  0.051660  0.601400  1.0  -0.1215
  C  C400  1  0.126460  0.181650  0.706200  1.0  -0.1084
  C  C401  1  0.107970  0.244290  0.684800  1.0  0.0231
  C  C402  1  0.144330  0.220810  0.600900  1.0  0.1513
  C  C403  1  0.359490  0.874630  0.625320  1.0  0.0005
  C  C404  1  0.379660  0.939330  0.637800  1.0  -0.1447
  C  C405  1  0.421580  0.947190  0.637700  1.0  -0.1789
  C  C406  1  0.444980  0.889380  0.624900  1.0  0.1243
  C  C407  1  0.425990  0.823950  0.612700  1.0  -0.1757
  C  C408  1  0.383960  0.816800  0.612700  1.0  -0.1169
  C  C409  1  0.511470  0.958400  0.648900  1.0  -0.1204
  C  C410  1  0.549590  0.948100  0.634000  1.0  0.0297
  C  C411  1  0.513710  0.855860  0.594900  1.0  0.146
  C  C412  1  0.548990  0.855380  0.410900  1.0  0.6563
  C  C413  1  0.523590  0.856950  0.327900  1.0  -0.0734
  C  C414  1  0.544470  0.858210  0.266600  1.0  0.0309
  C  C415  1  0.589490  0.860660  0.280600  1.0  -0.133
  C  C416  1  0.608760  0.861300  0.219800  1.0  -0.0913
  C  C417  1  0.584970  0.860600  0.141700  1.0  -0.088
  C  C418  1  0.457650  0.859100  0.374100  1.0  -0.0729
  C  C419  1  0.479470  0.857410  0.312400  1.0  0.0052
  C  C420  1  0.676900  0.845310  0.466720  1.0  0.6872
  C  C421  1  0.714890  0.796130  0.483530  1.0  -0.0908
  C  C422  1  0.743110  0.798290  0.556300  1.0  0.0096
  C  C423  1  0.737040  0.844860  0.616800  1.0  -0.09
  C  C424  1  0.763740  0.845800  0.687600  1.0  -0.0805
  C  C425  1  0.799560  0.800800  0.703900  1.0  -0.0913
  C  C426  1  0.692950  0.743400  0.351500  1.0  -0.0818
  C  C427  1  0.721110  0.747880  0.426900  1.0  -0.021
  C  C428  1  0.655660  0.930130  0.681900  1.0  -0.0125
  C  C429  1  0.679320  0.988170  0.702700  1.0  -0.1187
  C  C430  1  0.653340  0.988420  0.576320  1.0  0.1366
  C  C431  1  0.697250  0.092260  0.630200  1.0  0.1598
  C  C432  1  0.733350  0.110340  0.686300  1.0  -0.1699
  C  C433  1  0.750750  0.176310  0.682900  1.0  -0.117
  C  C434  1  0.733560  0.224180  0.625100  1.0  0.0517
  C  C435  1  0.697610  0.204970  0.569330  1.0  -0.1307
  C  C436  1  0.679630  0.139250  0.572330  1.0  -0.1763
  C  C437  1  0.752670  0.294860  0.622400  1.0  0.0514
  C  C438  1  0.795680  0.301530  0.627360  1.0  -0.1378
  C  C439  1  0.813790  0.367500  0.623060  1.0  -0.0504
  C  C440  1  0.788090  0.426730  0.617290  1.0  -0.1449
  C  C441  1  0.745370  0.421580  0.617150  1.0  0.0337
  C  C442  1  0.727760  0.354620  0.616300  1.0  -0.1552
  C  C443  1  0.720210  0.485270  0.624390  1.0  0.044
  C  C444  1  0.685520  0.481330  0.658800  1.0  -0.126
  C  C445  1  0.662260  0.540550  0.669000  1.0  -0.1599
  C  C446  1  0.674030  0.605290  0.645000  1.0  0.1552
  C  C447  1  0.708640  0.611040  0.612000  1.0  -0.1825
  C  C448  1  0.731330  0.551660  0.601400  1.0  -0.1215
  C  C449  1  0.626460  0.681650  0.706200  1.0  -0.1083
  C  C450  1  0.607970  0.744290  0.684800  1.0  0.0231
  C  C451  1  0.644330  0.720810  0.600900  1.0  0.1519
  C  C452  1  0.859490  0.374630  0.625320  1.0  0.0005
  C  C453  1  0.879660  0.439330  0.637800  1.0  -0.1447
  C  C454  1  0.921580  0.447190  0.637700  1.0  -0.1789
  C  C455  1  0.944980  0.389380  0.624900  1.0  0.1243
  C  C456  1  0.925990  0.323950  0.612700  1.0  -0.1757
  C  C457  1  0.883960  0.316800  0.612700  1.0  -0.1169
  C  C458  1  0.011470  0.458400  0.648900  1.0  -0.1204
  C  C459  1  0.049590  0.448100  0.634000  1.0  0.0297
  C  C460  1  0.013710  0.355860  0.594900  1.0  0.146
  C  C461  1  0.048990  0.644620  0.910900  1.0  0.6574
  C  C462  1  0.023590  0.643050  0.827900  1.0  -0.0741
  C  C463  1  0.044470  0.641790  0.766600  1.0  0.032
  C  C464  1  0.089490  0.639340  0.780600  1.0  -0.1325
  C  C465  1  0.108760  0.638700  0.719800  1.0  -0.0921
  C  C466  1  0.084970  0.639400  0.641700  1.0  -0.087
  C  C467  1  0.957650  0.640900  0.874100  1.0  -0.0702
  C  C468  1  0.979470  0.642590  0.812400  1.0  0.007
  C  C469  1  0.176900  0.654690  0.966720  1.0  0.687
  C  C470  1  0.214890  0.703870  0.983530  1.0  -0.0909
  C  C471  1  0.243110  0.701710  0.056300  1.0  0.0097
  C  C472  1  0.237040  0.655140  0.116800  1.0  -0.091
  C  C473  1  0.263740  0.654200  0.187600  1.0  -0.0787
  C  C474  1  0.299560  0.699200  0.203900  1.0  -0.0897
  C  C475  1  0.192950  0.756600  0.851500  1.0  -0.0838
  C  C476  1  0.221110  0.752120  0.926900  1.0  -0.0209
  C  C477  1  0.155660  0.569870  0.181900  1.0  -0.0128
  C  C478  1  0.179320  0.511830  0.202700  1.0  -0.1186
  C  C479  1  0.153340  0.511580  0.076320  1.0  0.1366
  C  C480  1  0.197250  0.407740  0.130200  1.0  0.1599
  C  C481  1  0.233350  0.389660  0.186300  1.0  -0.1707
  C  C482  1  0.250750  0.323690  0.182900  1.0  -0.1162
  C  C483  1  0.233560  0.275820  0.125100  1.0  0.0517
  C  C484  1  0.197610  0.295030  0.069330  1.0  -0.1299
  C  C485  1  0.179630  0.360750  0.072330  1.0  -0.1764
  C  C486  1  0.252670  0.205140  0.122400  1.0  0.0516
  C  C487  1  0.295680  0.198470  0.127360  1.0  -0.1384
  C  C488  1  0.313790  0.132500  0.123060  1.0  -0.0506
  C  C489  1  0.288090  0.073270  0.117290  1.0  -0.1447
  C  C490  1  0.245370  0.078420  0.117150  1.0  0.0333
  C  C491  1  0.227760  0.145380  0.116300  1.0  -0.1548
  C  C492  1  0.220210  0.014730  0.124390  1.0  0.0439
  C  C493  1  0.185520  0.018670  0.158800  1.0  -0.1261
  C  C494  1  0.162260  0.959450  0.169000  1.0  -0.1595
  C  C495  1  0.174030  0.894710  0.145000  1.0  0.1551
  C  C496  1  0.208640  0.888960  0.112000  1.0  -0.1827
  C  C497  1  0.231330  0.948340  0.101400  1.0  -0.1216
  C  C498  1  0.126460  0.818350  0.206200  1.0  -0.1086
  C  C499  1  0.107970  0.755710  0.184800  1.0  0.0216
  C  C500  1  0.144330  0.779190  0.100900  1.0  0.1514
  C  C501  1  0.359490  0.125370  0.125320  1.0  0.0008
  C  C502  1  0.379660  0.060670  0.137800  1.0  -0.1457
  C  C503  1  0.421580  0.052810  0.137700  1.0  -0.1797
  C  C504  1  0.444980  0.110620  0.124900  1.0  0.1241
  C  C505  1  0.425990  0.176050  0.112700  1.0  -0.1757
  C  C506  1  0.383960  0.183200  0.112700  1.0  -0.1156
  C  C507  1  0.511470  0.041600  0.148900  1.0  -0.1199
  C  C508  1  0.549590  0.051900  0.134000  1.0  0.0292
  C  C509  1  0.513710  0.144140  0.094900  1.0  0.146
  C  C510  1  0.548990  0.144620  0.910900  1.0  0.6574
  C  C511  1  0.523590  0.143050  0.827900  1.0  -0.0741
  C  C512  1  0.544470  0.141790  0.766600  1.0  0.032
  C  C513  1  0.589490  0.139340  0.780600  1.0  -0.1325
  C  C514  1  0.608760  0.138700  0.719800  1.0  -0.0921
  C  C515  1  0.584970  0.139400  0.641700  1.0  -0.087
  C  C516  1  0.457650  0.140900  0.874100  1.0  -0.0702
  C  C517  1  0.479470  0.142590  0.812400  1.0  0.007
  C  C518  1  0.676900  0.154690  0.966720  1.0  0.687
  C  C519  1  0.714890  0.203870  0.983530  1.0  -0.0909
  C  C520  1  0.743110  0.201710  0.056300  1.0  0.0097
  C  C521  1  0.737040  0.155140  0.116800  1.0  -0.091
  C  C522  1  0.763740  0.154200  0.187600  1.0  -0.0787
  C  C523  1  0.799560  0.199200  0.203900  1.0  -0.0897
  C  C524  1  0.692950  0.256600  0.851500  1.0  -0.0838
  C  C525  1  0.721110  0.252120  0.926900  1.0  -0.0209
  C  C526  1  0.655660  0.069870  0.181900  1.0  -0.0127
  C  C527  1  0.679320  0.011830  0.202700  1.0  -0.1186
  C  C528  1  0.653340  0.011580  0.076320  1.0  0.1366
  C  C529  1  0.697250  0.907740  0.130200  1.0  0.1599
  C  C530  1  0.733350  0.889660  0.186300  1.0  -0.1707
  C  C531  1  0.750750  0.823690  0.182900  1.0  -0.1162
  C  C532  1  0.733560  0.775820  0.125100  1.0  0.0517
  C  C533  1  0.697610  0.795030  0.069330  1.0  -0.1299
  C  C534  1  0.679630  0.860750  0.072330  1.0  -0.1764
  C  C535  1  0.752670  0.705140  0.122400  1.0  0.0516
  C  C536  1  0.795680  0.698470  0.127360  1.0  -0.1384
  C  C537  1  0.813790  0.632500  0.123060  1.0  -0.0506
  C  C538  1  0.788090  0.573270  0.117290  1.0  -0.1447
  C  C539  1  0.745370  0.578420  0.117150  1.0  0.0334
  C  C540  1  0.727760  0.645380  0.116300  1.0  -0.1548
  C  C541  1  0.720210  0.514730  0.124390  1.0  0.0439
  C  C542  1  0.685520  0.518670  0.158800  1.0  -0.1261
  C  C543  1  0.662260  0.459450  0.169000  1.0  -0.1595
  C  C544  1  0.674030  0.394710  0.145000  1.0  0.155
  C  C545  1  0.708640  0.388960  0.112000  1.0  -0.1828
  C  C546  1  0.731330  0.448340  0.101400  1.0  -0.1216
  C  C547  1  0.626460  0.318350  0.206200  1.0  -0.1084
  C  C548  1  0.607970  0.255710  0.184800  1.0  0.0216
  C  C549  1  0.644330  0.279190  0.100900  1.0  0.1519
  C  C550  1  0.859490  0.625370  0.125320  1.0  0.0008
  C  C551  1  0.879660  0.560670  0.137800  1.0  -0.1457
  C  C552  1  0.921580  0.552810  0.137700  1.0  -0.1797
  C  C553  1  0.944980  0.610620  0.124900  1.0  0.1241
  C  C554  1  0.925990  0.676050  0.112700  1.0  -0.1757
  C  C555  1  0.883960  0.683200  0.112700  1.0  -0.1156
  C  C556  1  0.011470  0.541600  0.148900  1.0  -0.1199
  C  C557  1  0.049590  0.551900  0.134000  1.0  0.0292
  C  C558  1  0.013710  0.644140  0.094900  1.0  0.146
  C  C559  1  0.951010  0.644620  0.589100  1.0  0.658
  C  C560  1  0.976410  0.643050  0.672100  1.0  -0.0741
  C  C561  1  0.955530  0.641790  0.733400  1.0  0.032
  C  C562  1  0.910510  0.639340  0.719400  1.0  -0.1339
  C  C563  1  0.891240  0.638700  0.780200  1.0  -0.0899
  C  C564  1  0.915030  0.639400  0.858300  1.0  -0.0846
  C  C565  1  0.042350  0.640900  0.625900  1.0  -0.0733
  C  C566  1  0.020530  0.642590  0.687600  1.0  0.0069
  C  C567  1  0.823100  0.654690  0.533280  1.0  0.687
  C  C568  1  0.785110  0.703870  0.516470  1.0  -0.0901
  C  C569  1  0.756890  0.701710  0.443700  1.0  0.0085
  C  C570  1  0.762960  0.655140  0.383200  1.0  -0.0916
  C  C571  1  0.736260  0.654200  0.312400  1.0  -0.081
  C  C572  1  0.700440  0.699200  0.296100  1.0  -0.0909
  C  C573  1  0.807050  0.756600  0.648500  1.0  -0.0847
  C  C574  1  0.778890  0.752120  0.573100  1.0  -0.0203
  C  C575  1  0.844340  0.569870  0.318100  1.0  -0.0123
  C  C576  1  0.820680  0.511830  0.297300  1.0  -0.12
  C  C577  1  0.846660  0.511580  0.423680  1.0  0.1358
  C  C578  1  0.802750  0.407740  0.369800  1.0  0.1608
  C  C579  1  0.766650  0.389660  0.313700  1.0  -0.1684
  C  C580  1  0.749250  0.323690  0.317100  1.0  -0.1167
  C  C581  1  0.766440  0.275820  0.374900  1.0  0.0524
  C  C582  1  0.802390  0.295030  0.430670  1.0  -0.1301
  C  C583  1  0.820370  0.360750  0.427670  1.0  -0.1761
  C  C584  1  0.747330  0.205140  0.377600  1.0  0.0535
  C  C585  1  0.704320  0.198470  0.372640  1.0  -0.1388
  C  C586  1  0.686210  0.132500  0.376940  1.0  -0.0502
  C  C587  1  0.711910  0.073270  0.382710  1.0  -0.1452
  C  C588  1  0.754630  0.078420  0.382850  1.0  0.0337
  C  C589  1  0.772240  0.145380  0.383700  1.0  -0.1546
  C  C590  1  0.779790  0.014730  0.375610  1.0  0.0437
  C  C591  1  0.814480  0.018670  0.341200  1.0  -0.1255
  C  C592  1  0.837740  0.959450  0.331000  1.0  -0.1569
  C  C593  1  0.825970  0.894710  0.355000  1.0  0.1541
  C  C594  1  0.791360  0.888960  0.388000  1.0  -0.1835
  C  C595  1  0.768670  0.948340  0.398600  1.0  -0.1208
  C  C596  1  0.873540  0.818350  0.293800  1.0  -0.107
  C  C597  1  0.892030  0.755710  0.315200  1.0  0.0225
  C  C598  1  0.855670  0.779190  0.399100  1.0  0.1543
  C  C599  1  0.640510  0.125370  0.374680  1.0  -0.0002
  C  C600  1  0.620340  0.060670  0.362200  1.0  -0.1472
  C  C601  1  0.578420  0.052810  0.362300  1.0  -0.1805
  C  C602  1  0.555020  0.110620  0.375100  1.0  0.1232
  C  C603  1  0.574010  0.176050  0.387300  1.0  -0.1765
  C  C604  1  0.616040  0.183200  0.387300  1.0  -0.1143
  C  C605  1  0.488530  0.041600  0.351100  1.0  -0.1191
  C  C606  1  0.450410  0.051900  0.366000  1.0  0.0292
  C  C607  1  0.486290  0.144140  0.405100  1.0  0.1455
  C  C608  1  0.451010  0.144620  0.589100  1.0  0.6579
  C  C609  1  0.476410  0.143050  0.672100  1.0  -0.0741
  C  C610  1  0.455530  0.141790  0.733400  1.0  0.032
  C  C611  1  0.410510  0.139340  0.719400  1.0  -0.1339
  C  C612  1  0.391240  0.138700  0.780200  1.0  -0.0899
  C  C613  1  0.415030  0.139400  0.858300  1.0  -0.0846
  C  C614  1  0.542350  0.140900  0.625900  1.0  -0.0733
  C  C615  1  0.520530  0.142590  0.687600  1.0  0.0069
  C  C616  1  0.323100  0.154690  0.533280  1.0  0.687
  C  C617  1  0.285110  0.203870  0.516470  1.0  -0.0901
  C  C618  1  0.256890  0.201710  0.443700  1.0  0.0085
  C  C619  1  0.262960  0.155140  0.383200  1.0  -0.0916
  C  C620  1  0.236260  0.154200  0.312400  1.0  -0.081
  C  C621  1  0.200440  0.199200  0.296100  1.0  -0.0909
  C  C622  1  0.307050  0.256600  0.648500  1.0  -0.0847
  C  C623  1  0.278890  0.252120  0.573100  1.0  -0.0203
  C  C624  1  0.344340  0.069870  0.318100  1.0  -0.0122
  C  C625  1  0.320680  0.011830  0.297300  1.0  -0.12
  C  C626  1  0.346660  0.011580  0.423680  1.0  0.1358
  C  C627  1  0.302750  0.907740  0.369800  1.0  0.1608
  C  C628  1  0.266650  0.889660  0.313700  1.0  -0.1684
  C  C629  1  0.249250  0.823690  0.317100  1.0  -0.1167
  C  C630  1  0.266440  0.775820  0.374900  1.0  0.0524
  C  C631  1  0.302390  0.795030  0.430670  1.0  -0.1301
  C  C632  1  0.320370  0.860750  0.427670  1.0  -0.1761
  C  C633  1  0.247330  0.705140  0.377600  1.0  0.0535
  C  C634  1  0.204320  0.698470  0.372640  1.0  -0.1388
  C  C635  1  0.186210  0.632500  0.376940  1.0  -0.0502
  C  C636  1  0.211910  0.573270  0.382710  1.0  -0.1452
  C  C637  1  0.254630  0.578420  0.382850  1.0  0.0338
  C  C638  1  0.272240  0.645380  0.383700  1.0  -0.1546
  C  C639  1  0.279790  0.514730  0.375610  1.0  0.0437
  C  C640  1  0.314480  0.518670  0.341200  1.0  -0.1255
  C  C641  1  0.337740  0.459450  0.331000  1.0  -0.1569
  C  C642  1  0.325970  0.394710  0.355000  1.0  0.154
  C  C643  1  0.291360  0.388960  0.388000  1.0  -0.1836
  C  C644  1  0.268670  0.448340  0.398600  1.0  -0.1208
  C  C645  1  0.373540  0.318350  0.293800  1.0  -0.1069
  C  C646  1  0.392030  0.255710  0.315200  1.0  0.0226
  C  C647  1  0.355670  0.279190  0.399100  1.0  0.1549
  C  C648  1  0.140510  0.625370  0.374680  1.0  -0.0002
  C  C649  1  0.120340  0.560670  0.362200  1.0  -0.1472
  C  C650  1  0.078420  0.552810  0.362300  1.0  -0.1805
  C  C651  1  0.055020  0.610620  0.375100  1.0  0.1232
  C  C652  1  0.074010  0.676050  0.387300  1.0  -0.1765
  C  C653  1  0.116040  0.683200  0.387300  1.0  -0.1143
  C  C654  1  0.988530  0.541600  0.351100  1.0  -0.1191
  C  C655  1  0.950410  0.551900  0.366000  1.0  0.0292
  C  C656  1  0.986290  0.644140  0.405100  1.0  0.1455
  N  N657  1  0.860580  0.430390  0.897540  1.0  -0.3566
  N  N658  1  0.822080  0.525250  0.864950  1.0  0.0354
  N  N659  1  0.849920  0.166690  0.848100  1.0  0.0327
  N  N660  1  0.880970  0.268780  0.881800  1.0  -0.3998
  N  N661  1  0.511790  0.899040  0.876490  1.0  0.0418
  N  N662  1  0.448780  0.884120  0.900880  1.0  -0.3751
  N  N663  1  0.360580  0.930390  0.897540  1.0  -0.3566
  N  N664  1  0.322080  0.025250  0.864950  1.0  0.0354
  N  N665  1  0.349920  0.666667  0.848100  1.0  0.0328
  N  N666  1  0.380970  0.768780  0.881800  1.0  -0.4009
  N  N667  1  0.011790  0.399040  0.876490  1.0  0.0418
  N  N668  1  0.948780  0.384120  0.900880  1.0  -0.3751
  N  N669  1  0.139420  0.430390  0.602460  1.0  -0.3583
  N  N670  1  0.177920  0.525250  0.635050  1.0  0.0356
  N  N671  1  0.150080  0.166690  0.651900  1.0  0.0325
  N  N672  1  0.119030  0.268780  0.618200  1.0  -0.4005
  N  N673  1  0.488210  0.899040  0.623510  1.0  0.041
  N  N674  1  0.551220  0.884120  0.599120  1.0  -0.376
  N  N675  1  0.639420  0.930390  0.602460  1.0  -0.3583
  N  N676  1  0.677920  0.025250  0.635050  1.0  0.0356
  N  N677  1  0.650080  0.666667  0.651900  1.0  0.0327
  N  N678  1  0.619030  0.768780  0.618200  1.0  -0.4016
  N  N679  1  0.988210  0.399040  0.623510  1.0  0.041
  N  N680  1  0.051220  0.384120  0.599120  1.0  -0.376
  N  N681  1  0.139420  0.569610  0.102460  1.0  -0.3573
  N  N682  1  0.177920  0.474750  0.135050  1.0  0.0355
  N  N683  1  0.150080  0.833310  0.151900  1.0  0.0321
  N  N684  1  0.119030  0.731220  0.118200  1.0  -0.3997
  N  N685  1  0.488210  0.100960  0.123510  1.0  0.0419
  N  N686  1  0.551220  0.115880  0.099120  1.0  -0.3762
  N  N687  1  0.639420  0.069610  0.102460  1.0  -0.3573
  N  N688  1  0.677920  0.974750  0.135050  1.0  0.0355
  N  N689  1  0.650080  0.333333  0.151900  1.0  0.0324
  N  N690  1  0.619030  0.231220  0.118200  1.0  -0.4009
  N  N691  1  0.988210  0.600960  0.123510  1.0  0.0419
  N  N692  1  0.051220  0.615880  0.099120  1.0  -0.3762
  N  N693  1  0.860580  0.569610  0.397540  1.0  -0.3561
  N  N694  1  0.822080  0.474750  0.364950  1.0  0.0354
  N  N695  1  0.849920  0.833310  0.348100  1.0  0.0321
  N  N696  1  0.880970  0.731220  0.381800  1.0  -0.3992
  N  N697  1  0.511790  0.100960  0.376490  1.0  0.042
  N  N698  1  0.448780  0.115880  0.400880  1.0  -0.3755
  N  N699  1  0.360580  0.069610  0.397540  1.0  -0.3561
  N  N700  1  0.322080  0.974750  0.364950  1.0  0.0354
  N  N701  1  0.349920  0.333333  0.348100  1.0  0.0323
  N  N702  1  0.380970  0.231220  0.381800  1.0  -0.4003
  N  N703  1  0.011790  0.600960  0.376490  1.0  0.042
  N  N704  1  0.948780  0.615880  0.400880  1.0  -0.3755
  O  O705  1  0.932090  0.410330  0.060670  1.0  -0.5908
  O  O706  1  0.948630  0.299150  0.050320  1.0  -0.5644
  O  O707  1  0.856240  0.319290  0.019080  1.0  -0.6015
  O  O708  1  0.818990  0.404830  0.058900  1.0  -0.5584
  O  O709  1  0.432090  0.910330  0.060670  1.0  -0.5908
  O  O710  1  0.448630  0.799150  0.050320  1.0  -0.5644
  O  O711  1  0.356240  0.819290  0.019080  1.0  -0.6015
  O  O712  1  0.318990  0.904830  0.058900  1.0  -0.5584
  O  O713  1  0.067910  0.410330  0.439330  1.0  -0.5915
  O  O714  1  0.051370  0.299150  0.449680  1.0  -0.5629
  O  O715  1  0.143760  0.319290  0.480920  1.0  -0.604
  O  O716  1  0.181010  0.404830  0.441100  1.0  -0.5582
  O  O717  1  0.567910  0.910330  0.439330  1.0  -0.5915
  O  O718  1  0.551370  0.799150  0.449680  1.0  -0.5629
  O  O719  1  0.643760  0.819290  0.480920  1.0  -0.604
  O  O720  1  0.681010  0.904830  0.441100  1.0  -0.5582
  O  O721  1  0.067910  0.589670  0.939330  1.0  -0.5909
  O  O722  1  0.051370  0.700850  0.949680  1.0  -0.5623
  O  O723  1  0.143760  0.680710  0.980920  1.0  -0.6046
  O  O724  1  0.181010  0.595170  0.941100  1.0  -0.5592
  O  O725  1  0.567910  0.089670  0.939330  1.0  -0.5909
  O  O726  1  0.551370  0.200850  0.949680  1.0  -0.5623
  O  O727  1  0.643760  0.180710  0.980920  1.0  -0.6046
  O  O728  1  0.681010  0.095170  0.941100  1.0  -0.5592
  O  O729  1  0.932090  0.589670  0.560670  1.0  -0.5905
  O  O730  1  0.948630  0.700850  0.550320  1.0  -0.5626
  O  O731  1  0.856240  0.680710  0.519080  1.0  -0.6024
  O  O732  1  0.818990  0.595170  0.558900  1.0  -0.5592
  O  O733  1  0.432090  0.089670  0.560670  1.0  -0.5905
  O  O734  1  0.448630  0.200850  0.550320  1.0  -0.5626
  O  O735  1  0.356240  0.180710  0.519080  1.0  -0.6024
  O  O736  1  0.318990  0.095170  0.558900  1.0  -0.5592
