# generated using pymatgen
data_Zn6H72C132N36O25
_symmetry_space_group_name_H-M   'P 1'
_cell_length_a   29.72000000
_cell_length_b   37.89100000
_cell_length_c   37.65000000
_cell_angle_alpha   90.00000000
_cell_angle_beta   90.00000000
_cell_angle_gamma   90.00000000
_symmetry_Int_Tables_number   1
_chemical_formula_structural   Zn6H72C132N36O25
_chemical_formula_sum   'Zn24 H288 C528 N144 O100'
_cell_volume   42398.43757800
_cell_formula_units_Z   4
loop_
 _symmetry_equiv_pos_site_id
 _symmetry_equiv_pos_as_xyz
  1  'x, y, z'
loop_
 _atom_site_type_symbol
 _atom_site_label
 _atom_site_symmetry_multiplicity
 _atom_site_fract_x
 _atom_site_fract_y
 _atom_site_fract_z
 _atom_site_occupancy
 _atom_site_charge
  Zn  Zn1  1  0.536810  0.669110  0.786330  1.0  1.0923
  Zn  Zn2  1  0.606980  0.616450  0.842380  1.0  1.1461
  Zn  Zn3  1  0.677570  0.564040  0.898200  1.0  1.0401
  Zn  Zn4  1  0.036810  0.169110  0.786330  1.0  1.0923
  Zn  Zn5  1  0.106980  0.116450  0.842380  1.0  1.1461
  Zn  Zn6  1  0.177570  0.064040  0.898200  1.0  1.0403
  Zn  Zn7  1  0.463190  0.330890  0.286330  1.0  1.0939
  Zn  Zn8  1  0.393020  0.383550  0.342380  1.0  1.1478
  Zn  Zn9  1  0.322430  0.435960  0.398200  1.0  1.0386
  Zn  Zn10  1  0.963190  0.830890  0.286330  1.0  1.0939
  Zn  Zn11  1  0.893020  0.883550  0.342380  1.0  1.1478
  Zn  Zn12  1  0.822430  0.935960  0.398200  1.0  1.0386
  Zn  Zn13  1  0.463190  0.669110  0.713670  1.0  1.0934
  Zn  Zn14  1  0.393020  0.616450  0.657620  1.0  1.1474
  Zn  Zn15  1  0.322430  0.564040  0.601800  1.0  1.0373
  Zn  Zn16  1  0.963190  0.169110  0.713670  1.0  1.0934
  Zn  Zn17  1  0.893020  0.116450  0.657620  1.0  1.1474
  Zn  Zn18  1  0.822430  0.064040  0.601800  1.0  1.0373
  Zn  Zn19  1  0.536810  0.330890  0.213670  1.0  1.0939
  Zn  Zn20  1  0.606980  0.383550  0.157620  1.0  1.1457
  Zn  Zn21  1  0.677570  0.435960  0.101800  1.0  1.037
  Zn  Zn22  1  0.036810  0.830890  0.213670  1.0  1.0939
  Zn  Zn23  1  0.106980  0.883550  0.157620  1.0  1.1457
  Zn  Zn24  1  0.177570  0.935960  0.101800  1.0  1.038
  H  H25  1  0.448700  0.687800  0.876300  1.0  0.108
  H  H26  1  0.404000  0.685400  0.926700  1.0  0.1153
  H  H27  1  0.453400  0.589200  0.949300  1.0  0.1114
  H  H28  1  0.498100  0.591600  0.898800  1.0  0.11
  H  H29  1  0.423400  0.600000  0.009600  1.0  0.1232
  H  H30  1  0.391400  0.572200  0.062300  1.0  0.1147
  H  H31  1  0.320600  0.591000  0.151200  1.0  0.1119
  H  H32  1  0.315800  0.659800  0.070100  1.0  0.1161
  H  H33  1  0.351800  0.534000  0.174900  1.0  0.1158
  H  H34  1  0.459400  0.452000  0.164400  1.0  0.1053
  H  H35  1  0.467700  0.408900  0.207600  1.0  0.0962
  H  H36  1  0.350600  0.438700  0.251800  1.0  0.114
  H  H37  1  0.342300  0.481800  0.208500  1.0  0.1158
  H  H38  1  0.263100  0.695700  0.107600  1.0  0.1221
  H  H39  1  0.183800  0.700500  0.209500  1.0  0.1143
  H  H40  1  0.135300  0.747200  0.220500  1.0  0.1102
  H  H41  1  0.168700  0.790400  0.126700  1.0  0.1116
  H  H42  1  0.217300  0.743700  0.115700  1.0  0.1292
  H  H43  1  0.669300  0.482900  0.818000  1.0  0.1134
  H  H44  1  0.651600  0.445700  0.771100  1.0  0.1149
  H  H45  1  0.530800  0.492400  0.761900  1.0  0.1132
  H  H46  1  0.548400  0.529500  0.808900  1.0  0.1036
  H  H47  1  0.619200  0.398200  0.734200  1.0  0.1215
  H  H48  1  0.618100  0.342300  0.707400  1.0  0.115
  H  H49  1  0.589600  0.290300  0.617200  1.0  0.1126
  H  H50  1  0.536800  0.386400  0.634600  1.0  0.1215
  H  H51  1  0.649700  0.250800  0.629900  1.0  0.122
  H  H52  1  0.680400  0.192000  0.619200  1.0  0.1147
  H  H53  1  0.730000  0.146200  0.607100  1.0  0.1181
  H  H54  1  0.788400  0.160200  0.702300  1.0  0.1159
  H  H55  1  0.738800  0.206000  0.714400  1.0  0.1177
  H  H56  1  0.504700  0.380100  0.575400  1.0  0.1141
  H  H57  1  0.481200  0.311900  0.478100  1.0  0.1085
  H  H58  1  0.435300  0.331000  0.432100  1.0  0.1102
  H  H59  1  0.410200  0.420700  0.485500  1.0  0.1159
  H  H60  1  0.456000  0.401500  0.531500  1.0  0.1179
  H  H61  1  0.948700  0.187800  0.876300  1.0  0.1085
  H  H62  1  0.904000  0.185400  0.926700  1.0  0.1129
  H  H63  1  0.953400  0.089200  0.949300  1.0  0.1114
  H  H64  1  0.998100  0.091600  0.898800  1.0  0.11
  H  H65  1  0.923400  0.100000  0.009600  1.0  0.1232
  H  H66  1  0.891400  0.072200  0.062300  1.0  0.1147
  H  H67  1  0.820600  0.091000  0.151200  1.0  0.1124
  H  H68  1  0.815800  0.159800  0.070100  1.0  0.1149
  H  H69  1  0.851800  0.034000  0.174900  1.0  0.1158
  H  H70  1  0.959400  0.952000  0.164400  1.0  0.1053
  H  H71  1  0.967700  0.908900  0.207600  1.0  0.0962
  H  H72  1  0.850600  0.938700  0.251800  1.0  0.114
  H  H73  1  0.842300  0.981800  0.208500  1.0  0.1146
  H  H74  1  0.763100  0.195700  0.107600  1.0  0.1221
  H  H75  1  0.683800  0.200500  0.209500  1.0  0.1135
  H  H76  1  0.635300  0.247200  0.220500  1.0  0.1102
  H  H77  1  0.668700  0.290400  0.126700  1.0  0.1116
  H  H78  1  0.717300  0.243700  0.115700  1.0  0.1292
  H  H79  1  0.169300  0.982900  0.818000  1.0  0.1134
  H  H80  1  0.151600  0.945700  0.771100  1.0  0.1149
  H  H81  1  0.030800  0.992400  0.761900  1.0  0.1132
  H  H82  1  0.048400  0.029500  0.808900  1.0  0.1036
  H  H83  1  0.119200  0.898200  0.734200  1.0  0.1215
  H  H84  1  0.118100  0.842300  0.707400  1.0  0.115
  H  H85  1  0.089600  0.790300  0.617200  1.0  0.1141
  H  H86  1  0.036800  0.886400  0.634600  1.0  0.1215
  H  H87  1  0.149700  0.750800  0.629900  1.0  0.1214
  H  H88  1  0.180400  0.692000  0.619200  1.0  0.1149
  H  H89  1  0.230000  0.646200  0.607100  1.0  0.119
  H  H90  1  0.288400  0.660200  0.702300  1.0  0.119
  H  H91  1  0.238800  0.706000  0.714400  1.0  0.1182
  H  H92  1  0.004700  0.880100  0.575400  1.0  0.1141
  H  H93  1  0.981200  0.811900  0.478100  1.0  0.1076
  H  H94  1  0.935300  0.831000  0.432100  1.0  0.1102
  H  H95  1  0.910200  0.920700  0.485500  1.0  0.1159
  H  H96  1  0.956000  0.901500  0.531500  1.0  0.1179
  H  H97  1  0.551300  0.312200  0.376300  1.0  0.108
  H  H98  1  0.596000  0.314600  0.426700  1.0  0.1128
  H  H99  1  0.546600  0.410800  0.449300  1.0  0.1112
  H  H100  1  0.501900  0.408400  0.398800  1.0  0.11
  H  H101  1  0.576600  0.400000  0.509600  1.0  0.1235
  H  H102  1  0.608600  0.427800  0.562300  1.0  0.1156
  H  H103  1  0.679400  0.409000  0.651200  1.0  0.1118
  H  H104  1  0.684200  0.340200  0.570100  1.0  0.1166
  H  H105  1  0.648200  0.466000  0.674900  1.0  0.1154
  H  H106  1  0.540600  0.548000  0.664400  1.0  0.1052
  H  H107  1  0.532300  0.591100  0.707600  1.0  0.0961
  H  H108  1  0.649400  0.561300  0.751800  1.0  0.1109
  H  H109  1  0.657700  0.518200  0.708500  1.0  0.1152
  H  H110  1  0.736900  0.304300  0.607600  1.0  0.1228
  H  H111  1  0.816200  0.299500  0.709500  1.0  0.1145
  H  H112  1  0.864700  0.252800  0.720500  1.0  0.1097
  H  H113  1  0.831300  0.209600  0.626700  1.0  0.1118
  H  H114  1  0.782700  0.256300  0.615700  1.0  0.1283
  H  H115  1  0.330700  0.517100  0.318000  1.0  0.1124
  H  H116  1  0.348400  0.554300  0.271100  1.0  0.1143
  H  H117  1  0.469200  0.507600  0.261900  1.0  0.1129
  H  H118  1  0.451600  0.470500  0.308900  1.0  0.1039
  H  H119  1  0.380800  0.601800  0.234200  1.0  0.1217
  H  H120  1  0.381900  0.657700  0.207400  1.0  0.1143
  H  H121  1  0.410400  0.709700  0.117200  1.0  0.1134
  H  H122  1  0.463200  0.613600  0.134600  1.0  0.1215
  H  H123  1  0.350300  0.749200  0.129900  1.0  0.1219
  H  H124  1  0.319600  0.808000  0.119200  1.0  0.1153
  H  H125  1  0.270000  0.853800  0.107100  1.0  0.1188
  H  H126  1  0.211600  0.839800  0.202300  1.0  0.1157
  H  H127  1  0.261200  0.794000  0.214400  1.0  0.1168
  H  H128  1  0.495300  0.619900  0.075400  1.0  0.1151
  H  H129  1  0.518800  0.688100  0.978100  1.0  0.1087
  H  H130  1  0.564700  0.669000  0.932100  1.0  0.1108
  H  H131  1  0.589800  0.579300  0.985500  1.0  0.1159
  H  H132  1  0.544000  0.598500  0.031500  1.0  0.1176
  H  H133  1  0.051300  0.812200  0.376300  1.0  0.108
  H  H134  1  0.096000  0.814600  0.426700  1.0  0.1128
  H  H135  1  0.046600  0.910800  0.449300  1.0  0.1112
  H  H136  1  0.001900  0.908400  0.398800  1.0  0.11
  H  H137  1  0.076600  0.900000  0.509600  1.0  0.1235
  H  H138  1  0.108600  0.927800  0.562300  1.0  0.1156
  H  H139  1  0.179400  0.909000  0.651200  1.0  0.1124
  H  H140  1  0.184200  0.840200  0.570100  1.0  0.1153
  H  H141  1  0.148200  0.966000  0.674900  1.0  0.1154
  H  H142  1  0.040600  0.048000  0.664400  1.0  0.1052
  H  H143  1  0.032300  0.091100  0.707600  1.0  0.0961
  H  H144  1  0.149400  0.061300  0.751800  1.0  0.1139
  H  H145  1  0.157700  0.018200  0.708500  1.0  0.1148
  H  H146  1  0.236900  0.804300  0.607600  1.0  0.1228
  H  H147  1  0.316200  0.799500  0.709500  1.0  0.1135
  H  H148  1  0.364700  0.752800  0.720500  1.0  0.1097
  H  H149  1  0.331300  0.709600  0.626700  1.0  0.1125
  H  H150  1  0.282700  0.756300  0.615700  1.0  0.1283
  H  H151  1  0.830700  0.017100  0.318000  1.0  0.1124
  H  H152  1  0.848400  0.054300  0.271100  1.0  0.1143
  H  H153  1  0.969200  0.007600  0.261900  1.0  0.1129
  H  H154  1  0.951600  0.970500  0.308900  1.0  0.1039
  H  H155  1  0.880800  0.101800  0.234200  1.0  0.1217
  H  H156  1  0.881900  0.157700  0.207400  1.0  0.1143
  H  H157  1  0.910400  0.209700  0.117200  1.0  0.1153
  H  H158  1  0.963200  0.113600  0.134600  1.0  0.1215
  H  H159  1  0.850300  0.249200  0.129900  1.0  0.1214
  H  H160  1  0.819600  0.308000  0.119200  1.0  0.1146
  H  H161  1  0.770000  0.353800  0.107100  1.0  0.1202
  H  H162  1  0.711600  0.339800  0.202300  1.0  0.1157
  H  H163  1  0.761200  0.294000  0.214400  1.0  0.1168
  H  H164  1  0.995300  0.119900  0.075400  1.0  0.1151
  H  H165  1  0.018800  0.188100  0.978100  1.0  0.1082
  H  H166  1  0.064700  0.169000  0.932100  1.0  0.1108
  H  H167  1  0.089800  0.079300  0.985500  1.0  0.1159
  H  H168  1  0.044000  0.098500  0.031500  1.0  0.1176
  H  H169  1  0.551300  0.687800  0.623700  1.0  0.1079
  H  H170  1  0.596000  0.685400  0.573300  1.0  0.1158
  H  H171  1  0.546600  0.589200  0.550700  1.0  0.111
  H  H172  1  0.501900  0.591600  0.601200  1.0  0.1096
  H  H173  1  0.576600  0.600000  0.490400  1.0  0.1232
  H  H174  1  0.608600  0.572200  0.437700  1.0  0.115
  H  H175  1  0.679400  0.591000  0.348800  1.0  0.1125
  H  H176  1  0.684200  0.659800  0.429900  1.0  0.1157
  H  H177  1  0.648200  0.534000  0.325100  1.0  0.1154
  H  H178  1  0.540600  0.452000  0.335600  1.0  0.1049
  H  H179  1  0.532300  0.408900  0.292400  1.0  0.0962
  H  H180  1  0.649400  0.438700  0.248200  1.0  0.1139
  H  H181  1  0.657700  0.481800  0.291500  1.0  0.1163
  H  H182  1  0.736900  0.695700  0.392400  1.0  0.1227
  H  H183  1  0.816200  0.700500  0.290500  1.0  0.1142
  H  H184  1  0.864700  0.747200  0.279500  1.0  0.1105
  H  H185  1  0.831300  0.790400  0.373300  1.0  0.1111
  H  H186  1  0.782700  0.743700  0.384300  1.0  0.1275
  H  H187  1  0.330700  0.482900  0.682000  1.0  0.1123
  H  H188  1  0.348400  0.445700  0.728900  1.0  0.114
  H  H189  1  0.469200  0.492400  0.738100  1.0  0.1127
  H  H190  1  0.451600  0.529500  0.691100  1.0  0.1037
  H  H191  1  0.380800  0.398200  0.765800  1.0  0.1207
  H  H192  1  0.381900  0.342300  0.792600  1.0  0.1149
  H  H193  1  0.410400  0.290300  0.882800  1.0  0.1127
  H  H194  1  0.463200  0.386400  0.865400  1.0  0.1212
  H  H195  1  0.350300  0.250800  0.870100  1.0  0.1214
  H  H196  1  0.319600  0.192000  0.880800  1.0  0.115
  H  H197  1  0.270000  0.146200  0.892900  1.0  0.1186
  H  H198  1  0.211600  0.160200  0.797700  1.0  0.1148
  H  H199  1  0.261200  0.206000  0.785600  1.0  0.1177
  H  H200  1  0.495300  0.380100  0.924600  1.0  0.1151
  H  H201  1  0.518800  0.311900  0.021900  1.0  0.1082
  H  H202  1  0.564700  0.331000  0.067900  1.0  0.1109
  H  H203  1  0.589800  0.420700  0.014500  1.0  0.1164
  H  H204  1  0.544000  0.401500  0.968500  1.0  0.1175
  H  H205  1  0.051300  0.187800  0.623700  1.0  0.1083
  H  H206  1  0.096000  0.185400  0.573300  1.0  0.1132
  H  H207  1  0.046600  0.089200  0.550700  1.0  0.111
  H  H208  1  0.001900  0.091600  0.601200  1.0  0.1096
  H  H209  1  0.076600  0.100000  0.490400  1.0  0.1232
  H  H210  1  0.108600  0.072200  0.437700  1.0  0.115
  H  H211  1  0.179400  0.091000  0.348800  1.0  0.1129
  H  H212  1  0.184200  0.159800  0.429900  1.0  0.1152
  H  H213  1  0.148200  0.034000  0.325100  1.0  0.1154
  H  H214  1  0.040600  0.952000  0.335600  1.0  0.1049
  H  H215  1  0.032300  0.908900  0.292400  1.0  0.0962
  H  H216  1  0.149400  0.938700  0.248200  1.0  0.1139
  H  H217  1  0.157700  0.981800  0.291500  1.0  0.115
  H  H218  1  0.236900  0.195700  0.392400  1.0  0.1227
  H  H219  1  0.316200  0.200500  0.290500  1.0  0.1129
  H  H220  1  0.364700  0.247200  0.279500  1.0  0.1105
  H  H221  1  0.331300  0.290400  0.373300  1.0  0.1111
  H  H222  1  0.282700  0.243700  0.384300  1.0  0.1275
  H  H223  1  0.830700  0.982900  0.682000  1.0  0.1123
  H  H224  1  0.848400  0.945700  0.728900  1.0  0.114
  H  H225  1  0.969200  0.992400  0.738100  1.0  0.1127
  H  H226  1  0.951600  0.029500  0.691100  1.0  0.1037
  H  H227  1  0.880800  0.898200  0.765800  1.0  0.1207
  H  H228  1  0.881900  0.842300  0.792600  1.0  0.1149
  H  H229  1  0.910400  0.790300  0.882800  1.0  0.1142
  H  H230  1  0.963200  0.886400  0.865400  1.0  0.1212
  H  H231  1  0.850300  0.750800  0.870100  1.0  0.1209
  H  H232  1  0.819600  0.692000  0.880800  1.0  0.1141
  H  H233  1  0.770000  0.646200  0.892900  1.0  0.1198
  H  H234  1  0.711600  0.660200  0.797700  1.0  0.1182
  H  H235  1  0.761200  0.706000  0.785600  1.0  0.118
  H  H236  1  0.995300  0.880100  0.924600  1.0  0.1151
  H  H237  1  0.018800  0.811900  0.021900  1.0  0.1074
  H  H238  1  0.064700  0.831000  0.067900  1.0  0.1109
  H  H239  1  0.089800  0.920700  0.014500  1.0  0.1164
  H  H240  1  0.044000  0.901500  0.968500  1.0  0.1175
  H  H241  1  0.448700  0.312200  0.123700  1.0  0.1088
  H  H242  1  0.404000  0.314600  0.073300  1.0  0.1126
  H  H243  1  0.453400  0.410800  0.050700  1.0  0.1117
  H  H244  1  0.498100  0.408400  0.101200  1.0  0.1099
  H  H245  1  0.423400  0.400000  0.990400  1.0  0.1228
  H  H246  1  0.391400  0.427800  0.937700  1.0  0.1153
  H  H247  1  0.320600  0.409000  0.848800  1.0  0.1124
  H  H248  1  0.315800  0.340200  0.929900  1.0  0.1157
  H  H249  1  0.351800  0.466000  0.825100  1.0  0.1158
  H  H250  1  0.459400  0.548000  0.835600  1.0  0.1052
  H  H251  1  0.467700  0.591100  0.792400  1.0  0.0961
  H  H252  1  0.350600  0.561300  0.748200  1.0  0.1109
  H  H253  1  0.342300  0.518200  0.791500  1.0  0.1148
  H  H254  1  0.263100  0.304300  0.892400  1.0  0.1226
  H  H255  1  0.183800  0.299500  0.790500  1.0  0.1143
  H  H256  1  0.135300  0.252800  0.779500  1.0  0.1099
  H  H257  1  0.168700  0.209600  0.873300  1.0  0.1115
  H  H258  1  0.217300  0.256300  0.884300  1.0  0.1283
  H  H259  1  0.669300  0.517100  0.182000  1.0  0.1134
  H  H260  1  0.651600  0.554300  0.228900  1.0  0.1144
  H  H261  1  0.530800  0.507600  0.238100  1.0  0.1127
  H  H262  1  0.548400  0.470500  0.191100  1.0  0.1036
  H  H263  1  0.619200  0.601800  0.265800  1.0  0.1214
  H  H264  1  0.618100  0.657700  0.292600  1.0  0.1148
  H  H265  1  0.589600  0.709700  0.382800  1.0  0.1133
  H  H266  1  0.536800  0.613600  0.365400  1.0  0.1205
  H  H267  1  0.649700  0.749200  0.370100  1.0  0.1221
  H  H268  1  0.680400  0.808000  0.380800  1.0  0.1147
  H  H269  1  0.730000  0.853800  0.392900  1.0  0.1185
  H  H270  1  0.788400  0.839800  0.297700  1.0  0.1146
  H  H271  1  0.738800  0.794000  0.285600  1.0  0.1176
  H  H272  1  0.504700  0.619900  0.424600  1.0  0.1138
  H  H273  1  0.481200  0.688100  0.521900  1.0  0.1089
  H  H274  1  0.435300  0.669000  0.567900  1.0  0.1108
  H  H275  1  0.410200  0.579300  0.514500  1.0  0.1158
  H  H276  1  0.456000  0.598500  0.468500  1.0  0.1177
  H  H277  1  0.948700  0.812200  0.123700  1.0  0.1088
  H  H278  1  0.904000  0.814600  0.073300  1.0  0.1126
  H  H279  1  0.953400  0.910800  0.050700  1.0  0.1117
  H  H280  1  0.998100  0.908400  0.101200  1.0  0.1099
  H  H281  1  0.923400  0.900000  0.990400  1.0  0.1228
  H  H282  1  0.891400  0.927800  0.937700  1.0  0.1153
  H  H283  1  0.820600  0.909000  0.848800  1.0  0.1123
  H  H284  1  0.815800  0.840200  0.929900  1.0  0.1154
  H  H285  1  0.851800  0.966000  0.825100  1.0  0.1158
  H  H286  1  0.959400  0.048000  0.835600  1.0  0.1052
  H  H287  1  0.967700  0.091100  0.792400  1.0  0.0961
  H  H288  1  0.850600  0.061300  0.748200  1.0  0.1139
  H  H289  1  0.842300  0.018200  0.791500  1.0  0.1144
  H  H290  1  0.763100  0.804300  0.892400  1.0  0.1226
  H  H291  1  0.683800  0.799500  0.790500  1.0  0.113
  H  H292  1  0.635300  0.752800  0.779500  1.0  0.1099
  H  H293  1  0.668700  0.709600  0.873300  1.0  0.1122
  H  H294  1  0.717300  0.756300  0.884300  1.0  0.1283
  H  H295  1  0.169300  0.017100  0.182000  1.0  0.1134
  H  H296  1  0.151600  0.054300  0.228900  1.0  0.1144
  H  H297  1  0.030800  0.007600  0.238100  1.0  0.1127
  H  H298  1  0.048400  0.970500  0.191100  1.0  0.1036
  H  H299  1  0.119200  0.101800  0.265800  1.0  0.1214
  H  H300  1  0.118100  0.157700  0.292600  1.0  0.1148
  H  H301  1  0.089600  0.209700  0.382800  1.0  0.1149
  H  H302  1  0.036800  0.113600  0.365400  1.0  0.1205
  H  H303  1  0.149700  0.249200  0.370100  1.0  0.1216
  H  H304  1  0.180400  0.308000  0.380800  1.0  0.1143
  H  H305  1  0.230000  0.353800  0.392900  1.0  0.1193
  H  H306  1  0.288400  0.339800  0.297700  1.0  0.1146
  H  H307  1  0.238800  0.294000  0.285600  1.0  0.1176
  H  H308  1  0.004700  0.119900  0.424600  1.0  0.1138
  H  H309  1  0.981200  0.188100  0.521900  1.0  0.1083
  H  H310  1  0.935300  0.169000  0.567900  1.0  0.1108
  H  H311  1  0.910200  0.079300  0.514500  1.0  0.1158
  H  H312  1  0.956000  0.098500  0.468500  1.0  0.1177
  C  C313  1  0.507400  0.641200  0.851200  1.0  0.6897
  C  C314  1  0.477800  0.640000  0.882560  1.0  -0.1343
  C  C315  1  0.449600  0.668000  0.890920  1.0  -0.0335
  C  C316  1  0.422800  0.666667  0.921100  1.0  -0.0916
  C  C317  1  0.424200  0.637000  0.943010  1.0  0.1617
  C  C318  1  0.452400  0.609000  0.934600  1.0  -0.1491
  C  C319  1  0.479200  0.610400  0.904400  1.0  -0.0682
  C  C320  1  0.402100  0.617200  0.004400  1.0  -0.0261
  C  C321  1  0.369800  0.629000  0.026500  1.0  0.079
  C  C322  1  0.355800  0.617700  0.060610  1.0  0.11
  C  C323  1  0.371800  0.586400  0.075200  1.0  -0.1194
  C  C324  1  0.358600  0.576400  0.109200  1.0  -0.0945
  C  C325  1  0.329400  0.597700  0.128510  1.0  -0.0479
  C  C326  1  0.313300  0.628900  0.113900  1.0  -0.0896
  C  C327  1  0.326500  0.638900  0.079900  1.0  -0.0717
  C  C328  1  0.374000  0.540900  0.124000  1.0  0.1498
  C  C329  1  0.369600  0.525800  0.156400  1.0  -0.0247
  C  C330  1  0.400000  0.471200  0.182140  1.0  0.2085
  C  C331  1  0.437600  0.449300  0.181880  1.0  -0.1197
  C  C332  1  0.442500  0.423500  0.207800  1.0  -0.0646
  C  C333  1  0.410000  0.419500  0.234000  1.0  -0.153
  C  C334  1  0.372400  0.441400  0.234200  1.0  -0.0213
  C  C335  1  0.367400  0.467200  0.208300  1.0  -0.1717
  C  C336  1  0.417200  0.394300  0.262900  1.0  0.7125
  C  C337  1  0.282600  0.651000  0.135000  1.0  -0.0268
  C  C338  1  0.260400  0.682200  0.128100  1.0  -0.047
  C  C339  1  0.205400  0.717500  0.161500  1.0  0.1453
  C  C340  1  0.180800  0.718500  0.192900  1.0  -0.1119
  C  C341  1  0.151700  0.746500  0.199500  1.0  -0.0443
  C  C342  1  0.147200  0.773400  0.174700  1.0  -0.1331
  C  C343  1  0.171700  0.772400  0.143300  1.0  -0.0578
  C  C344  1  0.200800  0.744400  0.136700  1.0  -0.1981
  C  C345  1  0.114400  0.802900  0.178500  1.0  0.706
  C  C346  1  0.623200  0.535300  0.846200  1.0  0.7175
  C  C347  1  0.610600  0.509900  0.818100  1.0  -0.1212
  C  C348  1  0.641500  0.484800  0.806800  1.0  -0.0394
  C  C349  1  0.630900  0.462500  0.778600  1.0  -0.1561
  C  C350  1  0.589400  0.465300  0.761800  1.0  0.1849
  C  C351  1  0.558500  0.490500  0.773200  1.0  -0.1414
  C  C352  1  0.569100  0.512700  0.801300  1.0  -0.0321
  C  C353  1  0.595600  0.410600  0.724000  1.0  -0.051
  C  C354  1  0.572700  0.401000  0.695900  1.0  0.2602
  C  C355  1  0.576700  0.369300  0.674600  1.0  0.0094
  C  C356  1  0.603400  0.341300  0.685600  1.0  -0.082
  C  C357  1  0.608300  0.311700  0.664200  1.0  0.0731
  C  C358  1  0.586300  0.310100  0.631600  1.0  0.0087
  C  C359  1  0.559600  0.338100  0.620500  1.0  0.0907
  C  C360  1  0.554700  0.367700  0.642000  1.0  -0.0853
  C  C361  1  0.656500  0.255400  0.653500  1.0  -0.005
  C  C362  1  0.640200  0.282700  0.673300  1.0  -0.0255
  C  C363  1  0.704700  0.203500  0.668000  1.0  0.1735
  C  C364  1  0.702100  0.185600  0.635900  1.0  -0.0699
  C  C365  1  0.731700  0.158200  0.628600  1.0  -0.094
  C  C366  1  0.764100  0.148600  0.653500  1.0  -0.1507
  C  C367  1  0.766700  0.166600  0.685700  1.0  -0.0785
  C  C368  1  0.737100  0.194000  0.692900  1.0  -0.1557
  C  C369  1  0.788500  0.115900  0.645300  1.0  0.5829
  C  C370  1  0.537100  0.335400  0.584200  1.0  0.2269
  C  C371  1  0.512600  0.357700  0.567500  1.0  -0.0513
  C  C372  1  0.473100  0.354800  0.509400  1.0  0.1474
  C  C373  1  0.466900  0.333700  0.479600  1.0  -0.0733
  C  C374  1  0.439500  0.345100  0.452000  1.0  -0.0143
  C  C375  1  0.418200  0.377700  0.454200  1.0  -0.1344
  C  C376  1  0.424400  0.398900  0.484000  1.0  -0.0818
  C  C377  1  0.451900  0.387400  0.511600  1.0  -0.1416
  C  C378  1  0.391700  0.391200  0.424900  1.0  0.7166
  C  C379  1  0.007400  0.141200  0.851200  1.0  0.6897
  C  C380  1  0.977800  0.140000  0.882560  1.0  -0.1347
  C  C381  1  0.949600  0.168000  0.890920  1.0  -0.0364
  C  C382  1  0.922800  0.166600  0.921100  1.0  -0.0868
  C  C383  1  0.924200  0.137000  0.943010  1.0  0.1605
  C  C384  1  0.952400  0.109000  0.934600  1.0  -0.1494
  C  C385  1  0.979200  0.110400  0.904400  1.0  -0.0682
  C  C386  1  0.902100  0.117200  0.004400  1.0  -0.0261
  C  C387  1  0.869800  0.129000  0.026500  1.0  0.079
  C  C388  1  0.855800  0.117700  0.060610  1.0  0.1141
  C  C389  1  0.871800  0.086400  0.075200  1.0  -0.1195
  C  C390  1  0.858600  0.076400  0.109200  1.0  -0.0945
  C  C391  1  0.829400  0.097700  0.128510  1.0  -0.0463
  C  C392  1  0.813300  0.128900  0.113900  1.0  -0.0931
  C  C393  1  0.826500  0.138900  0.079900  1.0  -0.0731
  C  C394  1  0.874000  0.040900  0.124000  1.0  0.1498
  C  C395  1  0.869600  0.025800  0.156400  1.0  -0.0247
  C  C396  1  0.900000  0.971200  0.182140  1.0  0.2085
  C  C397  1  0.937600  0.949300  0.181880  1.0  -0.1197
  C  C398  1  0.942500  0.923500  0.207800  1.0  -0.0646
  C  C399  1  0.910000  0.919500  0.234000  1.0  -0.153
  C  C400  1  0.872400  0.941400  0.234200  1.0  -0.0213
  C  C401  1  0.867400  0.967200  0.208300  1.0  -0.1717
  C  C402  1  0.917200  0.894300  0.262900  1.0  0.7125
  C  C403  1  0.782600  0.151000  0.135000  1.0  -0.0207
  C  C404  1  0.760400  0.182200  0.128100  1.0  -0.0419
  C  C405  1  0.705400  0.217500  0.161500  1.0  0.1429
  C  C406  1  0.680800  0.218500  0.192900  1.0  -0.1119
  C  C407  1  0.651700  0.246500  0.199500  1.0  -0.0443
  C  C408  1  0.647200  0.273400  0.174700  1.0  -0.1331
  C  C409  1  0.671700  0.272400  0.143300  1.0  -0.0578
  C  C410  1  0.700800  0.244400  0.136700  1.0  -0.1981
  C  C411  1  0.614400  0.302900  0.178500  1.0  0.706
  C  C412  1  0.123200  0.035300  0.846200  1.0  0.7175
  C  C413  1  0.110600  0.009900  0.818100  1.0  -0.1212
  C  C414  1  0.141500  0.984800  0.806800  1.0  -0.0394
  C  C415  1  0.130900  0.962500  0.778600  1.0  -0.1561
  C  C416  1  0.089400  0.965300  0.761800  1.0  0.1849
  C  C417  1  0.058500  0.990500  0.773200  1.0  -0.1414
  C  C418  1  0.069100  0.012700  0.801300  1.0  -0.0321
  C  C419  1  0.095600  0.910600  0.724000  1.0  -0.051
  C  C420  1  0.072700  0.901000  0.695900  1.0  0.2602
  C  C421  1  0.076700  0.869300  0.674600  1.0  0.0094
  C  C422  1  0.103400  0.841300  0.685600  1.0  -0.082
  C  C423  1  0.108300  0.811700  0.664200  1.0  0.0731
  C  C424  1  0.086300  0.810100  0.631600  1.0  0.0087
  C  C425  1  0.059600  0.838100  0.620500  1.0  0.0907
  C  C426  1  0.054700  0.867700  0.642000  1.0  -0.0853
  C  C427  1  0.156500  0.755400  0.653500  1.0  -0.0051
  C  C428  1  0.140200  0.782700  0.673300  1.0  -0.0206
  C  C429  1  0.204700  0.703500  0.668000  1.0  0.1735
  C  C430  1  0.202100  0.685600  0.635900  1.0  -0.071
  C  C431  1  0.231700  0.658200  0.628600  1.0  -0.0984
  C  C432  1  0.264100  0.648600  0.653500  1.0  -0.1518
  C  C433  1  0.266700  0.666667  0.685700  1.0  -0.0828
  C  C434  1  0.237100  0.694000  0.692900  1.0  -0.1574
  C  C435  1  0.288500  0.615900  0.645300  1.0  0.6112
  C  C436  1  0.037100  0.835400  0.584200  1.0  0.2269
  C  C437  1  0.012600  0.857700  0.567500  1.0  -0.0513
  C  C438  1  0.973100  0.854800  0.509400  1.0  0.1474
  C  C439  1  0.966900  0.833700  0.479600  1.0  -0.0733
  C  C440  1  0.939500  0.845100  0.452000  1.0  -0.0143
  C  C441  1  0.918200  0.877700  0.454200  1.0  -0.1344
  C  C442  1  0.924400  0.898900  0.484000  1.0  -0.0818
  C  C443  1  0.951900  0.887400  0.511600  1.0  -0.1416
  C  C444  1  0.891700  0.891200  0.424900  1.0  0.7166
  C  C445  1  0.492600  0.358800  0.351200  1.0  0.6894
  C  C446  1  0.522200  0.360000  0.382560  1.0  -0.1353
  C  C447  1  0.550400  0.332000  0.390920  1.0  -0.0356
  C  C448  1  0.577200  0.333400  0.421100  1.0  -0.0854
  C  C449  1  0.575800  0.363000  0.443010  1.0  0.1593
  C  C450  1  0.547600  0.391000  0.434600  1.0  -0.1486
  C  C451  1  0.520800  0.389600  0.404400  1.0  -0.0672
  C  C452  1  0.597900  0.382800  0.504400  1.0  -0.0248
  C  C453  1  0.630200  0.371000  0.526500  1.0  0.0761
  C  C454  1  0.644200  0.382300  0.560610  1.0  0.1107
  C  C455  1  0.628200  0.413600  0.575200  1.0  -0.121
  C  C456  1  0.641400  0.423600  0.609200  1.0  -0.0957
  C  C457  1  0.670600  0.402300  0.628510  1.0  -0.0476
  C  C458  1  0.686700  0.371100  0.613900  1.0  -0.088
  C  C459  1  0.673500  0.361100  0.579900  1.0  -0.0726
  C  C460  1  0.626000  0.459100  0.624000  1.0  0.1482
  C  C461  1  0.630400  0.474200  0.656400  1.0  -0.0228
  C  C462  1  0.600000  0.528800  0.682140  1.0  0.2103
  C  C463  1  0.562400  0.550700  0.681880  1.0  -0.1182
  C  C464  1  0.557500  0.576500  0.707800  1.0  -0.0637
  C  C465  1  0.590000  0.580500  0.734000  1.0  -0.1534
  C  C466  1  0.627600  0.558600  0.734200  1.0  -0.0196
  C  C467  1  0.632600  0.532800  0.708300  1.0  -0.1675
  C  C468  1  0.582800  0.605700  0.762900  1.0  0.7137
  C  C469  1  0.717400  0.349000  0.635000  1.0  -0.0248
  C  C470  1  0.739600  0.317800  0.628100  1.0  -0.0487
  C  C471  1  0.794600  0.282500  0.661500  1.0  0.1495
  C  C472  1  0.819200  0.281500  0.692900  1.0  -0.1096
  C  C473  1  0.848300  0.253500  0.699500  1.0  -0.043
  C  C474  1  0.852800  0.226600  0.674700  1.0  -0.133
  C  C475  1  0.828300  0.227600  0.643300  1.0  -0.0596
  C  C476  1  0.799200  0.255600  0.636700  1.0  -0.2005
  C  C477  1  0.885600  0.197100  0.678500  1.0  0.7065
  C  C478  1  0.376800  0.464700  0.346200  1.0  0.7161
  C  C479  1  0.389400  0.490100  0.318100  1.0  -0.1196
  C  C480  1  0.358500  0.515200  0.306800  1.0  -0.0408
  C  C481  1  0.369100  0.537500  0.278600  1.0  -0.1564
  C  C482  1  0.410600  0.534700  0.261800  1.0  0.1847
  C  C483  1  0.441500  0.509500  0.273200  1.0  -0.1409
  C  C484  1  0.430900  0.487300  0.301300  1.0  -0.0332
  C  C485  1  0.404400  0.589400  0.224000  1.0  -0.0532
  C  C486  1  0.427300  0.599000  0.195900  1.0  0.2614
  C  C487  1  0.423300  0.630700  0.174600  1.0  0.0081
  C  C488  1  0.396600  0.658700  0.185600  1.0  -0.0808
  C  C489  1  0.391700  0.688300  0.164200  1.0  0.0733
  C  C490  1  0.413700  0.689900  0.131600  1.0  0.0057
  C  C491  1  0.440400  0.661900  0.120500  1.0  0.0927
  C  C492  1  0.445300  0.632300  0.142000  1.0  -0.0838
  C  C493  1  0.343500  0.744600  0.153500  1.0  -0.0045
  C  C494  1  0.359800  0.717300  0.173300  1.0  -0.0252
  C  C495  1  0.295300  0.796500  0.168000  1.0  0.1727
  C  C496  1  0.297900  0.814400  0.135900  1.0  -0.0699
  C  C497  1  0.268300  0.841800  0.128600  1.0  -0.0957
  C  C498  1  0.235900  0.851400  0.153500  1.0  -0.1507
  C  C499  1  0.233300  0.833400  0.185700  1.0  -0.0791
  C  C500  1  0.262900  0.806000  0.192900  1.0  -0.1568
  C  C501  1  0.211500  0.884100  0.145300  1.0  0.5816
  C  C502  1  0.462900  0.664600  0.084200  1.0  0.2278
  C  C503  1  0.487400  0.642300  0.067500  1.0  -0.0491
  C  C504  1  0.526900  0.645200  0.009400  1.0  0.1462
  C  C505  1  0.533100  0.666300  0.979600  1.0  -0.0722
  C  C506  1  0.560500  0.654900  0.952000  1.0  -0.0144
  C  C507  1  0.581800  0.622300  0.954200  1.0  -0.1345
  C  C508  1  0.575600  0.601100  0.984000  1.0  -0.0839
  C  C509  1  0.548100  0.612600  0.011600  1.0  -0.1427
  C  C510  1  0.608300  0.608800  0.924900  1.0  0.7166
  C  C511  1  0.992600  0.858800  0.351200  1.0  0.6894
  C  C512  1  0.022200  0.860000  0.382560  1.0  -0.1353
  C  C513  1  0.050400  0.832000  0.390920  1.0  -0.0356
  C  C514  1  0.077200  0.833400  0.421100  1.0  -0.0854
  C  C515  1  0.075800  0.863000  0.443010  1.0  0.1593
  C  C516  1  0.047600  0.891000  0.434600  1.0  -0.1486
  C  C517  1  0.020800  0.889600  0.404400  1.0  -0.0672
  C  C518  1  0.097900  0.882800  0.504400  1.0  -0.0248
  C  C519  1  0.130200  0.871000  0.526500  1.0  0.0761
  C  C520  1  0.144200  0.882300  0.560610  1.0  0.1107
  C  C521  1  0.128200  0.913600  0.575200  1.0  -0.121
  C  C522  1  0.141400  0.923600  0.609200  1.0  -0.0957
  C  C523  1  0.170600  0.902300  0.628510  1.0  -0.0454
  C  C524  1  0.186700  0.871100  0.613900  1.0  -0.088
  C  C525  1  0.173500  0.861100  0.579900  1.0  -0.0725
  C  C526  1  0.126000  0.959100  0.624000  1.0  0.1482
  C  C527  1  0.130400  0.974200  0.656400  1.0  -0.0228
  C  C528  1  0.100000  0.028800  0.682140  1.0  0.21
  C  C529  1  0.062400  0.050700  0.681880  1.0  -0.1182
  C  C530  1  0.057500  0.076500  0.707800  1.0  -0.0637
  C  C531  1  0.090000  0.080500  0.734000  1.0  -0.1534
  C  C532  1  0.127600  0.058600  0.734200  1.0  -0.019
  C  C533  1  0.132600  0.032800  0.708300  1.0  -0.1676
  C  C534  1  0.082800  0.105700  0.762900  1.0  0.7137
  C  C535  1  0.217400  0.849000  0.635000  1.0  -0.0194
  C  C536  1  0.239600  0.817800  0.628100  1.0  -0.0431
  C  C537  1  0.294600  0.782500  0.661500  1.0  0.1469
  C  C538  1  0.319200  0.781500  0.692900  1.0  -0.1097
  C  C539  1  0.348300  0.753500  0.699500  1.0  -0.043
  C  C540  1  0.352800  0.726600  0.674700  1.0  -0.1358
  C  C541  1  0.328300  0.727600  0.643300  1.0  -0.0599
  C  C542  1  0.299200  0.755600  0.636700  1.0  -0.2005
  C  C543  1  0.385600  0.697100  0.678500  1.0  0.7065
  C  C544  1  0.876800  0.964700  0.346200  1.0  0.7161
  C  C545  1  0.889400  0.990100  0.318100  1.0  -0.1196
  C  C546  1  0.858500  0.015200  0.306800  1.0  -0.0408
  C  C547  1  0.869100  0.037500  0.278600  1.0  -0.1564
  C  C548  1  0.910600  0.034700  0.261800  1.0  0.1847
  C  C549  1  0.941500  0.009500  0.273200  1.0  -0.1409
  C  C550  1  0.930900  0.987300  0.301300  1.0  -0.0332
  C  C551  1  0.904400  0.089400  0.224000  1.0  -0.0532
  C  C552  1  0.927300  0.099000  0.195900  1.0  0.2614
  C  C553  1  0.923300  0.130700  0.174600  1.0  0.0081
  C  C554  1  0.896600  0.158700  0.185600  1.0  -0.0808
  C  C555  1  0.891700  0.188300  0.164200  1.0  0.0733
  C  C556  1  0.913700  0.189900  0.131600  1.0  0.0057
  C  C557  1  0.940400  0.161900  0.120500  1.0  0.0927
  C  C558  1  0.945300  0.132300  0.142000  1.0  -0.0838
  C  C559  1  0.843500  0.244600  0.153500  1.0  -0.0054
  C  C560  1  0.859800  0.217300  0.173300  1.0  -0.0196
  C  C561  1  0.795300  0.296500  0.168000  1.0  0.1734
  C  C562  1  0.797900  0.314400  0.135900  1.0  -0.0706
  C  C563  1  0.768300  0.341800  0.128600  1.0  -0.0957
  C  C564  1  0.735900  0.351400  0.153500  1.0  -0.1507
  C  C565  1  0.733300  0.333400  0.185700  1.0  -0.0791
  C  C566  1  0.762900  0.306000  0.192900  1.0  -0.1568
  C  C567  1  0.711500  0.384100  0.145300  1.0  0.5816
  C  C568  1  0.962900  0.164600  0.084200  1.0  0.2278
  C  C569  1  0.987400  0.142300  0.067500  1.0  -0.0491
  C  C570  1  0.026900  0.145200  0.009400  1.0  0.1462
  C  C571  1  0.033100  0.166300  0.979600  1.0  -0.0752
  C  C572  1  0.060500  0.154900  0.952000  1.0  -0.0144
  C  C573  1  0.081800  0.122300  0.954200  1.0  -0.1345
  C  C574  1  0.075600  0.101100  0.984000  1.0  -0.0839
  C  C575  1  0.048100  0.112600  0.011600  1.0  -0.1427
  C  C576  1  0.108300  0.108800  0.924900  1.0  0.7166
  C  C577  1  0.492600  0.641200  0.648800  1.0  0.69
  C  C578  1  0.522200  0.640000  0.617440  1.0  -0.1341
  C  C579  1  0.550400  0.668000  0.609080  1.0  -0.0313
  C  C580  1  0.577200  0.666667  0.578900  1.0  -0.0925
  C  C581  1  0.575800  0.637000  0.556990  1.0  0.16
  C  C582  1  0.547600  0.609000  0.565400  1.0  -0.1488
  C  C583  1  0.520800  0.610400  0.595600  1.0  -0.0669
  C  C584  1  0.597900  0.617200  0.495600  1.0  -0.0252
  C  C585  1  0.630200  0.629000  0.473500  1.0  0.078
  C  C586  1  0.644200  0.617700  0.439390  1.0  0.1095
  C  C587  1  0.628200  0.586400  0.424800  1.0  -0.1209
  C  C588  1  0.641400  0.576400  0.390800  1.0  -0.0949
  C  C589  1  0.670600  0.597700  0.371490  1.0  -0.0497
  C  C590  1  0.686700  0.628900  0.386100  1.0  -0.0887
  C  C591  1  0.673500  0.638900  0.420100  1.0  -0.0717
  C  C592  1  0.626000  0.540900  0.376000  1.0  0.1503
  C  C593  1  0.630400  0.525800  0.343600  1.0  -0.0237
  C  C594  1  0.600000  0.471200  0.317860  1.0  0.2105
  C  C595  1  0.562400  0.449300  0.318120  1.0  -0.1198
  C  C596  1  0.557500  0.423500  0.292200  1.0  -0.0639
  C  C597  1  0.590000  0.419500  0.266000  1.0  -0.1528
  C  C598  1  0.627600  0.441400  0.265800  1.0  -0.0198
  C  C599  1  0.632600  0.467200  0.291700  1.0  -0.1674
  C  C600  1  0.582800  0.394300  0.237100  1.0  0.7136
  C  C601  1  0.717400  0.651000  0.365000  1.0  -0.0243
  C  C602  1  0.739600  0.682200  0.371900  1.0  -0.0491
  C  C603  1  0.794600  0.717500  0.338500  1.0  0.1472
  C  C604  1  0.819200  0.718500  0.307100  1.0  -0.1121
  C  C605  1  0.848300  0.746500  0.300500  1.0  -0.0446
  C  C606  1  0.852800  0.773400  0.325300  1.0  -0.1328
  C  C607  1  0.828300  0.772400  0.356700  1.0  -0.0587
  C  C608  1  0.799200  0.744400  0.363300  1.0  -0.2038
  C  C609  1  0.885600  0.802900  0.321500  1.0  0.7059
  C  C610  1  0.376800  0.535300  0.653800  1.0  0.7169
  C  C611  1  0.389400  0.509900  0.681900  1.0  -0.1165
  C  C612  1  0.358500  0.484800  0.693200  1.0  -0.039
  C  C613  1  0.369100  0.462500  0.721400  1.0  -0.1559
  C  C614  1  0.410600  0.465300  0.738200  1.0  0.1831
  C  C615  1  0.441500  0.490500  0.726800  1.0  -0.1412
  C  C616  1  0.430900  0.512700  0.698700  1.0  -0.0329
  C  C617  1  0.404400  0.410600  0.776000  1.0  -0.0523
  C  C618  1  0.427300  0.401000  0.804100  1.0  0.2602
  C  C619  1  0.423300  0.369300  0.825400  1.0  0.0078
  C  C620  1  0.396600  0.341300  0.814400  1.0  -0.0808
  C  C621  1  0.391700  0.311700  0.835800  1.0  0.0712
  C  C622  1  0.413700  0.310100  0.868400  1.0  0.0065
  C  C623  1  0.440400  0.338100  0.879500  1.0  0.0923
  C  C624  1  0.445300  0.367700  0.858000  1.0  -0.0847
  C  C625  1  0.343500  0.255400  0.846500  1.0  -0.0056
  C  C626  1  0.359800  0.282700  0.826700  1.0  -0.0278
  C  C627  1  0.295300  0.203500  0.832000  1.0  0.1737
  C  C628  1  0.297900  0.185600  0.864100  1.0  -0.071
  C  C629  1  0.268300  0.158200  0.871400  1.0  -0.0982
  C  C630  1  0.235900  0.148600  0.846500  1.0  -0.1528
  C  C631  1  0.233300  0.166600  0.814300  1.0  -0.0782
  C  C632  1  0.262900  0.194000  0.807100  1.0  -0.1576
  C  C633  1  0.211500  0.115900  0.854700  1.0  0.5819
  C  C634  1  0.462900  0.335400  0.915800  1.0  0.2253
  C  C635  1  0.487400  0.357700  0.932500  1.0  -0.0492
  C  C636  1  0.526900  0.354800  0.990600  1.0  0.1467
  C  C637  1  0.533100  0.333700  0.020400  1.0  -0.073
  C  C638  1  0.560500  0.345100  0.048000  1.0  -0.0148
  C  C639  1  0.581800  0.377700  0.045800  1.0  -0.1357
  C  C640  1  0.575600  0.398900  0.016000  1.0  -0.0849
  C  C641  1  0.548100  0.387400  0.988400  1.0  -0.1403
  C  C642  1  0.608300  0.391200  0.075100  1.0  0.7162
  C  C643  1  0.992600  0.141200  0.648800  1.0  0.69
  C  C644  1  0.022200  0.140000  0.617440  1.0  -0.1343
  C  C645  1  0.050400  0.168000  0.609080  1.0  -0.0338
  C  C646  1  0.077200  0.166600  0.578900  1.0  -0.0874
  C  C647  1  0.075800  0.137000  0.556990  1.0  0.1595
  C  C648  1  0.047600  0.109000  0.565400  1.0  -0.1486
  C  C649  1  0.020800  0.110400  0.595600  1.0  -0.0668
  C  C650  1  0.097900  0.117200  0.495600  1.0  -0.0252
  C  C651  1  0.130200  0.129000  0.473500  1.0  0.078
  C  C652  1  0.144200  0.117700  0.439390  1.0  0.1095
  C  C653  1  0.128200  0.086400  0.424800  1.0  -0.1209
  C  C654  1  0.141400  0.076400  0.390800  1.0  -0.0949
  C  C655  1  0.170600  0.097700  0.371490  1.0  -0.0473
  C  C656  1  0.186700  0.128900  0.386100  1.0  -0.0887
  C  C657  1  0.173500  0.138900  0.420100  1.0  -0.0716
  C  C658  1  0.126000  0.040900  0.376000  1.0  0.1503
  C  C659  1  0.130400  0.025800  0.343600  1.0  -0.0237
  C  C660  1  0.100000  0.971200  0.317860  1.0  0.2105
  C  C661  1  0.062400  0.949300  0.318120  1.0  -0.1198
  C  C662  1  0.057500  0.923500  0.292200  1.0  -0.0639
  C  C663  1  0.090000  0.919500  0.266000  1.0  -0.1528
  C  C664  1  0.127600  0.941400  0.265800  1.0  -0.0198
  C  C665  1  0.132600  0.967200  0.291700  1.0  -0.1674
  C  C666  1  0.082800  0.894300  0.237100  1.0  0.7136
  C  C667  1  0.217400  0.151000  0.365000  1.0  -0.0191
  C  C668  1  0.239600  0.182200  0.371900  1.0  -0.0433
  C  C669  1  0.294600  0.217500  0.338500  1.0  0.1451
  C  C670  1  0.319200  0.218500  0.307100  1.0  -0.1121
  C  C671  1  0.348300  0.246500  0.300500  1.0  -0.0446
  C  C672  1  0.352800  0.273400  0.325300  1.0  -0.1328
  C  C673  1  0.328300  0.272400  0.356700  1.0  -0.0587
  C  C674  1  0.299200  0.244400  0.363300  1.0  -0.2038
  C  C675  1  0.385600  0.302900  0.321500  1.0  0.7059
  C  C676  1  0.876800  0.035300  0.653800  1.0  0.7169
  C  C677  1  0.889400  0.009900  0.681900  1.0  -0.1165
  C  C678  1  0.858500  0.984800  0.693200  1.0  -0.039
  C  C679  1  0.869100  0.962500  0.721400  1.0  -0.1559
  C  C680  1  0.910600  0.965300  0.738200  1.0  0.1831
  C  C681  1  0.941500  0.990500  0.726800  1.0  -0.1412
  C  C682  1  0.930900  0.012700  0.698700  1.0  -0.0329
  C  C683  1  0.904400  0.910600  0.776000  1.0  -0.0523
  C  C684  1  0.927300  0.901000  0.804100  1.0  0.2602
  C  C685  1  0.923300  0.869300  0.825400  1.0  0.0078
  C  C686  1  0.896600  0.841300  0.814400  1.0  -0.0808
  C  C687  1  0.891700  0.811700  0.835800  1.0  0.0712
  C  C688  1  0.913700  0.810100  0.868400  1.0  0.0065
  C  C689  1  0.940400  0.838100  0.879500  1.0  0.0923
  C  C690  1  0.945300  0.867700  0.858000  1.0  -0.0847
  C  C691  1  0.843500  0.755400  0.846500  1.0  -0.0063
  C  C692  1  0.859800  0.782700  0.826700  1.0  -0.0223
  C  C693  1  0.795300  0.703500  0.832000  1.0  0.1745
  C  C694  1  0.797900  0.685600  0.864100  1.0  -0.0723
  C  C695  1  0.768300  0.658200  0.871400  1.0  -0.1021
  C  C696  1  0.735900  0.648600  0.846500  1.0  -0.1532
  C  C697  1  0.733300  0.666667  0.814300  1.0  -0.0827
  C  C698  1  0.762900  0.694000  0.807100  1.0  -0.1591
  C  C699  1  0.711500  0.615900  0.854700  1.0  0.6091
  C  C700  1  0.962900  0.835400  0.915800  1.0  0.2253
  C  C701  1  0.987400  0.857700  0.932500  1.0  -0.0492
  C  C702  1  0.026900  0.854800  0.990600  1.0  0.1467
  C  C703  1  0.033100  0.833700  0.020400  1.0  -0.073
  C  C704  1  0.060500  0.845100  0.048000  1.0  -0.0148
  C  C705  1  0.081800  0.877700  0.045800  1.0  -0.1357
  C  C706  1  0.075600  0.898900  0.016000  1.0  -0.0849
  C  C707  1  0.048100  0.887400  0.988400  1.0  -0.1403
  C  C708  1  0.108300  0.891200  0.075100  1.0  0.7162
  C  C709  1  0.507400  0.358800  0.148800  1.0  0.6906
  C  C710  1  0.477800  0.360000  0.117440  1.0  -0.1339
  C  C711  1  0.449600  0.332000  0.109080  1.0  -0.0353
  C  C712  1  0.422800  0.333400  0.078900  1.0  -0.0859
  C  C713  1  0.424200  0.363000  0.056990  1.0  0.1614
  C  C714  1  0.452400  0.391000  0.065400  1.0  -0.1476
  C  C715  1  0.479200  0.389600  0.095600  1.0  -0.0665
  C  C716  1  0.402100  0.382800  0.995600  1.0  -0.0265
  C  C717  1  0.369800  0.371000  0.973500  1.0  0.0791
  C  C718  1  0.355800  0.382300  0.939390  1.0  0.1101
  C  C719  1  0.371800  0.413600  0.924800  1.0  -0.1204
  C  C720  1  0.358600  0.423600  0.890800  1.0  -0.0948
  C  C721  1  0.329400  0.402300  0.871490  1.0  -0.0502
  C  C722  1  0.313300  0.371100  0.886100  1.0  -0.0904
  C  C723  1  0.326500  0.361100  0.920100  1.0  -0.0724
  C  C724  1  0.374000  0.459100  0.876000  1.0  0.1497
  C  C725  1  0.369600  0.474200  0.843600  1.0  -0.0242
  C  C726  1  0.400000  0.528800  0.817860  1.0  0.209
  C  C727  1  0.437600  0.550700  0.818120  1.0  -0.1209
  C  C728  1  0.442500  0.576500  0.792200  1.0  -0.0636
  C  C729  1  0.410000  0.580500  0.766000  1.0  -0.1522
  C  C730  1  0.372400  0.558600  0.765800  1.0  -0.0212
  C  C731  1  0.367400  0.532800  0.791700  1.0  -0.1697
  C  C732  1  0.417200  0.605700  0.737100  1.0  0.7131
  C  C733  1  0.282600  0.349000  0.865000  1.0  -0.0263
  C  C734  1  0.260400  0.317800  0.871900  1.0  -0.0481
  C  C735  1  0.205400  0.282500  0.838500  1.0  0.1479
  C  C736  1  0.180800  0.281500  0.807100  1.0  -0.1102
  C  C737  1  0.151700  0.253500  0.800500  1.0  -0.0433
  C  C738  1  0.147200  0.226600  0.825300  1.0  -0.133
  C  C739  1  0.171700  0.227600  0.856700  1.0  -0.0583
  C  C740  1  0.200800  0.255600  0.863300  1.0  -0.2016
  C  C741  1  0.114400  0.197100  0.821500  1.0  0.7051
  C  C742  1  0.623200  0.464700  0.153800  1.0  0.7173
  C  C743  1  0.610600  0.490100  0.181900  1.0  -0.1177
  C  C744  1  0.641500  0.515200  0.193200  1.0  -0.0378
  C  C745  1  0.630900  0.537500  0.221400  1.0  -0.1543
  C  C746  1  0.589400  0.534700  0.238200  1.0  0.1842
  C  C747  1  0.558500  0.509500  0.226800  1.0  -0.1424
  C  C748  1  0.569100  0.487300  0.198700  1.0  -0.0317
  C  C749  1  0.595600  0.589400  0.276000  1.0  -0.0525
  C  C750  1  0.572700  0.599000  0.304100  1.0  0.261
  C  C751  1  0.576700  0.630700  0.325400  1.0  0.0064
  C  C752  1  0.603400  0.658700  0.314400  1.0  -0.0818
  C  C753  1  0.608300  0.688300  0.335800  1.0  0.0757
  C  C754  1  0.586300  0.689900  0.368400  1.0  0.0077
  C  C755  1  0.559600  0.661900  0.379500  1.0  0.0898
  C  C756  1  0.554700  0.632300  0.358000  1.0  -0.0849
  C  C757  1  0.656500  0.744600  0.346500  1.0  -0.0045
  C  C758  1  0.640200  0.717300  0.326700  1.0  -0.026
  C  C759  1  0.704700  0.796500  0.332000  1.0  0.1742
  C  C760  1  0.702100  0.814400  0.364100  1.0  -0.0721
  C  C761  1  0.731700  0.841800  0.371400  1.0  -0.0958
  C  C762  1  0.764100  0.851400  0.346500  1.0  -0.1488
  C  C763  1  0.766700  0.833400  0.314300  1.0  -0.0768
  C  C764  1  0.737100  0.806000  0.307100  1.0  -0.1536
  C  C765  1  0.788500  0.884100  0.354700  1.0  0.5827
  C  C766  1  0.537100  0.664600  0.415800  1.0  0.2268
  C  C767  1  0.512600  0.642300  0.432500  1.0  -0.0495
  C  C768  1  0.473100  0.645200  0.490600  1.0  0.1474
  C  C769  1  0.466900  0.666300  0.520400  1.0  -0.0694
  C  C770  1  0.439500  0.654900  0.548000  1.0  -0.0157
  C  C771  1  0.418200  0.622300  0.545800  1.0  -0.134
  C  C772  1  0.424400  0.601100  0.516000  1.0  -0.082
  C  C773  1  0.451900  0.612600  0.488400  1.0  -0.1418
  C  C774  1  0.391700  0.608800  0.575100  1.0  0.7169
  C  C775  1  0.007400  0.858800  0.148800  1.0  0.6906
  C  C776  1  0.977800  0.860000  0.117440  1.0  -0.1339
  C  C777  1  0.949600  0.832000  0.109080  1.0  -0.0353
  C  C778  1  0.922800  0.833400  0.078900  1.0  -0.0859
  C  C779  1  0.924200  0.863000  0.056990  1.0  0.1614
  C  C780  1  0.952400  0.891000  0.065400  1.0  -0.1476
  C  C781  1  0.979200  0.889600  0.095600  1.0  -0.0665
  C  C782  1  0.902100  0.882800  0.995600  1.0  -0.0265
  C  C783  1  0.869800  0.871000  0.973500  1.0  0.0791
  C  C784  1  0.855800  0.882300  0.939390  1.0  0.115
  C  C785  1  0.871800  0.913600  0.924800  1.0  -0.1204
  C  C786  1  0.858600  0.923600  0.890800  1.0  -0.0948
  C  C787  1  0.829400  0.902300  0.871490  1.0  -0.0484
  C  C788  1  0.813300  0.871100  0.886100  1.0  -0.0935
  C  C789  1  0.826500  0.861100  0.920100  1.0  -0.0739
  C  C790  1  0.874000  0.959100  0.876000  1.0  0.1497
  C  C791  1  0.869600  0.974200  0.843600  1.0  -0.0242
  C  C792  1  0.900000  0.028800  0.817860  1.0  0.2088
  C  C793  1  0.937600  0.050700  0.818120  1.0  -0.1209
  C  C794  1  0.942500  0.076500  0.792200  1.0  -0.0636
  C  C795  1  0.910000  0.080500  0.766000  1.0  -0.1522
  C  C796  1  0.872400  0.058600  0.765800  1.0  -0.0212
  C  C797  1  0.867400  0.032800  0.791700  1.0  -0.1698
  C  C798  1  0.917200  0.105700  0.737100  1.0  0.7131
  C  C799  1  0.782600  0.849000  0.865000  1.0  -0.0195
  C  C800  1  0.760400  0.817800  0.871900  1.0  -0.0432
  C  C801  1  0.705400  0.782500  0.838500  1.0  0.1453
  C  C802  1  0.680800  0.781500  0.807100  1.0  -0.1102
  C  C803  1  0.651700  0.753500  0.800500  1.0  -0.0433
  C  C804  1  0.647200  0.726600  0.825300  1.0  -0.1361
  C  C805  1  0.671700  0.727600  0.856700  1.0  -0.0585
  C  C806  1  0.700800  0.755600  0.863300  1.0  -0.2016
  C  C807  1  0.614400  0.697100  0.821500  1.0  0.7051
  C  C808  1  0.123200  0.964700  0.153800  1.0  0.7173
  C  C809  1  0.110600  0.990100  0.181900  1.0  -0.1177
  C  C810  1  0.141500  0.015200  0.193200  1.0  -0.0378
  C  C811  1  0.130900  0.037500  0.221400  1.0  -0.1543
  C  C812  1  0.089400  0.034700  0.238200  1.0  0.1842
  C  C813  1  0.058500  0.009500  0.226800  1.0  -0.1424
  C  C814  1  0.069100  0.987300  0.198700  1.0  -0.0317
  C  C815  1  0.095600  0.089400  0.276000  1.0  -0.0525
  C  C816  1  0.072700  0.099000  0.304100  1.0  0.261
  C  C817  1  0.076700  0.130700  0.325400  1.0  0.0064
  C  C818  1  0.103400  0.158700  0.314400  1.0  -0.0818
  C  C819  1  0.108300  0.188300  0.335800  1.0  0.0757
  C  C820  1  0.086300  0.189900  0.368400  1.0  0.0077
  C  C821  1  0.059600  0.161900  0.379500  1.0  0.0898
  C  C822  1  0.054700  0.132300  0.358000  1.0  -0.0849
  C  C823  1  0.156500  0.244600  0.346500  1.0  -0.0039
  C  C824  1  0.140200  0.217300  0.326700  1.0  -0.0204
  C  C825  1  0.204700  0.296500  0.332000  1.0  0.1742
  C  C826  1  0.202100  0.314400  0.364100  1.0  -0.0695
  C  C827  1  0.231700  0.341800  0.371400  1.0  -0.0958
  C  C828  1  0.264100  0.351400  0.346500  1.0  -0.1488
  C  C829  1  0.266700  0.333400  0.314300  1.0  -0.0768
  C  C830  1  0.237100  0.306000  0.307100  1.0  -0.1536
  C  C831  1  0.288500  0.384100  0.354700  1.0  0.5827
  C  C832  1  0.037100  0.164600  0.415800  1.0  0.2268
  C  C833  1  0.012600  0.142300  0.432500  1.0  -0.0495
  C  C834  1  0.973100  0.145200  0.490600  1.0  0.1474
  C  C835  1  0.966900  0.166300  0.520400  1.0  -0.0721
  C  C836  1  0.939500  0.154900  0.548000  1.0  -0.0157
  C  C837  1  0.918200  0.122300  0.545800  1.0  -0.134
  C  C838  1  0.924400  0.101100  0.516000  1.0  -0.082
  C  C839  1  0.951900  0.112600  0.488400  1.0  -0.1418
  C  C840  1  0.891700  0.108800  0.575100  1.0  0.7169
  N  N841  1  0.398100  0.634700  0.973380  1.0  0.1436
  N  N842  1  0.345900  0.653900  0.009200  1.0  -0.2782
  N  N843  1  0.363300  0.657300  0.976400  1.0  -0.2384
  N  N844  1  0.402800  0.521000  0.104700  1.0  -0.2557
  N  N845  1  0.416300  0.493600  0.125100  1.0  -0.2094
  N  N846  1  0.395800  0.496600  0.157100  1.0  0.1276
  N  N847  1  0.233400  0.689700  0.156900  1.0  0.1419
  N  N848  1  0.238900  0.663200  0.181400  1.0  -0.2627
  N  N849  1  0.269300  0.639300  0.168000  1.0  -0.2604
  N  N850  1  0.579300  0.440800  0.735100  1.0  0.1037
  N  N851  1  0.542200  0.425200  0.689600  1.0  -0.168
  N  N852  1  0.546200  0.449900  0.713900  1.0  -0.1825
  N  N853  1  0.658100  0.280200  0.706500  1.0  -0.2328
  N  N854  1  0.685600  0.251400  0.707200  1.0  -0.2189
  N  N855  1  0.684500  0.236100  0.674500  1.0  0.1502
  N  N856  1  0.500800  0.343600  0.538000  1.0  0.0842
  N  N857  1  0.517900  0.312600  0.536500  1.0  -0.1707
  N  N858  1  0.540500  0.307600  0.565100  1.0  -0.1657
  N  N859  1  0.898100  0.134700  0.973380  1.0  0.1437
  N  N860  1  0.845900  0.153900  0.009200  1.0  -0.2782
  N  N861  1  0.863300  0.157300  0.976400  1.0  -0.2384
  N  N862  1  0.902800  0.021000  0.104700  1.0  -0.2557
  N  N863  1  0.916300  0.993600  0.125100  1.0  -0.2094
  N  N864  1  0.895800  0.996600  0.157100  1.0  0.1276
  N  N865  1  0.733400  0.189700  0.156900  1.0  0.1421
  N  N866  1  0.738900  0.163200  0.181400  1.0  -0.266
  N  N867  1  0.769300  0.139300  0.168000  1.0  -0.2619
  N  N868  1  0.079300  0.940800  0.735100  1.0  0.1037
  N  N869  1  0.042200  0.925200  0.689600  1.0  -0.168
  N  N870  1  0.046200  0.949900  0.713900  1.0  -0.1825
  N  N871  1  0.158100  0.780200  0.706500  1.0  -0.234
  N  N872  1  0.185600  0.751400  0.707200  1.0  -0.2181
  N  N873  1  0.184500  0.736100  0.674500  1.0  0.1439
  N  N874  1  0.000800  0.843600  0.538000  1.0  0.082
  N  N875  1  0.017900  0.812600  0.536500  1.0  -0.173
  N  N876  1  0.040500  0.807600  0.565100  1.0  -0.1659
  N  N877  1  0.601900  0.365300  0.473380  1.0  0.1447
  N  N878  1  0.654100  0.346100  0.509200  1.0  -0.2793
  N  N879  1  0.636700  0.342700  0.476400  1.0  -0.2399
  N  N880  1  0.597200  0.479000  0.604700  1.0  -0.257
  N  N881  1  0.583700  0.506400  0.625100  1.0  -0.2084
  N  N882  1  0.604200  0.503400  0.657100  1.0  0.1297
  N  N883  1  0.766600  0.310300  0.656900  1.0  0.1419
  N  N884  1  0.761100  0.336800  0.681400  1.0  -0.2553
  N  N885  1  0.730700  0.360700  0.668000  1.0  -0.2603
  N  N886  1  0.420700  0.559200  0.235100  1.0  0.1033
  N  N887  1  0.457800  0.574800  0.189600  1.0  -0.1711
  N  N888  1  0.453800  0.550100  0.213900  1.0  -0.1857
  N  N889  1  0.341900  0.719800  0.206500  1.0  -0.2304
  N  N890  1  0.314400  0.748600  0.207200  1.0  -0.2185
  N  N891  1  0.315500  0.763900  0.174500  1.0  0.151
  N  N892  1  0.499200  0.656400  0.038000  1.0  0.0837
  N  N893  1  0.482100  0.687400  0.036500  1.0  -0.1666
  N  N894  1  0.459500  0.692400  0.065100  1.0  -0.1661
  N  N895  1  0.101900  0.865300  0.473380  1.0  0.1447
  N  N896  1  0.154100  0.846100  0.509200  1.0  -0.2793
  N  N897  1  0.136700  0.842700  0.476400  1.0  -0.2399
  N  N898  1  0.097200  0.979000  0.604700  1.0  -0.257
  N  N899  1  0.083700  0.006400  0.625100  1.0  -0.2084
  N  N900  1  0.104200  0.003400  0.657100  1.0  0.1297
  N  N901  1  0.266600  0.810300  0.656900  1.0  0.1415
  N  N902  1  0.261100  0.836800  0.681400  1.0  -0.2597
  N  N903  1  0.230700  0.860700  0.668000  1.0  -0.2617
  N  N904  1  0.920700  0.059200  0.235100  1.0  0.1033
  N  N905  1  0.957800  0.074800  0.189600  1.0  -0.1711
  N  N906  1  0.953800  0.050100  0.213900  1.0  -0.1857
  N  N907  1  0.841900  0.219800  0.206500  1.0  -0.2313
  N  N908  1  0.814400  0.248600  0.207200  1.0  -0.2176
  N  N909  1  0.815500  0.263900  0.174500  1.0  0.1445
  N  N910  1  0.999200  0.156400  0.038000  1.0  0.0795
  N  N911  1  0.982100  0.187400  0.036500  1.0  -0.1724
  N  N912  1  0.959500  0.192400  0.065100  1.0  -0.1624
  N  N913  1  0.601900  0.634700  0.526620  1.0  0.1449
  N  N914  1  0.654100  0.653900  0.490800  1.0  -0.2825
  N  N915  1  0.636700  0.657300  0.523600  1.0  -0.2397
  N  N916  1  0.597200  0.521000  0.395300  1.0  -0.253
  N  N917  1  0.583700  0.493600  0.374900  1.0  -0.2074
  N  N918  1  0.604200  0.496600  0.342900  1.0  0.13
  N  N919  1  0.766600  0.689700  0.343100  1.0  0.1407
  N  N920  1  0.761100  0.663200  0.318600  1.0  -0.2555
  N  N921  1  0.730700  0.639300  0.332000  1.0  -0.2591
  N  N922  1  0.420700  0.440800  0.764900  1.0  0.1029
  N  N923  1  0.457800  0.425200  0.810400  1.0  -0.1716
  N  N924  1  0.453800  0.449900  0.786100  1.0  -0.1851
  N  N925  1  0.341900  0.280200  0.793500  1.0  -0.2316
  N  N926  1  0.314400  0.251400  0.792800  1.0  -0.2209
  N  N927  1  0.315500  0.236100  0.825500  1.0  0.1511
  N  N928  1  0.499200  0.343600  0.962000  1.0  0.0835
  N  N929  1  0.482100  0.312600  0.963500  1.0  -0.1694
  N  N930  1  0.459500  0.307600  0.934900  1.0  -0.1654
  N  N931  1  0.101900  0.134700  0.526620  1.0  0.1453
  N  N932  1  0.154100  0.153900  0.490800  1.0  -0.2825
  N  N933  1  0.136700  0.157300  0.523600  1.0  -0.2397
  N  N934  1  0.097200  0.021000  0.395300  1.0  -0.253
  N  N935  1  0.083700  0.993600  0.374900  1.0  -0.2074
  N  N936  1  0.104200  0.996600  0.342900  1.0  0.13
  N  N937  1  0.266600  0.189700  0.343100  1.0  0.1402
  N  N938  1  0.261100  0.163200  0.318600  1.0  -0.2599
  N  N939  1  0.230700  0.139300  0.332000  1.0  -0.2594
  N  N940  1  0.920700  0.940800  0.764900  1.0  0.1029
  N  N941  1  0.957800  0.925200  0.810400  1.0  -0.1716
  N  N942  1  0.953800  0.949900  0.786100  1.0  -0.1851
  N  N943  1  0.841900  0.780200  0.793500  1.0  -0.2322
  N  N944  1  0.814400  0.751400  0.792800  1.0  -0.2204
  N  N945  1  0.815500  0.736100  0.825500  1.0  0.1444
  N  N946  1  0.999200  0.843600  0.962000  1.0  0.081
  N  N947  1  0.982100  0.812600  0.963500  1.0  -0.1727
  N  N948  1  0.959500  0.807600  0.934900  1.0  -0.1622
  N  N949  1  0.398100  0.365300  0.026620  1.0  0.1453
  N  N950  1  0.345900  0.346100  0.990800  1.0  -0.2791
  N  N951  1  0.363300  0.342700  0.023600  1.0  -0.2373
  N  N952  1  0.402800  0.479000  0.895300  1.0  -0.2526
  N  N953  1  0.416300  0.506400  0.874900  1.0  -0.2084
  N  N954  1  0.395800  0.503400  0.842900  1.0  0.129
  N  N955  1  0.233400  0.310300  0.843100  1.0  0.143
  N  N956  1  0.238900  0.336800  0.818600  1.0  -0.259
  N  N957  1  0.269300  0.360700  0.832000  1.0  -0.2606
  N  N958  1  0.579300  0.559200  0.264900  1.0  0.1029
  N  N959  1  0.542200  0.574800  0.310400  1.0  -0.1685
  N  N960  1  0.546200  0.550100  0.286100  1.0  -0.1826
  N  N961  1  0.658100  0.719800  0.293500  1.0  -0.2329
  N  N962  1  0.685600  0.748600  0.292800  1.0  -0.2223
  N  N963  1  0.684500  0.763900  0.325500  1.0  0.1512
  N  N964  1  0.500800  0.656400  0.462000  1.0  0.0858
  N  N965  1  0.517900  0.687400  0.463500  1.0  -0.165
  N  N966  1  0.540500  0.692400  0.434900  1.0  -0.1673
  N  N967  1  0.898100  0.865300  0.026620  1.0  0.1453
  N  N968  1  0.845900  0.846100  0.990800  1.0  -0.2791
  N  N969  1  0.863300  0.842700  0.023600  1.0  -0.2373
  N  N970  1  0.902800  0.979000  0.895300  1.0  -0.2526
  N  N971  1  0.916300  0.006400  0.874900  1.0  -0.2084
  N  N972  1  0.895800  0.003400  0.842900  1.0  0.129
  N  N973  1  0.733400  0.810300  0.843100  1.0  0.1434
  N  N974  1  0.738900  0.836800  0.818600  1.0  -0.2647
  N  N975  1  0.769300  0.860700  0.832000  1.0  -0.2616
  N  N976  1  0.079300  0.059200  0.264900  1.0  0.1029
  N  N977  1  0.042200  0.074800  0.310400  1.0  -0.1685
  N  N978  1  0.046200  0.050100  0.286100  1.0  -0.1826
  N  N979  1  0.158100  0.219800  0.293500  1.0  -0.2336
  N  N980  1  0.185600  0.248600  0.292800  1.0  -0.2213
  N  N981  1  0.184500  0.263900  0.325500  1.0  0.1447
  N  N982  1  0.000800  0.156400  0.462000  1.0  0.0819
  N  N983  1  0.017900  0.187400  0.463500  1.0  -0.1693
  N  N984  1  0.040500  0.192400  0.434900  1.0  -0.1664
  O  O985  1  0.391800  0.393600  0.288600  1.0  -0.5905
  O  O986  1  0.535900  0.617100  0.845100  1.0  -0.6329
  O  O987  1  0.115900  0.829800  0.157800  1.0  -0.6627
  O  O988  1  0.387100  0.374200  0.397400  1.0  -0.6197
  O  O989  1  0.824700  0.112400  0.661400  1.0  -0.6769
  O  O990  1  0.501200  0.665700  0.828810  1.0  -0.5985
  O  O991  1  0.367200  0.418200  0.432600  1.0  -0.6195
  O  O992  1  0.600200  0.562500  0.851700  1.0  -0.6284
  O  O993  1  0.660000  0.528800  0.862100  1.0  -0.6203
  O  O994  1  0.449600  0.372000  0.257680  1.0  -0.6023
  O  O995  1  0.088700  0.801100  0.204600  1.0  -0.5885
  O  O996  1  0.782700  0.103700  0.615000  1.0  -0.6074
  O  O997  1  0.891800  0.893600  0.288600  1.0  -0.5905
  O  O998  1  0.035900  0.117100  0.845100  1.0  -0.6329
  O  O999  1  0.615900  0.329800  0.157800  1.0  -0.6627
  O  O1000  1  0.887100  0.874200  0.397400  1.0  -0.6197
  O  O1001  1  0.324700  0.612400  0.661400  1.0  -0.6768
  O  O1002  1  0.001200  0.165700  0.828810  1.0  -0.5985
  O  O1003  1  0.867200  0.918200  0.432600  1.0  -0.6195
  O  O1004  1  0.100200  0.062500  0.851700  1.0  -0.6284
  O  O1005  1  0.160000  0.028800  0.862100  1.0  -0.6185
  O  O1006  1  0.949600  0.872000  0.257680  1.0  -0.6023
  O  O1007  1  0.588700  0.301100  0.204600  1.0  -0.5885
  O  O1008  1  0.282700  0.603700  0.615000  1.0  -0.6063
  O  O1009  1  0.608200  0.606400  0.788600  1.0  -0.5903
  O  O1010  1  0.464100  0.382900  0.345100  1.0  -0.633
  O  O1011  1  0.884100  0.170200  0.657800  1.0  -0.6632
  O  O1012  1  0.612900  0.625800  0.897400  1.0  -0.6205
  O  O1013  1  0.175300  0.887600  0.161400  1.0  -0.6768
  O  O1014  1  0.498800  0.334300  0.328810  1.0  -0.5984
  O  O1015  1  0.632800  0.581800  0.932600  1.0  -0.6238
  O  O1016  1  0.399800  0.437500  0.351700  1.0  -0.6307
  O  O1017  1  0.340000  0.471200  0.362100  1.0  -0.6196
  O  O1018  1  0.550400  0.628000  0.757680  1.0  -0.6052
  O  O1019  1  0.911300  0.198900  0.704600  1.0  -0.5893
  O  O1020  1  0.217300  0.896300  0.115000  1.0  -0.6066
  O  O1021  1  0.108200  0.106400  0.788600  1.0  -0.5903
  O  O1022  1  0.964100  0.882900  0.345100  1.0  -0.633
  O  O1023  1  0.384100  0.670200  0.657800  1.0  -0.6631
  O  O1024  1  0.112900  0.125800  0.897400  1.0  -0.6205
  O  O1025  1  0.675300  0.387600  0.161400  1.0  -0.6768
  O  O1026  1  0.998800  0.834300  0.328810  1.0  -0.5984
  O  O1027  1  0.132800  0.081800  0.932600  1.0  -0.6238
  O  O1028  1  0.899800  0.937500  0.351700  1.0  -0.6307
  O  O1029  1  0.840000  0.971200  0.362100  1.0  -0.6196
  O  O1030  1  0.050400  0.128000  0.757680  1.0  -0.6052
  O  O1031  1  0.411300  0.698900  0.704600  1.0  -0.5893
  O  O1032  1  0.717300  0.396300  0.115000  1.0  -0.6058
  O  O1033  1  0.608200  0.393600  0.211400  1.0  -0.5897
  O  O1034  1  0.464100  0.617100  0.654900  1.0  -0.6328
  O  O1035  1  0.884100  0.829800  0.342200  1.0  -0.6633
  O  O1036  1  0.612900  0.374200  0.102600  1.0  -0.6192
  O  O1037  1  0.175300  0.112400  0.838600  1.0  -0.6745
  O  O1038  1  0.498800  0.665700  0.671190  1.0  -0.5999
  O  O1039  1  0.632800  0.418200  0.067400  1.0  -0.6217
  O  O1040  1  0.399800  0.562500  0.648300  1.0  -0.6293
  O  O1041  1  0.340000  0.528800  0.637900  1.0  -0.6172
  O  O1042  1  0.550400  0.372000  0.242320  1.0  -0.6041
  O  O1043  1  0.911300  0.801100  0.295400  1.0  -0.588
  O  O1044  1  0.217300  0.103700  0.885000  1.0  -0.6037
  O  O1045  1  0.108200  0.893600  0.211400  1.0  -0.5897
  O  O1046  1  0.964100  0.117100  0.654900  1.0  -0.6328
  O  O1047  1  0.384100  0.329800  0.342200  1.0  -0.6633
  O  O1048  1  0.112900  0.874200  0.102600  1.0  -0.6192
  O  O1049  1  0.675300  0.612400  0.838600  1.0  -0.6744
  O  O1050  1  0.998800  0.165700  0.671190  1.0  -0.5999
  O  O1051  1  0.132800  0.918200  0.067400  1.0  -0.6217
  O  O1052  1  0.899800  0.062500  0.648300  1.0  -0.6293
  O  O1053  1  0.840000  0.028800  0.637900  1.0  -0.6172
  O  O1054  1  0.050400  0.872000  0.242320  1.0  -0.6041
  O  O1055  1  0.411300  0.301100  0.295400  1.0  -0.588
  O  O1056  1  0.717300  0.603700  0.885000  1.0  -0.602
  O  O1057  1  0.391800  0.606400  0.711400  1.0  -0.5893
  O  O1058  1  0.535900  0.382900  0.154900  1.0  -0.633
  O  O1059  1  0.115900  0.170200  0.842200  1.0  -0.6635
  O  O1060  1  0.387100  0.625800  0.602600  1.0  -0.6188
  O  O1061  1  0.824700  0.887600  0.338600  1.0  -0.6754
  O  O1062  1  0.501200  0.334300  0.171190  1.0  -0.5984
  O  O1063  1  0.367200  0.581800  0.567400  1.0  -0.6185
  O  O1064  1  0.600200  0.437500  0.148300  1.0  -0.6283
  O  O1065  1  0.660000  0.471200  0.137900  1.0  -0.6206
  O  O1066  1  0.449600  0.628000  0.742320  1.0  -0.6047
  O  O1067  1  0.088700  0.198900  0.795400  1.0  -0.5885
  O  O1068  1  0.782700  0.896300  0.385000  1.0  -0.6058
  O  O1069  1  0.891800  0.106400  0.711400  1.0  -0.5893
  O  O1070  1  0.035900  0.882900  0.154900  1.0  -0.633
  O  O1071  1  0.615900  0.670200  0.842200  1.0  -0.6634
  O  O1072  1  0.887100  0.125800  0.602600  1.0  -0.6188
  O  O1073  1  0.324700  0.387600  0.338600  1.0  -0.6754
  O  O1074  1  0.001200  0.834300  0.171190  1.0  -0.5984
  O  O1075  1  0.867200  0.081800  0.567400  1.0  -0.6185
  O  O1076  1  0.100200  0.937500  0.148300  1.0  -0.6283
  O  O1077  1  0.160000  0.971200  0.137900  1.0  -0.6176
  O  O1078  1  0.949600  0.128000  0.742320  1.0  -0.6047
  O  O1079  1  0.588700  0.698900  0.795400  1.0  -0.5885
  O  O1080  1  0.282700  0.396300  0.385000  1.0  -0.6054
  O  O1081  1  0.500000  0.697600  0.750000  1.0  -0.6601
  O  O1082  1  0.000000  0.197600  0.750000  1.0  -0.6601
  O  O1083  1  0.500000  0.302400  0.250000  1.0  -0.6693
  O  O1084  1  0.000000  0.802400  0.250000  1.0  -0.6693
