# generated using pymatgen
data_CoAgPH30C42(N3F2)3
_symmetry_space_group_name_H-M   'P 1'
_cell_length_a   12.62720000
_cell_length_b   26.84700000
_cell_length_c   33.43800000
_cell_angle_alpha   90.00000000
_cell_angle_beta   90.00000000
_cell_angle_gamma   90.00000000
_symmetry_Int_Tables_number   1
_chemical_formula_structural   CoAgPH30C42(N3F2)3
_chemical_formula_sum   'Co8 Ag8 P8 H240 C336 N72 F48'
_cell_volume   11335.56353522
_cell_formula_units_Z   8
loop_
 _symmetry_equiv_pos_site_id
 _symmetry_equiv_pos_as_xyz
  1  'x, y, z'
loop_
 _atom_site_type_symbol
 _atom_site_label
 _atom_site_symmetry_multiplicity
 _atom_site_fract_x
 _atom_site_fract_y
 _atom_site_fract_z
 _atom_site_occupancy
 _atom_site_charge
  Co  Co1  1  0.025320  0.567660  0.387020  1.0  0.36
  Co  Co2  1  0.474680  0.067660  0.612980  1.0  0.3601
  Co  Co3  1  0.525320  0.067660  0.112980  1.0  0.3602
  Co  Co4  1  0.974680  0.567660  0.887020  1.0  0.3599
  Co  Co5  1  0.474680  0.932340  0.887020  1.0  0.3604
  Co  Co6  1  0.025320  0.432340  0.112980  1.0  0.3614
  Co  Co7  1  0.974680  0.432340  0.612980  1.0  0.361
  Co  Co8  1  0.525320  0.932340  0.387020  1.0  0.3608
  Ag  Ag9  1  0.236990  0.219420  0.358660  1.0  0.41
  Ag  Ag10  1  0.263010  0.719420  0.641340  1.0  0.4096
  Ag  Ag11  1  0.736990  0.719420  0.141340  1.0  0.4101
  Ag  Ag12  1  0.763010  0.219420  0.858660  1.0  0.4095
  Ag  Ag13  1  0.263010  0.280580  0.858660  1.0  0.4095
  Ag  Ag14  1  0.236990  0.780580  0.141340  1.0  0.4101
  Ag  Ag15  1  0.763010  0.780580  0.641340  1.0  0.4097
  Ag  Ag16  1  0.736990  0.280580  0.358660  1.0  0.4099
  P  P17  1  0.475290  0.345190  0.374390  1.0  1.6419
  P  P18  1  0.024710  0.154810  0.874390  1.0  1.6414
  P  P19  1  0.475290  0.654810  0.125610  1.0  1.6418
  P  P20  1  0.024710  0.845190  0.625610  1.0  1.6403
  P  P21  1  0.524710  0.654810  0.625610  1.0  1.6411
  P  P22  1  0.975290  0.845190  0.125610  1.0  1.6416
  P  P23  1  0.524710  0.345190  0.874390  1.0  1.6406
  P  P24  1  0.975290  0.154810  0.374390  1.0  1.6421
  H  H25  1  0.796000  0.541800  0.356700  1.0  0.1039
  H  H26  1  0.736500  0.457600  0.334100  1.0  0.1269
  H  H27  1  0.891500  0.400100  0.341200  1.0  0.1277
  H  H28  1  0.285400  0.425900  0.401800  1.0  0.1285
  H  H29  1  0.379500  0.500400  0.428500  1.0  0.118
  H  H30  1  0.253300  0.572400  0.424500  1.0  0.1013
  H  H31  1  0.200500  0.404000  0.320300  1.0  0.1248
  H  H32  1  0.243100  0.321000  0.311000  1.0  0.0911
  H  H33  1  0.053100  0.280600  0.397500  1.0  0.0767
  H  H34  1  0.003900  0.362000  0.409400  1.0  0.1214
  H  H35  1  0.636200  0.007200  0.562000  1.0  0.0988
  H  H36  1  0.663500  0.015800  0.488000  1.0  0.1233
  H  H37  1  0.533000  0.079100  0.464000  1.0  0.1214
  H  H38  1  0.274900  0.205500  0.544000  1.0  0.1215
  H  H39  1  0.246000  0.220000  0.617500  1.0  0.1292
  H  H40  1  0.345300  0.151900  0.653600  1.0  0.1054
  H  H41  1  0.296100  0.084700  0.468000  1.0  0.1359
  H  H42  1  0.231000  0.120800  0.410100  1.0  0.0815
  H  H43  1  0.373500  0.247000  0.434700  1.0  0.0896
  H  H44  1  0.444100  0.214500  0.493200  1.0  0.129
  H  H45  1  0.720900  0.034600  0.165500  1.0  0.1032
  H  H46  1  0.735200  0.047000  0.239700  1.0  0.1268
  H  H47  1  0.568100  0.088100  0.261900  1.0  0.1182
  H  H48  1  0.250000  0.176600  0.177900  1.0  0.1225
  H  H49  1  0.207500  0.178000  0.105900  1.0  0.1171
  H  H50  1  0.347100  0.127300  0.070500  1.0  0.1038
  H  H51  1  0.251700  0.096200  0.237100  1.0  0.1412
  H  H52  1  0.183800  0.134300  0.294300  1.0  0.0876
  H  H53  1  0.434600  0.219000  0.305000  1.0  0.0889
  H  H54  1  0.510100  0.183700  0.247600  1.0  0.1361
  H  H55  1  0.704000  0.041800  0.643300  1.0  0.1035
  H  H56  1  0.763500  0.957600  0.665900  1.0  0.1277
  H  H57  1  0.608500  0.900100  0.658800  1.0  0.1273
  H  H58  1  0.214600  0.925900  0.598200  1.0  0.1279
  H  H59  1  0.120500  0.000400  0.571500  1.0  0.1169
  H  H60  1  0.246700  0.072400  0.575500  1.0  0.1018
  H  H61  1  0.299500  0.904000  0.679700  1.0  0.1254
  H  H62  1  0.256900  0.821000  0.689000  1.0  0.0909
  H  H63  1  0.446900  0.780600  0.602500  1.0  0.0765
  H  H64  1  0.496100  0.862000  0.590600  1.0  0.1218
  H  H65  1  0.863800  0.507200  0.438000  1.0  0.099
  H  H66  1  0.836500  0.515800  0.512000  1.0  0.1243
  H  H67  1  0.967000  0.579100  0.536000  1.0  0.1217
  H  H68  1  0.225100  0.705500  0.456000  1.0  0.1208
  H  H69  1  0.254000  0.720000  0.382500  1.0  0.1287
  H  H70  1  0.154700  0.651900  0.346400  1.0  0.105
  H  H71  1  0.203900  0.584700  0.532000  1.0  0.1368
  H  H72  1  0.269000  0.620800  0.589900  1.0  0.0822
  H  H73  1  0.126500  0.747000  0.565300  1.0  0.0894
  H  H74  1  0.055900  0.714500  0.506800  1.0  0.1296
  H  H75  1  0.779100  0.534600  0.834500  1.0  0.1037
  H  H76  1  0.764800  0.547000  0.760300  1.0  0.1271
  H  H77  1  0.931900  0.588100  0.738100  1.0  0.1182
  H  H78  1  0.250000  0.676600  0.822100  1.0  0.122
  H  H79  1  0.292500  0.678000  0.894100  1.0  0.1175
  H  H80  1  0.152900  0.627300  0.929500  1.0  0.1022
  H  H81  1  0.248300  0.596200  0.762900  1.0  0.1415
  H  H82  1  0.316200  0.634300  0.705700  1.0  0.0888
  H  H83  1  0.065400  0.719000  0.695000  1.0  0.0895
  H  H84  1  0.989900  0.683700  0.752400  1.0  0.1363
  H  H85  1  0.296000  0.041800  0.143300  1.0  0.1037
  H  H86  1  0.236500  0.957600  0.165900  1.0  0.127
  H  H87  1  0.391500  0.900100  0.158800  1.0  0.1278
  H  H88  1  0.785400  0.925900  0.098200  1.0  0.128
  H  H89  1  0.879500  0.000400  0.071500  1.0  0.1188
  H  H90  1  0.753300  0.072400  0.075500  1.0  0.1018
  H  H91  1  0.700500  0.904000  0.179700  1.0  0.1246
  H  H92  1  0.743100  0.821000  0.189000  1.0  0.0906
  H  H93  1  0.553100  0.780600  0.102500  1.0  0.0766
  H  H94  1  0.503900  0.862000  0.090600  1.0  0.1209
  H  H95  1  0.136200  0.507200  0.938000  1.0  0.0985
  H  H96  1  0.163500  0.515800  0.012000  1.0  0.1233
  H  H97  1  0.033000  0.579100  0.036000  1.0  0.1215
  H  H98  1  0.774900  0.705500  0.956000  1.0  0.1219
  H  H99  1  0.746000  0.720000  0.882500  1.0  0.1288
  H  H100  1  0.845300  0.651900  0.846400  1.0  0.1055
  H  H101  1  0.796100  0.584700  0.032000  1.0  0.1359
  H  H102  1  0.731000  0.620800  0.089900  1.0  0.0818
  H  H103  1  0.873500  0.747000  0.065300  1.0  0.0898
  H  H104  1  0.944100  0.714500  0.006800  1.0  0.1291
  H  H105  1  0.220900  0.534600  0.334500  1.0  0.1037
  H  H106  1  0.235200  0.547000  0.260300  1.0  0.1273
  H  H107  1  0.068100  0.588100  0.238100  1.0  0.1185
  H  H108  1  0.750000  0.676600  0.322100  1.0  0.1223
  H  H109  1  0.707500  0.678000  0.394100  1.0  0.1173
  H  H110  1  0.847100  0.627300  0.429500  1.0  0.1035
  H  H111  1  0.751700  0.596200  0.262900  1.0  0.1414
  H  H112  1  0.683800  0.634300  0.205700  1.0  0.0881
  H  H113  1  0.934600  0.719000  0.195000  1.0  0.0893
  H  H114  1  0.010100  0.683700  0.252400  1.0  0.1361
  H  H115  1  0.204000  0.541800  0.856700  1.0  0.1039
  H  H116  1  0.263500  0.457600  0.834100  1.0  0.1277
  H  H117  1  0.108500  0.400100  0.841200  1.0  0.1273
  H  H118  1  0.714600  0.425900  0.901800  1.0  0.1287
  H  H119  1  0.620500  0.500400  0.928500  1.0  0.1171
  H  H120  1  0.746700  0.572400  0.924500  1.0  0.1015
  H  H121  1  0.799500  0.404000  0.820300  1.0  0.1248
  H  H122  1  0.756900  0.321000  0.811000  1.0  0.0908
  H  H123  1  0.946900  0.280600  0.897500  1.0  0.0766
  H  H124  1  0.996100  0.362000  0.909400  1.0  0.122
  H  H125  1  0.363800  0.007200  0.062000  1.0  0.099
  H  H126  1  0.336500  0.015800  0.988000  1.0  0.1243
  H  H127  1  0.467000  0.079100  0.964000  1.0  0.1213
  H  H128  1  0.725100  0.205500  0.044000  1.0  0.1209
  H  H129  1  0.754000  0.220000  0.117500  1.0  0.1287
  H  H130  1  0.654700  0.151900  0.153600  1.0  0.1052
  H  H131  1  0.703900  0.084700  0.968000  1.0  0.1365
  H  H132  1  0.769000  0.120800  0.910100  1.0  0.082
  H  H133  1  0.626500  0.247000  0.934700  1.0  0.089
  H  H134  1  0.555900  0.214500  0.993200  1.0  0.1296
  H  H135  1  0.279100  0.034600  0.665500  1.0  0.1036
  H  H136  1  0.264800  0.047000  0.739700  1.0  0.1271
  H  H137  1  0.431900  0.088100  0.761900  1.0  0.1181
  H  H138  1  0.750000  0.176600  0.677900  1.0  0.1218
  H  H139  1  0.792500  0.178000  0.605900  1.0  0.1177
  H  H140  1  0.652900  0.127300  0.570500  1.0  0.103
  H  H141  1  0.748300  0.096200  0.737100  1.0  0.1413
  H  H142  1  0.816200  0.134300  0.794300  1.0  0.0883
  H  H143  1  0.565400  0.219000  0.805000  1.0  0.089
  H  H144  1  0.489900  0.183700  0.747600  1.0  0.1365
  H  H145  1  0.704000  0.958200  0.856700  1.0  0.1045
  H  H146  1  0.763500  0.042400  0.834100  1.0  0.1282
  H  H147  1  0.608500  0.099900  0.841200  1.0  0.1277
  H  H148  1  0.214600  0.074100  0.901800  1.0  0.1288
  H  H149  1  0.120500  0.999600  0.928500  1.0  0.1173
  H  H150  1  0.246700  0.927600  0.924500  1.0  0.1012
  H  H151  1  0.299500  0.096000  0.820300  1.0  0.125
  H  H152  1  0.256900  0.179000  0.811000  1.0  0.0911
  H  H153  1  0.446900  0.219400  0.897500  1.0  0.0767
  H  H154  1  0.496100  0.138000  0.909400  1.0  0.1214
  H  H155  1  0.863800  0.492800  0.062000  1.0  0.0992
  H  H156  1  0.836500  0.484200  0.988000  1.0  0.1236
  H  H157  1  0.967000  0.420900  0.964000  1.0  0.1211
  H  H158  1  0.225100  0.294500  0.044000  1.0  0.1207
  H  H159  1  0.254000  0.280000  0.117500  1.0  0.1289
  H  H160  1  0.154700  0.348100  0.153600  1.0  0.1047
  H  H161  1  0.203900  0.415300  0.968000  1.0  0.1365
  H  H162  1  0.269000  0.379200  0.910100  1.0  0.0824
  H  H163  1  0.126500  0.253000  0.934700  1.0  0.0887
  H  H164  1  0.055900  0.285500  0.993200  1.0  0.1296
  H  H165  1  0.779100  0.465400  0.665500  1.0  0.104
  H  H166  1  0.764800  0.453000  0.739700  1.0  0.1271
  H  H167  1  0.931900  0.411900  0.761900  1.0  0.1183
  H  H168  1  0.250000  0.323400  0.677900  1.0  0.1216
  H  H169  1  0.292500  0.322000  0.605900  1.0  0.1181
  H  H170  1  0.152900  0.372700  0.570500  1.0  0.1034
  H  H171  1  0.248300  0.403800  0.737100  1.0  0.1418
  H  H172  1  0.316200  0.365700  0.794300  1.0  0.0884
  H  H173  1  0.065400  0.281000  0.805000  1.0  0.0897
  H  H174  1  0.989900  0.316300  0.747600  1.0  0.1367
  H  H175  1  0.796000  0.458200  0.143300  1.0  0.1042
  H  H176  1  0.736500  0.542400  0.165900  1.0  0.1278
  H  H177  1  0.891500  0.599900  0.158800  1.0  0.1278
  H  H178  1  0.285400  0.574100  0.098200  1.0  0.1284
  H  H179  1  0.379500  0.499600  0.071500  1.0  0.1188
  H  H180  1  0.253300  0.427600  0.075500  1.0  0.1016
  H  H181  1  0.200500  0.596000  0.179700  1.0  0.1252
  H  H182  1  0.243100  0.679000  0.189000  1.0  0.0906
  H  H183  1  0.053100  0.719400  0.102500  1.0  0.077
  H  H184  1  0.003900  0.638000  0.090600  1.0  0.121
  H  H185  1  0.636200  0.992800  0.938000  1.0  0.0986
  H  H186  1  0.663500  0.984200  0.012000  1.0  0.1227
  H  H187  1  0.533000  0.920900  0.036000  1.0  0.1209
  H  H188  1  0.274900  0.794500  0.956000  1.0  0.1221
  H  H189  1  0.246000  0.780000  0.882500  1.0  0.1287
  H  H190  1  0.345300  0.848100  0.846400  1.0  0.1057
  H  H191  1  0.296100  0.915300  0.032000  1.0  0.1363
  H  H192  1  0.231000  0.879200  0.089900  1.0  0.0816
  H  H193  1  0.373500  0.753000  0.065300  1.0  0.0892
  H  H194  1  0.444100  0.785500  0.006800  1.0  0.1297
  H  H195  1  0.720900  0.965400  0.334500  1.0  0.1034
  H  H196  1  0.735200  0.953000  0.260300  1.0  0.1273
  H  H197  1  0.568100  0.911900  0.238100  1.0  0.1185
  H  H198  1  0.250000  0.823400  0.322100  1.0  0.1219
  H  H199  1  0.207500  0.822000  0.394100  1.0  0.1179
  H  H200  1  0.347100  0.872700  0.429500  1.0  0.1038
  H  H201  1  0.251700  0.903800  0.262900  1.0  0.1417
  H  H202  1  0.183800  0.865700  0.205700  1.0  0.0881
  H  H203  1  0.434600  0.781000  0.195000  1.0  0.0898
  H  H204  1  0.510100  0.816300  0.252400  1.0  0.1361
  H  H205  1  0.204000  0.458200  0.643300  1.0  0.1045
  H  H206  1  0.263500  0.542400  0.665900  1.0  0.1285
  H  H207  1  0.108500  0.599900  0.658800  1.0  0.1275
  H  H208  1  0.714600  0.574100  0.598200  1.0  0.1288
  H  H209  1  0.620500  0.499600  0.571500  1.0  0.1169
  H  H210  1  0.746700  0.427600  0.575500  1.0  0.1009
  H  H211  1  0.799500  0.596000  0.679700  1.0  0.1261
  H  H212  1  0.756900  0.679000  0.689000  1.0  0.0907
  H  H213  1  0.946900  0.719400  0.602500  1.0  0.0767
  H  H214  1  0.996100  0.638000  0.590600  1.0  0.1216
  H  H215  1  0.363800  0.992800  0.438000  1.0  0.0991
  H  H216  1  0.336500  0.984200  0.512000  1.0  0.1239
  H  H217  1  0.467000  0.920900  0.536000  1.0  0.1214
  H  H218  1  0.725100  0.794500  0.456000  1.0  0.1206
  H  H219  1  0.754000  0.780000  0.382500  1.0  0.1287
  H  H220  1  0.654700  0.848100  0.346400  1.0  0.1052
  H  H221  1  0.703900  0.915300  0.532000  1.0  0.1369
  H  H222  1  0.769000  0.879200  0.589900  1.0  0.0819
  H  H223  1  0.626500  0.753000  0.565300  1.0  0.0888
  H  H224  1  0.555900  0.785500  0.506800  1.0  0.1296
  H  H225  1  0.279100  0.965400  0.834500  1.0  0.1041
  H  H226  1  0.264800  0.953000  0.760300  1.0  0.1273
  H  H227  1  0.431900  0.911900  0.738100  1.0  0.1184
  H  H228  1  0.750000  0.823400  0.822100  1.0  0.1217
  H  H229  1  0.792500  0.822000  0.894100  1.0  0.1181
  H  H230  1  0.652900  0.872700  0.929500  1.0  0.1026
  H  H231  1  0.748300  0.903800  0.762900  1.0  0.1416
  H  H232  1  0.816200  0.865700  0.705700  1.0  0.0889
  H  H233  1  0.565400  0.781000  0.695000  1.0  0.0898
  H  H234  1  0.489900  0.816300  0.752400  1.0  0.1367
  H  H235  1  0.296000  0.958200  0.356700  1.0  0.104
  H  H236  1  0.236500  0.042400  0.334100  1.0  0.1273
  H  H237  1  0.391500  0.099900  0.341200  1.0  0.1278
  H  H238  1  0.785400  0.074100  0.401800  1.0  0.1282
  H  H239  1  0.879500  0.999600  0.428500  1.0  0.1179
  H  H240  1  0.753300  0.927600  0.424500  1.0  0.1015
  H  H241  1  0.700500  0.096000  0.320300  1.0  0.1248
  H  H242  1  0.743100  0.179000  0.311000  1.0  0.0913
  H  H243  1  0.553100  0.219400  0.397500  1.0  0.077
  H  H244  1  0.503900  0.138000  0.409400  1.0  0.1211
  H  H245  1  0.136200  0.492800  0.562000  1.0  0.0991
  H  H246  1  0.163500  0.484200  0.488000  1.0  0.1225
  H  H247  1  0.033000  0.420900  0.464000  1.0  0.1208
  H  H248  1  0.774900  0.294500  0.544000  1.0  0.1212
  H  H249  1  0.746000  0.280000  0.617500  1.0  0.1294
  H  H250  1  0.845300  0.348100  0.653600  1.0  0.1052
  H  H251  1  0.796100  0.415300  0.468000  1.0  0.1362
  H  H252  1  0.731000  0.379200  0.410100  1.0  0.0819
  H  H253  1  0.873500  0.253000  0.434700  1.0  0.089
  H  H254  1  0.944100  0.285500  0.493200  1.0  0.1294
  H  H255  1  0.220900  0.465400  0.165500  1.0  0.1029
  H  H256  1  0.235200  0.453000  0.239700  1.0  0.1268
  H  H257  1  0.068100  0.411900  0.261900  1.0  0.1183
  H  H258  1  0.750000  0.323400  0.177900  1.0  0.1223
  H  H259  1  0.707500  0.322000  0.105900  1.0  0.1174
  H  H260  1  0.847100  0.372700  0.070500  1.0  0.1041
  H  H261  1  0.751700  0.403800  0.237100  1.0  0.1419
  H  H262  1  0.683800  0.365700  0.294300  1.0  0.0876
  H  H263  1  0.934600  0.281000  0.305000  1.0  0.0899
  H  H264  1  0.010100  0.316300  0.247600  1.0  0.1358
  C  C265  1  0.838900  0.512760  0.356910  1.0  0.0419
  C  C266  1  0.804800  0.465930  0.343890  1.0  -0.0875
  C  C267  1  0.889500  0.434450  0.348070  1.0  -0.179
  C  C268  1  0.973800  0.462820  0.364630  1.0  0.1679
  C  C269  1  0.074400  0.445960  0.375310  1.0  -0.0975
  C  C270  1  0.153200  0.474760  0.392520  1.0  0.1675
  C  C271  1  0.257700  0.458670  0.403980  1.0  -0.1801
  C  C272  1  0.309000  0.499330  0.418590  1.0  -0.0876
  C  C273  1  0.237500  0.539390  0.416180  1.0  0.0288
  C  C274  1  0.099300  0.392680  0.367020  1.0  0.1011
  C  C275  1  0.169900  0.379270  0.337040  1.0  -0.1933
  C  C276  1  0.195300  0.329640  0.331860  1.0  0.1657
  C  C277  1  0.085000  0.306160  0.382050  1.0  0.174
  C  C278  1  0.054700  0.354760  0.389320  1.0  -0.216
  C  C279  1  0.598000  0.029400  0.545240  1.0  0.059
  C  C280  1  0.613700  0.033570  0.503790  1.0  -0.0676
  C  C281  1  0.542600  0.068370  0.490850  1.0  -0.1626
  C  C282  1  0.485300  0.085640  0.524790  1.0  0.1697
  C  C283  1  0.413800  0.123920  0.526520  1.0  -0.0698
  C  C284  1  0.372000  0.144790  0.561120  1.0  0.1652
  C  C285  1  0.303900  0.186380  0.565220  1.0  -0.1709
  C  C286  1  0.286900  0.194270  0.605580  1.0  -0.1531
  C  C287  1  0.343300  0.156050  0.625340  1.0  0.0635
  C  C288  1  0.375500  0.146230  0.487860  1.0  0.1024
  C  C289  1  0.312800  0.118390  0.461880  1.0  -0.1724
  C  C290  1  0.275000  0.140020  0.427250  1.0  0.1646
  C  C291  1  0.358200  0.213420  0.441620  1.0  0.1642
  C  C292  1  0.399700  0.194530  0.476830  1.0  -0.1851
  C  C293  1  0.669200  0.050540  0.181660  1.0  0.0428
  C  C294  1  0.677600  0.056850  0.223190  1.0  -0.091
  C  C295  1  0.586700  0.079860  0.235220  1.0  -0.1653
  C  C296  1  0.524300  0.089440  0.200130  1.0  0.2067
  C  C297  1  0.432400  0.116710  0.197610  1.0  -0.1112
  C  C298  1  0.378400  0.128810  0.162470  1.0  0.1448
  C  C299  1  0.287600  0.159840  0.157310  1.0  -0.1785
  C  C300  1  0.264900  0.161020  0.118130  1.0  -0.147
  C  C301  1  0.343000  0.131970  0.098580  1.0  0.0233
  C  C302  1  0.387000  0.137910  0.235160  1.0  0.1159
  C  C303  1  0.290200  0.122020  0.250050  1.0  -0.2043
  C  C304  1  0.250700  0.144760  0.284440  1.0  0.1686
  C  C305  1  0.396300  0.194160  0.290800  1.0  0.1602
  C  C306  1  0.442000  0.173330  0.256220  1.0  -0.1714
  C  C307  1  0.661100  0.012760  0.643090  1.0  0.0463
  C  C308  1  0.695200  0.965930  0.656110  1.0  -0.0866
  C  C309  1  0.610500  0.934450  0.651930  1.0  -0.1794
  C  C310  1  0.526200  0.962820  0.635370  1.0  0.1692
  C  C311  1  0.425600  0.945960  0.624690  1.0  -0.0982
  C  C312  1  0.346800  0.974760  0.607480  1.0  0.1657
  C  C313  1  0.242300  0.958670  0.596020  1.0  -0.1808
  C  C314  1  0.191000  0.999330  0.581410  1.0  -0.0871
  C  C315  1  0.262500  0.039390  0.583820  1.0  0.0268
  C  C316  1  0.400700  0.892680  0.632980  1.0  0.1007
  C  C317  1  0.330100  0.879270  0.662960  1.0  -0.1926
  C  C318  1  0.304700  0.829640  0.668140  1.0  0.1666
  C  C319  1  0.415000  0.806160  0.617950  1.0  0.1738
  C  C320  1  0.445300  0.854760  0.610680  1.0  -0.217
  C  C321  1  0.902000  0.529400  0.454760  1.0  0.0575
  C  C322  1  0.886300  0.533570  0.496210  1.0  -0.0691
  C  C323  1  0.957400  0.568370  0.509150  1.0  -0.1629
  C  C324  1  0.014700  0.585640  0.475210  1.0  0.1692
  C  C325  1  0.086200  0.623920  0.473480  1.0  -0.0698
  C  C326  1  0.128000  0.644790  0.438880  1.0  0.1645
  C  C327  1  0.196100  0.686380  0.434780  1.0  -0.1724
  C  C328  1  0.213100  0.694270  0.394420  1.0  -0.1514
  C  C329  1  0.156700  0.656050  0.374660  1.0  0.0642
  C  C330  1  0.124500  0.646230  0.512140  1.0  0.1035
  C  C331  1  0.187200  0.618390  0.538120  1.0  -0.1747
  C  C332  1  0.225000  0.640020  0.572750  1.0  0.1654
  C  C333  1  0.141800  0.713420  0.558380  1.0  0.1637
  C  C334  1  0.100300  0.694530  0.523170  1.0  -0.1855
  C  C335  1  0.830800  0.550540  0.818340  1.0  0.0437
  C  C336  1  0.822400  0.556850  0.776810  1.0  -0.0928
  C  C337  1  0.913300  0.579860  0.764780  1.0  -0.1648
  C  C338  1  0.975700  0.589440  0.799870  1.0  0.2067
  C  C339  1  0.067600  0.616710  0.802390  1.0  -0.111
  C  C340  1  0.121600  0.628810  0.837530  1.0  0.1457
  C  C341  1  0.212400  0.659840  0.842690  1.0  -0.1744
  C  C342  1  0.235100  0.661020  0.881870  1.0  -0.1434
  C  C343  1  0.157000  0.631970  0.901420  1.0  0.0242
  C  C344  1  0.113000  0.637910  0.764840  1.0  0.1186
  C  C345  1  0.209800  0.622020  0.749950  1.0  -0.2029
  C  C346  1  0.249300  0.644760  0.715560  1.0  0.1681
  C  C347  1  0.103700  0.694160  0.709200  1.0  0.159
  C  C348  1  0.058000  0.673330  0.743780  1.0  -0.1729
  C  C349  1  0.338900  0.012760  0.143090  1.0  0.0392
  C  C350  1  0.304800  0.965930  0.156110  1.0  -0.087
  C  C351  1  0.389500  0.934450  0.151930  1.0  -0.1793
  C  C352  1  0.473800  0.962820  0.135370  1.0  0.1689
  C  C353  1  0.574400  0.945960  0.124690  1.0  -0.0973
  C  C354  1  0.653200  0.974760  0.107480  1.0  0.1678
  C  C355  1  0.757700  0.958670  0.096020  1.0  -0.1798
  C  C356  1  0.809000  0.999330  0.081410  1.0  -0.0878
  C  C357  1  0.737500  0.039390  0.083820  1.0  0.0286
  C  C358  1  0.599300  0.892680  0.132980  1.0  0.101
  C  C359  1  0.669900  0.879270  0.162960  1.0  -0.1927
  C  C360  1  0.695300  0.829640  0.168140  1.0  0.1664
  C  C361  1  0.585000  0.806160  0.117950  1.0  0.1732
  C  C362  1  0.554700  0.854760  0.110680  1.0  -0.2168
  C  C363  1  0.098000  0.529400  0.954760  1.0  0.0581
  C  C364  1  0.113700  0.533570  0.996210  1.0  -0.0675
  C  C365  1  0.042600  0.568370  0.009150  1.0  -0.1623
  C  C366  1  0.985300  0.585640  0.975210  1.0  0.1695
  C  C367  1  0.913800  0.623920  0.973480  1.0  -0.0701
  C  C368  1  0.872000  0.644790  0.938880  1.0  0.1646
  C  C369  1  0.803900  0.686380  0.934780  1.0  -0.1725
  C  C370  1  0.786900  0.694270  0.894420  1.0  -0.1531
  C  C371  1  0.843300  0.656050  0.874660  1.0  0.0629
  C  C372  1  0.875500  0.646230  0.012140  1.0  0.1023
  C  C373  1  0.812800  0.618390  0.038120  1.0  -0.1729
  C  C374  1  0.775000  0.640020  0.072750  1.0  0.1648
  C  C375  1  0.858200  0.713420  0.058380  1.0  0.1639
  C  C376  1  0.899700  0.694530  0.023170  1.0  -0.1848
  C  C377  1  0.169200  0.550540  0.318340  1.0  0.0431
  C  C378  1  0.177600  0.556850  0.276810  1.0  -0.0913
  C  C379  1  0.086700  0.579860  0.264780  1.0  -0.166
  C  C380  1  0.024300  0.589440  0.299870  1.0  0.2067
  C  C381  1  0.932400  0.616710  0.302390  1.0  -0.1108
  C  C382  1  0.878400  0.628810  0.337530  1.0  0.1449
  C  C383  1  0.787600  0.659840  0.342690  1.0  -0.1763
  C  C384  1  0.764900  0.661020  0.381870  1.0  -0.1469
  C  C385  1  0.843000  0.631970  0.401420  1.0  0.0226
  C  C386  1  0.887000  0.637910  0.264840  1.0  0.1174
  C  C387  1  0.790200  0.622020  0.249950  1.0  -0.2044
  C  C388  1  0.750700  0.644760  0.215560  1.0  0.1684
  C  C389  1  0.896300  0.694160  0.209200  1.0  0.1596
  C  C390  1  0.942000  0.673330  0.243780  1.0  -0.1722
  C  C391  1  0.161100  0.512760  0.856910  1.0  0.0428
  C  C392  1  0.195200  0.465930  0.843890  1.0  -0.0868
  C  C393  1  0.110500  0.434450  0.848070  1.0  -0.1794
  C  C394  1  0.026200  0.462820  0.864630  1.0  0.1684
  C  C395  1  0.925600  0.445960  0.875310  1.0  -0.0985
  C  C396  1  0.846800  0.474760  0.892520  1.0  0.1655
  C  C397  1  0.742300  0.458670  0.903980  1.0  -0.1806
  C  C398  1  0.691000  0.499330  0.918590  1.0  -0.0873
  C  C399  1  0.762500  0.539390  0.916180  1.0  0.0264
  C  C400  1  0.900700  0.392680  0.867020  1.0  0.1007
  C  C401  1  0.830100  0.379270  0.837040  1.0  -0.1922
  C  C402  1  0.804700  0.329640  0.831860  1.0  0.1663
  C  C403  1  0.915000  0.306160  0.882050  1.0  0.1748
  C  C404  1  0.945300  0.354760  0.889320  1.0  -0.2166
  C  C405  1  0.402000  0.029400  0.045240  1.0  0.0581
  C  C406  1  0.386300  0.033570  0.003790  1.0  -0.0688
  C  C407  1  0.457400  0.068370  0.990850  1.0  -0.1633
  C  C408  1  0.514700  0.085640  0.024790  1.0  0.1694
  C  C409  1  0.586200  0.123920  0.026520  1.0  -0.0694
  C  C410  1  0.628000  0.144790  0.061120  1.0  0.1651
  C  C411  1  0.696100  0.186380  0.065220  1.0  -0.1714
  C  C412  1  0.713100  0.194270  0.105580  1.0  -0.1513
  C  C413  1  0.656700  0.156050  0.125340  1.0  0.062
  C  C414  1  0.624500  0.146230  0.987860  1.0  0.1036
  C  C415  1  0.687200  0.118390  0.961880  1.0  -0.1743
  C  C416  1  0.725000  0.140020  0.927250  1.0  0.1654
  C  C417  1  0.641800  0.213420  0.941620  1.0  0.1638
  C  C418  1  0.600300  0.194530  0.976830  1.0  -0.186
  C  C419  1  0.330800  0.050540  0.681660  1.0  0.0433
  C  C420  1  0.322400  0.056850  0.723190  1.0  -0.0924
  C  C421  1  0.413300  0.079860  0.735220  1.0  -0.1648
  C  C422  1  0.475700  0.089440  0.700130  1.0  0.2066
  C  C423  1  0.567600  0.116710  0.697610  1.0  -0.1114
  C  C424  1  0.621600  0.128810  0.662470  1.0  0.145
  C  C425  1  0.712400  0.159840  0.657310  1.0  -0.1758
  C  C426  1  0.735100  0.161020  0.618130  1.0  -0.1453
  C  C427  1  0.657000  0.131970  0.598580  1.0  0.0232
  C  C428  1  0.613000  0.137910  0.735160  1.0  0.1173
  C  C429  1  0.709800  0.122020  0.750050  1.0  -0.2031
  C  C430  1  0.749300  0.144760  0.784440  1.0  0.1687
  C  C431  1  0.603700  0.194160  0.790800  1.0  0.1598
  C  C432  1  0.558000  0.173330  0.756220  1.0  -0.1724
  C  C433  1  0.661100  0.987240  0.856910  1.0  0.0442
  C  C434  1  0.695200  0.034070  0.843890  1.0  -0.0883
  C  C435  1  0.610500  0.065550  0.848070  1.0  -0.1783
  C  C436  1  0.526200  0.037180  0.864630  1.0  0.1684
  C  C437  1  0.425600  0.054040  0.875310  1.0  -0.0988
  C  C438  1  0.346800  0.025240  0.892520  1.0  0.1659
  C  C439  1  0.242300  0.041330  0.903980  1.0  -0.1795
  C  C440  1  0.191000  0.000670  0.918590  1.0  -0.0872
  C  C441  1  0.262500  0.960610  0.916180  1.0  0.0268
  C  C442  1  0.400700  0.107320  0.867020  1.0  0.0999
  C  C443  1  0.330100  0.120730  0.837040  1.0  -0.1924
  C  C444  1  0.304700  0.170360  0.831860  1.0  0.1662
  C  C445  1  0.415000  0.193840  0.882050  1.0  0.1749
  C  C446  1  0.445300  0.145240  0.889320  1.0  -0.2165
  C  C447  1  0.902000  0.470600  0.045240  1.0  0.0583
  C  C448  1  0.886300  0.466430  0.003790  1.0  -0.0694
  C  C449  1  0.957400  0.431630  0.990850  1.0  -0.1643
  C  C450  1  0.014700  0.414360  0.024790  1.0  0.1696
  C  C451  1  0.086200  0.376080  0.026520  1.0  -0.0706
  C  C452  1  0.128000  0.355210  0.061120  1.0  0.166
  C  C453  1  0.196100  0.313620  0.065220  1.0  -0.1704
  C  C454  1  0.213100  0.305730  0.105580  1.0  -0.1516
  C  C455  1  0.156700  0.343950  0.125340  1.0  0.0632
  C  C456  1  0.124500  0.353770  0.987860  1.0  0.1032
  C  C457  1  0.187200  0.381610  0.961880  1.0  -0.1755
  C  C458  1  0.225000  0.359980  0.927250  1.0  0.1656
  C  C459  1  0.141800  0.286580  0.941620  1.0  0.1631
  C  C460  1  0.100300  0.305470  0.976830  1.0  -0.1832
  C  C461  1  0.830800  0.449460  0.681660  1.0  0.0434
  C  C462  1  0.822400  0.443150  0.723190  1.0  -0.0927
  C  C463  1  0.913300  0.420140  0.735220  1.0  -0.1649
  C  C464  1  0.975700  0.410560  0.700130  1.0  0.2072
  C  C465  1  0.067600  0.383290  0.697610  1.0  -0.1114
  C  C466  1  0.121600  0.371190  0.662470  1.0  0.1446
  C  C467  1  0.212400  0.340160  0.657310  1.0  -0.1748
  C  C468  1  0.235100  0.338980  0.618130  1.0  -0.1469
  C  C469  1  0.157000  0.368030  0.598580  1.0  0.0233
  C  C470  1  0.113000  0.362090  0.735160  1.0  0.1179
  C  C471  1  0.209800  0.377980  0.750050  1.0  -0.2035
  C  C472  1  0.249300  0.355240  0.784440  1.0  0.1685
  C  C473  1  0.103700  0.305840  0.790800  1.0  0.1588
  C  C474  1  0.058000  0.326670  0.756220  1.0  -0.1725
  C  C475  1  0.838900  0.487240  0.143090  1.0  0.0418
  C  C476  1  0.804800  0.534070  0.156110  1.0  -0.0892
  C  C477  1  0.889500  0.565550  0.151930  1.0  -0.1777
  C  C478  1  0.973800  0.537180  0.135370  1.0  0.1688
  C  C479  1  0.074400  0.554040  0.124690  1.0  -0.0977
  C  C480  1  0.153200  0.525240  0.107480  1.0  0.1683
  C  C481  1  0.257700  0.541330  0.096020  1.0  -0.1781
  C  C482  1  0.309000  0.500670  0.081410  1.0  -0.0882
  C  C483  1  0.237500  0.460610  0.083820  1.0  0.0273
  C  C484  1  0.099300  0.607320  0.132980  1.0  0.1003
  C  C485  1  0.169900  0.620730  0.162960  1.0  -0.1928
  C  C486  1  0.195300  0.670360  0.168140  1.0  0.1652
  C  C487  1  0.085000  0.693840  0.117950  1.0  0.1743
  C  C488  1  0.054700  0.645240  0.110680  1.0  -0.2171
  C  C489  1  0.598000  0.970600  0.954760  1.0  0.0589
  C  C490  1  0.613700  0.966430  0.996210  1.0  -0.0679
  C  C491  1  0.542600  0.931630  0.009150  1.0  -0.1624
  C  C492  1  0.485300  0.914360  0.975210  1.0  0.1697
  C  C493  1  0.413800  0.876080  0.973480  1.0  -0.071
  C  C494  1  0.372000  0.855210  0.938880  1.0  0.1653
  C  C495  1  0.303900  0.813620  0.934780  1.0  -0.1712
  C  C496  1  0.286900  0.805730  0.894420  1.0  -0.1533
  C  C497  1  0.343300  0.843950  0.874660  1.0  0.0642
  C  C498  1  0.375500  0.853770  0.012140  1.0  0.1029
  C  C499  1  0.312800  0.881610  0.038120  1.0  -0.1741
  C  C500  1  0.275000  0.859980  0.072750  1.0  0.1649
  C  C501  1  0.358200  0.786580  0.058380  1.0  0.1627
  C  C502  1  0.399700  0.805470  0.023170  1.0  -0.1838
  C  C503  1  0.669200  0.949460  0.318340  1.0  0.0443
  C  C504  1  0.677600  0.943150  0.276810  1.0  -0.0913
  C  C505  1  0.586700  0.920140  0.264780  1.0  -0.1663
  C  C506  1  0.524300  0.910560  0.299870  1.0  0.2068
  C  C507  1  0.432400  0.883290  0.302390  1.0  -0.1109
  C  C508  1  0.378400  0.871190  0.337530  1.0  0.1446
  C  C509  1  0.287600  0.840160  0.342690  1.0  -0.1771
  C  C510  1  0.264900  0.838980  0.381870  1.0  -0.147
  C  C511  1  0.343000  0.868030  0.401420  1.0  0.023
  C  C512  1  0.387000  0.862090  0.264840  1.0  0.1176
  C  C513  1  0.290200  0.877980  0.249950  1.0  -0.2053
  C  C514  1  0.250700  0.855240  0.215560  1.0  0.1688
  C  C515  1  0.396300  0.805840  0.209200  1.0  0.1584
  C  C516  1  0.442000  0.826670  0.243780  1.0  -0.1737
  C  C517  1  0.161100  0.487240  0.643090  1.0  0.0414
  C  C518  1  0.195200  0.534070  0.656110  1.0  -0.0882
  C  C519  1  0.110500  0.565550  0.651930  1.0  -0.1782
  C  C520  1  0.026200  0.537180  0.635370  1.0  0.1693
  C  C521  1  0.925600  0.554040  0.624690  1.0  -0.0986
  C  C522  1  0.846800  0.525240  0.607480  1.0  0.1661
  C  C523  1  0.742300  0.541330  0.596020  1.0  -0.1794
  C  C524  1  0.691000  0.500670  0.581410  1.0  -0.0871
  C  C525  1  0.762500  0.460610  0.583820  1.0  0.0268
  C  C526  1  0.900700  0.607320  0.632980  1.0  0.0999
  C  C527  1  0.830100  0.620730  0.662960  1.0  -0.1929
  C  C528  1  0.804700  0.670360  0.668140  1.0  0.1652
  C  C529  1  0.915000  0.693840  0.617950  1.0  0.1752
  C  C530  1  0.945300  0.645240  0.610680  1.0  -0.217
  C  C531  1  0.402000  0.970600  0.454760  1.0  0.0578
  C  C532  1  0.386300  0.966430  0.496210  1.0  -0.0698
  C  C533  1  0.457400  0.931630  0.509150  1.0  -0.1631
  C  C534  1  0.514700  0.914360  0.475210  1.0  0.1695
  C  C535  1  0.586200  0.876080  0.473480  1.0  -0.0708
  C  C536  1  0.628000  0.855210  0.438880  1.0  0.1652
  C  C537  1  0.696100  0.813620  0.434780  1.0  -0.1698
  C  C538  1  0.713100  0.805730  0.394420  1.0  -0.1521
  C  C539  1  0.656700  0.843950  0.374660  1.0  0.0638
  C  C540  1  0.624500  0.853770  0.512140  1.0  0.1039
  C  C541  1  0.687200  0.881610  0.538120  1.0  -0.1754
  C  C542  1  0.725000  0.859980  0.572750  1.0  0.1656
  C  C543  1  0.641800  0.786580  0.558380  1.0  0.1625
  C  C544  1  0.600300  0.805470  0.523170  1.0  -0.1824
  C  C545  1  0.330800  0.949460  0.818340  1.0  0.0439
  C  C546  1  0.322400  0.943150  0.776810  1.0  -0.0931
  C  C547  1  0.413300  0.920140  0.764780  1.0  -0.1648
  C  C548  1  0.475700  0.910560  0.799870  1.0  0.207
  C  C549  1  0.567600  0.883290  0.802390  1.0  -0.1111
  C  C550  1  0.621600  0.871190  0.837530  1.0  0.1455
  C  C551  1  0.712400  0.840160  0.842690  1.0  -0.1756
  C  C552  1  0.735100  0.838980  0.881870  1.0  -0.1446
  C  C553  1  0.657000  0.868030  0.901420  1.0  0.0244
  C  C554  1  0.613000  0.862090  0.764840  1.0  0.1189
  C  C555  1  0.709800  0.877980  0.749950  1.0  -0.204
  C  C556  1  0.749300  0.855240  0.715560  1.0  0.168
  C  C557  1  0.603700  0.805840  0.709200  1.0  0.1582
  C  C558  1  0.558000  0.826670  0.743780  1.0  -0.1727
  C  C559  1  0.338900  0.987240  0.356910  1.0  0.0384
  C  C560  1  0.304800  0.034070  0.343890  1.0  -0.0897
  C  C561  1  0.389500  0.065550  0.348070  1.0  -0.1777
  C  C562  1  0.473800  0.037180  0.364630  1.0  0.1679
  C  C563  1  0.574400  0.054040  0.375310  1.0  -0.0978
  C  C564  1  0.653200  0.025240  0.392520  1.0  0.1681
  C  C565  1  0.757700  0.041330  0.403980  1.0  -0.1782
  C  C566  1  0.809000  0.000670  0.418590  1.0  -0.0879
  C  C567  1  0.737500  0.960610  0.416180  1.0  0.0279
  C  C568  1  0.599300  0.107320  0.367020  1.0  0.1002
  C  C569  1  0.669900  0.120730  0.337040  1.0  -0.1935
  C  C570  1  0.695300  0.170360  0.331860  1.0  0.1655
  C  C571  1  0.585000  0.193840  0.382050  1.0  0.174
  C  C572  1  0.554700  0.145240  0.389320  1.0  -0.2161
  C  C573  1  0.098000  0.470600  0.545240  1.0  0.0595
  C  C574  1  0.113700  0.466430  0.503790  1.0  -0.068
  C  C575  1  0.042600  0.431630  0.490850  1.0  -0.1635
  C  C576  1  0.985300  0.414360  0.524790  1.0  0.1696
  C  C577  1  0.913800  0.376080  0.526520  1.0  -0.0709
  C  C578  1  0.872000  0.355210  0.561120  1.0  0.1655
  C  C579  1  0.803900  0.313620  0.565220  1.0  -0.1709
  C  C580  1  0.786900  0.305730  0.605580  1.0  -0.1528
  C  C581  1  0.843300  0.343950  0.625340  1.0  0.0622
  C  C582  1  0.875500  0.353770  0.487860  1.0  0.1019
  C  C583  1  0.812800  0.381610  0.461880  1.0  -0.1741
  C  C584  1  0.775000  0.359980  0.427250  1.0  0.1651
  C  C585  1  0.858200  0.286580  0.441620  1.0  0.1635
  C  C586  1  0.899700  0.305470  0.476830  1.0  -0.1844
  C  C587  1  0.169200  0.449460  0.181660  1.0  0.0439
  C  C588  1  0.177600  0.443150  0.223190  1.0  -0.0907
  C  C589  1  0.086700  0.420140  0.235220  1.0  -0.1653
  C  C590  1  0.024300  0.410560  0.200130  1.0  0.2068
  C  C591  1  0.932400  0.383290  0.197610  1.0  -0.1112
  C  C592  1  0.878400  0.371190  0.162470  1.0  0.1445
  C  C593  1  0.787600  0.340160  0.157310  1.0  -0.1777
  C  C594  1  0.764900  0.338980  0.118130  1.0  -0.1482
  C  C595  1  0.843000  0.368030  0.098580  1.0  0.0227
  C  C596  1  0.887000  0.362090  0.235160  1.0  0.1166
  C  C597  1  0.790200  0.377980  0.250050  1.0  -0.2048
  C  C598  1  0.750700  0.355240  0.284440  1.0  0.1693
  C  C599  1  0.896300  0.305840  0.290800  1.0  0.1592
  C  C600  1  0.942000  0.326670  0.256220  1.0  -0.1732
  N  N601  1  0.939500  0.511650  0.369670  1.0  -0.3313
  N  N602  1  0.144800  0.525350  0.400730  1.0  -0.3017
  N  N603  1  0.156100  0.293110  0.354610  1.0  -0.3267
  N  N604  1  0.523900  0.059980  0.558180  1.0  -0.2995
  N  N605  1  0.393300  0.126440  0.599500  1.0  -0.3252
  N  N606  1  0.297600  0.186480  0.416860  1.0  -0.3126
  N  N607  1  0.577800  0.070190  0.167630  1.0  -0.3177
  N  N608  1  0.409400  0.112210  0.124750  1.0  -0.3061
  N  N609  1  0.302100  0.180430  0.304230  1.0  -0.2943
  N  N610  1  0.560500  0.011650  0.630330  1.0  -0.3297
  N  N611  1  0.355200  0.025350  0.599270  1.0  -0.3048
  N  N612  1  0.343900  0.793110  0.645390  1.0  -0.3288
  N  N613  1  0.976100  0.559980  0.441820  1.0  -0.2994
  N  N614  1  0.106700  0.626440  0.400500  1.0  -0.3259
  N  N615  1  0.202400  0.686480  0.583140  1.0  -0.3121
  N  N616  1  0.922200  0.570190  0.832370  1.0  -0.3185
  N  N617  1  0.090600  0.612210  0.875250  1.0  -0.3078
  N  N618  1  0.197900  0.680430  0.695770  1.0  -0.2945
  N  N619  1  0.439500  0.011650  0.130330  1.0  -0.3316
  N  N620  1  0.644800  0.025350  0.099270  1.0  -0.3017
  N  N621  1  0.656100  0.793110  0.145390  1.0  -0.3271
  N  N622  1  0.023900  0.559980  0.941820  1.0  -0.2993
  N  N623  1  0.893300  0.626440  0.900500  1.0  -0.3255
  N  N624  1  0.797600  0.686480  0.083140  1.0  -0.313
  N  N625  1  0.077800  0.570190  0.332370  1.0  -0.3192
  N  N626  1  0.909400  0.612210  0.375250  1.0  -0.3061
  N  N627  1  0.802100  0.680430  0.195770  1.0  -0.2932
  N  N628  1  0.060500  0.511650  0.869670  1.0  -0.3294
  N  N629  1  0.855200  0.525350  0.900730  1.0  -0.3047
  N  N630  1  0.843900  0.293110  0.854610  1.0  -0.3289
  N  N631  1  0.476100  0.059980  0.058180  1.0  -0.2995
  N  N632  1  0.606700  0.126440  0.099500  1.0  -0.3256
  N  N633  1  0.702400  0.186480  0.916860  1.0  -0.3126
  N  N634  1  0.422200  0.070190  0.667630  1.0  -0.3179
  N  N635  1  0.590600  0.112210  0.624750  1.0  -0.3078
  N  N636  1  0.697900  0.180430  0.804230  1.0  -0.294
  N  N637  1  0.560500  0.988350  0.869670  1.0  -0.3295
  N  N638  1  0.355200  0.974650  0.900730  1.0  -0.3038
  N  N639  1  0.343900  0.206890  0.854610  1.0  -0.3282
  N  N640  1  0.976100  0.440020  0.058180  1.0  -0.2995
  N  N641  1  0.106700  0.373560  0.099500  1.0  -0.3245
  N  N642  1  0.202400  0.313520  0.916860  1.0  -0.313
  N  N643  1  0.922200  0.429810  0.667630  1.0  -0.3179
  N  N644  1  0.090600  0.387790  0.624750  1.0  -0.3078
  N  N645  1  0.197900  0.319570  0.804230  1.0  -0.2933
  N  N646  1  0.939500  0.488350  0.130330  1.0  -0.3315
  N  N647  1  0.144800  0.474650  0.099270  1.0  -0.3011
  N  N648  1  0.156100  0.706890  0.145390  1.0  -0.3283
  N  N649  1  0.523900  0.940020  0.941820  1.0  -0.2993
  N  N650  1  0.393300  0.873560  0.900500  1.0  -0.3247
  N  N651  1  0.297600  0.813520  0.083140  1.0  -0.3134
  N  N652  1  0.577800  0.929810  0.332370  1.0  -0.3188
  N  N653  1  0.409400  0.887790  0.375250  1.0  -0.3063
  N  N654  1  0.302100  0.819570  0.195770  1.0  -0.2966
  N  N655  1  0.060500  0.488350  0.630330  1.0  -0.3296
  N  N656  1  0.855200  0.474650  0.599270  1.0  -0.304
  N  N657  1  0.843900  0.706890  0.645390  1.0  -0.3279
  N  N658  1  0.476100  0.940020  0.441820  1.0  -0.2995
  N  N659  1  0.606700  0.873560  0.400500  1.0  -0.3251
  N  N660  1  0.702400  0.813520  0.583140  1.0  -0.3116
  N  N661  1  0.422200  0.929810  0.832370  1.0  -0.3181
  N  N662  1  0.590600  0.887790  0.875250  1.0  -0.3077
  N  N663  1  0.697900  0.819570  0.695770  1.0  -0.2945
  N  N664  1  0.439500  0.988350  0.369670  1.0  -0.3312
  N  N665  1  0.644800  0.974650  0.400730  1.0  -0.3011
  N  N666  1  0.656100  0.206890  0.354610  1.0  -0.3282
  N  N667  1  0.023900  0.440020  0.558180  1.0  -0.2996
  N  N668  1  0.893300  0.373560  0.599500  1.0  -0.324
  N  N669  1  0.797600  0.313520  0.416860  1.0  -0.3144
  N  N670  1  0.077800  0.429810  0.167630  1.0  -0.3179
  N  N671  1  0.909400  0.387790  0.124750  1.0  -0.3066
  N  N672  1  0.802100  0.319570  0.304230  1.0  -0.2967
  F  F673  1  0.414970  0.379620  0.343460  1.0  -0.3986
  F  F674  1  0.537620  0.311170  0.405240  1.0  -0.4481
  F  F675  1  0.583700  0.352100  0.354380  1.0  -0.4035
  F  F676  1  0.450200  0.296740  0.349300  1.0  -0.416
  F  F677  1  0.364800  0.335700  0.399120  1.0  -0.4323
  F  F678  1  0.497600  0.391500  0.403720  1.0  -0.4027
  F  F679  1  0.085030  0.120380  0.843460  1.0  -0.3971
  F  F680  1  0.962380  0.188830  0.905240  1.0  -0.4481
  F  F681  1  0.916300  0.147900  0.854380  1.0  -0.4031
  F  F682  1  0.049800  0.203260  0.849300  1.0  -0.4173
  F  F683  1  0.135200  0.164300  0.899120  1.0  -0.4328
  F  F684  1  0.002400  0.108500  0.903720  1.0  -0.4033
  F  F685  1  0.414970  0.620380  0.156540  1.0  -0.3959
  F  F686  1  0.537620  0.688830  0.094760  1.0  -0.4488
  F  F687  1  0.583700  0.647900  0.145620  1.0  -0.4036
  F  F688  1  0.450200  0.703260  0.150700  1.0  -0.4175
  F  F689  1  0.364800  0.664300  0.100880  1.0  -0.4333
  F  F690  1  0.497600  0.608500  0.096280  1.0  -0.4031
  F  F691  1  0.085030  0.879620  0.656540  1.0  -0.3971
  F  F692  1  0.962380  0.811170  0.594760  1.0  -0.4475
  F  F693  1  0.916300  0.852100  0.645620  1.0  -0.403
  F  F694  1  0.049800  0.796740  0.650700  1.0  -0.4173
  F  F695  1  0.135200  0.835700  0.600880  1.0  -0.4337
  F  F696  1  0.002400  0.891500  0.596280  1.0  -0.4055
  F  F697  1  0.585030  0.620380  0.656540  1.0  -0.3957
  F  F698  1  0.462380  0.688830  0.594760  1.0  -0.4483
  F  F699  1  0.416300  0.647900  0.645620  1.0  -0.4031
  F  F700  1  0.549800  0.703260  0.650700  1.0  -0.4177
  F  F701  1  0.635200  0.664300  0.600880  1.0  -0.4334
  F  F702  1  0.502400  0.608500  0.596280  1.0  -0.4033
  F  F703  1  0.914970  0.879620  0.156540  1.0  -0.3972
  F  F704  1  0.037620  0.811170  0.094760  1.0  -0.4483
  F  F705  1  0.083700  0.852100  0.145620  1.0  -0.4038
  F  F706  1  0.950200  0.796740  0.150700  1.0  -0.4169
  F  F707  1  0.864800  0.835700  0.100880  1.0  -0.4331
  F  F708  1  0.997600  0.891500  0.096280  1.0  -0.4051
  F  F709  1  0.585030  0.379620  0.843460  1.0  -0.3987
  F  F710  1  0.462380  0.311170  0.905240  1.0  -0.4479
  F  F711  1  0.416300  0.352100  0.854380  1.0  -0.402
  F  F712  1  0.549800  0.296740  0.849300  1.0  -0.4164
  F  F713  1  0.635200  0.335700  0.899120  1.0  -0.433
  F  F714  1  0.502400  0.391500  0.903720  1.0  -0.4033
  F  F715  1  0.914970  0.120380  0.343460  1.0  -0.3966
  F  F716  1  0.037620  0.188830  0.405240  1.0  -0.4479
  F  F717  1  0.083700  0.147900  0.354380  1.0  -0.4039
  F  F718  1  0.950200  0.203260  0.349300  1.0  -0.4171
  F  F719  1  0.864800  0.164300  0.399120  1.0  -0.4322
  F  F720  1  0.997600  0.108500  0.403720  1.0  -0.403
