# generated using pymatgen
data_CdH28C21SN9
_symmetry_space_group_name_H-M   'P 1'
_cell_length_a   19.52200000
_cell_length_b   19.52200000
_cell_length_c   33.79100000
_cell_angle_alpha   90.00000000
_cell_angle_beta   90.00000000
_cell_angle_gamma   90.00000000
_symmetry_Int_Tables_number   1
_chemical_formula_structural   CdH28C21SN9
_chemical_formula_sum   'Cd16 H448 C336 S16 N144'
_cell_volume   12878.03678284
_cell_formula_units_Z   16
loop_
 _symmetry_equiv_pos_site_id
 _symmetry_equiv_pos_as_xyz
  1  'x, y, z'
loop_
 _atom_site_type_symbol
 _atom_site_label
 _atom_site_symmetry_multiplicity
 _atom_site_fract_x
 _atom_site_fract_y
 _atom_site_fract_z
 _atom_site_occupancy
 _atom_site_charge
  Cd  Cd1  1  0.644220  0.157900  0.749150  1.0  0.9433
  Cd  Cd2  1  0.355780  0.842100  0.749150  1.0  0.9425
  Cd  Cd3  1  0.842100  0.644220  0.249150  1.0  0.9412
  Cd  Cd4  1  0.157900  0.355780  0.249150  1.0  0.9413
  Cd  Cd5  1  0.355780  0.842100  0.250850  1.0  0.9423
  Cd  Cd6  1  0.644220  0.157900  0.250850  1.0  0.9431
  Cd  Cd7  1  0.157900  0.355780  0.750850  1.0  0.9411
  Cd  Cd8  1  0.842100  0.644220  0.750850  1.0  0.941
  Cd  Cd9  1  0.671360  0.377730  0.000000  1.0  0.8473
  Cd  Cd10  1  0.328640  0.622270  0.000000  1.0  0.8471
  Cd  Cd11  1  0.622270  0.671360  0.500000  1.0  0.8468
  Cd  Cd12  1  0.377730  0.328640  0.500000  1.0  0.8465
  Cd  Cd13  1  0.891280  0.179850  0.500000  1.0  0.83
  Cd  Cd14  1  0.108720  0.820150  0.500000  1.0  0.8303
  Cd  Cd15  1  0.820150  0.891280  0.000000  1.0  0.8314
  Cd  Cd16  1  0.179850  0.108720  0.000000  1.0  0.831
  H  H17  1  0.506000  0.355400  0.965700  1.0  0.2391
  H  H18  1  0.540700  0.092200  0.817100  1.0  0.26
  H  H19  1  0.596000  0.047900  0.682300  1.0  0.2745
  H  H20  1  0.861300  0.018600  0.535800  1.0  0.2631
  H  H21  1  0.478700  0.152400  0.726600  1.0  0.2431
  H  H22  1  0.470200  0.401300  0.565500  1.0  0.2415
  H  H23  1  0.640900  0.993200  0.776100  1.0  0.2589
  H  H24  1  0.899200  0.976700  0.932400  1.0  0.2342
  H  H25  1  0.714200  0.266500  0.939900  1.0  0.1243
  H  H26  1  0.691400  0.221300  0.903200  1.0  0.1094
  H  H27  1  0.709700  0.299600  0.897200  1.0  0.1208
  H  H28  1  0.408000  0.333400  0.920900  1.0  0.1252
  H  H29  1  0.427600  0.303900  0.878700  1.0  0.1207
  H  H30  1  0.412200  0.253200  0.914300  1.0  0.11
  H  H31  1  0.608200  0.303800  0.783500  1.0  0.1313
  H  H32  1  0.567300  0.339900  0.818200  1.0  0.1227
  H  H33  1  0.645100  0.319200  0.824300  1.0  0.1305
  H  H34  1  0.547000  0.080400  0.905500  1.0  0.1315
  H  H35  1  0.488100  0.134000  0.914500  1.0  0.1278
  H  H36  1  0.477000  0.076900  0.881800  1.0  0.1185
  H  H37  1  0.804200  0.132300  0.714900  1.0  0.1294
  H  H38  1  0.839200  0.120900  0.673100  1.0  0.1282
  H  H39  1  0.795400  0.187700  0.681100  1.0  0.1361
  H  H40  1  0.568700  0.034300  0.605800  1.0  0.1095
  H  H41  1  0.634600  0.019200  0.579900  1.0  0.1303
  H  H42  1  0.609500  0.965000  0.611600  1.0  0.131
  H  H43  1  0.805900  0.225700  0.603400  1.0  0.1134
  H  H44  1  0.780600  0.231100  0.559000  1.0  0.1327
  H  H45  1  0.728200  0.211400  0.592900  1.0  0.115
  H  H46  1  0.757600  0.924000  0.583100  1.0  0.1265
  H  H47  1  0.838700  0.923200  0.580500  1.0  0.1245
  H  H48  1  0.802200  0.940000  0.621200  1.0  0.1187
  H  H49  1  0.665900  0.250100  0.673900  1.0  0.1171
  H  H50  1  0.637700  0.249900  0.629900  1.0  0.1115
  H  H51  1  0.625400  0.314400  0.657400  1.0  0.115
  H  H52  1  0.355500  0.217700  0.689100  1.0  0.1275
  H  H53  1  0.366700  0.183800  0.647000  1.0  0.1326
  H  H54  1  0.372800  0.138600  0.685800  1.0  0.127
  H  H55  1  0.451700  0.174300  0.540200  1.0  0.1328
  H  H56  1  0.477600  0.149800  0.582300  1.0  0.1201
  H  H57  1  0.399000  0.165900  0.575500  1.0  0.1292
  H  H58  1  0.506300  0.445400  0.628300  1.0  0.0904
  H  H59  1  0.478300  0.400500  0.663800  1.0  0.1288
  H  H60  1  0.555400  0.392900  0.650000  1.0  0.1205
  H  H61  1  0.731700  0.179000  0.843000  1.0  0.1247
  H  H62  1  0.795300  0.138200  0.860000  1.0  0.1275
  H  H63  1  0.794300  0.161100  0.815100  1.0  0.1356
  H  H64  1  0.695900  0.871200  0.808900  1.0  0.1272
  H  H65  1  0.692700  0.883900  0.855200  1.0  0.1147
  H  H66  1  0.626100  0.893300  0.829000  1.0  0.1192
  H  H67  1  0.658500  0.009700  0.942900  1.0  0.1361
  H  H68  1  0.647700  0.953000  0.909900  1.0  0.1208
  H  H69  1  0.673800  0.931800  0.952600  1.0  0.1314
  H  H70  1  0.936900  0.983300  0.860600  1.0  0.1248
  H  H71  1  0.881500  0.011600  0.830500  1.0  0.124
  H  H72  1  0.916000  0.061700  0.861500  1.0  0.1331
  H  H73  1  0.494000  0.644600  0.965700  1.0  0.2391
  H  H74  1  0.459300  0.907800  0.817100  1.0  0.2605
  H  H75  1  0.404000  0.952100  0.682300  1.0  0.2741
  H  H76  1  0.138700  0.981400  0.535800  1.0  0.2639
  H  H77  1  0.521300  0.847600  0.726600  1.0  0.2434
  H  H78  1  0.529800  0.598700  0.565500  1.0  0.2405
  H  H79  1  0.359100  0.006800  0.776100  1.0  0.2589
  H  H80  1  0.100800  0.023300  0.932400  1.0  0.2355
  H  H81  1  0.285800  0.733500  0.939900  1.0  0.1238
  H  H82  1  0.308600  0.778700  0.903200  1.0  0.1115
  H  H83  1  0.290300  0.700400  0.897200  1.0  0.121
  H  H84  1  0.592000  0.666667  0.920900  1.0  0.1224
  H  H85  1  0.572400  0.696100  0.878700  1.0  0.1208
  H  H86  1  0.587800  0.746800  0.914300  1.0  0.1109
  H  H87  1  0.391800  0.696200  0.783500  1.0  0.1309
  H  H88  1  0.432700  0.660100  0.818200  1.0  0.1229
  H  H89  1  0.354900  0.680800  0.824300  1.0  0.1285
  H  H90  1  0.453000  0.919600  0.905500  1.0  0.1303
  H  H91  1  0.511900  0.866000  0.914500  1.0  0.1285
  H  H92  1  0.523000  0.923100  0.881800  1.0  0.1188
  H  H93  1  0.195800  0.867700  0.714900  1.0  0.1313
  H  H94  1  0.160800  0.879100  0.673100  1.0  0.129
  H  H95  1  0.204600  0.812300  0.681100  1.0  0.135
  H  H96  1  0.431300  0.965700  0.605800  1.0  0.1085
  H  H97  1  0.365400  0.980800  0.579900  1.0  0.1309
  H  H98  1  0.390500  0.035000  0.611600  1.0  0.1337
  H  H99  1  0.194100  0.774300  0.603400  1.0  0.1143
  H  H100  1  0.219400  0.768900  0.559000  1.0  0.1331
  H  H101  1  0.271800  0.788600  0.592900  1.0  0.1164
  H  H102  1  0.242400  0.076000  0.583100  1.0  0.1274
  H  H103  1  0.161300  0.076800  0.580500  1.0  0.1259
  H  H104  1  0.197800  0.060000  0.621200  1.0  0.1181
  H  H105  1  0.334100  0.749900  0.673900  1.0  0.1173
  H  H106  1  0.362300  0.750100  0.629900  1.0  0.1116
  H  H107  1  0.374600  0.685600  0.657400  1.0  0.1158
  H  H108  1  0.644500  0.782300  0.689100  1.0  0.1284
  H  H109  1  0.633300  0.816200  0.647000  1.0  0.1325
  H  H110  1  0.627200  0.861400  0.685800  1.0  0.1275
  H  H111  1  0.548300  0.825700  0.540200  1.0  0.1321
  H  H112  1  0.522400  0.850200  0.582300  1.0  0.1194
  H  H113  1  0.601000  0.834100  0.575500  1.0  0.1278
  H  H114  1  0.493700  0.554600  0.628300  1.0  0.0895
  H  H115  1  0.521700  0.599500  0.663800  1.0  0.1294
  H  H116  1  0.444600  0.607100  0.650000  1.0  0.1184
  H  H117  1  0.268300  0.821000  0.843000  1.0  0.1245
  H  H118  1  0.204700  0.861800  0.860000  1.0  0.1276
  H  H119  1  0.205700  0.838900  0.815100  1.0  0.1357
  H  H120  1  0.304100  0.128800  0.808900  1.0  0.1272
  H  H121  1  0.307300  0.116100  0.855200  1.0  0.114
  H  H122  1  0.373900  0.106700  0.829000  1.0  0.1171
  H  H123  1  0.341500  0.990300  0.942900  1.0  0.1375
  H  H124  1  0.352300  0.047000  0.909900  1.0  0.1212
  H  H125  1  0.326200  0.068200  0.952600  1.0  0.1303
  H  H126  1  0.063100  0.016700  0.860600  1.0  0.1239
  H  H127  1  0.118500  0.988400  0.830500  1.0  0.1226
  H  H128  1  0.084000  0.938300  0.861500  1.0  0.134
  H  H129  1  0.644600  0.506000  0.465700  1.0  0.2394
  H  H130  1  0.907800  0.540700  0.317100  1.0  0.2641
  H  H131  1  0.952100  0.596000  0.182300  1.0  0.2696
  H  H132  1  0.981400  0.861300  0.035800  1.0  0.2635
  H  H133  1  0.847600  0.478700  0.226600  1.0  0.243
  H  H134  1  0.598700  0.470200  0.065500  1.0  0.2459
  H  H135  1  0.006800  0.640900  0.276100  1.0  0.2589
  H  H136  1  0.023300  0.899200  0.432400  1.0  0.2306
  H  H137  1  0.733500  0.714200  0.439900  1.0  0.1238
  H  H138  1  0.778700  0.691400  0.403200  1.0  0.1077
  H  H139  1  0.700400  0.709700  0.397200  1.0  0.1212
  H  H140  1  0.666667  0.408000  0.420900  1.0  0.122
  H  H141  1  0.696100  0.427600  0.378700  1.0  0.1197
  H  H142  1  0.746800  0.412200  0.414300  1.0  0.1102
  H  H143  1  0.696200  0.608200  0.283500  1.0  0.1323
  H  H144  1  0.660100  0.567300  0.318200  1.0  0.1233
  H  H145  1  0.680800  0.645100  0.324300  1.0  0.1324
  H  H146  1  0.919600  0.547000  0.405500  1.0  0.1307
  H  H147  1  0.866000  0.488100  0.414500  1.0  0.1287
  H  H148  1  0.923100  0.477000  0.381800  1.0  0.1182
  H  H149  1  0.867700  0.804200  0.214900  1.0  0.131
  H  H150  1  0.879100  0.839200  0.173100  1.0  0.129
  H  H151  1  0.812300  0.795400  0.181100  1.0  0.1337
  H  H152  1  0.965700  0.568700  0.105800  1.0  0.1103
  H  H153  1  0.980800  0.634600  0.079900  1.0  0.1293
  H  H154  1  0.035000  0.609500  0.111600  1.0  0.1338
  H  H155  1  0.774300  0.805900  0.103400  1.0  0.1135
  H  H156  1  0.768900  0.780600  0.059000  1.0  0.1317
  H  H157  1  0.788600  0.728200  0.092900  1.0  0.113
  H  H158  1  0.076000  0.757600  0.083100  1.0  0.1269
  H  H159  1  0.076800  0.838700  0.080500  1.0  0.1247
  H  H160  1  0.060000  0.802200  0.121200  1.0  0.1182
  H  H161  1  0.749900  0.665900  0.173900  1.0  0.1184
  H  H162  1  0.750100  0.637700  0.129900  1.0  0.1119
  H  H163  1  0.685600  0.625400  0.157400  1.0  0.1156
  H  H164  1  0.782300  0.355500  0.189100  1.0  0.1274
  H  H165  1  0.816200  0.366700  0.147000  1.0  0.1326
  H  H166  1  0.861400  0.372800  0.185800  1.0  0.1235
  H  H167  1  0.825700  0.451700  0.040200  1.0  0.1325
  H  H168  1  0.850200  0.477600  0.082300  1.0  0.1208
  H  H169  1  0.834100  0.399000  0.075500  1.0  0.1309
  H  H170  1  0.554600  0.506300  0.128300  1.0  0.0882
  H  H171  1  0.599500  0.478300  0.163800  1.0  0.1306
  H  H172  1  0.607100  0.555400  0.150000  1.0  0.1204
  H  H173  1  0.821000  0.731700  0.343000  1.0  0.125
  H  H174  1  0.861800  0.795300  0.360000  1.0  0.1271
  H  H175  1  0.838900  0.794300  0.315100  1.0  0.1359
  H  H176  1  0.128800  0.695900  0.308900  1.0  0.1276
  H  H177  1  0.116100  0.692700  0.355200  1.0  0.1141
  H  H178  1  0.106700  0.626100  0.329000  1.0  0.1201
  H  H179  1  0.990300  0.658500  0.442900  1.0  0.1365
  H  H180  1  0.047000  0.647700  0.409900  1.0  0.1209
  H  H181  1  0.068200  0.673800  0.452600  1.0  0.1306
  H  H182  1  0.016700  0.936900  0.360600  1.0  0.124
  H  H183  1  0.988400  0.881500  0.330500  1.0  0.1217
  H  H184  1  0.938300  0.916000  0.361500  1.0  0.1335
  H  H185  1  0.355400  0.494000  0.465700  1.0  0.2388
  H  H186  1  0.092200  0.459300  0.317100  1.0  0.2665
  H  H187  1  0.047900  0.404000  0.182300  1.0  0.2713
  H  H188  1  0.018600  0.138700  0.035800  1.0  0.2636
  H  H189  1  0.152400  0.521300  0.226600  1.0  0.2434
  H  H190  1  0.401300  0.529800  0.065500  1.0  0.2447
  H  H191  1  0.993200  0.359100  0.276100  1.0  0.2594
  H  H192  1  0.976700  0.100800  0.432400  1.0  0.2301
  H  H193  1  0.266500  0.285800  0.439900  1.0  0.1242
  H  H194  1  0.221300  0.308600  0.403200  1.0  0.1093
  H  H195  1  0.299600  0.290300  0.397200  1.0  0.121
  H  H196  1  0.333400  0.592000  0.420900  1.0  0.1265
  H  H197  1  0.303900  0.572400  0.378700  1.0  0.1199
  H  H198  1  0.253200  0.587800  0.414300  1.0  0.1083
  H  H199  1  0.303800  0.391800  0.283500  1.0  0.1326
  H  H200  1  0.339900  0.432700  0.318200  1.0  0.1233
  H  H201  1  0.319200  0.354900  0.324300  1.0  0.1317
  H  H202  1  0.080400  0.453000  0.405500  1.0  0.1316
  H  H203  1  0.134000  0.511900  0.414500  1.0  0.1283
  H  H204  1  0.076900  0.523000  0.381800  1.0  0.1188
  H  H205  1  0.132300  0.195800  0.214900  1.0  0.1312
  H  H206  1  0.120900  0.160800  0.173100  1.0  0.1297
  H  H207  1  0.187700  0.204600  0.181100  1.0  0.1333
  H  H208  1  0.034300  0.431300  0.105800  1.0  0.1123
  H  H209  1  0.019200  0.365400  0.079900  1.0  0.1301
  H  H210  1  0.965000  0.390500  0.111600  1.0  0.1347
  H  H211  1  0.225700  0.194100  0.103400  1.0  0.1143
  H  H212  1  0.231100  0.219400  0.059000  1.0  0.1314
  H  H213  1  0.211400  0.271800  0.092900  1.0  0.1145
  H  H214  1  0.924000  0.242400  0.083100  1.0  0.1276
  H  H215  1  0.923200  0.161300  0.080500  1.0  0.1239
  H  H216  1  0.940000  0.197800  0.121200  1.0  0.1187
  H  H217  1  0.250100  0.334100  0.173900  1.0  0.1186
  H  H218  1  0.249900  0.362300  0.129900  1.0  0.1119
  H  H219  1  0.314400  0.374600  0.157400  1.0  0.1156
  H  H220  1  0.217700  0.644500  0.189100  1.0  0.1281
  H  H221  1  0.183800  0.633300  0.147000  1.0  0.1325
  H  H222  1  0.138600  0.627200  0.185800  1.0  0.1258
  H  H223  1  0.174300  0.548300  0.040200  1.0  0.1323
  H  H224  1  0.149800  0.522400  0.082300  1.0  0.1196
  H  H225  1  0.165900  0.601000  0.075500  1.0  0.1324
  H  H226  1  0.445400  0.493700  0.128300  1.0  0.086
  H  H227  1  0.400500  0.521700  0.163800  1.0  0.1292
  H  H228  1  0.392900  0.444600  0.150000  1.0  0.1211
  H  H229  1  0.179000  0.268300  0.343000  1.0  0.1252
  H  H230  1  0.138200  0.204700  0.360000  1.0  0.1267
  H  H231  1  0.161100  0.205700  0.315100  1.0  0.1369
  H  H232  1  0.871200  0.304100  0.308900  1.0  0.1271
  H  H233  1  0.883900  0.307300  0.355200  1.0  0.1131
  H  H234  1  0.893300  0.373900  0.329000  1.0  0.1219
  H  H235  1  0.009700  0.341500  0.442900  1.0  0.1347
  H  H236  1  0.953000  0.352300  0.409900  1.0  0.1212
  H  H237  1  0.931800  0.326200  0.452600  1.0  0.1304
  H  H238  1  0.983300  0.063100  0.360600  1.0  0.1243
  H  H239  1  0.011600  0.118500  0.330500  1.0  0.1218
  H  H240  1  0.061700  0.084000  0.361500  1.0  0.1351
  H  H241  1  0.494000  0.644600  0.034300  1.0  0.2375
  H  H242  1  0.459300  0.907800  0.182900  1.0  0.2602
  H  H243  1  0.404000  0.952100  0.317700  1.0  0.2741
  H  H244  1  0.138700  0.981400  0.464200  1.0  0.2634
  H  H245  1  0.521300  0.847600  0.273400  1.0  0.2443
  H  H246  1  0.529800  0.598700  0.434500  1.0  0.241
  H  H247  1  0.359100  0.006800  0.223900  1.0  0.2603
  H  H248  1  0.100800  0.023300  0.067600  1.0  0.2365
  H  H249  1  0.285800  0.733500  0.060100  1.0  0.1239
  H  H250  1  0.308600  0.778700  0.096800  1.0  0.1119
  H  H251  1  0.290300  0.700400  0.102800  1.0  0.121
  H  H252  1  0.592000  0.666667  0.079100  1.0  0.1223
  H  H253  1  0.572400  0.696100  0.121300  1.0  0.1199
  H  H254  1  0.587800  0.746800  0.085700  1.0  0.1115
  H  H255  1  0.391800  0.696200  0.216500  1.0  0.1303
  H  H256  1  0.432700  0.660100  0.181800  1.0  0.1233
  H  H257  1  0.354900  0.680800  0.175700  1.0  0.1292
  H  H258  1  0.453000  0.919600  0.094500  1.0  0.1298
  H  H259  1  0.511900  0.866000  0.085500  1.0  0.1268
  H  H260  1  0.523000  0.923100  0.118200  1.0  0.1188
  H  H261  1  0.195800  0.867700  0.285100  1.0  0.1298
  H  H262  1  0.160800  0.879100  0.326900  1.0  0.1253
  H  H263  1  0.204600  0.812300  0.318900  1.0  0.1358
  H  H264  1  0.431300  0.965700  0.394200  1.0  0.1073
  H  H265  1  0.365400  0.980800  0.420100  1.0  0.1316
  H  H266  1  0.390500  0.035000  0.388400  1.0  0.1337
  H  H267  1  0.194100  0.774300  0.396600  1.0  0.1129
  H  H268  1  0.219400  0.768900  0.441000  1.0  0.1336
  H  H269  1  0.271800  0.788600  0.407100  1.0  0.1156
  H  H270  1  0.242400  0.076000  0.416900  1.0  0.1269
  H  H271  1  0.161300  0.076800  0.419500  1.0  0.1254
  H  H272  1  0.197800  0.060000  0.378800  1.0  0.1182
  H  H273  1  0.334100  0.749900  0.326100  1.0  0.116
  H  H274  1  0.362300  0.750100  0.370100  1.0  0.1117
  H  H275  1  0.374600  0.685600  0.342600  1.0  0.1156
  H  H276  1  0.644500  0.782300  0.310900  1.0  0.1282
  H  H277  1  0.633300  0.816200  0.353000  1.0  0.1328
  H  H278  1  0.627200  0.861400  0.314200  1.0  0.1283
  H  H279  1  0.548300  0.825700  0.459800  1.0  0.1327
  H  H280  1  0.522400  0.850200  0.417700  1.0  0.1217
  H  H281  1  0.601000  0.834100  0.424500  1.0  0.1277
  H  H282  1  0.493700  0.554600  0.371700  1.0  0.0903
  H  H283  1  0.521700  0.599500  0.336200  1.0  0.1283
  H  H284  1  0.444600  0.607100  0.350000  1.0  0.1177
  H  H285  1  0.268300  0.821000  0.157000  1.0  0.1243
  H  H286  1  0.204700  0.861800  0.140000  1.0  0.1269
  H  H287  1  0.205700  0.838900  0.184900  1.0  0.136
  H  H288  1  0.304100  0.128800  0.191100  1.0  0.127
  H  H289  1  0.307300  0.116100  0.144800  1.0  0.1137
  H  H290  1  0.373900  0.106700  0.171000  1.0  0.1173
  H  H291  1  0.341500  0.990300  0.057100  1.0  0.1362
  H  H292  1  0.352300  0.047000  0.090100  1.0  0.1216
  H  H293  1  0.326200  0.068200  0.047400  1.0  0.1305
  H  H294  1  0.063100  0.016700  0.139400  1.0  0.1239
  H  H295  1  0.118500  0.988400  0.169500  1.0  0.1243
  H  H296  1  0.084000  0.938300  0.138500  1.0  0.1346
  H  H297  1  0.506000  0.355400  0.034300  1.0  0.2375
  H  H298  1  0.540700  0.092200  0.182900  1.0  0.2602
  H  H299  1  0.596000  0.047900  0.317700  1.0  0.2749
  H  H300  1  0.861300  0.018600  0.464200  1.0  0.2631
  H  H301  1  0.478700  0.152400  0.273400  1.0  0.2438
  H  H302  1  0.470200  0.401300  0.434500  1.0  0.241
  H  H303  1  0.640900  0.993200  0.223900  1.0  0.2601
  H  H304  1  0.899200  0.976700  0.067600  1.0  0.2342
  H  H305  1  0.714200  0.266500  0.060100  1.0  0.1243
  H  H306  1  0.691400  0.221300  0.096800  1.0  0.11
  H  H307  1  0.709700  0.299600  0.102800  1.0  0.121
  H  H308  1  0.408000  0.333400  0.079100  1.0  0.1257
  H  H309  1  0.427600  0.303900  0.121300  1.0  0.1202
  H  H310  1  0.412200  0.253200  0.085700  1.0  0.1093
  H  H311  1  0.608200  0.303800  0.216500  1.0  0.1308
  H  H312  1  0.567300  0.339900  0.181800  1.0  0.1235
  H  H313  1  0.645100  0.319200  0.175700  1.0  0.1309
  H  H314  1  0.547000  0.080400  0.094500  1.0  0.1301
  H  H315  1  0.488100  0.134000  0.085500  1.0  0.1263
  H  H316  1  0.477000  0.076900  0.118200  1.0  0.1185
  H  H317  1  0.804200  0.132300  0.285100  1.0  0.1296
  H  H318  1  0.839200  0.120900  0.326900  1.0  0.1282
  H  H319  1  0.795400  0.187700  0.318900  1.0  0.1369
  H  H320  1  0.568700  0.034300  0.394200  1.0  0.1093
  H  H321  1  0.634600  0.019200  0.420100  1.0  0.1318
  H  H322  1  0.609500  0.965000  0.388400  1.0  0.1309
  H  H323  1  0.805900  0.225700  0.396600  1.0  0.1128
  H  H324  1  0.780600  0.231100  0.441000  1.0  0.1337
  H  H325  1  0.728200  0.211400  0.407100  1.0  0.1161
  H  H326  1  0.757600  0.924000  0.416900  1.0  0.1262
  H  H327  1  0.838700  0.923200  0.419500  1.0  0.1246
  H  H328  1  0.802200  0.940000  0.378800  1.0  0.1189
  H  H329  1  0.665900  0.250100  0.326100  1.0  0.1167
  H  H330  1  0.637700  0.249900  0.370100  1.0  0.1118
  H  H331  1  0.625400  0.314400  0.342600  1.0  0.1154
  H  H332  1  0.355500  0.217700  0.310900  1.0  0.1281
  H  H333  1  0.366700  0.183800  0.353000  1.0  0.133
  H  H334  1  0.372800  0.138600  0.314200  1.0  0.1265
  H  H335  1  0.451700  0.174300  0.459800  1.0  0.1324
  H  H336  1  0.477600  0.149800  0.417700  1.0  0.122
  H  H337  1  0.399000  0.165900  0.424500  1.0  0.1287
  H  H338  1  0.506300  0.445400  0.371700  1.0  0.09
  H  H339  1  0.478300  0.400500  0.336200  1.0  0.1289
  H  H340  1  0.555400  0.392900  0.350000  1.0  0.1211
  H  H341  1  0.731700  0.179000  0.157000  1.0  0.1248
  H  H342  1  0.795300  0.138200  0.140000  1.0  0.1282
  H  H343  1  0.794300  0.161100  0.184900  1.0  0.1344
  H  H344  1  0.695900  0.871200  0.191100  1.0  0.1271
  H  H345  1  0.692700  0.883900  0.144800  1.0  0.1143
  H  H346  1  0.626100  0.893300  0.171000  1.0  0.1191
  H  H347  1  0.658500  0.009700  0.057100  1.0  0.1361
  H  H348  1  0.647700  0.953000  0.090100  1.0  0.1211
  H  H349  1  0.673800  0.931800  0.047400  1.0  0.131
  H  H350  1  0.936900  0.983300  0.139400  1.0  0.1248
  H  H351  1  0.881500  0.011600  0.169500  1.0  0.1237
  H  H352  1  0.916000  0.061700  0.138500  1.0  0.1326
  H  H353  1  0.355400  0.494000  0.534300  1.0  0.2374
  H  H354  1  0.092200  0.459300  0.682900  1.0  0.2654
  H  H355  1  0.047900  0.404000  0.817700  1.0  0.2714
  H  H356  1  0.018600  0.138700  0.964200  1.0  0.2638
  H  H357  1  0.152400  0.521300  0.773400  1.0  0.244
  H  H358  1  0.401300  0.529800  0.934500  1.0  0.2449
  H  H359  1  0.993200  0.359100  0.723900  1.0  0.2605
  H  H360  1  0.976700  0.100800  0.567600  1.0  0.2303
  H  H361  1  0.266500  0.285800  0.560100  1.0  0.1236
  H  H362  1  0.221300  0.308600  0.596800  1.0  0.109
  H  H363  1  0.299600  0.290300  0.602800  1.0  0.1216
  H  H364  1  0.333400  0.592000  0.579100  1.0  0.1272
  H  H365  1  0.303900  0.572400  0.621300  1.0  0.1189
  H  H366  1  0.253200  0.587800  0.585700  1.0  0.1087
  H  H367  1  0.303800  0.391800  0.716500  1.0  0.1313
  H  H368  1  0.339900  0.432700  0.681800  1.0  0.1232
  H  H369  1  0.319200  0.354900  0.675700  1.0  0.132
  H  H370  1  0.080400  0.453000  0.594500  1.0  0.1298
  H  H371  1  0.134000  0.511900  0.585500  1.0  0.1261
  H  H372  1  0.076900  0.523000  0.618200  1.0  0.1185
  H  H373  1  0.132300  0.195800  0.785100  1.0  0.1295
  H  H374  1  0.120900  0.160800  0.826900  1.0  0.1279
  H  H375  1  0.187700  0.204600  0.818900  1.0  0.1338
  H  H376  1  0.034300  0.431300  0.894200  1.0  0.1102
  H  H377  1  0.019200  0.365400  0.920100  1.0  0.1307
  H  H378  1  0.965000  0.390500  0.888400  1.0  0.1342
  H  H379  1  0.225700  0.194100  0.896600  1.0  0.1132
  H  H380  1  0.231100  0.219400  0.941000  1.0  0.1315
  H  H381  1  0.211400  0.271800  0.907100  1.0  0.1141
  H  H382  1  0.924000  0.242400  0.916900  1.0  0.1271
  H  H383  1  0.923200  0.161300  0.919500  1.0  0.1244
  H  H384  1  0.940000  0.197800  0.878800  1.0  0.1188
  H  H385  1  0.250100  0.334100  0.826100  1.0  0.1173
  H  H386  1  0.249900  0.362300  0.870100  1.0  0.1122
  H  H387  1  0.314400  0.374600  0.842600  1.0  0.1158
  H  H388  1  0.217700  0.644500  0.810900  1.0  0.1285
  H  H389  1  0.183800  0.633300  0.853000  1.0  0.1323
  H  H390  1  0.138600  0.627200  0.814200  1.0  0.126
  H  H391  1  0.174300  0.548300  0.959800  1.0  0.132
  H  H392  1  0.149800  0.522400  0.917700  1.0  0.1226
  H  H393  1  0.165900  0.601000  0.924500  1.0  0.1319
  H  H394  1  0.445400  0.493700  0.871700  1.0  0.087
  H  H395  1  0.400500  0.521700  0.836200  1.0  0.1297
  H  H396  1  0.392900  0.444600  0.850000  1.0  0.121
  H  H397  1  0.179000  0.268300  0.657000  1.0  0.1253
  H  H398  1  0.138200  0.204700  0.640000  1.0  0.1268
  H  H399  1  0.161100  0.205700  0.684900  1.0  0.1367
  H  H400  1  0.871200  0.304100  0.691100  1.0  0.1269
  H  H401  1  0.883900  0.307300  0.644800  1.0  0.1134
  H  H402  1  0.893300  0.373900  0.671000  1.0  0.1222
  H  H403  1  0.009700  0.341500  0.557100  1.0  0.1363
  H  H404  1  0.953000  0.352300  0.590100  1.0  0.1212
  H  H405  1  0.931800  0.326200  0.547400  1.0  0.1303
  H  H406  1  0.983300  0.063100  0.639400  1.0  0.1241
  H  H407  1  0.011600  0.118500  0.669500  1.0  0.1223
  H  H408  1  0.061700  0.084000  0.638500  1.0  0.1354
  H  H409  1  0.644600  0.506000  0.534300  1.0  0.2372
  H  H410  1  0.907800  0.540700  0.682900  1.0  0.2636
  H  H411  1  0.952100  0.596000  0.817700  1.0  0.2696
  H  H412  1  0.981400  0.861300  0.964200  1.0  0.2627
  H  H413  1  0.847600  0.478700  0.773400  1.0  0.2439
  H  H414  1  0.598700  0.470200  0.934500  1.0  0.2449
  H  H415  1  0.006800  0.640900  0.723900  1.0  0.2599
  H  H416  1  0.023300  0.899200  0.567600  1.0  0.2311
  H  H417  1  0.733500  0.714200  0.560100  1.0  0.1239
  H  H418  1  0.778700  0.691400  0.596800  1.0  0.1087
  H  H419  1  0.700400  0.709700  0.602800  1.0  0.1207
  H  H420  1  0.666667  0.408000  0.579100  1.0  0.1215
  H  H421  1  0.696100  0.427600  0.621300  1.0  0.1191
  H  H422  1  0.746800  0.412200  0.585700  1.0  0.1099
  H  H423  1  0.696200  0.608200  0.716500  1.0  0.1315
  H  H424  1  0.660100  0.567300  0.681800  1.0  0.1245
  H  H425  1  0.680800  0.645100  0.675700  1.0  0.1327
  H  H426  1  0.919600  0.547000  0.594500  1.0  0.1305
  H  H427  1  0.866000  0.488100  0.585500  1.0  0.1272
  H  H428  1  0.923100  0.477000  0.618200  1.0  0.1185
  H  H429  1  0.867700  0.804200  0.785100  1.0  0.1305
  H  H430  1  0.879100  0.839200  0.826900  1.0  0.1287
  H  H431  1  0.812300  0.795400  0.818900  1.0  0.1341
  H  H432  1  0.965700  0.568700  0.894200  1.0  0.1098
  H  H433  1  0.980800  0.634600  0.920100  1.0  0.1306
  H  H434  1  0.035000  0.609500  0.888400  1.0  0.1337
  H  H435  1  0.774300  0.805900  0.896600  1.0  0.1131
  H  H436  1  0.768900  0.780600  0.941000  1.0  0.1326
  H  H437  1  0.788600  0.728200  0.907100  1.0  0.1134
  H  H438  1  0.076000  0.757600  0.916900  1.0  0.1265
  H  H439  1  0.076800  0.838700  0.919500  1.0  0.1241
  H  H440  1  0.060000  0.802200  0.878800  1.0  0.1188
  H  H441  1  0.749900  0.665900  0.826100  1.0  0.1177
  H  H442  1  0.750100  0.637700  0.870100  1.0  0.1123
  H  H443  1  0.685600  0.625400  0.842600  1.0  0.1159
  H  H444  1  0.782300  0.355500  0.810900  1.0  0.1273
  H  H445  1  0.816200  0.366700  0.853000  1.0  0.1328
  H  H446  1  0.861400  0.372800  0.814200  1.0  0.1235
  H  H447  1  0.825700  0.451700  0.959800  1.0  0.1324
  H  H448  1  0.850200  0.477600  0.917700  1.0  0.1224
  H  H449  1  0.834100  0.399000  0.924500  1.0  0.1302
  H  H450  1  0.554600  0.506300  0.871700  1.0  0.0876
  H  H451  1  0.599500  0.478300  0.836200  1.0  0.1296
  H  H452  1  0.607100  0.555400  0.850000  1.0  0.1214
  H  H453  1  0.821000  0.731700  0.657000  1.0  0.1251
  H  H454  1  0.861800  0.795300  0.640000  1.0  0.1274
  H  H455  1  0.838900  0.794300  0.684900  1.0  0.1361
  H  H456  1  0.128800  0.695900  0.691100  1.0  0.1277
  H  H457  1  0.116100  0.692700  0.644800  1.0  0.1131
  H  H458  1  0.106700  0.626100  0.671000  1.0  0.1201
  H  H459  1  0.990300  0.658500  0.557100  1.0  0.1345
  H  H460  1  0.047000  0.647700  0.590100  1.0  0.1215
  H  H461  1  0.068200  0.673800  0.547400  1.0  0.1304
  H  H462  1  0.016700  0.936900  0.639400  1.0  0.1243
  H  H463  1  0.988400  0.881500  0.669500  1.0  0.1225
  H  H464  1  0.938300  0.916000  0.638500  1.0  0.1333
  C  C465  1  0.689300  0.266500  0.915000  1.0  -0.4103
  C  C466  1  0.617900  0.284900  0.922300  1.0  0.2423
  C  C467  1  0.559500  0.266900  0.899600  1.0  -0.1687
  C  C468  1  0.504100  0.298200  0.918000  1.0  0.1682
  C  C469  1  0.431900  0.297100  0.907100  1.0  -0.4081
  C  C470  1  0.602200  0.306100  0.811900  1.0  -0.4097
  C  C471  1  0.580800  0.238800  0.826900  1.0  0.2325
  C  C472  1  0.558700  0.220900  0.864600  1.0  -0.0629
  C  C473  1  0.539100  0.154600  0.863000  1.0  0.1588
  C  C474  1  0.510200  0.107300  0.893900  1.0  -0.4014
  C  C475  1  0.799300  0.139100  0.686600  1.0  -0.4229
  C  C476  1  0.735900  0.102700  0.672200  1.0  0.2095
  C  C477  1  0.723500  0.075200  0.634100  1.0  -0.196
  C  C478  1  0.658000  0.047200  0.636700  1.0  0.1584
  C  C479  1  0.613800  0.013400  0.605700  1.0  -0.4129
  C  C480  1  0.775000  0.206700  0.583800  1.0  -0.4175
  C  C481  1  0.791000  0.133200  0.577800  1.0  0.2004
  C  C482  1  0.769400  0.076000  0.599100  1.0  -0.0834
  C  C483  1  0.799200  0.019000  0.582500  1.0  0.1081
  C  C484  1  0.799400  0.945200  0.592700  1.0  -0.4054
  C  C485  1  0.628700  0.264900  0.656800  1.0  -0.3925
  C  C486  1  0.563100  0.234300  0.670900  1.0  0.1921
  C  C487  1  0.499400  0.236500  0.652500  1.0  -0.1736
  C  C488  1  0.455800  0.199500  0.676800  1.0  0.1341
  C  C489  1  0.381200  0.183500  0.674500  1.0  -0.3853
  C  C490  1  0.445300  0.179100  0.568500  1.0  -0.4181
  C  C491  1  0.457300  0.252700  0.580300  1.0  0.2322
  C  C492  1  0.481500  0.275300  0.616800  1.0  -0.1548
  C  C493  1  0.488200  0.346400  0.612600  1.0  0.175
  C  C494  1  0.508900  0.401100  0.641200  1.0  -0.3808
  C  C495  1  0.766500  0.145200  0.837000  1.0  -0.4196
  C  C496  1  0.732800  0.078800  0.825900  1.0  0.2105
  C  C497  1  0.735700  0.015400  0.845500  1.0  -0.2074
  C  C498  1  0.693100  0.972000  0.823400  1.0  0.1691
  C  C499  1  0.675400  0.898700  0.829700  1.0  -0.4124
  C  C500  1  0.675700  0.966900  0.932300  1.0  -0.4098
  C  C501  1  0.749100  0.976200  0.918900  1.0  0.2063
  C  C502  1  0.774000  0.998000  0.882000  1.0  -0.18
  C  C503  1  0.844500  0.999800  0.885900  1.0  0.1635
  C  C504  1  0.899500  0.015500  0.857100  1.0  -0.3959
  C  C505  1  0.723800  0.303300  0.736800  1.0  0.1444
  C  C506  1  0.310700  0.733500  0.915000  1.0  -0.4086
  C  C507  1  0.382100  0.715100  0.922300  1.0  0.2414
  C  C508  1  0.440500  0.733100  0.899600  1.0  -0.1689
  C  C509  1  0.495900  0.701800  0.918000  1.0  0.1682
  C  C510  1  0.568100  0.702900  0.907100  1.0  -0.4046
  C  C511  1  0.397800  0.693900  0.811900  1.0  -0.4122
  C  C512  1  0.419200  0.761200  0.826900  1.0  0.2326
  C  C513  1  0.441300  0.779100  0.864600  1.0  -0.063
  C  C514  1  0.460900  0.845400  0.863000  1.0  0.1582
  C  C515  1  0.489800  0.892700  0.893900  1.0  -0.4014
  C  C516  1  0.200700  0.860900  0.686600  1.0  -0.4225
  C  C517  1  0.264100  0.897300  0.672200  1.0  0.2081
  C  C518  1  0.276500  0.924800  0.634100  1.0  -0.1956
  C  C519  1  0.342000  0.952800  0.636700  1.0  0.1579
  C  C520  1  0.386200  0.986600  0.605700  1.0  -0.4146
  C  C521  1  0.225000  0.793300  0.583800  1.0  -0.4203
  C  C522  1  0.209000  0.866800  0.577800  1.0  0.2008
  C  C523  1  0.230600  0.924000  0.599100  1.0  -0.0825
  C  C524  1  0.200800  0.981000  0.582500  1.0  0.1089
  C  C525  1  0.200600  0.054800  0.592700  1.0  -0.4042
  C  C526  1  0.371300  0.735100  0.656800  1.0  -0.3919
  C  C527  1  0.436900  0.765700  0.670900  1.0  0.1924
  C  C528  1  0.500600  0.763500  0.652500  1.0  -0.1738
  C  C529  1  0.544200  0.800500  0.676800  1.0  0.134
  C  C530  1  0.618800  0.816500  0.674500  1.0  -0.3851
  C  C531  1  0.554700  0.820900  0.568500  1.0  -0.4162
  C  C532  1  0.542700  0.747300  0.580300  1.0  0.231
  C  C533  1  0.518500  0.724700  0.616800  1.0  -0.1567
  C  C534  1  0.511800  0.653600  0.612600  1.0  0.174
  C  C535  1  0.491100  0.598900  0.641200  1.0  -0.3818
  C  C536  1  0.233500  0.854800  0.837000  1.0  -0.4199
  C  C537  1  0.267200  0.921200  0.825900  1.0  0.21
  C  C538  1  0.264300  0.984600  0.845500  1.0  -0.208
  C  C539  1  0.306900  0.028000  0.823400  1.0  0.1683
  C  C540  1  0.324600  0.101300  0.829700  1.0  -0.4123
  C  C541  1  0.324300  0.033100  0.932300  1.0  -0.41
  C  C542  1  0.250900  0.023800  0.918900  1.0  0.2078
  C  C543  1  0.226000  0.002000  0.882000  1.0  -0.1799
  C  C544  1  0.155500  0.000200  0.885900  1.0  0.1632
  C  C545  1  0.100500  0.984500  0.857100  1.0  -0.3936
  C  C546  1  0.276200  0.696700  0.736800  1.0  0.1439
  C  C547  1  0.733500  0.689300  0.415000  1.0  -0.4108
  C  C548  1  0.715100  0.617900  0.422300  1.0  0.242
  C  C549  1  0.733100  0.559500  0.399600  1.0  -0.1689
  C  C550  1  0.701800  0.504100  0.418000  1.0  0.1677
  C  C551  1  0.702900  0.431900  0.407100  1.0  -0.4045
  C  C552  1  0.693900  0.602200  0.311900  1.0  -0.4098
  C  C553  1  0.761200  0.580800  0.326900  1.0  0.2311
  C  C554  1  0.779100  0.558700  0.364600  1.0  -0.0622
  C  C555  1  0.845400  0.539100  0.363000  1.0  0.1594
  C  C556  1  0.892700  0.510200  0.393900  1.0  -0.4019
  C  C557  1  0.860900  0.799300  0.186600  1.0  -0.4237
  C  C558  1  0.897300  0.735900  0.172200  1.0  0.21
  C  C559  1  0.924800  0.723500  0.134100  1.0  -0.1961
  C  C560  1  0.952800  0.658000  0.136700  1.0  0.16
  C  C561  1  0.986600  0.613800  0.105700  1.0  -0.4136
  C  C562  1  0.793300  0.775000  0.083800  1.0  -0.416
  C  C563  1  0.866800  0.791000  0.077800  1.0  0.2012
  C  C564  1  0.924000  0.769400  0.099100  1.0  -0.0826
  C  C565  1  0.981000  0.799200  0.082500  1.0  0.1092
  C  C566  1  0.054800  0.799400  0.092700  1.0  -0.4042
  C  C567  1  0.735100  0.628700  0.156800  1.0  -0.3928
  C  C568  1  0.765700  0.563100  0.170900  1.0  0.1909
  C  C569  1  0.763500  0.499400  0.152500  1.0  -0.1735
  C  C570  1  0.800500  0.455800  0.176800  1.0  0.1345
  C  C571  1  0.816500  0.381200  0.174500  1.0  -0.3861
  C  C572  1  0.820900  0.445300  0.068500  1.0  -0.4177
  C  C573  1  0.747300  0.457300  0.080300  1.0  0.2318
  C  C574  1  0.724700  0.481500  0.116800  1.0  -0.1563
  C  C575  1  0.653600  0.488200  0.112600  1.0  0.1735
  C  C576  1  0.598900  0.508900  0.141200  1.0  -0.3806
  C  C577  1  0.854800  0.766500  0.337000  1.0  -0.4172
  C  C578  1  0.921200  0.732800  0.325900  1.0  0.2121
  C  C579  1  0.984600  0.735700  0.345500  1.0  -0.2054
  C  C580  1  0.028000  0.693100  0.323400  1.0  0.1688
  C  C581  1  0.101300  0.675400  0.329700  1.0  -0.4155
  C  C582  1  0.033100  0.675700  0.432300  1.0  -0.4132
  C  C583  1  0.023800  0.749100  0.418900  1.0  0.2086
  C  C584  1  0.002000  0.774000  0.382000  1.0  -0.1804
  C  C585  1  0.000200  0.844500  0.385900  1.0  0.1633
  C  C586  1  0.984500  0.899500  0.357100  1.0  -0.3936
  C  C587  1  0.696700  0.723800  0.236800  1.0  0.1437
  C  C588  1  0.266500  0.310700  0.415000  1.0  -0.4124
  C  C589  1  0.284900  0.382100  0.422300  1.0  0.2417
  C  C590  1  0.266900  0.440500  0.399600  1.0  -0.1684
  C  C591  1  0.298200  0.495900  0.418000  1.0  0.168
  C  C592  1  0.297100  0.568100  0.407100  1.0  -0.4068
  C  C593  1  0.306100  0.397800  0.311900  1.0  -0.4103
  C  C594  1  0.238800  0.419200  0.326900  1.0  0.2318
  C  C595  1  0.220900  0.441300  0.364600  1.0  -0.0631
  C  C596  1  0.154600  0.460900  0.363000  1.0  0.158
  C  C597  1  0.107300  0.489800  0.393900  1.0  -0.401
  C  C598  1  0.139100  0.200700  0.186600  1.0  -0.424
  C  C599  1  0.102700  0.264100  0.172200  1.0  0.2109
  C  C600  1  0.075200  0.276500  0.134100  1.0  -0.1959
  C  C601  1  0.047200  0.342000  0.136700  1.0  0.159
  C  C602  1  0.013400  0.386200  0.105700  1.0  -0.4137
  C  C603  1  0.206700  0.225000  0.083800  1.0  -0.4178
  C  C604  1  0.133200  0.209000  0.077800  1.0  0.2013
  C  C605  1  0.076000  0.230600  0.099100  1.0  -0.0825
  C  C606  1  0.019000  0.200800  0.082500  1.0  0.1089
  C  C607  1  0.945200  0.200600  0.092700  1.0  -0.4039
  C  C608  1  0.264900  0.371300  0.156800  1.0  -0.3943
  C  C609  1  0.234300  0.436900  0.170900  1.0  0.191
  C  C610  1  0.236500  0.500600  0.152500  1.0  -0.1735
  C  C611  1  0.199500  0.544200  0.176800  1.0  0.1345
  C  C612  1  0.183500  0.618800  0.174500  1.0  -0.3861
  C  C613  1  0.179100  0.554700  0.068500  1.0  -0.4161
  C  C614  1  0.252700  0.542700  0.080300  1.0  0.2257
  C  C615  1  0.275300  0.518500  0.116800  1.0  -0.1568
  C  C616  1  0.346400  0.511800  0.112600  1.0  0.1731
  C  C617  1  0.401100  0.491100  0.141200  1.0  -0.3808
  C  C618  1  0.145200  0.233500  0.337000  1.0  -0.418
  C  C619  1  0.078800  0.267200  0.325900  1.0  0.2124
  C  C620  1  0.015400  0.264300  0.345500  1.0  -0.2051
  C  C621  1  0.972000  0.306900  0.323400  1.0  0.1669
  C  C622  1  0.898700  0.324600  0.329700  1.0  -0.4136
  C  C623  1  0.966900  0.324300  0.432300  1.0  -0.4126
  C  C624  1  0.976200  0.250900  0.418900  1.0  0.2082
  C  C625  1  0.998000  0.226000  0.382000  1.0  -0.1794
  C  C626  1  0.999800  0.155500  0.385900  1.0  0.1649
  C  C627  1  0.015500  0.100500  0.357100  1.0  -0.3962
  C  C628  1  0.303300  0.276200  0.236800  1.0  0.146
  C  C629  1  0.310700  0.733500  0.085000  1.0  -0.4087
  C  C630  1  0.382100  0.715100  0.077700  1.0  0.2422
  C  C631  1  0.440500  0.733100  0.100400  1.0  -0.1691
  C  C632  1  0.495900  0.701800  0.082000  1.0  0.1696
  C  C633  1  0.568100  0.702900  0.092900  1.0  -0.4046
  C  C634  1  0.397800  0.693900  0.188100  1.0  -0.4126
  C  C635  1  0.419200  0.761200  0.173100  1.0  0.2322
  C  C636  1  0.441300  0.779100  0.135400  1.0  -0.0623
  C  C637  1  0.460900  0.845400  0.137000  1.0  0.1586
  C  C638  1  0.489800  0.892700  0.106100  1.0  -0.4015
  C  C639  1  0.200700  0.860900  0.313400  1.0  -0.421
  C  C640  1  0.264100  0.897300  0.327800  1.0  0.2072
  C  C641  1  0.276500  0.924800  0.365900  1.0  -0.1968
  C  C642  1  0.342000  0.952800  0.363300  1.0  0.1577
  C  C643  1  0.386200  0.986600  0.394300  1.0  -0.4145
  C  C644  1  0.225000  0.793300  0.416200  1.0  -0.4213
  C  C645  1  0.209000  0.866800  0.422200  1.0  0.1997
  C  C646  1  0.230600  0.924000  0.400900  1.0  -0.0817
  C  C647  1  0.200800  0.981000  0.417500  1.0  0.1084
  C  C648  1  0.200600  0.054800  0.407300  1.0  -0.4039
  C  C649  1  0.371300  0.735100  0.343200  1.0  -0.3923
  C  C650  1  0.436900  0.765700  0.329100  1.0  0.1931
  C  C651  1  0.500600  0.763500  0.347500  1.0  -0.1762
  C  C652  1  0.544200  0.800500  0.323200  1.0  0.1341
  C  C653  1  0.618800  0.816500  0.325500  1.0  -0.385
  C  C654  1  0.554700  0.820900  0.431500  1.0  -0.4183
  C  C655  1  0.542700  0.747300  0.419700  1.0  0.2311
  C  C656  1  0.518500  0.724700  0.383200  1.0  -0.1562
  C  C657  1  0.511800  0.653600  0.387400  1.0  0.1741
  C  C658  1  0.491100  0.598900  0.358800  1.0  -0.3814
  C  C659  1  0.233500  0.854800  0.163000  1.0  -0.4199
  C  C660  1  0.267200  0.921200  0.174100  1.0  0.21
  C  C661  1  0.264300  0.984600  0.154500  1.0  -0.2062
  C  C662  1  0.306900  0.028000  0.176600  1.0  0.1692
  C  C663  1  0.324600  0.101300  0.170300  1.0  -0.4124
  C  C664  1  0.324300  0.033100  0.067700  1.0  -0.4101
  C  C665  1  0.250900  0.023800  0.081100  1.0  0.2092
  C  C666  1  0.226000  0.002000  0.118000  1.0  -0.1809
  C  C667  1  0.155500  0.000200  0.114100  1.0  0.1633
  C  C668  1  0.100500  0.984500  0.142900  1.0  -0.3956
  C  C669  1  0.276200  0.696700  0.263200  1.0  0.1439
  C  C670  1  0.689300  0.266500  0.085000  1.0  -0.4099
  C  C671  1  0.617900  0.284900  0.077700  1.0  0.2422
  C  C672  1  0.559500  0.266900  0.100400  1.0  -0.1693
  C  C673  1  0.504100  0.298200  0.082000  1.0  0.1693
  C  C674  1  0.431900  0.297100  0.092900  1.0  -0.4082
  C  C675  1  0.602200  0.306100  0.188100  1.0  -0.4112
  C  C676  1  0.580800  0.238800  0.173100  1.0  0.2319
  C  C677  1  0.558700  0.220900  0.135400  1.0  -0.0621
  C  C678  1  0.539100  0.154600  0.137000  1.0  0.159
  C  C679  1  0.510200  0.107300  0.106100  1.0  -0.4011
  C  C680  1  0.799300  0.139100  0.313400  1.0  -0.4234
  C  C681  1  0.735900  0.102700  0.327800  1.0  0.2085
  C  C682  1  0.723500  0.075200  0.365900  1.0  -0.1971
  C  C683  1  0.658000  0.047200  0.363300  1.0  0.1584
  C  C684  1  0.613800  0.013400  0.394300  1.0  -0.4138
  C  C685  1  0.775000  0.206700  0.416200  1.0  -0.419
  C  C686  1  0.791000  0.133200  0.422200  1.0  0.1998
  C  C687  1  0.769400  0.076000  0.400900  1.0  -0.0825
  C  C688  1  0.799200  0.019000  0.417500  1.0  0.1078
  C  C689  1  0.799400  0.945200  0.407300  1.0  -0.4053
  C  C690  1  0.628700  0.264900  0.343200  1.0  -0.3927
  C  C691  1  0.563100  0.234300  0.329100  1.0  0.1927
  C  C692  1  0.499400  0.236500  0.347500  1.0  -0.1756
  C  C693  1  0.455800  0.199500  0.323200  1.0  0.1345
  C  C694  1  0.381200  0.183500  0.325500  1.0  -0.3851
  C  C695  1  0.445300  0.179100  0.431500  1.0  -0.4189
  C  C696  1  0.457300  0.252700  0.419700  1.0  0.232
  C  C697  1  0.481500  0.275300  0.383200  1.0  -0.1542
  C  C698  1  0.488200  0.346400  0.387400  1.0  0.1752
  C  C699  1  0.508900  0.401100  0.358800  1.0  -0.3812
  C  C700  1  0.766500  0.145200  0.163000  1.0  -0.4196
  C  C701  1  0.732800  0.078800  0.174100  1.0  0.2105
  C  C702  1  0.735700  0.015400  0.154500  1.0  -0.2058
  C  C703  1  0.693100  0.972000  0.176600  1.0  0.1706
  C  C704  1  0.675400  0.898700  0.170300  1.0  -0.4127
  C  C705  1  0.675700  0.966900  0.067700  1.0  -0.4087
  C  C706  1  0.749100  0.976200  0.081100  1.0  0.208
  C  C707  1  0.774000  0.998000  0.118000  1.0  -0.181
  C  C708  1  0.844500  0.999800  0.114100  1.0  0.1636
  C  C709  1  0.899500  0.015500  0.142900  1.0  -0.3966
  C  C710  1  0.723800  0.303300  0.263200  1.0  0.1447
  C  C711  1  0.266500  0.310700  0.585000  1.0  -0.412
  C  C712  1  0.284900  0.382100  0.577700  1.0  0.242
  C  C713  1  0.266900  0.440500  0.600400  1.0  -0.1688
  C  C714  1  0.298200  0.495900  0.582000  1.0  0.1692
  C  C715  1  0.297100  0.568100  0.592900  1.0  -0.4069
  C  C716  1  0.306100  0.397800  0.688100  1.0  -0.4113
  C  C717  1  0.238800  0.419200  0.673100  1.0  0.2311
  C  C718  1  0.220900  0.441300  0.635400  1.0  -0.0623
  C  C719  1  0.154600  0.460900  0.637000  1.0  0.1582
  C  C720  1  0.107300  0.489800  0.606100  1.0  -0.4005
  C  C721  1  0.139100  0.200700  0.813400  1.0  -0.4238
  C  C722  1  0.102700  0.264100  0.827800  1.0  0.2098
  C  C723  1  0.075200  0.276500  0.865900  1.0  -0.1968
  C  C724  1  0.047200  0.342000  0.863300  1.0  0.1591
  C  C725  1  0.013400  0.386200  0.894300  1.0  -0.4145
  C  C726  1  0.206700  0.225000  0.916200  1.0  -0.4194
  C  C727  1  0.133200  0.209000  0.922200  1.0  0.2004
  C  C728  1  0.076000  0.230600  0.900900  1.0  -0.0817
  C  C729  1  0.019000  0.200800  0.917500  1.0  0.1083
  C  C730  1  0.945200  0.200600  0.907300  1.0  -0.4037
  C  C731  1  0.264900  0.371300  0.843200  1.0  -0.3944
  C  C732  1  0.234300  0.436900  0.829100  1.0  0.1919
  C  C733  1  0.236500  0.500600  0.847500  1.0  -0.1756
  C  C734  1  0.199500  0.544200  0.823200  1.0  0.1343
  C  C735  1  0.183500  0.618800  0.825500  1.0  -0.3857
  C  C736  1  0.179100  0.554700  0.931500  1.0  -0.4171
  C  C737  1  0.252700  0.542700  0.919700  1.0  0.2261
  C  C738  1  0.275300  0.518500  0.883200  1.0  -0.1563
  C  C739  1  0.346400  0.511800  0.887400  1.0  0.1735
  C  C740  1  0.401100  0.491100  0.858800  1.0  -0.3809
  C  C741  1  0.145200  0.233500  0.663000  1.0  -0.4181
  C  C742  1  0.078800  0.267200  0.674100  1.0  0.2126
  C  C743  1  0.015400  0.264300  0.654500  1.0  -0.2038
  C  C744  1  0.972000  0.306900  0.676600  1.0  0.1684
  C  C745  1  0.898700  0.324600  0.670300  1.0  -0.4141
  C  C746  1  0.966900  0.324300  0.567700  1.0  -0.4121
  C  C747  1  0.976200  0.250900  0.581100  1.0  0.2099
  C  C748  1  0.998000  0.226000  0.618000  1.0  -0.1804
  C  C749  1  0.999800  0.155500  0.614100  1.0  0.1649
  C  C750  1  0.015500  0.100500  0.642900  1.0  -0.3964
  C  C751  1  0.303300  0.276200  0.763200  1.0  0.1459
  C  C752  1  0.733500  0.689300  0.585000  1.0  -0.4108
  C  C753  1  0.715100  0.617900  0.577700  1.0  0.2426
  C  C754  1  0.733100  0.559500  0.600400  1.0  -0.1692
  C  C755  1  0.701800  0.504100  0.582000  1.0  0.1685
  C  C756  1  0.702900  0.431900  0.592900  1.0  -0.4043
  C  C757  1  0.693900  0.602200  0.688100  1.0  -0.4102
  C  C758  1  0.761200  0.580800  0.673100  1.0  0.2306
  C  C759  1  0.779100  0.558700  0.635400  1.0  -0.0616
  C  C760  1  0.845400  0.539100  0.637000  1.0  0.1597
  C  C761  1  0.892700  0.510200  0.606100  1.0  -0.4019
  C  C762  1  0.860900  0.799300  0.813400  1.0  -0.4232
  C  C763  1  0.897300  0.735900  0.827800  1.0  0.2096
  C  C764  1  0.924800  0.723500  0.865900  1.0  -0.1971
  C  C765  1  0.952800  0.658000  0.863300  1.0  0.1601
  C  C766  1  0.986600  0.613800  0.894300  1.0  -0.4141
  C  C767  1  0.793300  0.775000  0.916200  1.0  -0.4174
  C  C768  1  0.866800  0.791000  0.922200  1.0  0.2004
  C  C769  1  0.924000  0.769400  0.900900  1.0  -0.0817
  C  C770  1  0.981000  0.799200  0.917500  1.0  0.1088
  C  C771  1  0.054800  0.799400  0.907300  1.0  -0.4042
  C  C772  1  0.735100  0.628700  0.843200  1.0  -0.3933
  C  C773  1  0.765700  0.563100  0.829100  1.0  0.1918
  C  C774  1  0.763500  0.499400  0.847500  1.0  -0.1758
  C  C775  1  0.800500  0.455800  0.823200  1.0  0.1347
  C  C776  1  0.816500  0.381200  0.825500  1.0  -0.3863
  C  C777  1  0.820900  0.445300  0.931500  1.0  -0.4188
  C  C778  1  0.747300  0.457300  0.919700  1.0  0.2309
  C  C779  1  0.724700  0.481500  0.883200  1.0  -0.1559
  C  C780  1  0.653600  0.488200  0.887400  1.0  0.1736
  C  C781  1  0.598900  0.508900  0.858800  1.0  -0.3803
  C  C782  1  0.854800  0.766500  0.663000  1.0  -0.4167
  C  C783  1  0.921200  0.732800  0.674100  1.0  0.2116
  C  C784  1  0.984600  0.735700  0.654500  1.0  -0.2035
  C  C785  1  0.028000  0.693100  0.676600  1.0  0.1701
  C  C786  1  0.101300  0.675400  0.670300  1.0  -0.416
  C  C787  1  0.033100  0.675700  0.567700  1.0  -0.4126
  C  C788  1  0.023800  0.749100  0.581100  1.0  0.2102
  C  C789  1  0.002000  0.774000  0.618000  1.0  -0.1812
  C  C790  1  0.000200  0.844500  0.614100  1.0  0.1635
  C  C791  1  0.984500  0.899500  0.642900  1.0  -0.3957
  C  C792  1  0.696700  0.723800  0.763200  1.0  0.1439
  C  C793  1  0.826700  0.314400  0.000000  1.0  0.1427
  C  C794  1  0.173300  0.685600  0.000000  1.0  0.1431
  C  C795  1  0.685600  0.826700  0.500000  1.0  0.1427
  C  C796  1  0.314400  0.173300  0.500000  1.0  0.1428
  C  C797  1  0.825500  0.335300  0.500000  1.0  0.1947
  C  C798  1  0.174500  0.664700  0.500000  1.0  0.195
  C  C799  1  0.664700  0.825500  0.000000  1.0  0.1955
  C  C800  1  0.335300  0.174500  0.000000  1.0  0.1924
  S  S801  1  0.738210  0.380630  0.723040  1.0  -0.3399
  S  S802  1  0.261790  0.619370  0.723040  1.0  -0.34
  S  S803  1  0.619370  0.738210  0.223040  1.0  -0.3402
  S  S804  1  0.380630  0.261790  0.223040  1.0  -0.3379
  S  S805  1  0.261790  0.619370  0.276960  1.0  -0.3407
  S  S806  1  0.738210  0.380630  0.276960  1.0  -0.3398
  S  S807  1  0.380630  0.261790  0.776960  1.0  -0.3383
  S  S808  1  0.619370  0.738210  0.776960  1.0  -0.3405
  S  S809  1  0.910400  0.301200  0.000000  1.0  -0.3292
  S  S810  1  0.089600  0.698800  0.000000  1.0  -0.3301
  S  S811  1  0.698800  0.910400  0.500000  1.0  -0.3304
  S  S812  1  0.301200  0.089600  0.500000  1.0  -0.3299
  S  S813  1  0.811100  0.419300  0.500000  1.0  -0.3251
  S  S814  1  0.188900  0.580700  0.500000  1.0  -0.3246
  S  S815  1  0.580700  0.811100  0.000000  1.0  -0.3229
  S  S816  1  0.419300  0.188900  0.000000  1.0  -0.3206
  N  N817  1  0.598900  0.325200  0.952110  1.0  -0.2721
  N  N818  1  0.530600  0.331800  0.949110  1.0  -0.1301
  N  N819  1  0.574800  0.185100  0.801590  1.0  -0.3404
  N  N820  1  0.549300  0.133500  0.825370  1.0  -0.1333
  N  N821  1  0.682700  0.093900  0.695330  1.0  -0.2722
  N  N822  1  0.636000  0.060100  0.673510  1.0  -0.1128
  N  N823  1  0.831500  0.112900  0.547340  1.0  -0.3523
  N  N824  1  0.836700  0.044200  0.551350  1.0  -0.1571
  N  N825  1  0.560500  0.196800  0.704740  1.0  -0.3261
  N  N826  1  0.494700  0.177100  0.707250  1.0  -0.1167
  N  N827  1  0.451100  0.303900  0.554650  1.0  -0.347
  N  N828  1  0.470000  0.360200  0.575450  1.0  -0.1141
  N  N829  1  0.692800  0.074300  0.794070  1.0  -0.2983
  N  N830  1  0.669100  0.009000  0.793840  1.0  -0.0806
  N  N831  1  0.800500  0.965300  0.944540  1.0  -0.4329
  N  N832  1  0.857900  0.980000  0.922920  1.0  -0.1238
  N  N833  1  0.717200  0.246000  0.747000  1.0  -0.5177
  N  N834  1  0.401100  0.674800  0.952110  1.0  -0.2718
  N  N835  1  0.469400  0.668200  0.949110  1.0  -0.1299
  N  N836  1  0.425200  0.814900  0.801590  1.0  -0.3406
  N  N837  1  0.450700  0.866500  0.825370  1.0  -0.1335
  N  N838  1  0.317300  0.906100  0.695330  1.0  -0.2712
  N  N839  1  0.364000  0.939900  0.673510  1.0  -0.1142
  N  N840  1  0.168500  0.887100  0.547340  1.0  -0.3546
  N  N841  1  0.163300  0.955800  0.551350  1.0  -0.157
  N  N842  1  0.439500  0.803200  0.704740  1.0  -0.3261
  N  N843  1  0.505300  0.822900  0.707250  1.0  -0.1177
  N  N844  1  0.548900  0.696100  0.554650  1.0  -0.3462
  N  N845  1  0.530000  0.639800  0.575450  1.0  -0.1139
  N  N846  1  0.307200  0.925700  0.794070  1.0  -0.2991
  N  N847  1  0.330900  0.991000  0.793840  1.0  -0.0817
  N  N848  1  0.199500  0.034700  0.944540  1.0  -0.4325
  N  N849  1  0.142100  0.020000  0.922920  1.0  -0.1215
  N  N850  1  0.282800  0.754000  0.747000  1.0  -0.5181
  N  N851  1  0.674800  0.598900  0.452110  1.0  -0.2715
  N  N852  1  0.668200  0.530600  0.449110  1.0  -0.1304
  N  N853  1  0.814900  0.574800  0.301590  1.0  -0.339
  N  N854  1  0.866500  0.549300  0.325370  1.0  -0.1351
  N  N855  1  0.906100  0.682700  0.195330  1.0  -0.2712
  N  N856  1  0.939900  0.636000  0.173510  1.0  -0.112
  N  N857  1  0.887100  0.831500  0.047340  1.0  -0.3532
  N  N858  1  0.955800  0.836700  0.051350  1.0  -0.1584
  N  N859  1  0.803200  0.560500  0.204740  1.0  -0.3247
  N  N860  1  0.822900  0.494700  0.207250  1.0  -0.1177
  N  N861  1  0.696100  0.451100  0.054650  1.0  -0.3454
  N  N862  1  0.639800  0.470000  0.075450  1.0  -0.1154
  N  N863  1  0.925700  0.692800  0.294070  1.0  -0.2991
  N  N864  1  0.991000  0.669100  0.293840  1.0  -0.0816
  N  N865  1  0.034700  0.800500  0.444540  1.0  -0.4346
  N  N866  1  0.020000  0.857900  0.422920  1.0  -0.1219
  N  N867  1  0.754000  0.717200  0.247000  1.0  -0.5164
  N  N868  1  0.325200  0.401100  0.452110  1.0  -0.2706
  N  N869  1  0.331800  0.469400  0.449110  1.0  -0.1308
  N  N870  1  0.185100  0.425200  0.301590  1.0  -0.3391
  N  N871  1  0.133500  0.450700  0.325370  1.0  -0.1342
  N  N872  1  0.093900  0.317300  0.195330  1.0  -0.2729
  N  N873  1  0.060100  0.364000  0.173510  1.0  -0.1124
  N  N874  1  0.112900  0.168500  0.047340  1.0  -0.3532
  N  N875  1  0.044200  0.163300  0.051350  1.0  -0.1565
  N  N876  1  0.196800  0.439500  0.204740  1.0  -0.3244
  N  N877  1  0.177100  0.505300  0.207250  1.0  -0.1173
  N  N878  1  0.303900  0.548900  0.054650  1.0  -0.3464
  N  N879  1  0.360200  0.530000  0.075450  1.0  -0.1161
  N  N880  1  0.074300  0.307200  0.294070  1.0  -0.2995
  N  N881  1  0.009000  0.330900  0.293840  1.0  -0.0819
  N  N882  1  0.965300  0.199500  0.444540  1.0  -0.4339
  N  N883  1  0.980000  0.142100  0.422920  1.0  -0.1214
  N  N884  1  0.246000  0.282800  0.247000  1.0  -0.5177
  N  N885  1  0.401100  0.674800  0.047890  1.0  -0.2728
  N  N886  1  0.469400  0.668200  0.050890  1.0  -0.1314
  N  N887  1  0.425200  0.814900  0.198410  1.0  -0.3413
  N  N888  1  0.450700  0.866500  0.174630  1.0  -0.1332
  N  N889  1  0.317300  0.906100  0.304670  1.0  -0.2696
  N  N890  1  0.364000  0.939900  0.326490  1.0  -0.115
  N  N891  1  0.168500  0.887100  0.452660  1.0  -0.3537
  N  N892  1  0.163300  0.955800  0.448650  1.0  -0.1564
  N  N893  1  0.439500  0.803200  0.295260  1.0  -0.3258
  N  N894  1  0.505300  0.822900  0.292750  1.0  -0.1178
  N  N895  1  0.548900  0.696100  0.445350  1.0  -0.3478
  N  N896  1  0.530000  0.639800  0.424550  1.0  -0.1126
  N  N897  1  0.307200  0.925700  0.205930  1.0  -0.3
  N  N898  1  0.330900  0.991000  0.206160  1.0  -0.0808
  N  N899  1  0.199500  0.034700  0.055460  1.0  -0.4314
  N  N900  1  0.142100  0.020000  0.077080  1.0  -0.1213
  N  N901  1  0.282800  0.754000  0.253000  1.0  -0.5184
  N  N902  1  0.598900  0.325200  0.047890  1.0  -0.2722
  N  N903  1  0.530600  0.331800  0.050890  1.0  -0.13
  N  N904  1  0.574800  0.185100  0.198410  1.0  -0.3421
  N  N905  1  0.549300  0.133500  0.174630  1.0  -0.1332
  N  N906  1  0.682700  0.093900  0.304670  1.0  -0.2709
  N  N907  1  0.636000  0.060100  0.326490  1.0  -0.1139
  N  N908  1  0.831500  0.112900  0.452660  1.0  -0.353
  N  N909  1  0.836700  0.044200  0.448650  1.0  -0.1561
  N  N910  1  0.560500  0.196800  0.295260  1.0  -0.326
  N  N911  1  0.494700  0.177100  0.292750  1.0  -0.1168
  N  N912  1  0.451100  0.303900  0.445350  1.0  -0.3473
  N  N913  1  0.470000  0.360200  0.424550  1.0  -0.113
  N  N914  1  0.692800  0.074300  0.205930  1.0  -0.2989
  N  N915  1  0.669100  0.009000  0.206160  1.0  -0.0803
  N  N916  1  0.800500  0.965300  0.055460  1.0  -0.4311
  N  N917  1  0.857900  0.980000  0.077080  1.0  -0.1232
  N  N918  1  0.717200  0.246000  0.253000  1.0  -0.5181
  N  N919  1  0.325200  0.401100  0.547890  1.0  -0.2719
  N  N920  1  0.331800  0.469400  0.550890  1.0  -0.1315
  N  N921  1  0.185100  0.425200  0.698410  1.0  -0.3405
  N  N922  1  0.133500  0.450700  0.674630  1.0  -0.1343
  N  N923  1  0.093900  0.317300  0.804670  1.0  -0.2696
  N  N924  1  0.060100  0.364000  0.826490  1.0  -0.1131
  N  N925  1  0.112900  0.168500  0.952660  1.0  -0.3524
  N  N926  1  0.044200  0.163300  0.948650  1.0  -0.1556
  N  N927  1  0.196800  0.439500  0.795260  1.0  -0.3246
  N  N928  1  0.177100  0.505300  0.792750  1.0  -0.1161
  N  N929  1  0.303900  0.548900  0.945350  1.0  -0.3464
  N  N930  1  0.360200  0.530000  0.924550  1.0  -0.1149
  N  N931  1  0.074300  0.307200  0.705930  1.0  -0.3
  N  N932  1  0.009000  0.330900  0.706160  1.0  -0.0814
  N  N933  1  0.965300  0.199500  0.555460  1.0  -0.4316
  N  N934  1  0.980000  0.142100  0.577080  1.0  -0.1213
  N  N935  1  0.246000  0.282800  0.753000  1.0  -0.5181
  N  N936  1  0.674800  0.598900  0.547890  1.0  -0.2717
  N  N937  1  0.668200  0.530600  0.550890  1.0  -0.1309
  N  N938  1  0.814900  0.574800  0.698410  1.0  -0.3401
  N  N939  1  0.866500  0.549300  0.674630  1.0  -0.1349
  N  N940  1  0.906100  0.682700  0.804670  1.0  -0.2704
  N  N941  1  0.939900  0.636000  0.826490  1.0  -0.1133
  N  N942  1  0.887100  0.831500  0.952660  1.0  -0.3537
  N  N943  1  0.955800  0.836700  0.948650  1.0  -0.1573
  N  N944  1  0.803200  0.560500  0.795260  1.0  -0.3244
  N  N945  1  0.822900  0.494700  0.792750  1.0  -0.1176
  N  N946  1  0.696100  0.451100  0.945350  1.0  -0.3454
  N  N947  1  0.639800  0.470000  0.924550  1.0  -0.1147
  N  N948  1  0.925700  0.692800  0.705930  1.0  -0.2992
  N  N949  1  0.991000  0.669100  0.706160  1.0  -0.0809
  N  N950  1  0.034700  0.800500  0.555460  1.0  -0.432
  N  N951  1  0.020000  0.857900  0.577080  1.0  -0.1214
  N  N952  1  0.754000  0.717200  0.753000  1.0  -0.5166
  N  N953  1  0.766400  0.319300  0.000000  1.0  -0.5238
  N  N954  1  0.233600  0.680700  0.000000  1.0  -0.5284
  N  N955  1  0.680700  0.766400  0.500000  1.0  -0.5238
  N  N956  1  0.319300  0.233600  0.500000  1.0  -0.5242
  N  N957  1  0.840300  0.279700  0.500000  1.0  -0.4449
  N  N958  1  0.159700  0.720300  0.500000  1.0  -0.4438
  N  N959  1  0.720300  0.840300  0.000000  1.0  -0.4452
  N  N960  1  0.279700  0.159700  0.000000  1.0  -0.4461
