# generated using pymatgen
data_Gd2Cu6H27C15(N2O7)3
_symmetry_space_group_name_H-M   'P 1'
_cell_length_a   38.07400000
_cell_length_b   38.07400000
_cell_length_c   24.31600000
_cell_angle_alpha   90.00000000
_cell_angle_beta   90.00000000
_cell_angle_gamma   120.00000000
_symmetry_Int_Tables_number   1
_chemical_formula_structural   Gd2Cu6H27C15(N2O7)3
_chemical_formula_sum   'Gd36 Cu108 H486 C270 N108 O378'
_cell_volume   30526.69429590
_cell_formula_units_Z   18
loop_
 _symmetry_equiv_pos_site_id
 _symmetry_equiv_pos_as_xyz
  1  'x, y, z'
loop_
 _atom_site_type_symbol
 _atom_site_label
 _atom_site_symmetry_multiplicity
 _atom_site_fract_x
 _atom_site_fract_y
 _atom_site_fract_z
 _atom_site_occupancy
 _atom_site_charge
  Gd  Gd1  1  0.562810  0.124590  0.666250  1.0  1.8291
  Gd  Gd2  1  0.448860  0.901830  0.825130  1.0  2.0421
  Gd  Gd3  1  0.229480  0.457920  0.999580  1.0  1.8291
  Gd  Gd4  1  0.115520  0.235170  0.158460  1.0  2.0423
  Gd  Gd5  1  0.896140  0.791260  0.332920  1.0  1.8283
  Gd  Gd6  1  0.782190  0.568500  0.491800  1.0  2.0421
  Gd  Gd7  1  0.875410  0.438220  0.666250  1.0  1.8263
  Gd  Gd8  1  0.098170  0.547020  0.825130  1.0  2.042
  Gd  Gd9  1  0.542080  0.771550  0.999580  1.0  1.8263
  Gd  Gd10  1  0.764830  0.880360  0.158460  1.0  2.0427
  Gd  Gd11  1  0.208740  0.104890  0.332920  1.0  1.8264
  Gd  Gd12  1  0.431500  0.213690  0.491800  1.0  2.042
  Gd  Gd13  1  0.561780  0.437190  0.666250  1.0  1.8277
  Gd  Gd14  1  0.452980  0.551140  0.825130  1.0  2.0431
  Gd  Gd15  1  0.228450  0.770520  0.999580  1.0  1.8277
  Gd  Gd16  1  0.119640  0.884480  0.158460  1.0  2.0424
  Gd  Gd17  1  0.895110  0.103860  0.332920  1.0  1.8294
  Gd  Gd18  1  0.786310  0.217810  0.491800  1.0  2.0431
  Gd  Gd19  1  0.437190  0.875410  0.333750  1.0  1.828
  Gd  Gd20  1  0.551140  0.098170  0.174870  1.0  2.0424
  Gd  Gd21  1  0.103860  0.208740  0.667080  1.0  1.8272
  Gd  Gd22  1  0.217810  0.431500  0.508200  1.0  2.0424
  Gd  Gd23  1  0.770520  0.542080  0.000420  1.0  1.828
  Gd  Gd24  1  0.884480  0.764830  0.841540  1.0  2.0425
  Gd  Gd25  1  0.124590  0.561780  0.333750  1.0  1.8261
  Gd  Gd26  1  0.901830  0.452980  0.174870  1.0  2.0414
  Gd  Gd27  1  0.791260  0.895110  0.667080  1.0  1.8262
  Gd  Gd28  1  0.568500  0.786310  0.508200  1.0  2.0414
  Gd  Gd29  1  0.457920  0.228450  0.000420  1.0  1.8261
  Gd  Gd30  1  0.235170  0.119640  0.841540  1.0  2.0421
  Gd  Gd31  1  0.438220  0.562810  0.333750  1.0  1.8258
  Gd  Gd32  1  0.547020  0.448860  0.174870  1.0  2.0431
  Gd  Gd33  1  0.104890  0.896140  0.667080  1.0  1.8274
  Gd  Gd34  1  0.213690  0.782190  0.508200  1.0  2.0431
  Gd  Gd35  1  0.771550  0.229480  0.000420  1.0  1.8258
  Gd  Gd36  1  0.880360  0.115520  0.841540  1.0  2.0423
  Cu  Cu37  1  0.525740  0.998570  0.789760  1.0  0.8671
  Cu  Cu38  1  0.368450  0.897110  0.750360  1.0  0.8173
  Cu  Cu39  1  0.474640  0.846200  0.738770  1.0  0.8586
  Cu  Cu40  1  0.512300  0.973530  0.919230  1.0  0.8281
  Cu  Cu41  1  0.461920  0.822530  0.867650  1.0  0.8782
  Cu  Cu42  1  0.353750  0.873250  0.880860  1.0  0.8506
  Cu  Cu43  1  0.192410  0.331900  0.123090  1.0  0.8671
  Cu  Cu44  1  0.035120  0.230440  0.083690  1.0  0.8173
  Cu  Cu45  1  0.141310  0.179530  0.072100  1.0  0.8586
  Cu  Cu46  1  0.178970  0.306860  0.252560  1.0  0.8281
  Cu  Cu47  1  0.128590  0.155860  0.200980  1.0  0.8782
  Cu  Cu48  1  0.020420  0.206580  0.214190  1.0  0.8505
  Cu  Cu49  1  0.859070  0.665240  0.456430  1.0  0.8671
  Cu  Cu50  1  0.701780  0.563780  0.417030  1.0  0.8173
  Cu  Cu51  1  0.807970  0.512870  0.405440  1.0  0.8586
  Cu  Cu52  1  0.845630  0.640200  0.585900  1.0  0.8281
  Cu  Cu53  1  0.795250  0.489200  0.534320  1.0  0.8782
  Cu  Cu54  1  0.687080  0.539920  0.547530  1.0  0.8506
  Cu  Cu55  1  0.001430  0.527170  0.789760  1.0  0.8657
  Cu  Cu56  1  0.102890  0.471340  0.750360  1.0  0.8181
  Cu  Cu57  1  0.153800  0.628440  0.738770  1.0  0.8558
  Cu  Cu58  1  0.026470  0.538770  0.919230  1.0  0.8271
  Cu  Cu59  1  0.177470  0.639390  0.867650  1.0  0.8795
  Cu  Cu60  1  0.126750  0.480500  0.880860  1.0  0.8492
  Cu  Cu61  1  0.668100  0.860500  0.123090  1.0  0.8657
  Cu  Cu62  1  0.769560  0.804670  0.083690  1.0  0.8181
  Cu  Cu63  1  0.820470  0.961770  0.072100  1.0  0.8558
  Cu  Cu64  1  0.693140  0.872100  0.252560  1.0  0.8271
  Cu  Cu65  1  0.844140  0.972720  0.200980  1.0  0.8795
  Cu  Cu66  1  0.793420  0.813830  0.214190  1.0  0.8492
  Cu  Cu67  1  0.334760  0.193840  0.456430  1.0  0.8657
  Cu  Cu68  1  0.436220  0.138010  0.417030  1.0  0.8181
  Cu  Cu69  1  0.487130  0.295110  0.405440  1.0  0.8558
  Cu  Cu70  1  0.359800  0.205440  0.585900  1.0  0.8271
  Cu  Cu71  1  0.510800  0.306060  0.534320  1.0  0.8795
  Cu  Cu72  1  0.460080  0.147170  0.547530  1.0  0.8492
  Cu  Cu73  1  0.472830  0.474260  0.789760  1.0  0.8665
  Cu  Cu74  1  0.528660  0.631550  0.750360  1.0  0.8161
  Cu  Cu75  1  0.371560  0.525360  0.738770  1.0  0.8576
  Cu  Cu76  1  0.461230  0.487700  0.919230  1.0  0.8295
  Cu  Cu77  1  0.360610  0.538080  0.867650  1.0  0.8782
  Cu  Cu78  1  0.519500  0.646250  0.880860  1.0  0.8491
  Cu  Cu79  1  0.139500  0.807590  0.123090  1.0  0.8665
  Cu  Cu80  1  0.195330  0.964880  0.083690  1.0  0.8161
  Cu  Cu81  1  0.038230  0.858690  0.072100  1.0  0.8576
  Cu  Cu82  1  0.127900  0.821030  0.252560  1.0  0.8295
  Cu  Cu83  1  0.027280  0.871410  0.200980  1.0  0.8782
  Cu  Cu84  1  0.186170  0.979580  0.214190  1.0  0.8491
  Cu  Cu85  1  0.806160  0.140930  0.456430  1.0  0.8665
  Cu  Cu86  1  0.861990  0.298220  0.417030  1.0  0.8161
  Cu  Cu87  1  0.704890  0.192030  0.405440  1.0  0.8576
  Cu  Cu88  1  0.794560  0.154370  0.585900  1.0  0.8295
  Cu  Cu89  1  0.693940  0.204750  0.534320  1.0  0.8782
  Cu  Cu90  1  0.852830  0.312920  0.547530  1.0  0.8491
  Cu  Cu91  1  0.474260  0.001430  0.210240  1.0  0.8678
  Cu  Cu92  1  0.631550  0.102890  0.249640  1.0  0.8209
  Cu  Cu93  1  0.525360  0.153800  0.261230  1.0  0.8591
  Cu  Cu94  1  0.487700  0.026470  0.080770  1.0  0.8262
  Cu  Cu95  1  0.538080  0.177470  0.132350  1.0  0.8756
  Cu  Cu96  1  0.646250  0.126750  0.119140  1.0  0.8473
  Cu  Cu97  1  0.140930  0.334760  0.543570  1.0  0.8678
  Cu  Cu98  1  0.298220  0.436220  0.582970  1.0  0.8209
  Cu  Cu99  1  0.192030  0.487130  0.594560  1.0  0.8591
  Cu  Cu100  1  0.154370  0.359800  0.414100  1.0  0.8262
  Cu  Cu101  1  0.204750  0.510800  0.465680  1.0  0.8756
  Cu  Cu102  1  0.312920  0.460080  0.452470  1.0  0.8473
  Cu  Cu103  1  0.807590  0.668100  0.876910  1.0  0.8678
  Cu  Cu104  1  0.964880  0.769560  0.916310  1.0  0.8209
  Cu  Cu105  1  0.858690  0.820470  0.927900  1.0  0.8592
  Cu  Cu106  1  0.821030  0.693140  0.747440  1.0  0.8262
  Cu  Cu107  1  0.871410  0.844140  0.799020  1.0  0.8757
  Cu  Cu108  1  0.979580  0.793420  0.785810  1.0  0.8473
  Cu  Cu109  1  0.998570  0.472830  0.210240  1.0  0.8694
  Cu  Cu110  1  0.897110  0.528660  0.249640  1.0  0.8195
  Cu  Cu111  1  0.846200  0.371560  0.261230  1.0  0.8605
  Cu  Cu112  1  0.973530  0.461230  0.080770  1.0  0.8237
  Cu  Cu113  1  0.822530  0.360610  0.132350  1.0  0.8765
  Cu  Cu114  1  0.873250  0.519500  0.119140  1.0  0.8474
  Cu  Cu115  1  0.665240  0.806160  0.543570  1.0  0.8694
  Cu  Cu116  1  0.563780  0.861990  0.582970  1.0  0.8195
  Cu  Cu117  1  0.512870  0.704890  0.594560  1.0  0.8605
  Cu  Cu118  1  0.640200  0.794560  0.414100  1.0  0.8237
  Cu  Cu119  1  0.489200  0.693940  0.465680  1.0  0.8765
  Cu  Cu120  1  0.539920  0.852830  0.452470  1.0  0.8474
  Cu  Cu121  1  0.331900  0.139500  0.876910  1.0  0.8693
  Cu  Cu122  1  0.230440  0.195330  0.916310  1.0  0.8195
  Cu  Cu123  1  0.179530  0.038230  0.927900  1.0  0.8605
  Cu  Cu124  1  0.306860  0.127900  0.747440  1.0  0.8237
  Cu  Cu125  1  0.155860  0.027280  0.799020  1.0  0.8765
  Cu  Cu126  1  0.206580  0.186170  0.785810  1.0  0.8474
  Cu  Cu127  1  0.527170  0.525740  0.210240  1.0  0.8674
  Cu  Cu128  1  0.471340  0.368450  0.249640  1.0  0.8217
  Cu  Cu129  1  0.628440  0.474640  0.261230  1.0  0.8604
  Cu  Cu130  1  0.538770  0.512300  0.080770  1.0  0.8218
  Cu  Cu131  1  0.639390  0.461920  0.132350  1.0  0.8763
  Cu  Cu132  1  0.480500  0.353750  0.119140  1.0  0.8481
  Cu  Cu133  1  0.193840  0.859070  0.543570  1.0  0.8674
  Cu  Cu134  1  0.138010  0.701780  0.582970  1.0  0.8217
  Cu  Cu135  1  0.295110  0.807970  0.594560  1.0  0.8604
  Cu  Cu136  1  0.205440  0.845630  0.414100  1.0  0.8218
  Cu  Cu137  1  0.306060  0.795250  0.465680  1.0  0.8763
  Cu  Cu138  1  0.147170  0.687080  0.452470  1.0  0.8481
  Cu  Cu139  1  0.860500  0.192410  0.876910  1.0  0.8674
  Cu  Cu140  1  0.804670  0.035120  0.916310  1.0  0.8217
  Cu  Cu141  1  0.961770  0.141310  0.927900  1.0  0.8604
  Cu  Cu142  1  0.872100  0.178970  0.747440  1.0  0.8218
  Cu  Cu143  1  0.972720  0.128590  0.799020  1.0  0.8763
  Cu  Cu144  1  0.813830  0.020420  0.785810  1.0  0.8481
  H  H145  1  0.558900  0.028300  0.701600  1.0  0.2871
  H  H146  1  0.589500  0.028400  0.737600  1.0  0.2927
  H  H147  1  0.369900  0.926400  0.662000  1.0  0.2946
  H  H148  1  0.352300  0.942200  0.701300  1.0  0.268
  H  H149  1  0.469900  0.825400  0.643700  1.0  0.2536
  H  H150  1  0.436200  0.792500  0.673400  1.0  0.2602
  H  H151  1  0.566000  0.983600  0.981300  1.0  0.2771
  H  H152  1  0.530500  0.974100  0.014500  1.0  0.2852
  H  H153  1  0.426800  0.756800  0.905700  1.0  0.278
  H  H154  1  0.445400  0.785700  0.950700  1.0  0.2772
  H  H155  1  0.331600  0.905500  0.950200  1.0  0.2826
  H  H156  1  0.324200  0.866900  0.973200  1.0  0.2718
  H  H157  1  0.583700  0.975600  0.702000  1.0  0.0737
  H  H158  1  0.554700  0.978500  0.659000  1.0  0.0856
  H  H159  1  0.406100  0.994800  0.713800  1.0  0.0872
  H  H160  1  0.422800  0.981100  0.664400  1.0  0.0968
  H  H161  1  0.400900  0.810900  0.637000  1.0  0.0949
  H  H162  1  0.438700  0.852600  0.622200  1.0  0.0932
  H  H163  1  0.512700  0.913700  0.020000  1.0  0.0895
  H  H164  1  0.554600  0.925400  0.993100  1.0  0.0867
  H  H165  1  0.367400  0.755100  0.913700  1.0  0.1015
  H  H166  1  0.384400  0.777800  0.969600  1.0  0.1006
  H  H167  1  0.381800  0.892000  0.011600  1.0  0.0873
  H  H168  1  0.381900  0.933000  0.004700  1.0  0.0844
  H  H169  1  0.558700  0.106500  0.814700  1.0  0.0693
  H  H170  1  0.244100  0.816800  0.860000  1.0  -0.0094
  H  H171  1  0.541500  0.796100  0.862800  1.0  -0.0224
  H  H172  1  0.225570  0.361630  0.034930  1.0  0.2871
  H  H173  1  0.256170  0.361730  0.070930  1.0  0.2927
  H  H174  1  0.036570  0.259730  0.995330  1.0  0.2946
  H  H175  1  0.018970  0.275530  0.034630  1.0  0.2679
  H  H176  1  0.136570  0.158730  0.977030  1.0  0.2532
  H  H177  1  0.102870  0.125830  0.006730  1.0  0.2602
  H  H178  1  0.232670  0.316930  0.314630  1.0  0.2771
  H  H179  1  0.197170  0.307430  0.347830  1.0  0.2852
  H  H180  1  0.093470  0.090130  0.239030  1.0  0.278
  H  H181  1  0.112070  0.119030  0.284030  1.0  0.2771
  H  H182  1  0.998270  0.238830  0.283530  1.0  0.2826
  H  H183  1  0.990870  0.200230  0.306530  1.0  0.2718
  H  H184  1  0.250370  0.308930  0.035330  1.0  0.0737
  H  H185  1  0.221370  0.311830  0.992330  1.0  0.0856
  H  H186  1  0.072770  0.328130  0.047130  1.0  0.0872
  H  H187  1  0.089470  0.314430  0.997730  1.0  0.0968
  H  H188  1  0.067570  0.144230  0.970330  1.0  0.0948
  H  H189  1  0.105370  0.185930  0.955530  1.0  0.0931
  H  H190  1  0.179370  0.247030  0.353330  1.0  0.0895
  H  H191  1  0.221270  0.258730  0.326430  1.0  0.0866
  H  H192  1  0.034070  0.088430  0.247030  1.0  0.1014
  H  H193  1  0.051070  0.111130  0.302930  1.0  0.0999
  H  H194  1  0.048470  0.225330  0.344930  1.0  0.0873
  H  H195  1  0.048570  0.266330  0.338030  1.0  0.0844
  H  H196  1  0.225370  0.439830  0.148030  1.0  0.0693
  H  H197  1  0.910770  0.150130  0.193330  1.0  -0.0094
  H  H198  1  0.208170  0.129430  0.196130  1.0  -0.0224
  H  H199  1  0.892230  0.694970  0.368270  1.0  0.2873
  H  H200  1  0.922830  0.695070  0.404270  1.0  0.2946
  H  H201  1  0.703230  0.593070  0.328670  1.0  0.2946
  H  H202  1  0.685630  0.608870  0.367970  1.0  0.268
  H  H203  1  0.803230  0.492070  0.310370  1.0  0.2536
  H  H204  1  0.769530  0.459170  0.340070  1.0  0.2602
  H  H205  1  0.899330  0.650270  0.647970  1.0  0.2771
  H  H206  1  0.863830  0.640770  0.681170  1.0  0.2852
  H  H207  1  0.760130  0.423470  0.572370  1.0  0.278
  H  H208  1  0.778730  0.452370  0.617370  1.0  0.2772
  H  H209  1  0.664930  0.572170  0.616870  1.0  0.2826
  H  H210  1  0.657530  0.533570  0.639870  1.0  0.2718
  H  H211  1  0.917030  0.642270  0.368670  1.0  0.0737
  H  H212  1  0.888030  0.645170  0.325670  1.0  0.0856
  H  H213  1  0.739430  0.661470  0.380470  1.0  0.0872
  H  H214  1  0.756130  0.647770  0.331070  1.0  0.0971
  H  H215  1  0.734230  0.477570  0.303670  1.0  0.0949
  H  H216  1  0.772030  0.519270  0.288870  1.0  0.0932
  H  H217  1  0.846030  0.580370  0.686670  1.0  0.0895
  H  H218  1  0.887930  0.592070  0.659770  1.0  0.0867
  H  H219  1  0.700730  0.421770  0.580370  1.0  0.1015
  H  H220  1  0.717730  0.444470  0.636270  1.0  0.1006
  H  H221  1  0.715130  0.558670  0.678270  1.0  0.0873
  H  H222  1  0.715230  0.599670  0.671370  1.0  0.0844
  H  H223  1  0.892030  0.773170  0.481370  1.0  0.0693
  H  H224  1  0.577430  0.483470  0.526670  1.0  -0.0094
  H  H225  1  0.874830  0.462770  0.529470  1.0  -0.0224
  H  H226  1  0.971700  0.530600  0.701600  1.0  0.286
  H  H227  1  0.971600  0.561100  0.737600  1.0  0.2859
  H  H228  1  0.073600  0.443500  0.662000  1.0  0.296
  H  H229  1  0.057800  0.410100  0.701300  1.0  0.264
  H  H230  1  0.174600  0.644500  0.643700  1.0  0.2565
  H  H231  1  0.207500  0.643700  0.673400  1.0  0.2658
  H  H232  1  0.016400  0.582400  0.981300  1.0  0.2791
  H  H233  1  0.025900  0.556400  0.014500  1.0  0.284
  H  H234  1  0.243200  0.670000  0.905700  1.0  0.2771
  H  H235  1  0.214300  0.659700  0.950700  1.0  0.2761
  H  H236  1  0.094500  0.426100  0.950200  1.0  0.2757
  H  H237  1  0.133100  0.457300  0.973200  1.0  0.2713
  H  H238  1  0.024400  0.608100  0.702000  1.0  0.0741
  H  H239  1  0.021500  0.576200  0.659000  1.0  0.0854
  H  H240  1  0.005200  0.411300  0.713800  1.0  0.0844
  H  H241  1  0.018900  0.441700  0.664400  1.0  0.0952
  H  H242  1  0.189100  0.590000  0.637000  1.0  0.0946
  H  H243  1  0.147400  0.586100  0.622200  1.0  0.093
  H  H244  1  0.086300  0.599000  0.020000  1.0  0.0894
  H  H245  1  0.074600  0.629200  0.993100  1.0  0.0879
  H  H246  1  0.244900  0.612300  0.913700  1.0  0.0966
  H  H247  1  0.222200  0.606600  0.969600  1.0  0.1006
  H  H248  1  0.108000  0.489800  0.011600  1.0  0.0867
  H  H249  1  0.067000  0.448900  0.004700  1.0  0.0852
  H  H250  1  0.893500  0.452200  0.814700  1.0  0.0687
  H  H251  1  0.183200  0.427300  0.860000  1.0  -0.0078
  H  H252  1  0.203900  0.745400  0.862800  1.0  -0.0232
  H  H253  1  0.638370  0.863930  0.034930  1.0  0.286
  H  H254  1  0.638270  0.894430  0.070930  1.0  0.2859
  H  H255  1  0.740270  0.776830  0.995330  1.0  0.296
  H  H256  1  0.724470  0.743430  0.034630  1.0  0.2641
  H  H257  1  0.841270  0.977830  0.977030  1.0  0.2564
  H  H258  1  0.874170  0.977030  0.006730  1.0  0.2674
  H  H259  1  0.683070  0.915730  0.314630  1.0  0.2791
  H  H260  1  0.692570  0.889730  0.347830  1.0  0.284
  H  H261  1  0.909870  0.003330  0.239030  1.0  0.2771
  H  H262  1  0.880970  0.993030  0.284030  1.0  0.2762
  H  H263  1  0.761170  0.759430  0.283530  1.0  0.2757
  H  H264  1  0.799770  0.790630  0.306530  1.0  0.2713
  H  H265  1  0.691070  0.941430  0.035330  1.0  0.0741
  H  H266  1  0.688170  0.909530  0.992330  1.0  0.0854
  H  H267  1  0.671870  0.744630  0.047130  1.0  0.0844
  H  H268  1  0.685570  0.775030  0.997730  1.0  0.0952
  H  H269  1  0.855770  0.923330  0.970330  1.0  0.0945
  H  H270  1  0.814070  0.919430  0.955530  1.0  0.093
  H  H271  1  0.752970  0.932330  0.353330  1.0  0.0893
  H  H272  1  0.741270  0.962530  0.326430  1.0  0.088
  H  H273  1  0.911570  0.945630  0.247030  1.0  0.0967
  H  H274  1  0.888870  0.939930  0.302930  1.0  0.1006
  H  H275  1  0.774670  0.823130  0.344930  1.0  0.0867
  H  H276  1  0.733670  0.782230  0.338030  1.0  0.0852
  H  H277  1  0.560170  0.785530  0.148030  1.0  0.0687
  H  H278  1  0.849870  0.760630  0.193330  1.0  -0.0078
  H  H279  1  0.870570  0.078730  0.196130  1.0  -0.0232
  H  H280  1  0.305030  0.197270  0.368270  1.0  0.2858
  H  H281  1  0.304930  0.227770  0.404270  1.0  0.2859
  H  H282  1  0.406930  0.110170  0.328670  1.0  0.296
  H  H283  1  0.391130  0.076770  0.367970  1.0  0.2639
  H  H284  1  0.507930  0.311170  0.310370  1.0  0.2565
  H  H285  1  0.540830  0.310370  0.340070  1.0  0.2658
  H  H286  1  0.349730  0.249070  0.647970  1.0  0.2791
  H  H287  1  0.359230  0.223070  0.681170  1.0  0.284
  H  H288  1  0.576530  0.336670  0.572370  1.0  0.2771
  H  H289  1  0.547630  0.326370  0.617370  1.0  0.2761
  H  H290  1  0.427830  0.092770  0.616870  1.0  0.2757
  H  H291  1  0.466430  0.123970  0.639870  1.0  0.2713
  H  H292  1  0.357730  0.274770  0.368670  1.0  0.0741
  H  H293  1  0.354830  0.242870  0.325670  1.0  0.0854
  H  H294  1  0.338530  0.077970  0.380470  1.0  0.0844
  H  H295  1  0.352230  0.108370  0.331070  1.0  0.0952
  H  H296  1  0.522430  0.256670  0.303670  1.0  0.0946
  H  H297  1  0.480730  0.252770  0.288870  1.0  0.093
  H  H298  1  0.419630  0.265670  0.686670  1.0  0.0894
  H  H299  1  0.407930  0.295870  0.659770  1.0  0.0879
  H  H300  1  0.578230  0.278970  0.580370  1.0  0.0966
  H  H301  1  0.555530  0.273270  0.636270  1.0  0.1006
  H  H302  1  0.441330  0.156470  0.678270  1.0  0.0867
  H  H303  1  0.400330  0.115570  0.671370  1.0  0.0852
  H  H304  1  0.226830  0.118870  0.481370  1.0  0.0689
  H  H305  1  0.516530  0.093970  0.526670  1.0  -0.0078
  H  H306  1  0.537230  0.412070  0.529470  1.0  -0.0232
  H  H307  1  0.469400  0.441100  0.701600  1.0  0.286
  H  H308  1  0.438900  0.410500  0.737600  1.0  0.2876
  H  H309  1  0.556500  0.630100  0.662000  1.0  0.2947
  H  H310  1  0.589900  0.647700  0.701300  1.0  0.2699
  H  H311  1  0.355500  0.530100  0.643700  1.0  0.2553
  H  H312  1  0.356300  0.563800  0.673400  1.0  0.2683
  H  H313  1  0.417600  0.434000  0.981300  1.0  0.2722
  H  H314  1  0.443600  0.469500  0.014500  1.0  0.2847
  H  H315  1  0.330000  0.573200  0.905700  1.0  0.273
  H  H316  1  0.340300  0.554600  0.950700  1.0  0.2759
  H  H317  1  0.573900  0.668400  0.950200  1.0  0.2899
  H  H318  1  0.542700  0.675800  0.973200  1.0  0.2717
  H  H319  1  0.391900  0.416300  0.702000  1.0  0.0765
  H  H320  1  0.423800  0.445300  0.659000  1.0  0.0852
  H  H321  1  0.588700  0.593900  0.713800  1.0  0.0879
  H  H322  1  0.558300  0.577200  0.664400  1.0  0.0968
  H  H323  1  0.410000  0.599100  0.637000  1.0  0.0931
  H  H324  1  0.413900  0.561300  0.622200  1.0  0.0931
  H  H325  1  0.401000  0.487300  0.020000  1.0  0.0892
  H  H326  1  0.370800  0.445400  0.993100  1.0  0.0886
  H  H327  1  0.387700  0.632600  0.913700  1.0  0.1013
  H  H328  1  0.393400  0.615600  0.969600  1.0  0.1004
  H  H329  1  0.510200  0.618200  0.011600  1.0  0.087
  H  H330  1  0.551100  0.618100  0.004700  1.0  0.0803
  H  H331  1  0.547800  0.441300  0.814700  1.0  0.0683
  H  H332  1  0.572700  0.755900  0.860000  1.0  -0.0075
  H  H333  1  0.254600  0.458500  0.862800  1.0  -0.0226
  H  H334  1  0.136070  0.774430  0.034930  1.0  0.286
  H  H335  1  0.105570  0.743830  0.070930  1.0  0.2876
  H  H336  1  0.223170  0.963430  0.995330  1.0  0.2946
  H  H337  1  0.256570  0.981030  0.034630  1.0  0.2699
  H  H338  1  0.022170  0.863430  0.977030  1.0  0.2552
  H  H339  1  0.022970  0.897130  0.006730  1.0  0.2677
  H  H340  1  0.084270  0.767330  0.314630  1.0  0.2722
  H  H341  1  0.110270  0.802830  0.347830  1.0  0.2847
  H  H342  1  0.996670  0.906530  0.239030  1.0  0.273
  H  H343  1  0.006970  0.887930  0.284030  1.0  0.2759
  H  H344  1  0.240570  0.001730  0.283530  1.0  0.2899
  H  H345  1  0.209370  0.009130  0.306530  1.0  0.2717
  H  H346  1  0.058570  0.749630  0.035330  1.0  0.0765
  H  H347  1  0.090470  0.778630  0.992330  1.0  0.0852
  H  H348  1  0.255370  0.927230  0.047130  1.0  0.0879
  H  H349  1  0.224970  0.910530  0.997730  1.0  0.0968
  H  H350  1  0.076670  0.932430  0.970330  1.0  0.0934
  H  H351  1  0.080570  0.894630  0.955530  1.0  0.093
  H  H352  1  0.067670  0.820630  0.353330  1.0  0.0892
  H  H353  1  0.037470  0.778730  0.326430  1.0  0.0887
  H  H354  1  0.054370  0.965930  0.247030  1.0  0.1012
  H  H355  1  0.060070  0.948930  0.302930  1.0  0.1008
  H  H356  1  0.176870  0.951530  0.344930  1.0  0.087
  H  H357  1  0.217770  0.951430  0.338030  1.0  0.0804
  H  H358  1  0.214470  0.774630  0.148030  1.0  0.0683
  H  H359  1  0.239370  0.089230  0.193330  1.0  -0.0075
  H  H360  1  0.921270  0.791830  0.196130  1.0  -0.0226
  H  H361  1  0.802730  0.107770  0.368270  1.0  0.2862
  H  H362  1  0.772230  0.077170  0.404270  1.0  0.2877
  H  H363  1  0.889830  0.296770  0.328670  1.0  0.2947
  H  H364  1  0.923230  0.314370  0.367970  1.0  0.2713
  H  H365  1  0.688830  0.196770  0.310370  1.0  0.2553
  H  H366  1  0.689630  0.230470  0.340070  1.0  0.2683
  H  H367  1  0.750930  0.100670  0.647970  1.0  0.2722
  H  H368  1  0.776930  0.136170  0.681170  1.0  0.2847
  H  H369  1  0.663330  0.239870  0.572370  1.0  0.273
  H  H370  1  0.673630  0.221270  0.617370  1.0  0.2759
  H  H371  1  0.907230  0.335070  0.616870  1.0  0.2899
  H  H372  1  0.876030  0.342470  0.639870  1.0  0.2717
  H  H373  1  0.725230  0.082970  0.368670  1.0  0.0765
  H  H374  1  0.757130  0.111970  0.325670  1.0  0.0852
  H  H375  1  0.922030  0.260570  0.380470  1.0  0.0879
  H  H376  1  0.891630  0.243870  0.331070  1.0  0.0967
  H  H377  1  0.743330  0.265770  0.303670  1.0  0.0931
  H  H378  1  0.747230  0.227970  0.288870  1.0  0.0931
  H  H379  1  0.734330  0.153970  0.686670  1.0  0.0892
  H  H380  1  0.704130  0.112070  0.659770  1.0  0.0886
  H  H381  1  0.721030  0.299270  0.580370  1.0  0.1013
  H  H382  1  0.726730  0.282270  0.636270  1.0  0.1004
  H  H383  1  0.843530  0.284870  0.678270  1.0  0.087
  H  H384  1  0.884430  0.284770  0.671370  1.0  0.0803
  H  H385  1  0.881130  0.107970  0.481370  1.0  0.0682
  H  H386  1  0.906030  0.422570  0.526670  1.0  -0.0075
  H  H387  1  0.587930  0.125170  0.529470  1.0  -0.0226
  H  H388  1  0.441100  0.971700  0.298400  1.0  0.2873
  H  H389  1  0.410500  0.971600  0.262400  1.0  0.2919
  H  H390  1  0.630100  0.073600  0.338000  1.0  0.2947
  H  H391  1  0.647700  0.057800  0.298700  1.0  0.2775
  H  H392  1  0.530100  0.174600  0.356300  1.0  0.257
  H  H393  1  0.563800  0.207500  0.326600  1.0  0.2651
  H  H394  1  0.434000  0.016400  0.018700  1.0  0.2769
  H  H395  1  0.469500  0.025900  0.985500  1.0  0.2845
  H  H396  1  0.573200  0.243200  0.094300  1.0  0.2777
  H  H397  1  0.554600  0.214300  0.049300  1.0  0.274
  H  H398  1  0.668400  0.094500  0.049800  1.0  0.2836
  H  H399  1  0.675800  0.133100  0.026800  1.0  0.2715
  H  H400  1  0.416300  0.024400  0.298000  1.0  0.0754
  H  H401  1  0.445300  0.021500  0.341000  1.0  0.0877
  H  H402  1  0.593900  0.005200  0.286200  1.0  0.0878
  H  H403  1  0.577200  0.018900  0.335600  1.0  0.0953
  H  H404  1  0.599100  0.189100  0.363000  1.0  0.0962
  H  H405  1  0.561300  0.147400  0.377800  1.0  0.0939
  H  H406  1  0.487300  0.086300  0.980000  1.0  0.0877
  H  H407  1  0.445400  0.074600  0.006900  1.0  0.0871
  H  H408  1  0.632600  0.244900  0.086300  1.0  0.1021
  H  H409  1  0.615600  0.222200  0.030400  1.0  0.0998
  H  H410  1  0.618200  0.108000  0.988400  1.0  0.0856
  H  H411  1  0.618100  0.067000  0.995300  1.0  0.0844
  H  H412  1  0.441300  0.893500  0.185300  1.0  0.0688
  H  H413  1  0.755900  0.183200  0.140000  1.0  -0.0064
  H  H414  1  0.458500  0.203900  0.137200  1.0  -0.0248
  H  H415  1  0.107770  0.305030  0.631730  1.0  0.2874
  H  H416  1  0.077170  0.304930  0.595730  1.0  0.2937
  H  H417  1  0.296770  0.406930  0.671330  1.0  0.2947
  H  H418  1  0.314370  0.391130  0.632030  1.0  0.2775
  H  H419  1  0.196770  0.507930  0.689630  1.0  0.257
  H  H420  1  0.230470  0.540830  0.659930  1.0  0.2651
  H  H421  1  0.100670  0.349730  0.352030  1.0  0.2769
  H  H422  1  0.136170  0.359230  0.318830  1.0  0.2845
  H  H423  1  0.239870  0.576530  0.427630  1.0  0.2777
  H  H424  1  0.221270  0.547630  0.382630  1.0  0.274
  H  H425  1  0.335070  0.427830  0.383130  1.0  0.2836
  H  H426  1  0.342470  0.466430  0.360130  1.0  0.2715
  H  H427  1  0.082970  0.357730  0.631330  1.0  0.0754
  H  H428  1  0.111970  0.354830  0.674330  1.0  0.0877
  H  H429  1  0.260570  0.338530  0.619530  1.0  0.0878
  H  H430  1  0.243870  0.352230  0.668930  1.0  0.0956
  H  H431  1  0.265770  0.522430  0.696330  1.0  0.0962
  H  H432  1  0.227970  0.480730  0.711130  1.0  0.0939
  H  H433  1  0.153970  0.419630  0.313330  1.0  0.0877
  H  H434  1  0.112070  0.407930  0.340230  1.0  0.0871
  H  H435  1  0.299270  0.578230  0.419630  1.0  0.1021
  H  H436  1  0.282270  0.555530  0.363730  1.0  0.0998
  H  H437  1  0.284870  0.441330  0.321730  1.0  0.0856
  H  H438  1  0.284770  0.400330  0.328630  1.0  0.0844
  H  H439  1  0.107970  0.226830  0.518630  1.0  0.0688
  H  H440  1  0.422570  0.516530  0.473330  1.0  -0.0064
  H  H441  1  0.125170  0.537230  0.470530  1.0  -0.0248
  H  H442  1  0.774430  0.638370  0.965070  1.0  0.2873
  H  H443  1  0.743830  0.638270  0.929070  1.0  0.2919
  H  H444  1  0.963430  0.740270  0.004670  1.0  0.2947
  H  H445  1  0.981030  0.724470  0.965370  1.0  0.2774
  H  H446  1  0.863430  0.841270  0.022970  1.0  0.2566
  H  H447  1  0.897130  0.874170  0.993270  1.0  0.2651
  H  H448  1  0.767330  0.683070  0.685370  1.0  0.2769
  H  H449  1  0.802830  0.692570  0.652170  1.0  0.2845
  H  H450  1  0.906530  0.909870  0.760970  1.0  0.2777
  H  H451  1  0.887930  0.880970  0.715970  1.0  0.274
  H  H452  1  0.001730  0.761170  0.716470  1.0  0.2836
  H  H453  1  0.009130  0.799770  0.693470  1.0  0.2715
  H  H454  1  0.749630  0.691070  0.964670  1.0  0.0754
  H  H455  1  0.778630  0.688170  0.007670  1.0  0.0877
  H  H456  1  0.927230  0.671870  0.952870  1.0  0.0878
  H  H457  1  0.910530  0.685570  0.002270  1.0  0.0953
  H  H458  1  0.932430  0.855770  0.029670  1.0  0.096
  H  H459  1  0.894630  0.814070  0.044470  1.0  0.0938
  H  H460  1  0.820630  0.752970  0.646670  1.0  0.0877
  H  H461  1  0.778730  0.741270  0.673570  1.0  0.087
  H  H462  1  0.965930  0.911570  0.752970  1.0  0.102
  H  H463  1  0.948930  0.888870  0.697070  1.0  0.0997
  H  H464  1  0.951530  0.774670  0.655070  1.0  0.0856
  H  H465  1  0.951430  0.733670  0.661970  1.0  0.0844
  H  H466  1  0.774630  0.560170  0.851970  1.0  0.0688
  H  H467  1  0.089230  0.849870  0.806670  1.0  -0.0064
  H  H468  1  0.791830  0.870570  0.803870  1.0  -0.0248
  H  H469  1  0.028300  0.469400  0.298400  1.0  0.2873
  H  H470  1  0.028400  0.438900  0.262400  1.0  0.2971
  H  H471  1  0.926400  0.556500  0.338000  1.0  0.2963
  H  H472  1  0.942200  0.589900  0.298700  1.0  0.2684
  H  H473  1  0.825400  0.355500  0.356300  1.0  0.2555
  H  H474  1  0.792500  0.356300  0.326600  1.0  0.2655
  H  H475  1  0.983600  0.417600  0.018700  1.0  0.281
  H  H476  1  0.974100  0.443600  0.985500  1.0  0.2855
  H  H477  1  0.756800  0.330000  0.094300  1.0  0.2762
  H  H478  1  0.785700  0.340300  0.049300  1.0  0.2734
  H  H479  1  0.905500  0.573900  0.049800  1.0  0.2816
  H  H480  1  0.866900  0.542700  0.026800  1.0  0.2713
  H  H481  1  0.975600  0.391900  0.298000  1.0  0.0755
  H  H482  1  0.978500  0.423800  0.341000  1.0  0.0862
  H  H483  1  0.994800  0.588700  0.286200  1.0  0.0877
  H  H484  1  0.981100  0.558300  0.335600  1.0  0.0966
  H  H485  1  0.810900  0.410000  0.363000  1.0  0.0945
  H  H486  1  0.852600  0.413900  0.377800  1.0  0.0939
  H  H487  1  0.913700  0.401000  0.980000  1.0  0.0867
  H  H488  1  0.925400  0.370800  0.006900  1.0  0.0829
  H  H489  1  0.755100  0.387700  0.086300  1.0  0.0928
  H  H490  1  0.777800  0.393400  0.030400  1.0  0.0997
  H  H491  1  0.892000  0.510200  0.988400  1.0  0.0845
  H  H492  1  0.933000  0.551100  0.995300  1.0  0.0851
  H  H493  1  0.106500  0.547800  0.185300  1.0  0.0667
  H  H494  1  0.816800  0.572700  0.140000  1.0  -0.0065
  H  H495  1  0.796100  0.254600  0.137200  1.0  -0.0236
  H  H496  1  0.694970  0.802730  0.631730  1.0  0.2871
  H  H497  1  0.695070  0.772230  0.595730  1.0  0.2971
  H  H498  1  0.593070  0.889830  0.671330  1.0  0.2963
  H  H499  1  0.608870  0.923230  0.632030  1.0  0.2683
  H  H500  1  0.492070  0.688830  0.689630  1.0  0.2555
  H  H501  1  0.459170  0.689630  0.659930  1.0  0.2655
  H  H502  1  0.650270  0.750930  0.352030  1.0  0.281
  H  H503  1  0.640770  0.776930  0.318830  1.0  0.2855
  H  H504  1  0.423470  0.663330  0.427630  1.0  0.2762
  H  H505  1  0.452370  0.673630  0.382630  1.0  0.2734
  H  H506  1  0.572170  0.907230  0.383130  1.0  0.2816
  H  H507  1  0.533570  0.876030  0.360130  1.0  0.2713
  H  H508  1  0.642270  0.725230  0.631330  1.0  0.0755
  H  H509  1  0.645170  0.757130  0.674330  1.0  0.0862
  H  H510  1  0.661470  0.922030  0.619530  1.0  0.0877
  H  H511  1  0.647770  0.891630  0.668930  1.0  0.0967
  H  H512  1  0.477570  0.743330  0.696330  1.0  0.0945
  H  H513  1  0.519270  0.747230  0.711130  1.0  0.0939
  H  H514  1  0.580370  0.734330  0.313330  1.0  0.0867
  H  H515  1  0.592070  0.704130  0.340230  1.0  0.0829
  H  H516  1  0.421770  0.721030  0.419630  1.0  0.0928
  H  H517  1  0.444470  0.726730  0.363730  1.0  0.0997
  H  H518  1  0.558670  0.843530  0.321730  1.0  0.0845
  H  H519  1  0.599670  0.884430  0.328630  1.0  0.0851
  H  H520  1  0.773170  0.881130  0.518630  1.0  0.0668
  H  H521  1  0.483470  0.906030  0.473330  1.0  -0.0065
  H  H522  1  0.462770  0.587930  0.470530  1.0  -0.0236
  H  H523  1  0.361630  0.136070  0.965070  1.0  0.2873
  H  H524  1  0.361730  0.105570  0.929070  1.0  0.2971
  H  H525  1  0.259730  0.223170  0.004670  1.0  0.2962
  H  H526  1  0.275530  0.256570  0.965370  1.0  0.2683
  H  H527  1  0.158730  0.022170  0.022970  1.0  0.2555
  H  H528  1  0.125830  0.022970  0.993270  1.0  0.2667
  H  H529  1  0.316930  0.084270  0.685370  1.0  0.281
  H  H530  1  0.307430  0.110270  0.652170  1.0  0.2855
  H  H531  1  0.090130  0.996670  0.760970  1.0  0.2762
  H  H532  1  0.119030  0.006970  0.715970  1.0  0.2734
  H  H533  1  0.238830  0.240570  0.716470  1.0  0.2816
  H  H534  1  0.200230  0.209370  0.693470  1.0  0.2712
  H  H535  1  0.308930  0.058570  0.964670  1.0  0.0755
  H  H536  1  0.311830  0.090470  0.007670  1.0  0.0862
  H  H537  1  0.328130  0.255370  0.952870  1.0  0.0877
  H  H538  1  0.314430  0.224970  0.002270  1.0  0.0966
  H  H539  1  0.144230  0.076670  0.029670  1.0  0.0944
  H  H540  1  0.185930  0.080570  0.044470  1.0  0.0939
  H  H541  1  0.247030  0.067670  0.646670  1.0  0.0866
  H  H542  1  0.258730  0.037470  0.673570  1.0  0.083
  H  H543  1  0.088430  0.054370  0.752970  1.0  0.0929
  H  H544  1  0.111130  0.060070  0.697070  1.0  0.0997
  H  H545  1  0.225330  0.176870  0.655070  1.0  0.0845
  H  H546  1  0.266330  0.217770  0.661970  1.0  0.0851
  H  H547  1  0.439830  0.214470  0.851970  1.0  0.0667
  H  H548  1  0.150130  0.239370  0.806670  1.0  -0.0065
  H  H549  1  0.129430  0.921270  0.803870  1.0  -0.0236
  H  H550  1  0.530600  0.558900  0.298400  1.0  0.2856
  H  H551  1  0.561100  0.589500  0.262400  1.0  0.2907
  H  H552  1  0.443500  0.369900  0.338000  1.0  0.2972
  H  H553  1  0.410100  0.352300  0.298700  1.0  0.2634
  H  H554  1  0.644500  0.469900  0.356300  1.0  0.2562
  H  H555  1  0.643700  0.436200  0.326600  1.0  0.2767
  H  H556  1  0.582400  0.566000  0.018700  1.0  0.273
  H  H557  1  0.556400  0.530500  0.985500  1.0  0.2858
  H  H558  1  0.670000  0.426800  0.094300  1.0  0.2855
  H  H559  1  0.659700  0.445400  0.049300  1.0  0.2749
  H  H560  1  0.426100  0.331600  0.049800  1.0  0.2833
  H  H561  1  0.457300  0.324200  0.026800  1.0  0.2709
  H  H562  1  0.608100  0.583700  0.298000  1.0  0.0764
  H  H563  1  0.576200  0.554700  0.341000  1.0  0.0872
  H  H564  1  0.411300  0.406100  0.286200  1.0  0.0878
  H  H565  1  0.441700  0.422800  0.335600  1.0  0.0977
  H  H566  1  0.590000  0.400900  0.363000  1.0  0.0926
  H  H567  1  0.586100  0.438700  0.377800  1.0  0.0944
  H  H568  1  0.599000  0.512700  0.980000  1.0  0.0867
  H  H569  1  0.629200  0.554600  0.006900  1.0  0.0885
  H  H570  1  0.612300  0.367400  0.086300  1.0  0.1016
  H  H571  1  0.606600  0.384400  0.030400  1.0  0.0993
  H  H572  1  0.489800  0.381800  0.988400  1.0  0.0839
  H  H573  1  0.448900  0.381900  0.995300  1.0  0.0824
  H  H574  1  0.452200  0.558700  0.185300  1.0  0.067
  H  H575  1  0.427300  0.244100  0.140000  1.0  -0.0061
  H  H576  1  0.745400  0.541500  0.137200  1.0  -0.0223
  H  H577  1  0.197270  0.892230  0.631730  1.0  0.2858
  H  H578  1  0.227770  0.922830  0.595730  1.0  0.2908
  H  H579  1  0.110170  0.703230  0.671330  1.0  0.2972
  H  H580  1  0.076770  0.685630  0.632030  1.0  0.2648
  H  H581  1  0.311170  0.803230  0.689630  1.0  0.2562
  H  H582  1  0.310370  0.769530  0.659930  1.0  0.2767
  H  H583  1  0.249070  0.899330  0.352030  1.0  0.273
  H  H584  1  0.223070  0.863830  0.318830  1.0  0.2858
  H  H585  1  0.336670  0.760130  0.427630  1.0  0.2855
  H  H586  1  0.326370  0.778730  0.382630  1.0  0.2749
  H  H587  1  0.092770  0.664930  0.383130  1.0  0.2833
  H  H588  1  0.123970  0.657530  0.360130  1.0  0.2709
  H  H589  1  0.274770  0.917030  0.631330  1.0  0.0764
  H  H590  1  0.242870  0.888030  0.674330  1.0  0.0872
  H  H591  1  0.077970  0.739430  0.619530  1.0  0.0878
  H  H592  1  0.108370  0.756130  0.668930  1.0  0.0977
  H  H593  1  0.256670  0.734230  0.696330  1.0  0.0926
  H  H594  1  0.252770  0.772030  0.711130  1.0  0.0944
  H  H595  1  0.265670  0.846030  0.313330  1.0  0.0867
  H  H596  1  0.295870  0.887930  0.340230  1.0  0.0885
  H  H597  1  0.278970  0.700730  0.419630  1.0  0.1016
  H  H598  1  0.273270  0.717730  0.363730  1.0  0.0993
  H  H599  1  0.156470  0.715130  0.321730  1.0  0.0839
  H  H600  1  0.115570  0.715230  0.328630  1.0  0.0824
  H  H601  1  0.118870  0.892030  0.518630  1.0  0.067
  H  H602  1  0.093970  0.577430  0.473330  1.0  -0.0061
  H  H603  1  0.412070  0.874830  0.470530  1.0  -0.0223
  H  H604  1  0.863930  0.225570  0.965070  1.0  0.2857
  H  H605  1  0.894430  0.256170  0.929070  1.0  0.2907
  H  H606  1  0.776830  0.036570  0.004670  1.0  0.2972
  H  H607  1  0.743430  0.018970  0.965370  1.0  0.2634
  H  H608  1  0.977830  0.136570  0.022970  1.0  0.2562
  H  H609  1  0.977030  0.102870  0.993270  1.0  0.2737
  H  H610  1  0.915730  0.232670  0.685370  1.0  0.273
  H  H611  1  0.889730  0.197170  0.652170  1.0  0.2858
  H  H612  1  0.003330  0.093470  0.760970  1.0  0.2855
  H  H613  1  0.993030  0.112070  0.715970  1.0  0.2749
  H  H614  1  0.759430  0.998270  0.716470  1.0  0.2833
  H  H615  1  0.790630  0.990870  0.693470  1.0  0.2709
  H  H616  1  0.941430  0.250370  0.964670  1.0  0.0764
  H  H617  1  0.909530  0.221370  0.007670  1.0  0.0872
  H  H618  1  0.744630  0.072770  0.952870  1.0  0.0878
  H  H619  1  0.775030  0.089470  0.002270  1.0  0.0977
  H  H620  1  0.923330  0.067570  0.029670  1.0  0.0929
  H  H621  1  0.919430  0.105370  0.044470  1.0  0.0943
  H  H622  1  0.932330  0.179370  0.646670  1.0  0.0867
  H  H623  1  0.962530  0.221270  0.673570  1.0  0.0886
  H  H624  1  0.945630  0.034070  0.752970  1.0  0.1015
  H  H625  1  0.939930  0.051070  0.697070  1.0  0.0998
  H  H626  1  0.823130  0.048470  0.655070  1.0  0.0839
  H  H627  1  0.782230  0.048570  0.661970  1.0  0.0824
  H  H628  1  0.785530  0.225370  0.851970  1.0  0.067
  H  H629  1  0.760630  0.910770  0.806670  1.0  -0.0061
  H  H630  1  0.078730  0.208170  0.803870  1.0  -0.0223
  C  C631  1  0.558800  0.976400  0.697900  1.0  -0.2007
  C  C632  1  0.523700  0.936700  0.719500  1.0  0.4973
  C  C633  1  0.410800  0.973400  0.700800  1.0  -0.1588
  C  C634  1  0.439900  0.971100  0.737400  1.0  0.7021
  C  C635  1  0.425300  0.833600  0.652000  1.0  -0.1895
  C  C636  1  0.412500  0.854600  0.696100  1.0  0.6474
  C  C637  1  0.529600  0.926000  0.987900  1.0  -0.1835
  C  C638  1  0.508500  0.901800  0.939000  1.0  0.6989
  C  C639  1  0.389300  0.779400  0.930300  1.0  -0.3465
  C  C640  1  0.388800  0.815800  0.907600  1.0  0.6949
  C  C641  1  0.380900  0.910400  0.984800  1.0  -0.2234
  C  C642  1  0.417900  0.926300  0.947900  1.0  0.6963
  C  C643  1  0.553400  0.083200  0.795500  1.0  0.5132
  C  C644  1  0.268800  0.825500  0.877700  1.0  0.6418
  C  C645  1  0.519200  0.797000  0.876600  1.0  0.6207
  C  C646  1  0.225470  0.309730  0.031230  1.0  -0.2007
  C  C647  1  0.190370  0.270030  0.052830  1.0  0.4977
  C  C648  1  0.077470  0.306730  0.034130  1.0  -0.1588
  C  C649  1  0.106570  0.304430  0.070730  1.0  0.7021
  C  C650  1  0.091970  0.166930  0.985330  1.0  -0.1895
  C  C651  1  0.079170  0.187930  0.029430  1.0  0.6474
  C  C652  1  0.196270  0.259330  0.321230  1.0  -0.1835
  C  C653  1  0.175170  0.235130  0.272330  1.0  0.6989
  C  C654  1  0.055970  0.112730  0.263630  1.0  -0.3465
  C  C655  1  0.055470  0.149130  0.240930  1.0  0.6949
  C  C656  1  0.047570  0.243730  0.318130  1.0  -0.2234
  C  C657  1  0.084570  0.259630  0.281230  1.0  0.6963
  C  C658  1  0.220070  0.416530  0.128830  1.0  0.5132
  C  C659  1  0.935470  0.158830  0.211030  1.0  0.6418
  C  C660  1  0.185870  0.130330  0.209930  1.0  0.6207
  C  C661  1  0.892130  0.643070  0.364570  1.0  -0.2007
  C  C662  1  0.857030  0.603370  0.386170  1.0  0.4973
  C  C663  1  0.744130  0.640070  0.367470  1.0  -0.1588
  C  C664  1  0.773230  0.637770  0.404070  1.0  0.7021
  C  C665  1  0.758630  0.500270  0.318670  1.0  -0.1895
  C  C666  1  0.745830  0.521270  0.362770  1.0  0.6474
  C  C667  1  0.862930  0.592670  0.654570  1.0  -0.1835
  C  C668  1  0.841830  0.568470  0.605670  1.0  0.6989
  C  C669  1  0.722630  0.446070  0.596970  1.0  -0.3465
  C  C670  1  0.722130  0.482470  0.574270  1.0  0.6949
  C  C671  1  0.714230  0.577070  0.651470  1.0  -0.2234
  C  C672  1  0.751230  0.592970  0.614570  1.0  0.6963
  C  C673  1  0.886730  0.749870  0.462170  1.0  0.5132
  C  C674  1  0.602130  0.492170  0.544370  1.0  0.6418
  C  C675  1  0.852530  0.463670  0.543270  1.0  0.6207
  C  C676  1  0.023600  0.582400  0.697900  1.0  -0.199
  C  C677  1  0.063300  0.587000  0.719500  1.0  0.4994
  C  C678  1  0.026600  0.437400  0.700800  1.0  -0.1585
  C  C679  1  0.028900  0.468800  0.737400  1.0  0.7
  C  C680  1  0.166400  0.591700  0.652000  1.0  -0.1918
  C  C681  1  0.145400  0.557900  0.696100  1.0  0.6477
  C  C682  1  0.074000  0.603600  0.987900  1.0  -0.1864
  C  C683  1  0.098200  0.606700  0.939000  1.0  0.6978
  C  C684  1  0.220600  0.609900  0.930300  1.0  -0.3464
  C  C685  1  0.184200  0.573000  0.907600  1.0  0.6976
  C  C686  1  0.089600  0.470500  0.984800  1.0  -0.2232
  C  C687  1  0.073700  0.491600  0.947900  1.0  0.6962
  C  C688  1  0.916800  0.470200  0.795500  1.0  0.5173
  C  C689  1  0.174500  0.443300  0.877700  1.0  0.6406
  C  C690  1  0.203000  0.722200  0.876600  1.0  0.6201
  C  C691  1  0.690270  0.915730  0.031230  1.0  -0.199
  C  C692  1  0.729970  0.920330  0.052830  1.0  0.4994
  C  C693  1  0.693270  0.770730  0.034130  1.0  -0.1585
  C  C694  1  0.695570  0.802130  0.070730  1.0  0.7
  C  C695  1  0.833070  0.925030  0.985330  1.0  -0.1919
  C  C696  1  0.812070  0.891230  0.029430  1.0  0.6476
  C  C697  1  0.740670  0.936930  0.321230  1.0  -0.1864
  C  C698  1  0.764870  0.940030  0.272330  1.0  0.6978
  C  C699  1  0.887270  0.943230  0.263630  1.0  -0.3464
  C  C700  1  0.850870  0.906330  0.240930  1.0  0.6976
  C  C701  1  0.756270  0.803830  0.318130  1.0  -0.2232
  C  C702  1  0.740370  0.824930  0.281230  1.0  0.6962
  C  C703  1  0.583470  0.803530  0.128830  1.0  0.5173
  C  C704  1  0.841170  0.776630  0.211030  1.0  0.6405
  C  C705  1  0.869670  0.055530  0.209930  1.0  0.62
  C  C706  1  0.356930  0.249070  0.364570  1.0  -0.199
  C  C707  1  0.396630  0.253670  0.386170  1.0  0.4994
  C  C708  1  0.359930  0.104070  0.367470  1.0  -0.1585
  C  C709  1  0.362230  0.135470  0.404070  1.0  0.7
  C  C710  1  0.499730  0.258370  0.318670  1.0  -0.1918
  C  C711  1  0.478730  0.224570  0.362770  1.0  0.6477
  C  C712  1  0.407330  0.270270  0.654570  1.0  -0.1864
  C  C713  1  0.431530  0.273370  0.605670  1.0  0.6978
  C  C714  1  0.553930  0.276570  0.596970  1.0  -0.3464
  C  C715  1  0.517530  0.239670  0.574270  1.0  0.6976
  C  C716  1  0.422930  0.137170  0.651470  1.0  -0.2232
  C  C717  1  0.407030  0.158270  0.614570  1.0  0.6962
  C  C718  1  0.250130  0.136870  0.462170  1.0  0.5173
  C  C719  1  0.507830  0.109970  0.544370  1.0  0.6406
  C  C720  1  0.536330  0.388870  0.543270  1.0  0.6201
  C  C721  1  0.417600  0.441200  0.697900  1.0  -0.2015
  C  C722  1  0.413000  0.476300  0.719500  1.0  0.498
  C  C723  1  0.562600  0.589200  0.700800  1.0  -0.1581
  C  C724  1  0.531200  0.560100  0.737400  1.0  0.7052
  C  C725  1  0.408300  0.574700  0.652000  1.0  -0.1892
  C  C726  1  0.442100  0.587500  0.696100  1.0  0.6485
  C  C727  1  0.396400  0.470400  0.987900  1.0  -0.1844
  C  C728  1  0.393300  0.491500  0.939000  1.0  0.6977
  C  C729  1  0.390100  0.610700  0.930300  1.0  -0.3469
  C  C730  1  0.427000  0.611200  0.907600  1.0  0.6965
  C  C731  1  0.529500  0.619100  0.984800  1.0  -0.223
  C  C732  1  0.508400  0.582100  0.947900  1.0  0.6967
  C  C733  1  0.529800  0.446600  0.795500  1.0  0.5172
  C  C734  1  0.556700  0.731200  0.877700  1.0  0.6417
  C  C735  1  0.277800  0.480800  0.876600  1.0  0.619
  C  C736  1  0.084270  0.774530  0.031230  1.0  -0.2015
  C  C737  1  0.079670  0.809630  0.052830  1.0  0.498
  C  C738  1  0.229270  0.922530  0.034130  1.0  -0.1581
  C  C739  1  0.197870  0.893430  0.070730  1.0  0.7052
  C  C740  1  0.074970  0.908030  0.985330  1.0  -0.1892
  C  C741  1  0.108770  0.920830  0.029430  1.0  0.6485
  C  C742  1  0.063070  0.803730  0.321230  1.0  -0.1844
  C  C743  1  0.059970  0.824830  0.272330  1.0  0.6977
  C  C744  1  0.056770  0.944030  0.263630  1.0  -0.3469
  C  C745  1  0.093670  0.944530  0.240930  1.0  0.6965
  C  C746  1  0.196170  0.952430  0.318130  1.0  -0.223
  C  C747  1  0.175070  0.915430  0.281230  1.0  0.6967
  C  C748  1  0.196470  0.779930  0.128830  1.0  0.5172
  C  C749  1  0.223370  0.064530  0.211030  1.0  0.6416
  C  C750  1  0.944470  0.814130  0.209930  1.0  0.619
  C  C751  1  0.750930  0.107870  0.364570  1.0  -0.2015
  C  C752  1  0.746330  0.142970  0.386170  1.0  0.498
  C  C753  1  0.895930  0.255870  0.367470  1.0  -0.1581
  C  C754  1  0.864530  0.226770  0.404070  1.0  0.7052
  C  C755  1  0.741630  0.241370  0.318670  1.0  -0.1892
  C  C756  1  0.775430  0.254170  0.362770  1.0  0.6485
  C  C757  1  0.729730  0.137070  0.654570  1.0  -0.1844
  C  C758  1  0.726630  0.158170  0.605670  1.0  0.6977
  C  C759  1  0.723430  0.277370  0.596970  1.0  -0.3469
  C  C760  1  0.760330  0.277870  0.574270  1.0  0.6965
  C  C761  1  0.862830  0.285770  0.651470  1.0  -0.223
  C  C762  1  0.841730  0.248770  0.614570  1.0  0.6967
  C  C763  1  0.863130  0.113270  0.462170  1.0  0.5172
  C  C764  1  0.890030  0.397870  0.544370  1.0  0.6417
  C  C765  1  0.611130  0.147470  0.543270  1.0  0.619
  C  C766  1  0.441200  0.023600  0.302100  1.0  -0.1988
  C  C767  1  0.476300  0.063300  0.280500  1.0  0.4973
  C  C768  1  0.589200  0.026600  0.299200  1.0  -0.1574
  C  C769  1  0.560100  0.028900  0.262600  1.0  0.7027
  C  C770  1  0.574700  0.166400  0.348000  1.0  -0.1933
  C  C771  1  0.587500  0.145400  0.303900  1.0  0.646
  C  C772  1  0.470400  0.074000  0.012100  1.0  -0.1821
  C  C773  1  0.491500  0.098200  0.061000  1.0  0.7003
  C  C774  1  0.610700  0.220600  0.069700  1.0  -0.3484
  C  C775  1  0.611200  0.184200  0.092400  1.0  0.6938
  C  C776  1  0.619100  0.089600  0.015200  1.0  -0.2233
  C  C777  1  0.582100  0.073700  0.052100  1.0  0.6967
  C  C778  1  0.446600  0.916800  0.204500  1.0  0.5132
  C  C779  1  0.731200  0.174500  0.122300  1.0  0.6414
  C  C780  1  0.480800  0.203000  0.123400  1.0  0.6204
  C  C781  1  0.107870  0.356930  0.635430  1.0  -0.1988
  C  C782  1  0.142970  0.396630  0.613830  1.0  0.4973
  C  C783  1  0.255870  0.359930  0.632530  1.0  -0.1574
  C  C784  1  0.226770  0.362230  0.595930  1.0  0.7026
  C  C785  1  0.241370  0.499730  0.681330  1.0  -0.1933
  C  C786  1  0.254170  0.478730  0.637230  1.0  0.646
  C  C787  1  0.137070  0.407330  0.345430  1.0  -0.1821
  C  C788  1  0.158170  0.431530  0.394330  1.0  0.7003
  C  C789  1  0.277370  0.553930  0.403030  1.0  -0.3484
  C  C790  1  0.277870  0.517530  0.425730  1.0  0.6938
  C  C791  1  0.285770  0.422930  0.348530  1.0  -0.2233
  C  C792  1  0.248770  0.407030  0.385430  1.0  0.6967
  C  C793  1  0.113270  0.250130  0.537830  1.0  0.5132
  C  C794  1  0.397870  0.507830  0.455630  1.0  0.6414
  C  C795  1  0.147470  0.536330  0.456730  1.0  0.6204
  C  C796  1  0.774530  0.690270  0.968770  1.0  -0.1988
  C  C797  1  0.809630  0.729970  0.947170  1.0  0.4976
  C  C798  1  0.922530  0.693270  0.965870  1.0  -0.1574
  C  C799  1  0.893430  0.695570  0.929270  1.0  0.7027
  C  C800  1  0.908030  0.833070  0.014670  1.0  -0.1934
  C  C801  1  0.920830  0.812070  0.970570  1.0  0.646
  C  C802  1  0.803730  0.740670  0.678770  1.0  -0.1821
  C  C803  1  0.824830  0.764870  0.727670  1.0  0.7003
  C  C804  1  0.944030  0.887270  0.736370  1.0  -0.3484
  C  C805  1  0.944530  0.850870  0.759070  1.0  0.6938
  C  C806  1  0.952430  0.756270  0.681870  1.0  -0.2233
  C  C807  1  0.915430  0.740370  0.718770  1.0  0.6967
  C  C808  1  0.779930  0.583470  0.871170  1.0  0.5132
  C  C809  1  0.064530  0.841170  0.788970  1.0  0.6414
  C  C810  1  0.814130  0.869670  0.790070  1.0  0.6204
  C  C811  1  0.976400  0.417600  0.302100  1.0  -0.2013
  C  C812  1  0.936700  0.413000  0.280500  1.0  0.4992
  C  C813  1  0.973400  0.562600  0.299200  1.0  -0.1587
  C  C814  1  0.971100  0.531200  0.262600  1.0  0.7012
  C  C815  1  0.833600  0.408300  0.348000  1.0  -0.1934
  C  C816  1  0.854600  0.442100  0.303900  1.0  0.6473
  C  C817  1  0.926000  0.396400  0.012100  1.0  -0.1816
  C  C818  1  0.901800  0.393300  0.061000  1.0  0.6964
  C  C819  1  0.779400  0.390100  0.069700  1.0  -0.3468
  C  C820  1  0.815800  0.427000  0.092400  1.0  0.6986
  C  C821  1  0.910400  0.529500  0.015200  1.0  -0.222
  C  C822  1  0.926300  0.508400  0.052100  1.0  0.6955
  C  C823  1  0.083200  0.529800  0.204500  1.0  0.5161
  C  C824  1  0.825500  0.556700  0.122300  1.0  0.6413
  C  C825  1  0.797000  0.277800  0.123400  1.0  0.6204
  C  C826  1  0.643070  0.750930  0.635430  1.0  -0.2013
  C  C827  1  0.603370  0.746330  0.613830  1.0  0.4992
  C  C828  1  0.640070  0.895930  0.632530  1.0  -0.1587
  C  C829  1  0.637770  0.864530  0.595930  1.0  0.7012
  C  C830  1  0.500270  0.741630  0.681330  1.0  -0.1934
  C  C831  1  0.521270  0.775430  0.637230  1.0  0.6473
  C  C832  1  0.592670  0.729730  0.345430  1.0  -0.1816
  C  C833  1  0.568470  0.726630  0.394330  1.0  0.6964
  C  C834  1  0.446070  0.723430  0.403030  1.0  -0.3468
  C  C835  1  0.482470  0.760330  0.425730  1.0  0.6986
  C  C836  1  0.577070  0.862830  0.348530  1.0  -0.222
  C  C837  1  0.592970  0.841730  0.385430  1.0  0.6955
  C  C838  1  0.749870  0.863130  0.537830  1.0  0.5161
  C  C839  1  0.492170  0.890030  0.455630  1.0  0.6413
  C  C840  1  0.463670  0.611130  0.456730  1.0  0.6204
  C  C841  1  0.309730  0.084270  0.968770  1.0  -0.2013
  C  C842  1  0.270030  0.079670  0.947170  1.0  0.4992
  C  C843  1  0.306730  0.229270  0.965870  1.0  -0.1587
  C  C844  1  0.304430  0.197870  0.929270  1.0  0.7012
  C  C845  1  0.166930  0.074970  0.014670  1.0  -0.1934
  C  C846  1  0.187930  0.108770  0.970570  1.0  0.6473
  C  C847  1  0.259330  0.063070  0.678770  1.0  -0.1816
  C  C848  1  0.235130  0.059970  0.727670  1.0  0.6964
  C  C849  1  0.112730  0.056770  0.736370  1.0  -0.3468
  C  C850  1  0.149130  0.093670  0.759070  1.0  0.6986
  C  C851  1  0.243730  0.196170  0.681870  1.0  -0.222
  C  C852  1  0.259630  0.175070  0.718770  1.0  0.6955
  C  C853  1  0.416530  0.196470  0.871170  1.0  0.5161
  C  C854  1  0.158830  0.223370  0.788970  1.0  0.6412
  C  C855  1  0.130330  0.944470  0.790070  1.0  0.6204
  C  C856  1  0.582400  0.558800  0.302100  1.0  -0.2024
  C  C857  1  0.587000  0.523700  0.280500  1.0  0.4975
  C  C858  1  0.437400  0.410800  0.299200  1.0  -0.156
  C  C859  1  0.468800  0.439900  0.262600  1.0  0.7038
  C  C860  1  0.591700  0.425300  0.348000  1.0  -0.1924
  C  C861  1  0.557900  0.412500  0.303900  1.0  0.6478
  C  C862  1  0.603600  0.529600  0.012100  1.0  -0.1838
  C  C863  1  0.606700  0.508500  0.061000  1.0  0.6969
  C  C864  1  0.609900  0.389300  0.069700  1.0  -0.3462
  C  C865  1  0.573000  0.388800  0.092400  1.0  0.6975
  C  C866  1  0.470500  0.380900  0.015200  1.0  -0.2206
  C  C867  1  0.491600  0.417900  0.052100  1.0  0.6964
  C  C868  1  0.470200  0.553400  0.204500  1.0  0.5169
  C  C869  1  0.443300  0.268800  0.122300  1.0  0.6428
  C  C870  1  0.722200  0.519200  0.123400  1.0  0.619
  C  C871  1  0.249070  0.892130  0.635430  1.0  -0.2024
  C  C872  1  0.253670  0.857030  0.613830  1.0  0.4975
  C  C873  1  0.104070  0.744130  0.632530  1.0  -0.156
  C  C874  1  0.135470  0.773230  0.595930  1.0  0.7038
  C  C875  1  0.258370  0.758630  0.681330  1.0  -0.1924
  C  C876  1  0.224570  0.745830  0.637230  1.0  0.6478
  C  C877  1  0.270270  0.862930  0.345430  1.0  -0.1838
  C  C878  1  0.273370  0.841830  0.394330  1.0  0.6969
  C  C879  1  0.276570  0.722630  0.403030  1.0  -0.3462
  C  C880  1  0.239670  0.722130  0.425730  1.0  0.6975
  C  C881  1  0.137170  0.714230  0.348530  1.0  -0.2206
  C  C882  1  0.158270  0.751230  0.385430  1.0  0.6964
  C  C883  1  0.136870  0.886730  0.537830  1.0  0.5169
  C  C884  1  0.109970  0.602130  0.455630  1.0  0.6428
  C  C885  1  0.388870  0.852530  0.456730  1.0  0.619
  C  C886  1  0.915730  0.225470  0.968770  1.0  -0.2023
  C  C887  1  0.920330  0.190370  0.947170  1.0  0.4975
  C  C888  1  0.770730  0.077470  0.965870  1.0  -0.156
  C  C889  1  0.802130  0.106570  0.929270  1.0  0.7039
  C  C890  1  0.925030  0.091970  0.014670  1.0  -0.1924
  C  C891  1  0.891230  0.079170  0.970570  1.0  0.6478
  C  C892  1  0.936930  0.196270  0.678770  1.0  -0.1838
  C  C893  1  0.940030  0.175170  0.727670  1.0  0.6969
  C  C894  1  0.943230  0.055970  0.736370  1.0  -0.3462
  C  C895  1  0.906330  0.055470  0.759070  1.0  0.6975
  C  C896  1  0.803830  0.047570  0.681870  1.0  -0.2206
  C  C897  1  0.824930  0.084570  0.718770  1.0  0.6964
  C  C898  1  0.803530  0.220070  0.871170  1.0  0.5169
  C  C899  1  0.776630  0.935470  0.788970  1.0  0.6428
  C  C900  1  0.055530  0.185870  0.790070  1.0  0.619
  N  N901  1  0.563800  0.013300  0.725700  1.0  -0.6294
  N  N902  1  0.372500  0.936800  0.696100  1.0  -0.6423
  N  N903  1  0.450400  0.819500  0.668900  1.0  -0.6452
  N  N904  1  0.539000  0.967200  0.984000  1.0  -0.6605
  N  N905  1  0.431500  0.780800  0.919100  1.0  -0.5991
  N  N906  1  0.342200  0.889100  0.954500  1.0  -0.6354
  N  N907  1  0.230470  0.346630  0.059030  1.0  -0.6294
  N  N908  1  0.039170  0.270130  0.029430  1.0  -0.6423
  N  N909  1  0.117070  0.152830  0.002230  1.0  -0.6452
  N  N910  1  0.205670  0.300530  0.317330  1.0  -0.6605
  N  N911  1  0.098170  0.114130  0.252430  1.0  -0.5991
  N  N912  1  0.008870  0.222430  0.287830  1.0  -0.6354
  N  N913  1  0.897130  0.679970  0.392370  1.0  -0.6294
  N  N914  1  0.705830  0.603470  0.362770  1.0  -0.6423
  N  N915  1  0.783730  0.486170  0.335570  1.0  -0.6452
  N  N916  1  0.872330  0.633870  0.650670  1.0  -0.6605
  N  N917  1  0.764830  0.447470  0.585770  1.0  -0.5991
  N  N918  1  0.675530  0.555770  0.621170  1.0  -0.6354
  N  N919  1  0.986700  0.550500  0.725700  1.0  -0.6284
  N  N920  1  0.063200  0.435700  0.696100  1.0  -0.643
  N  N921  1  0.180500  0.630900  0.668900  1.0  -0.6436
  N  N922  1  0.032800  0.571800  0.984000  1.0  -0.6572
  N  N923  1  0.219200  0.650700  0.919100  1.0  -0.6004
  N  N924  1  0.110900  0.453100  0.954500  1.0  -0.6365
  N  N925  1  0.653370  0.883830  0.059030  1.0  -0.6284
  N  N926  1  0.729870  0.769030  0.029430  1.0  -0.643
  N  N927  1  0.847170  0.964230  0.002230  1.0  -0.6436
  N  N928  1  0.699470  0.905130  0.317330  1.0  -0.6572
  N  N929  1  0.885870  0.984030  0.252430  1.0  -0.6004
  N  N930  1  0.777570  0.786430  0.287830  1.0  -0.6365
  N  N931  1  0.320030  0.217170  0.392370  1.0  -0.6284
  N  N932  1  0.396530  0.102370  0.362770  1.0  -0.643
  N  N933  1  0.513830  0.297570  0.335570  1.0  -0.6436
  N  N934  1  0.366130  0.238470  0.650670  1.0  -0.6572
  N  N935  1  0.552530  0.317370  0.585770  1.0  -0.6004
  N  N936  1  0.444230  0.119770  0.621170  1.0  -0.6365
  N  N937  1  0.449500  0.436200  0.725700  1.0  -0.6275
  N  N938  1  0.564300  0.627500  0.696100  1.0  -0.6439
  N  N939  1  0.369100  0.549600  0.668900  1.0  -0.6435
  N  N940  1  0.428200  0.461000  0.984000  1.0  -0.661
  N  N941  1  0.349300  0.568500  0.919100  1.0  -0.5986
  N  N942  1  0.546900  0.657800  0.954500  1.0  -0.6392
  N  N943  1  0.116170  0.769530  0.059030  1.0  -0.6275
  N  N944  1  0.230970  0.960830  0.029430  1.0  -0.6439
  N  N945  1  0.035770  0.882930  0.002230  1.0  -0.6435
  N  N946  1  0.094870  0.794330  0.317330  1.0  -0.661
  N  N947  1  0.015970  0.901830  0.252430  1.0  -0.5986
  N  N948  1  0.213570  0.991130  0.287830  1.0  -0.6392
  N  N949  1  0.782830  0.102870  0.392370  1.0  -0.6275
  N  N950  1  0.897630  0.294170  0.362770  1.0  -0.6439
  N  N951  1  0.702430  0.216270  0.335570  1.0  -0.6435
  N  N952  1  0.761530  0.127670  0.650670  1.0  -0.661
  N  N953  1  0.682630  0.235170  0.585770  1.0  -0.5986
  N  N954  1  0.880230  0.324470  0.621170  1.0  -0.6392
  N  N955  1  0.436200  0.986700  0.274300  1.0  -0.6276
  N  N956  1  0.627500  0.063200  0.303900  1.0  -0.6447
  N  N957  1  0.549600  0.180500  0.331100  1.0  -0.6466
  N  N958  1  0.461000  0.032800  0.016000  1.0  -0.659
  N  N959  1  0.568500  0.219200  0.080900  1.0  -0.5997
  N  N960  1  0.657800  0.110900  0.045500  1.0  -0.6369
  N  N961  1  0.102870  0.320030  0.607630  1.0  -0.6276
  N  N962  1  0.294170  0.396530  0.637230  1.0  -0.6447
  N  N963  1  0.216270  0.513830  0.664430  1.0  -0.6466
  N  N964  1  0.127670  0.366130  0.349330  1.0  -0.659
  N  N965  1  0.235170  0.552530  0.414230  1.0  -0.5997
  N  N966  1  0.324470  0.444230  0.378830  1.0  -0.6369
  N  N967  1  0.769530  0.653370  0.940970  1.0  -0.6276
  N  N968  1  0.960830  0.729870  0.970570  1.0  -0.6447
  N  N969  1  0.882930  0.847170  0.997770  1.0  -0.6466
  N  N970  1  0.794330  0.699470  0.682670  1.0  -0.659
  N  N971  1  0.901830  0.885870  0.747570  1.0  -0.5997
  N  N972  1  0.991130  0.777570  0.712170  1.0  -0.6369
  N  N973  1  0.013300  0.449500  0.274300  1.0  -0.625
  N  N974  1  0.936800  0.564300  0.303900  1.0  -0.6438
  N  N975  1  0.819500  0.369100  0.331100  1.0  -0.6447
  N  N976  1  0.967200  0.428200  0.016000  1.0  -0.6559
  N  N977  1  0.780800  0.349300  0.080900  1.0  -0.5979
  N  N978  1  0.889100  0.546900  0.045500  1.0  -0.6378
  N  N979  1  0.679970  0.782830  0.607630  1.0  -0.625
  N  N980  1  0.603470  0.897630  0.637230  1.0  -0.6438
  N  N981  1  0.486170  0.702430  0.664430  1.0  -0.6447
  N  N982  1  0.633870  0.761530  0.349330  1.0  -0.6559
  N  N983  1  0.447470  0.682630  0.414230  1.0  -0.5979
  N  N984  1  0.555770  0.880230  0.378830  1.0  -0.6378
  N  N985  1  0.346630  0.116170  0.940970  1.0  -0.625
  N  N986  1  0.270130  0.230970  0.970570  1.0  -0.6438
  N  N987  1  0.152830  0.035770  0.997770  1.0  -0.6447
  N  N988  1  0.300530  0.094870  0.682670  1.0  -0.6559
  N  N989  1  0.114130  0.015970  0.747570  1.0  -0.5979
  N  N990  1  0.222430  0.213570  0.712170  1.0  -0.6378
  N  N991  1  0.550500  0.563800  0.274300  1.0  -0.629
  N  N992  1  0.435700  0.372500  0.303900  1.0  -0.6455
  N  N993  1  0.630900  0.450400  0.331100  1.0  -0.6458
  N  N994  1  0.571800  0.539000  0.016000  1.0  -0.6602
  N  N995  1  0.650700  0.431500  0.080900  1.0  -0.5989
  N  N996  1  0.453100  0.342200  0.045500  1.0  -0.6374
  N  N997  1  0.217170  0.897130  0.607630  1.0  -0.629
  N  N998  1  0.102370  0.705830  0.637230  1.0  -0.6455
  N  N999  1  0.297570  0.783730  0.664430  1.0  -0.6458
  N  N1000  1  0.238470  0.872330  0.349330  1.0  -0.6602
  N  N1001  1  0.317370  0.764830  0.414230  1.0  -0.5989
  N  N1002  1  0.119770  0.675530  0.378830  1.0  -0.6374
  N  N1003  1  0.883830  0.230470  0.940970  1.0  -0.629
  N  N1004  1  0.769030  0.039170  0.970570  1.0  -0.6455
  N  N1005  1  0.964230  0.117070  0.997770  1.0  -0.6458
  N  N1006  1  0.905130  0.205670  0.682670  1.0  -0.6602
  N  N1007  1  0.984030  0.098170  0.747570  1.0  -0.5989
  N  N1008  1  0.786430  0.008870  0.712170  1.0  -0.6374
  O  O1009  1  0.507400  0.942100  0.764900  1.0  -0.6814
  O  O1010  1  0.517600  0.907500  0.697200  1.0  -0.6081
  O  O1011  1  0.426700  0.937500  0.762100  1.0  -0.6554
  O  O1012  1  0.474800  0.999800  0.738900  1.0  -0.639
  O  O1013  1  0.432900  0.861500  0.741200  1.0  -0.6759
  O  O1014  1  0.384800  0.861800  0.689200  1.0  -0.5928
  O  O1015  1  0.494100  0.916700  0.905300  1.0  -0.6703
  O  O1016  1  0.502200  0.865800  0.936000  1.0  -0.6416
  O  O1017  1  0.419900  0.839400  0.877200  1.0  -0.6849
  O  O1018  1  0.360500  0.821100  0.917200  1.0  -0.587
  O  O1019  1  0.411900  0.912130  0.899100  1.0  -0.6832
  O  O1020  1  0.450600  0.950500  0.966900  1.0  -0.6291
  O  O1021  1  0.556300  0.085300  0.742300  1.0  -0.709
  O  O1022  1  0.543500  0.051100  0.823000  1.0  -0.6161
  O  O1023  1  0.266800  0.814000  0.925800  1.0  -0.7036
  O  O1024  1  0.298400  0.846200  0.851200  1.0  -0.6327
  O  O1025  1  0.510500  0.786500  0.927100  1.0  -0.6792
  O  O1026  1  0.502300  0.807800  0.844600  1.0  -0.6054
  O  O1027  1  0.486280  0.971760  0.849400  1.0  -0.7719
  O  O1028  1  0.374600  0.866960  0.811000  1.0  -0.7743
  O  O1029  1  0.486100  0.867200  0.813800  1.0  -0.7853
  O  O1030  1  0.174070  0.275430  0.098230  1.0  -0.6811
  O  O1031  1  0.184270  0.240830  0.030530  1.0  -0.6081
  O  O1032  1  0.093370  0.270830  0.095430  1.0  -0.6553
  O  O1033  1  0.141470  0.333130  0.072230  1.0  -0.639
  O  O1034  1  0.099570  0.194830  0.074530  1.0  -0.6759
  O  O1035  1  0.051470  0.195130  0.022530  1.0  -0.5929
  O  O1036  1  0.160770  0.250030  0.238630  1.0  -0.6703
  O  O1037  1  0.168870  0.199130  0.269330  1.0  -0.6417
  O  O1038  1  0.086570  0.172730  0.210530  1.0  -0.6849
  O  O1039  1  0.027170  0.154430  0.250530  1.0  -0.587
  O  O1040  1  0.078570  0.245460  0.232430  1.0  -0.6831
  O  O1041  1  0.117270  0.283830  0.300230  1.0  -0.6291
  O  O1042  1  0.222970  0.418630  0.075630  1.0  -0.709
  O  O1043  1  0.210170  0.384430  0.156330  1.0  -0.6161
  O  O1044  1  0.933470  0.147330  0.259130  1.0  -0.7036
  O  O1045  1  0.965070  0.179530  0.184530  1.0  -0.6327
  O  O1046  1  0.177170  0.119830  0.260430  1.0  -0.6786
  O  O1047  1  0.168970  0.141130  0.177930  1.0  -0.6054
  O  O1048  1  0.152950  0.305090  0.182730  1.0  -0.7719
  O  O1049  1  0.041270  0.200290  0.144330  1.0  -0.7744
  O  O1050  1  0.152770  0.200530  0.147130  1.0  -0.7853
  O  O1051  1  0.840730  0.608770  0.431570  1.0  -0.6814
  O  O1052  1  0.850930  0.574170  0.363870  1.0  -0.6081
  O  O1053  1  0.760030  0.604170  0.428770  1.0  -0.6554
  O  O1054  1  0.808130  0.666470  0.405570  1.0  -0.639
  O  O1055  1  0.766230  0.528170  0.407870  1.0  -0.6759
  O  O1056  1  0.718130  0.528470  0.355870  1.0  -0.5928
  O  O1057  1  0.827430  0.583370  0.571970  1.0  -0.6703
  O  O1058  1  0.835530  0.532470  0.602670  1.0  -0.6416
  O  O1059  1  0.753230  0.506070  0.543870  1.0  -0.6849
  O  O1060  1  0.693830  0.487770  0.583870  1.0  -0.587
  O  O1061  1  0.745230  0.578800  0.565770  1.0  -0.6832
  O  O1062  1  0.783930  0.617170  0.633570  1.0  -0.6291
  O  O1063  1  0.889630  0.751970  0.408970  1.0  -0.709
  O  O1064  1  0.876830  0.717770  0.489670  1.0  -0.6161
  O  O1065  1  0.600130  0.480670  0.592470  1.0  -0.7036
  O  O1066  1  0.631730  0.512870  0.517870  1.0  -0.6327
  O  O1067  1  0.843830  0.453170  0.593770  1.0  -0.6792
  O  O1068  1  0.835630  0.474470  0.511270  1.0  -0.6054
  O  O1069  1  0.819610  0.638430  0.516070  1.0  -0.7719
  O  O1070  1  0.707930  0.533630  0.477670  1.0  -0.7743
  O  O1071  1  0.819430  0.533870  0.480470  1.0  -0.7853
  O  O1072  1  0.057900  0.565300  0.764900  1.0  -0.6805
  O  O1073  1  0.092500  0.610100  0.697200  1.0  -0.6076
  O  O1074  1  0.062500  0.489200  0.762100  1.0  -0.652
  O  O1075  1  0.000200  0.475000  0.738900  1.0  -0.6405
  O  O1076  1  0.138500  0.571400  0.741200  1.0  -0.6763
  O  O1077  1  0.138200  0.523000  0.689200  1.0  -0.5944
  O  O1078  1  0.083300  0.577400  0.905300  1.0  -0.672
  O  O1079  1  0.134200  0.636400  0.936000  1.0  -0.6391
  O  O1080  1  0.160600  0.580500  0.877200  1.0  -0.6836
  O  O1081  1  0.178900  0.539400  0.917200  1.0  -0.5903
  O  O1082  1  0.087870  0.499770  0.899100  1.0  -0.6831
  O  O1083  1  0.049500  0.500100  0.966900  1.0  -0.6274
  O  O1084  1  0.914700  0.471000  0.742300  1.0  -0.7104
  O  O1085  1  0.948900  0.492400  0.823000  1.0  -0.6144
  O  O1086  1  0.186000  0.452800  0.925800  1.0  -0.7029
  O  O1087  1  0.153800  0.452200  0.851200  1.0  -0.6297
  O  O1088  1  0.213500  0.724000  0.927100  1.0  -0.6773
  O  O1089  1  0.192200  0.694500  0.844600  1.0  -0.6065
  O  O1090  1  0.028240  0.514520  0.849400  1.0  -0.7692
  O  O1091  1  0.133040  0.507640  0.811000  1.0  -0.7712
  O  O1092  1  0.132800  0.618900  0.813800  1.0  -0.7831
  O  O1093  1  0.724570  0.898630  0.098230  1.0  -0.6807
  O  O1094  1  0.759170  0.943430  0.030530  1.0  -0.6076
  O  O1095  1  0.729170  0.822530  0.095430  1.0  -0.652
  O  O1096  1  0.666870  0.808330  0.072230  1.0  -0.6405
  O  O1097  1  0.805170  0.904730  0.074530  1.0  -0.6763
  O  O1098  1  0.804870  0.856330  0.022530  1.0  -0.5943
  O  O1099  1  0.749970  0.910730  0.238630  1.0  -0.672
  O  O1100  1  0.800870  0.969730  0.269330  1.0  -0.6391
  O  O1101  1  0.827270  0.913830  0.210530  1.0  -0.6836
  O  O1102  1  0.845570  0.872730  0.250530  1.0  -0.5903
  O  O1103  1  0.754540  0.833100  0.232430  1.0  -0.6829
  O  O1104  1  0.716170  0.833430  0.300230  1.0  -0.6274
  O  O1105  1  0.581370  0.804330  0.075630  1.0  -0.7104
  O  O1106  1  0.615570  0.825730  0.156330  1.0  -0.6144
  O  O1107  1  0.852670  0.786130  0.259130  1.0  -0.7029
  O  O1108  1  0.820470  0.785530  0.184530  1.0  -0.6297
  O  O1109  1  0.880170  0.057330  0.260430  1.0  -0.6778
  O  O1110  1  0.858870  0.027830  0.177930  1.0  -0.6065
  O  O1111  1  0.694910  0.847850  0.182730  1.0  -0.7693
  O  O1112  1  0.799710  0.840970  0.144330  1.0  -0.7712
  O  O1113  1  0.799470  0.952230  0.147130  1.0  -0.7834
  O  O1114  1  0.391230  0.231970  0.431570  1.0  -0.6805
  O  O1115  1  0.425830  0.276770  0.363870  1.0  -0.6076
  O  O1116  1  0.395830  0.155870  0.428770  1.0  -0.652
  O  O1117  1  0.333530  0.141670  0.405570  1.0  -0.6405
  O  O1118  1  0.471830  0.238070  0.407870  1.0  -0.6763
  O  O1119  1  0.471530  0.189670  0.355870  1.0  -0.5944
  O  O1120  1  0.416630  0.244070  0.571970  1.0  -0.672
  O  O1121  1  0.467530  0.303070  0.602670  1.0  -0.6391
  O  O1122  1  0.493930  0.247170  0.543870  1.0  -0.6836
  O  O1123  1  0.512230  0.206070  0.583870  1.0  -0.5903
  O  O1124  1  0.421200  0.166440  0.565770  1.0  -0.6831
  O  O1125  1  0.382830  0.166770  0.633570  1.0  -0.6274
  O  O1126  1  0.248030  0.137670  0.408970  1.0  -0.7104
  O  O1127  1  0.282230  0.159070  0.489670  1.0  -0.6144
  O  O1128  1  0.519330  0.119470  0.592470  1.0  -0.7029
  O  O1129  1  0.487130  0.118870  0.517870  1.0  -0.6297
  O  O1130  1  0.546830  0.390670  0.593770  1.0  -0.6773
  O  O1131  1  0.525530  0.361170  0.511270  1.0  -0.6065
  O  O1132  1  0.361570  0.181190  0.516070  1.0  -0.7692
  O  O1133  1  0.466370  0.174310  0.477670  1.0  -0.7712
  O  O1134  1  0.466130  0.285570  0.480470  1.0  -0.7831
  O  O1135  1  0.434700  0.492600  0.764900  1.0  -0.6802
  O  O1136  1  0.389900  0.482400  0.697200  1.0  -0.6067
  O  O1137  1  0.510800  0.573300  0.762100  1.0  -0.6507
  O  O1138  1  0.525000  0.525200  0.738900  1.0  -0.644
  O  O1139  1  0.428600  0.567100  0.741200  1.0  -0.6762
  O  O1140  1  0.477000  0.615200  0.689200  1.0  -0.5914
  O  O1141  1  0.422600  0.505900  0.905300  1.0  -0.67
  O  O1142  1  0.363600  0.497800  0.936000  1.0  -0.6384
  O  O1143  1  0.419500  0.580100  0.877200  1.0  -0.6865
  O  O1144  1  0.460600  0.639500  0.917200  1.0  -0.5875
  O  O1145  1  0.500230  0.588100  0.899100  1.0  -0.6829
  O  O1146  1  0.499900  0.549400  0.966900  1.0  -0.6292
  O  O1147  1  0.529000  0.443700  0.742300  1.0  -0.709
  O  O1148  1  0.507600  0.456500  0.823000  1.0  -0.6133
  O  O1149  1  0.547200  0.733200  0.925800  1.0  -0.7021
  O  O1150  1  0.547800  0.701600  0.851200  1.0  -0.6325
  O  O1151  1  0.276000  0.489500  0.927100  1.0  -0.6793
  O  O1152  1  0.305500  0.497700  0.844600  1.0  -0.6049
  O  O1153  1  0.485480  0.513720  0.849400  1.0  -0.7701
  O  O1154  1  0.492360  0.625400  0.811000  1.0  -0.7746
  O  O1155  1  0.381100  0.513900  0.813800  1.0  -0.7834
  O  O1156  1  0.101370  0.825930  0.098230  1.0  -0.6799
  O  O1157  1  0.056570  0.815730  0.030530  1.0  -0.6066
  O  O1158  1  0.177470  0.906630  0.095430  1.0  -0.6507
  O  O1159  1  0.191670  0.858530  0.072230  1.0  -0.644
  O  O1160  1  0.095270  0.900430  0.074530  1.0  -0.6762
  O  O1161  1  0.143670  0.948530  0.022530  1.0  -0.5915
  O  O1162  1  0.089270  0.839230  0.238630  1.0  -0.67
  O  O1163  1  0.030270  0.831130  0.269330  1.0  -0.6383
  O  O1164  1  0.086170  0.913430  0.210530  1.0  -0.6863
  O  O1165  1  0.127270  0.972830  0.250530  1.0  -0.5875
  O  O1166  1  0.166900  0.921430  0.232430  1.0  -0.6828
  O  O1167  1  0.166570  0.882730  0.300230  1.0  -0.6292
  O  O1168  1  0.195670  0.777030  0.075630  1.0  -0.709
  O  O1169  1  0.174270  0.789830  0.156330  1.0  -0.6133
  O  O1170  1  0.213870  0.066530  0.259130  1.0  -0.702
  O  O1171  1  0.214470  0.034930  0.184530  1.0  -0.6325
  O  O1172  1  0.942670  0.822830  0.260430  1.0  -0.6799
  O  O1173  1  0.972170  0.831030  0.177930  1.0  -0.6049
  O  O1174  1  0.152150  0.847050  0.182730  1.0  -0.7699
  O  O1175  1  0.159030  0.958730  0.144330  1.0  -0.7746
  O  O1176  1  0.047770  0.847230  0.147130  1.0  -0.7832
  O  O1177  1  0.768030  0.159270  0.431570  1.0  -0.6802
  O  O1178  1  0.723230  0.149070  0.363870  1.0  -0.6067
  O  O1179  1  0.844130  0.239970  0.428770  1.0  -0.6507
  O  O1180  1  0.858330  0.191870  0.405570  1.0  -0.6439
  O  O1181  1  0.761930  0.233770  0.407870  1.0  -0.6762
  O  O1182  1  0.810330  0.281870  0.355870  1.0  -0.5914
  O  O1183  1  0.755930  0.172570  0.571970  1.0  -0.67
  O  O1184  1  0.696930  0.164470  0.602670  1.0  -0.6384
  O  O1185  1  0.752830  0.246770  0.543870  1.0  -0.6865
  O  O1186  1  0.793930  0.306170  0.583870  1.0  -0.5875
  O  O1187  1  0.833560  0.254770  0.565770  1.0  -0.6829
  O  O1188  1  0.833230  0.216070  0.633570  1.0  -0.6292
  O  O1189  1  0.862330  0.110370  0.408970  1.0  -0.709
  O  O1190  1  0.840930  0.123170  0.489670  1.0  -0.6133
  O  O1191  1  0.880530  0.399870  0.592470  1.0  -0.7021
  O  O1192  1  0.881130  0.368270  0.517870  1.0  -0.6325
  O  O1193  1  0.609330  0.156170  0.593770  1.0  -0.6793
  O  O1194  1  0.638830  0.164370  0.511270  1.0  -0.6049
  O  O1195  1  0.818810  0.180390  0.516070  1.0  -0.7701
  O  O1196  1  0.825690  0.292070  0.477670  1.0  -0.7746
  O  O1197  1  0.714430  0.180570  0.480470  1.0  -0.7834
  O  O1198  1  0.492600  0.057900  0.235100  1.0  -0.6813
  O  O1199  1  0.482400  0.092500  0.302800  1.0  -0.6088
  O  O1200  1  0.573300  0.062500  0.237900  1.0  -0.6528
  O  O1201  1  0.525200  0.000200  0.261100  1.0  -0.6397
  O  O1202  1  0.567100  0.138500  0.258800  1.0  -0.6746
  O  O1203  1  0.615200  0.138200  0.310800  1.0  -0.5918
  O  O1204  1  0.505900  0.083300  0.094700  1.0  -0.6699
  O  O1205  1  0.497800  0.134200  0.064000  1.0  -0.6429
  O  O1206  1  0.580100  0.160600  0.122800  1.0  -0.6865
  O  O1207  1  0.639500  0.178900  0.082800  1.0  -0.5866
  O  O1208  1  0.588100  0.087870  0.100900  1.0  -0.6825
  O  O1209  1  0.549400  0.049500  0.033100  1.0  -0.6285
  O  O1210  1  0.443700  0.914700  0.257700  1.0  -0.7072
  O  O1211  1  0.456500  0.948900  0.177000  1.0  -0.614
  O  O1212  1  0.733200  0.186000  0.074200  1.0  -0.7024
  O  O1213  1  0.701600  0.153800  0.148800  1.0  -0.6337
  O  O1214  1  0.489500  0.213500  0.072900  1.0  -0.6798
  O  O1215  1  0.497700  0.192200  0.155400  1.0  -0.6082
  O  O1216  1  0.513720  0.028240  0.150600  1.0  -0.7703
  O  O1217  1  0.625400  0.133040  0.189000  1.0  -0.7725
  O  O1218  1  0.513900  0.132800  0.186200  1.0  -0.7847
  O  O1219  1  0.159270  0.391230  0.568430  1.0  -0.6813
  O  O1220  1  0.149070  0.425830  0.636130  1.0  -0.6088
  O  O1221  1  0.239970  0.395830  0.571230  1.0  -0.6528
  O  O1222  1  0.191870  0.333530  0.594430  1.0  -0.6397
  O  O1223  1  0.233770  0.471830  0.592130  1.0  -0.6746
  O  O1224  1  0.281870  0.471530  0.644130  1.0  -0.5918
  O  O1225  1  0.172570  0.416630  0.428030  1.0  -0.6699
  O  O1226  1  0.164470  0.467530  0.397330  1.0  -0.6429
  O  O1227  1  0.246770  0.493930  0.456130  1.0  -0.6865
  O  O1228  1  0.306170  0.512230  0.416130  1.0  -0.5866
  O  O1229  1  0.254770  0.421200  0.434230  1.0  -0.6825
  O  O1230  1  0.216070  0.382830  0.366430  1.0  -0.6285
  O  O1231  1  0.110370  0.248030  0.591030  1.0  -0.7072
  O  O1232  1  0.123170  0.282230  0.510330  1.0  -0.614
  O  O1233  1  0.399870  0.519330  0.407530  1.0  -0.7024
  O  O1234  1  0.368270  0.487130  0.482130  1.0  -0.6337
  O  O1235  1  0.156170  0.546830  0.406230  1.0  -0.6798
  O  O1236  1  0.164370  0.525530  0.488730  1.0  -0.6082
  O  O1237  1  0.180390  0.361570  0.483930  1.0  -0.7703
  O  O1238  1  0.292070  0.466370  0.522330  1.0  -0.7725
  O  O1239  1  0.180570  0.466130  0.519530  1.0  -0.7847
  O  O1240  1  0.825930  0.724570  0.901770  1.0  -0.681
  O  O1241  1  0.815730  0.759170  0.969470  1.0  -0.6087
  O  O1242  1  0.906630  0.729170  0.904570  1.0  -0.6527
  O  O1243  1  0.858530  0.666870  0.927770  1.0  -0.6397
  O  O1244  1  0.900430  0.805170  0.925470  1.0  -0.6746
  O  O1245  1  0.948530  0.804870  0.977470  1.0  -0.5919
  O  O1246  1  0.839230  0.749970  0.761370  1.0  -0.6699
  O  O1247  1  0.831130  0.800870  0.730670  1.0  -0.6429
  O  O1248  1  0.913430  0.827270  0.789470  1.0  -0.6865
  O  O1249  1  0.972830  0.845570  0.749470  1.0  -0.5866
  O  O1250  1  0.921430  0.754540  0.767570  1.0  -0.6825
  O  O1251  1  0.882730  0.716170  0.699770  1.0  -0.6285
  O  O1252  1  0.777030  0.581370  0.924370  1.0  -0.7072
  O  O1253  1  0.789830  0.615570  0.843670  1.0  -0.614
  O  O1254  1  0.066530  0.852670  0.740870  1.0  -0.7023
  O  O1255  1  0.034930  0.820470  0.815470  1.0  -0.6337
  O  O1256  1  0.822830  0.880170  0.739570  1.0  -0.6793
  O  O1257  1  0.831030  0.858870  0.822070  1.0  -0.6082
  O  O1258  1  0.847050  0.694910  0.817270  1.0  -0.7703
  O  O1259  1  0.958730  0.799710  0.855670  1.0  -0.7725
  O  O1260  1  0.847230  0.799470  0.852870  1.0  -0.7847
  O  O1261  1  0.942100  0.434700  0.235100  1.0  -0.6811
  O  O1262  1  0.907500  0.389900  0.302800  1.0  -0.6077
  O  O1263  1  0.937500  0.510800  0.237900  1.0  -0.653
  O  O1264  1  0.999800  0.525000  0.261100  1.0  -0.6394
  O  O1265  1  0.861500  0.428600  0.258800  1.0  -0.6755
  O  O1266  1  0.861800  0.477000  0.310800  1.0  -0.5929
  O  O1267  1  0.916700  0.422600  0.094700  1.0  -0.6727
  O  O1268  1  0.865800  0.363600  0.064000  1.0  -0.6366
  O  O1269  1  0.839400  0.419500  0.122800  1.0  -0.6834
  O  O1270  1  0.821100  0.460600  0.082800  1.0  -0.5915
  O  O1271  1  0.912130  0.500230  0.100900  1.0  -0.6818
  O  O1272  1  0.950500  0.499900  0.033100  1.0  -0.6265
  O  O1273  1  0.085300  0.529000  0.257700  1.0  -0.7093
  O  O1274  1  0.051100  0.507600  0.177000  1.0  -0.6131
  O  O1275  1  0.814000  0.547200  0.074200  1.0  -0.7005
  O  O1276  1  0.846200  0.547800  0.148800  1.0  -0.6329
  O  O1277  1  0.786500  0.276000  0.072900  1.0  -0.6774
  O  O1278  1  0.807800  0.305500  0.155400  1.0  -0.6079
  O  O1279  1  0.971760  0.485480  0.150600  1.0  -0.7707
  O  O1280  1  0.866960  0.492360  0.189000  1.0  -0.7725
  O  O1281  1  0.867200  0.381100  0.186200  1.0  -0.7833
  O  O1282  1  0.608770  0.768030  0.568430  1.0  -0.6811
  O  O1283  1  0.574170  0.723230  0.636130  1.0  -0.6077
  O  O1284  1  0.604170  0.844130  0.571230  1.0  -0.653
  O  O1285  1  0.666470  0.858330  0.594430  1.0  -0.6394
  O  O1286  1  0.528170  0.761930  0.592130  1.0  -0.6755
  O  O1287  1  0.528470  0.810330  0.644130  1.0  -0.5929
  O  O1288  1  0.583370  0.755930  0.428030  1.0  -0.6727
  O  O1289  1  0.532470  0.696930  0.397330  1.0  -0.6366
  O  O1290  1  0.506070  0.752830  0.456130  1.0  -0.6834
  O  O1291  1  0.487770  0.793930  0.416130  1.0  -0.5915
  O  O1292  1  0.578800  0.833560  0.434230  1.0  -0.6818
  O  O1293  1  0.617170  0.833230  0.366430  1.0  -0.6265
  O  O1294  1  0.751970  0.862330  0.591030  1.0  -0.7093
  O  O1295  1  0.717770  0.840930  0.510330  1.0  -0.6131
  O  O1296  1  0.480670  0.880530  0.407530  1.0  -0.7005
  O  O1297  1  0.512870  0.881130  0.482130  1.0  -0.6329
  O  O1298  1  0.453170  0.609330  0.406230  1.0  -0.6774
  O  O1299  1  0.474470  0.638830  0.488730  1.0  -0.6079
  O  O1300  1  0.638430  0.818810  0.483930  1.0  -0.7707
  O  O1301  1  0.533630  0.825690  0.522330  1.0  -0.7725
  O  O1302  1  0.533870  0.714430  0.519530  1.0  -0.7833
  O  O1303  1  0.275430  0.101370  0.901770  1.0  -0.6813
  O  O1304  1  0.240830  0.056570  0.969470  1.0  -0.6077
  O  O1305  1  0.270830  0.177470  0.904570  1.0  -0.653
  O  O1306  1  0.333130  0.191670  0.927770  1.0  -0.6394
  O  O1307  1  0.194830  0.095270  0.925470  1.0  -0.6755
  O  O1308  1  0.195130  0.143670  0.977470  1.0  -0.5928
  O  O1309  1  0.250030  0.089270  0.761370  1.0  -0.6727
  O  O1310  1  0.199130  0.030270  0.730670  1.0  -0.6365
  O  O1311  1  0.172730  0.086170  0.789470  1.0  -0.6834
  O  O1312  1  0.154430  0.127270  0.749470  1.0  -0.5915
  O  O1313  1  0.245460  0.166900  0.767570  1.0  -0.6817
  O  O1314  1  0.283830  0.166570  0.699770  1.0  -0.6265
  O  O1315  1  0.418630  0.195670  0.924370  1.0  -0.7093
  O  O1316  1  0.384430  0.174270  0.843670  1.0  -0.6131
  O  O1317  1  0.147330  0.213870  0.740870  1.0  -0.7005
  O  O1318  1  0.179530  0.214470  0.815470  1.0  -0.6329
  O  O1319  1  0.119830  0.942670  0.739570  1.0  -0.6778
  O  O1320  1  0.141130  0.972170  0.822070  1.0  -0.6079
  O  O1321  1  0.305090  0.152150  0.817270  1.0  -0.7708
  O  O1322  1  0.200290  0.159030  0.855670  1.0  -0.7724
  O  O1323  1  0.200530  0.047770  0.852870  1.0  -0.7836
  O  O1324  1  0.565300  0.507400  0.235100  1.0  -0.6807
  O  O1325  1  0.610100  0.517600  0.302800  1.0  -0.6064
  O  O1326  1  0.489200  0.426700  0.237900  1.0  -0.6506
  O  O1327  1  0.475000  0.474800  0.261100  1.0  -0.6467
  O  O1328  1  0.571400  0.432900  0.258800  1.0  -0.6741
  O  O1329  1  0.523000  0.384800  0.310800  1.0  -0.5902
  O  O1330  1  0.577400  0.494100  0.094700  1.0  -0.6723
  O  O1331  1  0.636400  0.502200  0.064000  1.0  -0.6388
  O  O1332  1  0.580500  0.419900  0.122800  1.0  -0.6844
  O  O1333  1  0.539400  0.360500  0.082800  1.0  -0.5846
  O  O1334  1  0.499770  0.411900  0.100900  1.0  -0.6832
  O  O1335  1  0.500100  0.450600  0.033100  1.0  -0.6308
  O  O1336  1  0.471000  0.556300  0.257700  1.0  -0.7092
  O  O1337  1  0.492400  0.543500  0.177000  1.0  -0.6134
  O  O1338  1  0.452800  0.266800  0.074200  1.0  -0.6977
  O  O1339  1  0.452200  0.298400  0.148800  1.0  -0.6354
  O  O1340  1  0.724000  0.510500  0.072900  1.0  -0.6785
  O  O1341  1  0.694500  0.502300  0.155400  1.0  -0.6083
  O  O1342  1  0.514520  0.486280  0.150600  1.0  -0.7716
  O  O1343  1  0.507640  0.374600  0.189000  1.0  -0.7731
  O  O1344  1  0.618900  0.486100  0.186200  1.0  -0.7845
  O  O1345  1  0.231970  0.840730  0.568430  1.0  -0.6807
  O  O1346  1  0.276770  0.850930  0.636130  1.0  -0.6064
  O  O1347  1  0.155870  0.760030  0.571230  1.0  -0.6506
  O  O1348  1  0.141670  0.808130  0.594430  1.0  -0.6467
  O  O1349  1  0.238070  0.766230  0.592130  1.0  -0.6741
  O  O1350  1  0.189670  0.718130  0.644130  1.0  -0.5902
  O  O1351  1  0.244070  0.827430  0.428030  1.0  -0.6723
  O  O1352  1  0.303070  0.835530  0.397330  1.0  -0.6388
  O  O1353  1  0.247170  0.753230  0.456130  1.0  -0.6844
  O  O1354  1  0.206070  0.693830  0.416130  1.0  -0.5846
  O  O1355  1  0.166440  0.745230  0.434230  1.0  -0.6832
  O  O1356  1  0.166770  0.783930  0.366430  1.0  -0.6308
  O  O1357  1  0.137670  0.889630  0.591030  1.0  -0.7092
  O  O1358  1  0.159070  0.876830  0.510330  1.0  -0.6134
  O  O1359  1  0.119470  0.600130  0.407530  1.0  -0.6977
  O  O1360  1  0.118870  0.631730  0.482130  1.0  -0.6354
  O  O1361  1  0.390670  0.843830  0.406230  1.0  -0.6785
  O  O1362  1  0.361170  0.835630  0.488730  1.0  -0.6083
  O  O1363  1  0.181190  0.819610  0.483930  1.0  -0.7716
  O  O1364  1  0.174310  0.707930  0.522330  1.0  -0.7731
  O  O1365  1  0.285570  0.819430  0.519530  1.0  -0.7845
  O  O1366  1  0.898630  0.174070  0.901770  1.0  -0.6803
  O  O1367  1  0.943430  0.184270  0.969470  1.0  -0.6064
  O  O1368  1  0.822530  0.093370  0.904570  1.0  -0.6506
  O  O1369  1  0.808330  0.141470  0.927770  1.0  -0.6467
  O  O1370  1  0.904730  0.099570  0.925470  1.0  -0.6741
  O  O1371  1  0.856330  0.051470  0.977470  1.0  -0.5902
  O  O1372  1  0.910730  0.160770  0.761370  1.0  -0.6723
  O  O1373  1  0.969730  0.168870  0.730670  1.0  -0.6388
  O  O1374  1  0.913830  0.086570  0.789470  1.0  -0.6842
  O  O1375  1  0.872730  0.027170  0.749470  1.0  -0.5846
  O  O1376  1  0.833100  0.078570  0.767570  1.0  -0.6831
  O  O1377  1  0.833430  0.117270  0.699770  1.0  -0.6308
  O  O1378  1  0.804330  0.222970  0.924370  1.0  -0.7092
  O  O1379  1  0.825730  0.210170  0.843670  1.0  -0.6134
  O  O1380  1  0.786130  0.933470  0.740870  1.0  -0.6977
  O  O1381  1  0.785530  0.965070  0.815470  1.0  -0.6354
  O  O1382  1  0.057330  0.177170  0.739570  1.0  -0.6791
  O  O1383  1  0.027830  0.168970  0.822070  1.0  -0.6083
  O  O1384  1  0.847850  0.152950  0.817270  1.0  -0.7715
  O  O1385  1  0.840970  0.041270  0.855670  1.0  -0.773
  O  O1386  1  0.952230  0.152770  0.852870  1.0  -0.7842
