# generated using pymatgen
data_Tb2Cu6H27C15(N2O7)3
_symmetry_space_group_name_H-M   'P 1'
_cell_length_a   38.00200000
_cell_length_b   38.00200000
_cell_length_c   24.34800000
_cell_angle_alpha   90.00000000
_cell_angle_beta   90.00000000
_cell_angle_gamma   120.00000000
_symmetry_Int_Tables_number   1
_chemical_formula_structural   Tb2Cu6H27C15(N2O7)3
_chemical_formula_sum   'Tb36 Cu108 H486 C270 N108 O378'
_cell_volume   30451.36970556
_cell_formula_units_Z   18
loop_
 _symmetry_equiv_pos_site_id
 _symmetry_equiv_pos_as_xyz
  1  'x, y, z'
loop_
 _atom_site_type_symbol
 _atom_site_label
 _atom_site_symmetry_multiplicity
 _atom_site_fract_x
 _atom_site_fract_y
 _atom_site_fract_z
 _atom_site_occupancy
 _atom_site_charge
  Tb  Tb1  1  0.217790  0.431270  0.008170  1.0  2.1055
  Tb  Tb2  1  0.103540  0.208090  0.166990  1.0  1.826
  Tb  Tb3  1  0.884460  0.764600  0.341500  1.0  2.1055
  Tb  Tb4  1  0.770200  0.541420  0.500320  1.0  1.826
  Tb  Tb5  1  0.551120  0.097940  0.674840  1.0  2.1055
  Tb  Tb6  1  0.436870  0.874760  0.833650  1.0  1.8259
  Tb  Tb7  1  0.568730  0.786520  0.008170  1.0  2.1056
  Tb  Tb8  1  0.791910  0.895450  0.166990  1.0  1.8227
  Tb  Tb9  1  0.235400  0.119850  0.341500  1.0  2.1056
  Tb  Tb10  1  0.458580  0.228780  0.500320  1.0  1.823
  Tb  Tb11  1  0.902060  0.453190  0.674840  1.0  2.1056
  Tb  Tb12  1  0.125240  0.562110  0.833650  1.0  1.8234
  Tb  Tb13  1  0.213480  0.782210  0.008170  1.0  2.1051
  Tb  Tb14  1  0.104550  0.896460  0.166990  1.0  1.8227
  Tb  Tb15  1  0.880150  0.115540  0.341500  1.0  2.1051
  Tb  Tb16  1  0.771220  0.229800  0.500320  1.0  1.8229
  Tb  Tb17  1  0.546810  0.448880  0.674840  1.0  2.1051
  Tb  Tb18  1  0.437890  0.563130  0.833650  1.0  1.8237
  Tb  Tb19  1  0.782210  0.568730  0.991830  1.0  2.105
  Tb  Tb20  1  0.896460  0.791910  0.833010  1.0  1.8284
  Tb  Tb21  1  0.448880  0.902060  0.325160  1.0  2.105
  Tb  Tb22  1  0.563130  0.125240  0.166350  1.0  1.8283
  Tb  Tb23  1  0.115540  0.235400  0.658500  1.0  2.105
  Tb  Tb24  1  0.229800  0.458580  0.499680  1.0  1.8284
  Tb  Tb25  1  0.431270  0.213480  0.991830  1.0  2.1051
  Tb  Tb26  1  0.208090  0.104550  0.833010  1.0  1.8256
  Tb  Tb27  1  0.097940  0.546810  0.325160  1.0  2.1051
  Tb  Tb28  1  0.874760  0.437890  0.166350  1.0  1.8262
  Tb  Tb29  1  0.764600  0.880150  0.658500  1.0  2.1051
  Tb  Tb30  1  0.541420  0.771220  0.499680  1.0  1.8258
  Tb  Tb31  1  0.786520  0.217790  0.991830  1.0  2.1056
  Tb  Tb32  1  0.895450  0.103540  0.833010  1.0  1.8259
  Tb  Tb33  1  0.453190  0.551120  0.325160  1.0  2.1056
  Tb  Tb34  1  0.562110  0.436870  0.166350  1.0  1.827
  Tb  Tb35  1  0.119850  0.884460  0.658500  1.0  2.1056
  Tb  Tb36  1  0.228780  0.770200  0.499680  1.0  1.8261
  Cu  Cu37  1  0.140780  0.334180  0.043390  1.0  0.8377
  Cu  Cu38  1  0.298500  0.436010  0.082760  1.0  0.8236
  Cu  Cu39  1  0.191770  0.486780  0.094460  1.0  0.796
  Cu  Cu40  1  0.154180  0.359400  0.914160  1.0  0.7849
  Cu  Cu41  1  0.313450  0.460190  0.952240  1.0  0.8802
  Cu  Cu42  1  0.204920  0.510910  0.965990  1.0  0.8356
  Cu  Cu43  1  0.807450  0.667510  0.376720  1.0  0.8377
  Cu  Cu44  1  0.965170  0.769340  0.416090  1.0  0.8236
  Cu  Cu45  1  0.858440  0.820110  0.427790  1.0  0.796
  Cu  Cu46  1  0.820850  0.692730  0.247490  1.0  0.7849
  Cu  Cu47  1  0.980120  0.793520  0.285570  1.0  0.8802
  Cu  Cu48  1  0.871590  0.844240  0.299320  1.0  0.8356
  Cu  Cu49  1  0.474110  0.000850  0.710060  1.0  0.8377
  Cu  Cu50  1  0.631830  0.102680  0.749430  1.0  0.8236
  Cu  Cu51  1  0.525100  0.153450  0.761130  1.0  0.796
  Cu  Cu52  1  0.487510  0.026070  0.580830  1.0  0.7849
  Cu  Cu53  1  0.646780  0.126860  0.618910  1.0  0.8802
  Cu  Cu54  1  0.538250  0.177580  0.632660  1.0  0.8356
  Cu  Cu55  1  0.665820  0.806600  0.043390  1.0  0.8378
  Cu  Cu56  1  0.563990  0.862490  0.082760  1.0  0.8211
  Cu  Cu57  1  0.513220  0.704990  0.094460  1.0  0.7983
  Cu  Cu58  1  0.640600  0.794780  0.914160  1.0  0.7801
  Cu  Cu59  1  0.539810  0.853260  0.952240  1.0  0.8793
  Cu  Cu60  1  0.489090  0.694010  0.965990  1.0  0.8344
  Cu  Cu61  1  0.332490  0.139930  0.376720  1.0  0.8378
  Cu  Cu62  1  0.230660  0.195820  0.416090  1.0  0.8206
  Cu  Cu63  1  0.179890  0.038320  0.427790  1.0  0.7983
  Cu  Cu64  1  0.307270  0.128110  0.247490  1.0  0.7801
  Cu  Cu65  1  0.206480  0.186590  0.285570  1.0  0.8793
  Cu  Cu66  1  0.155760  0.027340  0.299320  1.0  0.8344
  Cu  Cu67  1  0.999150  0.473270  0.710060  1.0  0.8378
  Cu  Cu68  1  0.897320  0.529160  0.749430  1.0  0.8206
  Cu  Cu69  1  0.846550  0.371660  0.761130  1.0  0.7983
  Cu  Cu70  1  0.973930  0.461450  0.580830  1.0  0.78
  Cu  Cu71  1  0.873140  0.519930  0.618910  1.0  0.8793
  Cu  Cu72  1  0.822420  0.360680  0.632660  1.0  0.8344
  Cu  Cu73  1  0.193400  0.859220  0.043390  1.0  0.8379
  Cu  Cu74  1  0.137510  0.701500  0.082760  1.0  0.8248
  Cu  Cu75  1  0.295010  0.808230  0.094460  1.0  0.7994
  Cu  Cu76  1  0.205220  0.845820  0.914160  1.0  0.7798
  Cu  Cu77  1  0.146740  0.686550  0.952240  1.0  0.879
  Cu  Cu78  1  0.305990  0.795080  0.965990  1.0  0.8356
  Cu  Cu79  1  0.860070  0.192550  0.376720  1.0  0.8379
  Cu  Cu80  1  0.804180  0.034830  0.416090  1.0  0.8248
  Cu  Cu81  1  0.961680  0.141560  0.427790  1.0  0.7994
  Cu  Cu82  1  0.871890  0.179150  0.247490  1.0  0.7798
  Cu  Cu83  1  0.813410  0.019880  0.285570  1.0  0.879
  Cu  Cu84  1  0.972660  0.128410  0.299320  1.0  0.8356
  Cu  Cu85  1  0.526730  0.525890  0.710060  1.0  0.8379
  Cu  Cu86  1  0.470840  0.368170  0.749430  1.0  0.8248
  Cu  Cu87  1  0.628340  0.474900  0.761130  1.0  0.7994
  Cu  Cu88  1  0.538550  0.512490  0.580830  1.0  0.7798
  Cu  Cu89  1  0.480070  0.353220  0.618910  1.0  0.879
  Cu  Cu90  1  0.639320  0.461750  0.632660  1.0  0.8356
  Cu  Cu91  1  0.859220  0.665820  0.956610  1.0  0.8366
  Cu  Cu92  1  0.701500  0.563990  0.917240  1.0  0.8206
  Cu  Cu93  1  0.808230  0.513220  0.905540  1.0  0.7968
  Cu  Cu94  1  0.845820  0.640600  0.085840  1.0  0.7861
  Cu  Cu95  1  0.686550  0.539810  0.047760  1.0  0.8808
  Cu  Cu96  1  0.795080  0.489090  0.034010  1.0  0.8361
  Cu  Cu97  1  0.525890  0.999150  0.289940  1.0  0.8366
  Cu  Cu98  1  0.368170  0.897320  0.250570  1.0  0.8206
  Cu  Cu99  1  0.474900  0.846550  0.238870  1.0  0.7968
  Cu  Cu100  1  0.512490  0.973930  0.419170  1.0  0.7861
  Cu  Cu101  1  0.353220  0.873140  0.381090  1.0  0.8808
  Cu  Cu102  1  0.461750  0.822420  0.367340  1.0  0.8361
  Cu  Cu103  1  0.192550  0.332490  0.623280  1.0  0.8366
  Cu  Cu104  1  0.034830  0.230660  0.583910  1.0  0.8206
  Cu  Cu105  1  0.141560  0.179890  0.572210  1.0  0.7968
  Cu  Cu106  1  0.179150  0.307270  0.752510  1.0  0.7861
  Cu  Cu107  1  0.019880  0.206480  0.714430  1.0  0.8808
  Cu  Cu108  1  0.128410  0.155760  0.700680  1.0  0.8361
  Cu  Cu109  1  0.334180  0.193400  0.956610  1.0  0.8363
  Cu  Cu110  1  0.436010  0.137510  0.917240  1.0  0.8226
  Cu  Cu111  1  0.486780  0.295010  0.905540  1.0  0.7948
  Cu  Cu112  1  0.359400  0.205220  0.085840  1.0  0.7858
  Cu  Cu113  1  0.460190  0.146740  0.047760  1.0  0.8806
  Cu  Cu114  1  0.510910  0.305990  0.034010  1.0  0.8376
  Cu  Cu115  1  0.000850  0.526730  0.289940  1.0  0.8363
  Cu  Cu116  1  0.102680  0.470840  0.250570  1.0  0.8221
  Cu  Cu117  1  0.153450  0.628340  0.238870  1.0  0.7948
  Cu  Cu118  1  0.026070  0.538550  0.419170  1.0  0.7858
  Cu  Cu119  1  0.126860  0.480070  0.381090  1.0  0.8806
  Cu  Cu120  1  0.177580  0.639320  0.367340  1.0  0.8376
  Cu  Cu121  1  0.667510  0.860070  0.623280  1.0  0.8363
  Cu  Cu122  1  0.769340  0.804180  0.583910  1.0  0.8221
  Cu  Cu123  1  0.820110  0.961680  0.572210  1.0  0.7948
  Cu  Cu124  1  0.692730  0.871890  0.752510  1.0  0.7858
  Cu  Cu125  1  0.793520  0.813410  0.714430  1.0  0.8806
  Cu  Cu126  1  0.844240  0.972660  0.700680  1.0  0.8376
  Cu  Cu127  1  0.806600  0.140780  0.956610  1.0  0.8356
  Cu  Cu128  1  0.862490  0.298500  0.917240  1.0  0.8212
  Cu  Cu129  1  0.704990  0.191770  0.905540  1.0  0.7947
  Cu  Cu130  1  0.794780  0.154180  0.085840  1.0  0.7867
  Cu  Cu131  1  0.853260  0.313450  0.047760  1.0  0.8811
  Cu  Cu132  1  0.694010  0.204920  0.034010  1.0  0.8375
  Cu  Cu133  1  0.473270  0.474110  0.289940  1.0  0.8356
  Cu  Cu134  1  0.529160  0.631830  0.250570  1.0  0.8212
  Cu  Cu135  1  0.371660  0.525100  0.238870  1.0  0.7947
  Cu  Cu136  1  0.461450  0.487510  0.419170  1.0  0.7867
  Cu  Cu137  1  0.519930  0.646780  0.381090  1.0  0.8811
  Cu  Cu138  1  0.360680  0.538250  0.367340  1.0  0.8375
  Cu  Cu139  1  0.139930  0.807450  0.623280  1.0  0.8356
  Cu  Cu140  1  0.195820  0.965170  0.583910  1.0  0.8212
  Cu  Cu141  1  0.038320  0.858440  0.572210  1.0  0.7947
  Cu  Cu142  1  0.128110  0.820850  0.752510  1.0  0.7867
  Cu  Cu143  1  0.186590  0.980120  0.714430  1.0  0.8811
  Cu  Cu144  1  0.027340  0.871590  0.700680  1.0  0.8375
  H  H145  1  0.077200  0.304800  0.093400  1.0  0.2729
  H  H146  1  0.106900  0.302700  0.128800  1.0  0.2699
  H  H147  1  0.315800  0.391500  0.132800  1.0  0.2775
  H  H148  1  0.298200  0.407400  0.172000  1.0  0.2848
  H  H149  1  0.229600  0.539500  0.161800  1.0  0.2632
  H  H150  1  0.195500  0.505900  0.190300  1.0  0.2665
  H  H151  1  0.136300  0.358800  0.818500  1.0  0.2665
  H  H152  1  0.100700  0.350000  0.851300  1.0  0.2693
  H  H153  1  0.340400  0.468300  0.860800  1.0  0.2594
  H  H154  1  0.337000  0.431300  0.883600  1.0  0.27
  H  H155  1  0.225000  0.549700  0.882000  1.0  0.2824
  H  H156  1  0.244100  0.578000  0.927300  1.0  0.2692
  H  H157  1  0.244700  0.351700  0.169500  1.0  0.1023
  H  H158  1  0.261100  0.338500  0.119300  1.0  0.1079
  H  H159  1  0.113100  0.408100  0.838000  1.0  0.0769
  H  H160  1  0.155200  0.419200  0.812500  1.0  0.0836
  H  H161  1  0.287200  0.398600  0.834600  1.0  0.0797
  H  H162  1  0.285800  0.438100  0.820600  1.0  0.085
  H  H163  1  0.298800  0.578700  0.919300  1.0  0.1036
  H  H164  1  0.281100  0.555500  0.863900  1.0  0.0868
  H  H165  1  0.109000  0.225700  0.020500  1.0  0.063
  H  H166  1  0.423800  0.516800  0.970600  1.0  0.0011
  H  H167  1  0.123900  0.537200  0.968900  1.0  -0.0162
  H  H168  1  0.227500  0.476800  0.210900  1.0  0.1106
  H  H169  1  0.265500  0.519400  0.199500  1.0  0.0921
  H  H170  1  0.115300  0.353000  0.173500  1.0  0.0995
  H  H171  1  0.083400  0.355300  0.135200  1.0  0.0607
  H  H172  1  0.743870  0.638130  0.426730  1.0  0.2729
  H  H173  1  0.773570  0.636030  0.462130  1.0  0.2699
  H  H174  1  0.982470  0.724830  0.466130  1.0  0.2775
  H  H175  1  0.964870  0.740730  0.505330  1.0  0.2848
  H  H176  1  0.896270  0.872830  0.495130  1.0  0.264
  H  H177  1  0.862170  0.839230  0.523630  1.0  0.2667
  H  H178  1  0.802970  0.692130  0.151830  1.0  0.2665
  H  H179  1  0.767370  0.683330  0.184630  1.0  0.2693
  H  H180  1  0.007070  0.801630  0.194130  1.0  0.2594
  H  H181  1  0.003670  0.764630  0.216930  1.0  0.27
  H  H182  1  0.891670  0.883030  0.215330  1.0  0.2824
  H  H183  1  0.910770  0.911330  0.260630  1.0  0.2692
  H  H184  1  0.911370  0.685030  0.502830  1.0  0.1023
  H  H185  1  0.927770  0.671830  0.452630  1.0  0.1079
  H  H186  1  0.779770  0.741430  0.171330  1.0  0.0769
  H  H187  1  0.821870  0.752530  0.145830  1.0  0.0835
  H  H188  1  0.953870  0.731930  0.167930  1.0  0.0797
  H  H189  1  0.952470  0.771430  0.153930  1.0  0.085
  H  H190  1  0.965470  0.912030  0.252630  1.0  0.1036
  H  H191  1  0.947770  0.888830  0.197230  1.0  0.0863
  H  H192  1  0.775670  0.559030  0.353830  1.0  0.063
  H  H193  1  0.090470  0.850130  0.303930  1.0  0.0011
  H  H194  1  0.790570  0.870530  0.302230  1.0  -0.0161
  H  H195  1  0.894170  0.810130  0.544230  1.0  0.1106
  H  H196  1  0.932170  0.852730  0.532830  1.0  0.0921
  H  H197  1  0.781970  0.686330  0.506830  1.0  0.0995
  H  H198  1  0.750070  0.688630  0.468530  1.0  0.0607
  H  H199  1  0.410530  0.971470  0.760070  1.0  0.2729
  H  H200  1  0.440230  0.969370  0.795470  1.0  0.2699
  H  H201  1  0.649130  0.058170  0.799470  1.0  0.2775
  H  H202  1  0.631530  0.074070  0.838670  1.0  0.2848
  H  H203  1  0.562930  0.206170  0.828470  1.0  0.2632
  H  H204  1  0.528830  0.172570  0.856970  1.0  0.2665
  H  H205  1  0.469630  0.025470  0.485170  1.0  0.2667
  H  H206  1  0.434030  0.016670  0.517970  1.0  0.269
  H  H207  1  0.673730  0.134970  0.527470  1.0  0.2594
  H  H208  1  0.670330  0.097970  0.550270  1.0  0.2699
  H  H209  1  0.558330  0.216370  0.548670  1.0  0.2824
  H  H210  1  0.577430  0.244670  0.593970  1.0  0.2692
  H  H211  1  0.578030  0.018370  0.836170  1.0  0.1023
  H  H212  1  0.594430  0.005170  0.785970  1.0  0.1079
  H  H213  1  0.446430  0.074770  0.504670  1.0  0.0769
  H  H214  1  0.488530  0.085870  0.479170  1.0  0.0836
  H  H215  1  0.620530  0.065270  0.501270  1.0  0.0797
  H  H216  1  0.619130  0.104770  0.487270  1.0  0.085
  H  H217  1  0.632130  0.245370  0.585970  1.0  0.1036
  H  H218  1  0.614430  0.222170  0.530570  1.0  0.0868
  H  H219  1  0.442330  0.892370  0.687170  1.0  0.063
  H  H220  1  0.757130  0.183470  0.637270  1.0  0.0011
  H  H221  1  0.457230  0.203870  0.635570  1.0  -0.0162
  H  H222  1  0.560830  0.143470  0.877570  1.0  0.1106
  H  H223  1  0.598830  0.186070  0.866170  1.0  0.0921
  H  H224  1  0.448630  0.019670  0.840170  1.0  0.0995
  H  H225  1  0.416730  0.021970  0.801870  1.0  0.0607
  H  H226  1  0.695200  0.772400  0.093400  1.0  0.2774
  H  H227  1  0.697300  0.804200  0.128800  1.0  0.2685
  H  H228  1  0.608500  0.924300  0.132800  1.0  0.2688
  H  H229  1  0.592600  0.890800  0.172000  1.0  0.2867
  H  H230  1  0.460500  0.690100  0.161800  1.0  0.266
  H  H231  1  0.494100  0.689600  0.190300  1.0  0.265
  H  H232  1  0.641200  0.777500  0.818500  1.0  0.2663
  H  H233  1  0.650000  0.750700  0.851300  1.0  0.2739
  H  H234  1  0.531700  0.872100  0.860800  1.0  0.2579
  H  H235  1  0.568700  0.905700  0.883600  1.0  0.2658
  H  H236  1  0.450300  0.675300  0.882000  1.0  0.2821
  H  H237  1  0.422000  0.666100  0.927300  1.0  0.2677
  H  H238  1  0.648300  0.893000  0.169500  1.0  0.1029
  H  H239  1  0.661500  0.922600  0.119300  1.0  0.1077
  H  H240  1  0.591900  0.705000  0.838000  1.0  0.0738
  H  H241  1  0.580800  0.736000  0.812500  1.0  0.0831
  H  H242  1  0.601400  0.888600  0.834600  1.0  0.0806
  H  H243  1  0.561900  0.847700  0.820600  1.0  0.0837
  H  H244  1  0.421300  0.720100  0.919300  1.0  0.1016
  H  H245  1  0.444500  0.725600  0.863900  1.0  0.087
  H  H246  1  0.774300  0.883300  0.020500  1.0  0.0616
  H  H247  1  0.483200  0.907000  0.970600  1.0  0.001
  H  H248  1  0.462800  0.586700  0.968900  1.0  -0.0153
  H  H249  1  0.523200  0.750700  0.210900  1.0  0.1102
  H  H250  1  0.480600  0.746100  0.199500  1.0  0.091
  H  H251  1  0.647000  0.762300  0.173500  1.0  0.0984
  H  H252  1  0.644700  0.728100  0.135200  1.0  0.0579
  H  H253  1  0.361870  0.105730  0.426730  1.0  0.2774
  H  H254  1  0.363970  0.137530  0.462130  1.0  0.2685
  H  H255  1  0.275170  0.257630  0.466130  1.0  0.269
  H  H256  1  0.259270  0.224130  0.505330  1.0  0.2867
  H  H257  1  0.127170  0.023430  0.495130  1.0  0.2643
  H  H258  1  0.160770  0.022930  0.523630  1.0  0.2643
  H  H259  1  0.307870  0.110830  0.151830  1.0  0.2663
  H  H260  1  0.316670  0.084030  0.184630  1.0  0.2739
  H  H261  1  0.198370  0.205430  0.194130  1.0  0.2579
  H  H262  1  0.235370  0.239030  0.216930  1.0  0.2658
  H  H263  1  0.116970  0.008630  0.215330  1.0  0.2821
  H  H264  1  0.088670  0.999430  0.260630  1.0  0.2677
  H  H265  1  0.314970  0.226330  0.502830  1.0  0.1029
  H  H266  1  0.328170  0.255930  0.452630  1.0  0.1077
  H  H267  1  0.258570  0.038330  0.171330  1.0  0.0738
  H  H268  1  0.247470  0.069330  0.145830  1.0  0.0831
  H  H269  1  0.268070  0.221930  0.167930  1.0  0.0806
  H  H270  1  0.228570  0.181030  0.153930  1.0  0.0837
  H  H271  1  0.087970  0.053430  0.252630  1.0  0.1016
  H  H272  1  0.111170  0.058930  0.197230  1.0  0.0831
  H  H273  1  0.440970  0.216630  0.353830  1.0  0.0616
  H  H274  1  0.149870  0.240330  0.303930  1.0  0.001
  H  H275  1  0.129470  0.920030  0.302230  1.0  -0.0153
  H  H276  1  0.189870  0.084030  0.544230  1.0  0.1102
  H  H277  1  0.147270  0.079430  0.532830  1.0  0.091
  H  H278  1  0.313670  0.095630  0.506830  1.0  0.0984
  H  H279  1  0.311370  0.061430  0.468530  1.0  0.0579
  H  H280  1  0.028530  0.439070  0.760070  1.0  0.2774
  H  H281  1  0.030630  0.470870  0.795470  1.0  0.2685
  H  H282  1  0.941830  0.590970  0.799470  1.0  0.2688
  H  H283  1  0.925930  0.557470  0.838670  1.0  0.2867
  H  H284  1  0.793830  0.356770  0.828470  1.0  0.266
  H  H285  1  0.827430  0.356270  0.856970  1.0  0.265
  H  H286  1  0.974530  0.444170  0.485170  1.0  0.2664
  H  H287  1  0.983330  0.417370  0.517970  1.0  0.2739
  H  H288  1  0.865030  0.538770  0.527470  1.0  0.2579
  H  H289  1  0.902030  0.572370  0.550270  1.0  0.2658
  H  H290  1  0.783630  0.341970  0.548670  1.0  0.2821
  H  H291  1  0.755330  0.332770  0.593970  1.0  0.2677
  H  H292  1  0.981630  0.559670  0.836170  1.0  0.1029
  H  H293  1  0.994830  0.589270  0.785970  1.0  0.1077
  H  H294  1  0.925230  0.371670  0.504670  1.0  0.0738
  H  H295  1  0.914130  0.402670  0.479170  1.0  0.0832
  H  H296  1  0.934730  0.555270  0.501270  1.0  0.0806
  H  H297  1  0.895230  0.514370  0.487270  1.0  0.0837
  H  H298  1  0.754630  0.386770  0.585970  1.0  0.1016
  H  H299  1  0.777830  0.392270  0.530570  1.0  0.087
  H  H300  1  0.107630  0.549970  0.687170  1.0  0.0616
  H  H301  1  0.816530  0.573670  0.637270  1.0  0.001
  H  H302  1  0.796130  0.253370  0.635570  1.0  -0.0153
  H  H303  1  0.856530  0.417370  0.877570  1.0  0.1102
  H  H304  1  0.813930  0.412770  0.866170  1.0  0.091
  H  H305  1  0.980330  0.428970  0.840170  1.0  0.0984
  H  H306  1  0.978030  0.394770  0.801870  1.0  0.0579
  H  H307  1  0.227600  0.922800  0.093400  1.0  0.2705
  H  H308  1  0.195800  0.893100  0.128800  1.0  0.2693
  H  H309  1  0.075700  0.684200  0.132800  1.0  0.2704
  H  H310  1  0.109200  0.701800  0.172000  1.0  0.2873
  H  H311  1  0.309900  0.770400  0.161800  1.0  0.2696
  H  H312  1  0.310400  0.804500  0.190300  1.0  0.265
  H  H313  1  0.222500  0.863700  0.818500  1.0  0.2679
  H  H314  1  0.249300  0.899300  0.851300  1.0  0.2668
  H  H315  1  0.127900  0.659600  0.860800  1.0  0.2582
  H  H316  1  0.094300  0.663000  0.883600  1.0  0.267
  H  H317  1  0.324700  0.775000  0.882000  1.0  0.284
  H  H318  1  0.333900  0.755900  0.927300  1.0  0.2773
  H  H319  1  0.107000  0.755300  0.169500  1.0  0.1039
  H  H320  1  0.077400  0.738900  0.119300  1.0  0.106
  H  H321  1  0.295000  0.886900  0.838000  1.0  0.0789
  H  H322  1  0.264000  0.844800  0.812500  1.0  0.0829
  H  H323  1  0.111400  0.712800  0.834600  1.0  0.0778
  H  H324  1  0.152300  0.714200  0.820600  1.0  0.0833
  H  H325  1  0.279900  0.701200  0.919300  1.0  0.1015
  H  H326  1  0.274400  0.718900  0.863900  1.0  0.0868
  H  H327  1  0.116700  0.891000  0.020500  1.0  0.0617
  H  H328  1  0.093000  0.576200  0.970600  1.0  0.0017
  H  H329  1  0.413300  0.876100  0.968900  1.0  -0.0151
  H  H330  1  0.249300  0.772500  0.210900  1.0  0.1107
  H  H331  1  0.253900  0.734500  0.199500  1.0  0.0918
  H  H332  1  0.237700  0.884700  0.173500  1.0  0.0984
  H  H333  1  0.271900  0.916600  0.135200  1.0  0.0608
  H  H334  1  0.894270  0.256130  0.426730  1.0  0.2705
  H  H335  1  0.862470  0.226430  0.462130  1.0  0.2695
  H  H336  1  0.742370  0.017530  0.466130  1.0  0.2704
  H  H337  1  0.775870  0.035130  0.505330  1.0  0.2873
  H  H338  1  0.976570  0.103730  0.495130  1.0  0.2743
  H  H339  1  0.977070  0.137830  0.523630  1.0  0.265
  H  H340  1  0.889170  0.197030  0.151830  1.0  0.2679
  H  H341  1  0.915970  0.232630  0.184630  1.0  0.2668
  H  H342  1  0.794570  0.992930  0.194130  1.0  0.2582
  H  H343  1  0.760970  0.996330  0.216930  1.0  0.267
  H  H344  1  0.991370  0.108330  0.215330  1.0  0.284
  H  H345  1  0.000570  0.089230  0.260630  1.0  0.2773
  H  H346  1  0.773670  0.088630  0.502830  1.0  0.1039
  H  H347  1  0.744070  0.072230  0.452630  1.0  0.106
  H  H348  1  0.961670  0.220230  0.171330  1.0  0.0789
  H  H349  1  0.930670  0.178130  0.145830  1.0  0.0828
  H  H350  1  0.778070  0.046130  0.167930  1.0  0.0778
  H  H351  1  0.818970  0.047530  0.153930  1.0  0.0833
  H  H352  1  0.946570  0.034530  0.252630  1.0  0.1015
  H  H353  1  0.941070  0.052230  0.197230  1.0  0.0826
  H  H354  1  0.783370  0.224330  0.353830  1.0  0.0617
  H  H355  1  0.759670  0.909530  0.303930  1.0  0.0017
  H  H356  1  0.079970  0.209430  0.302230  1.0  -0.015
  H  H357  1  0.915970  0.105830  0.544230  1.0  0.1107
  H  H358  1  0.920570  0.067830  0.532830  1.0  0.0919
  H  H359  1  0.904370  0.218030  0.506830  1.0  0.0984
  H  H360  1  0.938570  0.249930  0.468530  1.0  0.0608
  H  H361  1  0.560930  0.589470  0.760070  1.0  0.2705
  H  H362  1  0.529130  0.559770  0.795470  1.0  0.2693
  H  H363  1  0.409030  0.350870  0.799470  1.0  0.2704
  H  H364  1  0.442530  0.368470  0.838670  1.0  0.2873
  H  H365  1  0.643230  0.437070  0.828470  1.0  0.2696
  H  H366  1  0.643730  0.471170  0.856970  1.0  0.265
  H  H367  1  0.555830  0.530370  0.485170  1.0  0.2679
  H  H368  1  0.582630  0.565970  0.517970  1.0  0.2669
  H  H369  1  0.461230  0.326270  0.527470  1.0  0.2582
  H  H370  1  0.427630  0.329670  0.550270  1.0  0.267
  H  H371  1  0.658030  0.441670  0.548670  1.0  0.284
  H  H372  1  0.667230  0.422570  0.593970  1.0  0.2773
  H  H373  1  0.440330  0.421970  0.836170  1.0  0.1039
  H  H374  1  0.410730  0.405570  0.785970  1.0  0.106
  H  H375  1  0.628330  0.553570  0.504670  1.0  0.0789
  H  H376  1  0.597330  0.511470  0.479170  1.0  0.0829
  H  H377  1  0.444730  0.379470  0.501270  1.0  0.0779
  H  H378  1  0.485630  0.380870  0.487270  1.0  0.0833
  H  H379  1  0.613230  0.367870  0.585970  1.0  0.1015
  H  H380  1  0.607730  0.385570  0.530570  1.0  0.0868
  H  H381  1  0.450030  0.557670  0.687170  1.0  0.0617
  H  H382  1  0.426330  0.242870  0.637270  1.0  0.0017
  H  H383  1  0.746630  0.542770  0.635570  1.0  -0.0151
  H  H384  1  0.582630  0.439170  0.877570  1.0  0.1107
  H  H385  1  0.587230  0.401170  0.866170  1.0  0.0918
  H  H386  1  0.571030  0.551370  0.840170  1.0  0.0984
  H  H387  1  0.605230  0.583270  0.801870  1.0  0.0608
  H  H388  1  0.922800  0.695200  0.906600  1.0  0.2717
  H  H389  1  0.893100  0.697300  0.871200  1.0  0.2703
  H  H390  1  0.684200  0.608500  0.867200  1.0  0.2701
  H  H391  1  0.701800  0.592600  0.828000  1.0  0.2865
  H  H392  1  0.770400  0.460500  0.838200  1.0  0.2589
  H  H393  1  0.804500  0.494100  0.809700  1.0  0.264
  H  H394  1  0.863700  0.641200  0.181500  1.0  0.2663
  H  H395  1  0.899300  0.650000  0.148700  1.0  0.2699
  H  H396  1  0.659600  0.531700  0.139200  1.0  0.2596
  H  H397  1  0.663000  0.568700  0.116400  1.0  0.268
  H  H398  1  0.775000  0.450300  0.118000  1.0  0.2811
  H  H399  1  0.755900  0.422000  0.072700  1.0  0.2689
  H  H400  1  0.755300  0.648300  0.830500  1.0  0.1034
  H  H401  1  0.738900  0.661500  0.880700  1.0  0.1074
  H  H402  1  0.886900  0.591900  0.162000  1.0  0.076
  H  H403  1  0.844800  0.580800  0.187500  1.0  0.0867
  H  H404  1  0.712800  0.601400  0.165400  1.0  0.0803
  H  H405  1  0.714200  0.561900  0.179400  1.0  0.0874
  H  H406  1  0.701200  0.421300  0.080700  1.0  0.1031
  H  H407  1  0.718900  0.444500  0.136100  1.0  0.0873
  H  H408  1  0.891000  0.774300  0.979500  1.0  0.0637
  H  H409  1  0.576200  0.483200  0.029400  1.0  -0.0012
  H  H410  1  0.876100  0.462800  0.031100  1.0  -0.0147
  H  H411  1  0.772500  0.523200  0.789100  1.0  0.1102
  H  H412  1  0.734500  0.480600  0.800500  1.0  0.0918
  H  H413  1  0.884700  0.647000  0.826500  1.0  0.098
  H  H414  1  0.916600  0.644700  0.864800  1.0  0.0591
  H  H415  1  0.589470  0.028530  0.239930  1.0  0.2717
  H  H416  1  0.559770  0.030630  0.204530  1.0  0.2703
  H  H417  1  0.350870  0.941830  0.200530  1.0  0.2701
  H  H418  1  0.368470  0.925930  0.161330  1.0  0.2865
  H  H419  1  0.437070  0.793830  0.171530  1.0  0.2589
  H  H420  1  0.471170  0.827430  0.143030  1.0  0.264
  H  H421  1  0.530370  0.974530  0.514830  1.0  0.2665
  H  H422  1  0.565970  0.983330  0.482030  1.0  0.2697
  H  H423  1  0.326270  0.865030  0.472530  1.0  0.2597
  H  H424  1  0.329670  0.902030  0.449730  1.0  0.2679
  H  H425  1  0.441670  0.783630  0.451330  1.0  0.2811
  H  H426  1  0.422570  0.755330  0.406030  1.0  0.2689
  H  H427  1  0.421970  0.981630  0.163830  1.0  0.1034
  H  H428  1  0.405570  0.994830  0.214030  1.0  0.1074
  H  H429  1  0.553570  0.925230  0.495330  1.0  0.076
  H  H430  1  0.511470  0.914130  0.520830  1.0  0.0867
  H  H431  1  0.379470  0.934730  0.498730  1.0  0.0802
  H  H432  1  0.380870  0.895230  0.512730  1.0  0.0874
  H  H433  1  0.367870  0.754630  0.414030  1.0  0.1031
  H  H434  1  0.385570  0.777830  0.469430  1.0  0.0873
  H  H435  1  0.557670  0.107630  0.312830  1.0  0.0637
  H  H436  1  0.242870  0.816530  0.362730  1.0  -0.0012
  H  H437  1  0.542770  0.796130  0.364430  1.0  -0.0147
  H  H438  1  0.439170  0.856530  0.122430  1.0  0.1102
  H  H439  1  0.401170  0.813930  0.133830  1.0  0.0918
  H  H440  1  0.551370  0.980330  0.159830  1.0  0.098
  H  H441  1  0.583270  0.978030  0.198130  1.0  0.0591
  H  H442  1  0.256130  0.361870  0.573270  1.0  0.2717
  H  H443  1  0.226430  0.363970  0.537870  1.0  0.2704
  H  H444  1  0.017530  0.275170  0.533870  1.0  0.2701
  H  H445  1  0.035130  0.259270  0.494670  1.0  0.2865
  H  H446  1  0.103730  0.127170  0.504870  1.0  0.2598
  H  H447  1  0.137830  0.160770  0.476370  1.0  0.2646
  H  H448  1  0.197030  0.307870  0.848170  1.0  0.2663
  H  H449  1  0.232630  0.316670  0.815370  1.0  0.2699
  H  H450  1  0.992930  0.198370  0.805870  1.0  0.2596
  H  H451  1  0.996330  0.235370  0.783070  1.0  0.268
  H  H452  1  0.108330  0.116970  0.784670  1.0  0.2811
  H  H453  1  0.089230  0.088670  0.739370  1.0  0.2689
  H  H454  1  0.088630  0.314970  0.497170  1.0  0.1034
  H  H455  1  0.072230  0.328170  0.547370  1.0  0.1074
  H  H456  1  0.220230  0.258570  0.828670  1.0  0.076
  H  H457  1  0.178130  0.247470  0.854170  1.0  0.0866
  H  H458  1  0.046130  0.268070  0.832070  1.0  0.0803
  H  H459  1  0.047530  0.228570  0.846070  1.0  0.0874
  H  H460  1  0.034530  0.087970  0.747370  1.0  0.1031
  H  H461  1  0.052230  0.111170  0.802770  1.0  0.0867
  H  H462  1  0.224330  0.440970  0.646170  1.0  0.0637
  H  H463  1  0.909530  0.149870  0.696070  1.0  -0.0012
  H  H464  1  0.209430  0.129470  0.697770  1.0  -0.0146
  H  H465  1  0.105830  0.189870  0.455770  1.0  0.1102
  H  H466  1  0.067830  0.147270  0.467170  1.0  0.0918
  H  H467  1  0.218030  0.313670  0.493170  1.0  0.098
  H  H468  1  0.249930  0.311370  0.531470  1.0  0.0591
  H  H469  1  0.304800  0.227600  0.906600  1.0  0.2686
  H  H470  1  0.302700  0.195800  0.871200  1.0  0.2696
  H  H471  1  0.391500  0.075700  0.867200  1.0  0.2661
  H  H472  1  0.407400  0.109200  0.828000  1.0  0.2871
  H  H473  1  0.539500  0.309900  0.838200  1.0  0.2666
  H  H474  1  0.505900  0.310400  0.809700  1.0  0.2654
  H  H475  1  0.358800  0.222500  0.181500  1.0  0.2646
  H  H476  1  0.350000  0.249300  0.148700  1.0  0.2724
  H  H477  1  0.468300  0.127900  0.139200  1.0  0.258
  H  H478  1  0.431300  0.094300  0.116400  1.0  0.2626
  H  H479  1  0.549700  0.324700  0.118000  1.0  0.2816
  H  H480  1  0.578000  0.333900  0.072700  1.0  0.269
  H  H481  1  0.351700  0.107000  0.830500  1.0  0.1025
  H  H482  1  0.338500  0.077400  0.880700  1.0  0.1056
  H  H483  1  0.408100  0.295000  0.162000  1.0  0.0774
  H  H484  1  0.419200  0.264000  0.187500  1.0  0.0859
  H  H485  1  0.398600  0.111400  0.165400  1.0  0.0811
  H  H486  1  0.438100  0.152300  0.179400  1.0  0.0869
  H  H487  1  0.578700  0.279900  0.080700  1.0  0.103
  H  H488  1  0.555500  0.274400  0.136100  1.0  0.0859
  H  H489  1  0.225700  0.116700  0.979500  1.0  0.0635
  H  H490  1  0.516800  0.093000  0.029400  1.0  0.0016
  H  H491  1  0.537200  0.413300  0.031100  1.0  -0.0158
  H  H492  1  0.476800  0.249300  0.789100  1.0  0.1109
  H  H493  1  0.519400  0.253900  0.800500  1.0  0.0896
  H  H494  1  0.353000  0.237700  0.826500  1.0  0.0973
  H  H495  1  0.355300  0.271900  0.864800  1.0  0.0594
  H  H496  1  0.971470  0.560930  0.239930  1.0  0.2686
  H  H497  1  0.969370  0.529130  0.204530  1.0  0.2696
  H  H498  1  0.058170  0.409030  0.200530  1.0  0.2661
  H  H499  1  0.074070  0.442530  0.161330  1.0  0.2871
  H  H500  1  0.206170  0.643230  0.171530  1.0  0.2666
  H  H501  1  0.172570  0.643730  0.143030  1.0  0.2654
  H  H502  1  0.025470  0.555830  0.514830  1.0  0.2647
  H  H503  1  0.016670  0.582630  0.482030  1.0  0.2723
  H  H504  1  0.134970  0.461230  0.472530  1.0  0.258
  H  H505  1  0.097970  0.427630  0.449730  1.0  0.2626
  H  H506  1  0.216370  0.658030  0.451330  1.0  0.2816
  H  H507  1  0.244670  0.667230  0.406030  1.0  0.269
  H  H508  1  0.018370  0.440330  0.163830  1.0  0.1025
  H  H509  1  0.005170  0.410730  0.214030  1.0  0.1056
  H  H510  1  0.074770  0.628330  0.495330  1.0  0.0774
  H  H511  1  0.085870  0.597330  0.520830  1.0  0.086
  H  H512  1  0.065270  0.444730  0.498730  1.0  0.0812
  H  H513  1  0.104770  0.485630  0.512730  1.0  0.0869
  H  H514  1  0.245370  0.613230  0.414030  1.0  0.103
  H  H515  1  0.222170  0.607730  0.469430  1.0  0.0859
  H  H516  1  0.892370  0.450030  0.312830  1.0  0.0635
  H  H517  1  0.183470  0.426330  0.362730  1.0  0.0016
  H  H518  1  0.203870  0.746630  0.364430  1.0  -0.0158
  H  H519  1  0.143470  0.582630  0.122430  1.0  0.1109
  H  H520  1  0.186070  0.587230  0.133830  1.0  0.0896
  H  H521  1  0.019670  0.571030  0.159830  1.0  0.0973
  H  H522  1  0.021970  0.605230  0.198130  1.0  0.0594
  H  H523  1  0.638130  0.894270  0.573270  1.0  0.2686
  H  H524  1  0.636030  0.862470  0.537870  1.0  0.2695
  H  H525  1  0.724830  0.742370  0.533870  1.0  0.2664
  H  H526  1  0.740730  0.775870  0.494670  1.0  0.287
  H  H527  1  0.872830  0.976570  0.504870  1.0  0.2635
  H  H528  1  0.839230  0.977070  0.476370  1.0  0.2648
  H  H529  1  0.692130  0.889170  0.848170  1.0  0.2646
  H  H530  1  0.683330  0.915970  0.815370  1.0  0.2724
  H  H531  1  0.801630  0.794570  0.805870  1.0  0.258
  H  H532  1  0.764630  0.760970  0.783070  1.0  0.2626
  H  H533  1  0.883030  0.991370  0.784670  1.0  0.2816
  H  H534  1  0.911330  0.000570  0.739370  1.0  0.269
  H  H535  1  0.685030  0.773670  0.497170  1.0  0.1025
  H  H536  1  0.671830  0.744070  0.547370  1.0  0.1056
  H  H537  1  0.741430  0.961670  0.828670  1.0  0.0774
  H  H538  1  0.752530  0.930670  0.854170  1.0  0.0859
  H  H539  1  0.731930  0.778070  0.832070  1.0  0.0811
  H  H540  1  0.771430  0.818970  0.846070  1.0  0.0869
  H  H541  1  0.912030  0.946570  0.747370  1.0  0.103
  H  H542  1  0.888830  0.941070  0.802770  1.0  0.082
  H  H543  1  0.559030  0.783370  0.646170  1.0  0.0635
  H  H544  1  0.850130  0.759670  0.696070  1.0  0.0016
  H  H545  1  0.870530  0.079970  0.697770  1.0  -0.0159
  H  H546  1  0.810130  0.915970  0.455770  1.0  0.1109
  H  H547  1  0.852730  0.920570  0.467170  1.0  0.0896
  H  H548  1  0.686330  0.904370  0.493170  1.0  0.0973
  H  H549  1  0.688630  0.938570  0.531470  1.0  0.0594
  H  H550  1  0.772400  0.077200  0.906600  1.0  0.2684
  H  H551  1  0.804200  0.106900  0.871200  1.0  0.2681
  H  H552  1  0.924300  0.315800  0.867200  1.0  0.2717
  H  H553  1  0.890800  0.298200  0.828000  1.0  0.2868
  H  H554  1  0.690100  0.229600  0.838200  1.0  0.2656
  H  H555  1  0.689600  0.195500  0.809700  1.0  0.2647
  H  H556  1  0.777500  0.136300  0.181500  1.0  0.2653
  H  H557  1  0.750700  0.100700  0.148700  1.0  0.2639
  H  H558  1  0.872100  0.340400  0.139200  1.0  0.2584
  H  H559  1  0.905700  0.337000  0.116400  1.0  0.2713
  H  H560  1  0.675300  0.225000  0.118000  1.0  0.2806
  H  H561  1  0.666100  0.244100  0.072700  1.0  0.2654
  H  H562  1  0.893000  0.244700  0.830500  1.0  0.1046
  H  H563  1  0.922600  0.261100  0.880700  1.0  0.1073
  H  H564  1  0.705000  0.113100  0.162000  1.0  0.0775
  H  H565  1  0.736000  0.155200  0.187500  1.0  0.0865
  H  H566  1  0.888600  0.287200  0.165400  1.0  0.0746
  H  H567  1  0.847700  0.285800  0.179400  1.0  0.0858
  H  H568  1  0.720100  0.298800  0.080700  1.0  0.1011
  H  H569  1  0.725600  0.281100  0.136100  1.0  0.0865
  H  H570  1  0.883300  0.109000  0.979500  1.0  0.0618
  H  H571  1  0.907000  0.423800  0.029400  1.0  -0.0003
  H  H572  1  0.586700  0.123900  0.031100  1.0  -0.0142
  H  H573  1  0.750700  0.227500  0.789100  1.0  0.1107
  H  H574  1  0.746100  0.265500  0.800500  1.0  0.0905
  H  H575  1  0.762300  0.115300  0.826500  1.0  0.0973
  H  H576  1  0.728100  0.083400  0.864800  1.0  0.0594
  H  H577  1  0.439070  0.410530  0.239930  1.0  0.2684
  H  H578  1  0.470870  0.440230  0.204530  1.0  0.2679
  H  H579  1  0.590970  0.649130  0.200530  1.0  0.2717
  H  H580  1  0.557470  0.631530  0.161330  1.0  0.2868
  H  H581  1  0.356770  0.562930  0.171530  1.0  0.2656
  H  H582  1  0.356270  0.528830  0.143030  1.0  0.2647
  H  H583  1  0.444170  0.469630  0.514830  1.0  0.2654
  H  H584  1  0.417370  0.434030  0.482030  1.0  0.2642
  H  H585  1  0.538770  0.673730  0.472530  1.0  0.2585
  H  H586  1  0.572370  0.670330  0.449730  1.0  0.2714
  H  H587  1  0.341970  0.558330  0.451330  1.0  0.2806
  H  H588  1  0.332770  0.577430  0.406030  1.0  0.2654
  H  H589  1  0.559670  0.578030  0.163830  1.0  0.1046
  H  H590  1  0.589270  0.594430  0.214030  1.0  0.1073
  H  H591  1  0.371670  0.446430  0.495330  1.0  0.0775
  H  H592  1  0.402670  0.488530  0.520830  1.0  0.0866
  H  H593  1  0.555270  0.620530  0.498730  1.0  0.0747
  H  H594  1  0.514370  0.619130  0.512730  1.0  0.0858
  H  H595  1  0.386770  0.632130  0.414030  1.0  0.1011
  H  H596  1  0.392270  0.614430  0.469430  1.0  0.0865
  H  H597  1  0.549970  0.442330  0.312830  1.0  0.0618
  H  H598  1  0.573670  0.757130  0.362730  1.0  -0.0003
  H  H599  1  0.253370  0.457230  0.364430  1.0  -0.0142
  H  H600  1  0.417370  0.560830  0.122430  1.0  0.1107
  H  H601  1  0.412770  0.598830  0.133830  1.0  0.0905
  H  H602  1  0.428970  0.448630  0.159830  1.0  0.0973
  H  H603  1  0.394770  0.416730  0.198130  1.0  0.0594
  H  H604  1  0.105730  0.743870  0.573270  1.0  0.2684
  H  H605  1  0.137530  0.773570  0.537870  1.0  0.2682
  H  H606  1  0.257630  0.982470  0.533870  1.0  0.2717
  H  H607  1  0.224130  0.964870  0.494670  1.0  0.2868
  H  H608  1  0.023430  0.896270  0.504870  1.0  0.2694
  H  H609  1  0.022930  0.862170  0.476370  1.0  0.2647
  H  H610  1  0.110830  0.802970  0.848170  1.0  0.2653
  H  H611  1  0.084030  0.767370  0.815370  1.0  0.2639
  H  H612  1  0.205430  0.007070  0.805870  1.0  0.2584
  H  H613  1  0.239030  0.003670  0.783070  1.0  0.2713
  H  H614  1  0.008630  0.891670  0.784670  1.0  0.2806
  H  H615  1  0.999430  0.910770  0.739370  1.0  0.2654
  H  H616  1  0.226330  0.911370  0.497170  1.0  0.1046
  H  H617  1  0.255930  0.927770  0.547370  1.0  0.1073
  H  H618  1  0.038330  0.779770  0.828670  1.0  0.0775
  H  H619  1  0.069330  0.821870  0.854170  1.0  0.0865
  H  H620  1  0.221930  0.953870  0.832070  1.0  0.0746
  H  H621  1  0.181030  0.952470  0.846070  1.0  0.0858
  H  H622  1  0.053430  0.965470  0.747370  1.0  0.101
  H  H623  1  0.058930  0.947770  0.802770  1.0  0.0823
  H  H624  1  0.216630  0.775670  0.646170  1.0  0.0618
  H  H625  1  0.240330  0.090470  0.696070  1.0  -0.0003
  H  H626  1  0.920030  0.790570  0.697770  1.0  -0.0141
  H  H627  1  0.084030  0.894170  0.455770  1.0  0.1107
  H  H628  1  0.079430  0.932170  0.467170  1.0  0.0906
  H  H629  1  0.095630  0.781970  0.493170  1.0  0.0973
  H  H630  1  0.061430  0.750070  0.531470  1.0  0.0594
  C  C631  1  0.141100  0.392700  0.111400  1.0  0.7047
  C  C632  1  0.256600  0.359800  0.133200  1.0  -0.196
  C  C633  1  0.227600  0.363200  0.097200  1.0  0.715
  C  C634  1  0.254600  0.478600  0.135500  1.0  0.6855
  C  C635  1  0.137800  0.407200  0.844300  1.0  -0.2
  C  C636  1  0.158900  0.432600  0.893900  1.0  0.6789
  C  C637  1  0.287000  0.421900  0.850600  1.0  -0.1964
  C  C638  1  0.249500  0.407000  0.885000  1.0  0.689
  C  C639  1  0.276600  0.554300  0.903300  1.0  -0.2356
  C  C640  1  0.277500  0.517500  0.926400  1.0  0.6606
  C  C641  1  0.113200  0.248900  0.039000  1.0  0.5418
  C  C642  1  0.398800  0.508100  0.954000  1.0  0.6461
  C  C643  1  0.146400  0.536400  0.955400  1.0  0.6319
  C  C644  1  0.241400  0.497300  0.182900  1.0  -0.2191
  C  C645  1  0.108600  0.354800  0.135500  1.0  -0.193
  C  C646  1  0.807770  0.726030  0.444730  1.0  0.7044
  C  C647  1  0.923270  0.693130  0.466530  1.0  -0.196
  C  C648  1  0.894270  0.696530  0.430530  1.0  0.715
  C  C649  1  0.921270  0.811930  0.468830  1.0  0.6855
  C  C650  1  0.804470  0.740530  0.177630  1.0  -0.2
  C  C651  1  0.825570  0.765930  0.227230  1.0  0.6789
  C  C652  1  0.953670  0.755230  0.183930  1.0  -0.1964
  C  C653  1  0.916170  0.740330  0.218330  1.0  0.689
  C  C654  1  0.943270  0.887630  0.236630  1.0  -0.2356
  C  C655  1  0.944170  0.850830  0.259730  1.0  0.6606
  C  C656  1  0.779870  0.582230  0.372330  1.0  0.5418
  C  C657  1  0.065470  0.841430  0.287330  1.0  0.6461
  C  C658  1  0.813070  0.869730  0.288730  1.0  0.632
  C  C659  1  0.908070  0.830630  0.516230  1.0  -0.2191
  C  C660  1  0.775270  0.688130  0.468830  1.0  -0.193
  C  C661  1  0.474430  0.059370  0.778070  1.0  0.7047
  C  C662  1  0.589930  0.026470  0.799870  1.0  -0.196
  C  C663  1  0.560930  0.029870  0.763870  1.0  0.715
  C  C664  1  0.587930  0.145270  0.802170  1.0  0.6855
  C  C665  1  0.471130  0.073870  0.510970  1.0  -0.2
  C  C666  1  0.492230  0.099270  0.560570  1.0  0.6789
  C  C667  1  0.620330  0.088570  0.517270  1.0  -0.1964
  C  C668  1  0.582830  0.073670  0.551670  1.0  0.689
  C  C669  1  0.609930  0.220970  0.569970  1.0  -0.2356
  C  C670  1  0.610830  0.184170  0.593070  1.0  0.6606
  C  C671  1  0.446530  0.915570  0.705670  1.0  0.5418
  C  C672  1  0.732130  0.174770  0.620670  1.0  0.6461
  C  C673  1  0.479730  0.203070  0.622070  1.0  0.6319
  C  C674  1  0.574730  0.163970  0.849570  1.0  -0.2191
  C  C675  1  0.441930  0.021470  0.802170  1.0  -0.193
  C  C676  1  0.607300  0.748400  0.111400  1.0  0.7049
  C  C677  1  0.640200  0.896800  0.133200  1.0  -0.1992
  C  C678  1  0.636800  0.864400  0.097200  1.0  0.712
  C  C679  1  0.521400  0.776000  0.135500  1.0  0.6864
  C  C680  1  0.592800  0.730600  0.844300  1.0  -0.1997
  C  C681  1  0.567400  0.726300  0.893900  1.0  0.6779
  C  C682  1  0.578100  0.865100  0.850600  1.0  -0.1968
  C  C683  1  0.593000  0.842500  0.885000  1.0  0.6879
  C  C684  1  0.445700  0.722300  0.903300  1.0  -0.232
  C  C685  1  0.482500  0.760000  0.926400  1.0  0.6635
  C  C686  1  0.751100  0.864300  0.039000  1.0  0.5451
  C  C687  1  0.491900  0.890700  0.954000  1.0  0.647
  C  C688  1  0.463600  0.610000  0.955400  1.0  0.6346
  C  C689  1  0.502700  0.744100  0.182900  1.0  -0.2198
  C  C690  1  0.645200  0.753800  0.135500  1.0  -0.1943
  C  C691  1  0.273970  0.081730  0.444730  1.0  0.7047
  C  C692  1  0.306870  0.230130  0.466530  1.0  -0.1992
  C  C693  1  0.303470  0.197730  0.430530  1.0  0.712
  C  C694  1  0.188070  0.109330  0.468830  1.0  0.6864
  C  C695  1  0.259470  0.063930  0.177630  1.0  -0.1997
  C  C696  1  0.234070  0.059630  0.227230  1.0  0.6779
  C  C697  1  0.244770  0.198430  0.183930  1.0  -0.1968
  C  C698  1  0.259670  0.175830  0.218330  1.0  0.6879
  C  C699  1  0.112370  0.055630  0.236630  1.0  -0.232
  C  C700  1  0.149170  0.093330  0.259730  1.0  0.6635
  C  C701  1  0.417770  0.197630  0.372330  1.0  0.5451
  C  C702  1  0.158570  0.224030  0.287330  1.0  0.647
  C  C703  1  0.130270  0.943330  0.288730  1.0  0.6347
  C  C704  1  0.169370  0.077430  0.516230  1.0  -0.2198
  C  C705  1  0.311870  0.087130  0.468830  1.0  -0.1943
  C  C706  1  0.940630  0.415070  0.778070  1.0  0.7049
  C  C707  1  0.973530  0.563470  0.799870  1.0  -0.1992
  C  C708  1  0.970130  0.531070  0.763870  1.0  0.712
  C  C709  1  0.854730  0.442670  0.802170  1.0  0.6864
  C  C710  1  0.926130  0.397270  0.510970  1.0  -0.1997
  C  C711  1  0.900730  0.392970  0.560570  1.0  0.6779
  C  C712  1  0.911430  0.531770  0.517270  1.0  -0.1968
  C  C713  1  0.926330  0.509170  0.551670  1.0  0.6878
  C  C714  1  0.779030  0.388970  0.569970  1.0  -0.232
  C  C715  1  0.815830  0.426670  0.593070  1.0  0.6635
  C  C716  1  0.084430  0.530970  0.705670  1.0  0.5451
  C  C717  1  0.825230  0.557370  0.620670  1.0  0.647
  C  C718  1  0.796930  0.276670  0.622070  1.0  0.6346
  C  C719  1  0.836030  0.410770  0.849570  1.0  -0.2198
  C  C720  1  0.978530  0.420470  0.802170  1.0  -0.1943
  C  C721  1  0.251600  0.858900  0.111400  1.0  0.7011
  C  C722  1  0.103200  0.743400  0.133200  1.0  -0.1963
  C  C723  1  0.135600  0.772400  0.097200  1.0  0.7151
  C  C724  1  0.224000  0.745400  0.135500  1.0  0.6873
  C  C725  1  0.269400  0.862200  0.844300  1.0  -0.2024
  C  C726  1  0.273700  0.841100  0.893900  1.0  0.6784
  C  C727  1  0.134900  0.713000  0.850600  1.0  -0.1946
  C  C728  1  0.157500  0.750500  0.885000  1.0  0.6901
  C  C729  1  0.277700  0.723400  0.903300  1.0  -0.232
  C  C730  1  0.240000  0.722500  0.926400  1.0  0.6633
  C  C731  1  0.135700  0.886800  0.039000  1.0  0.5443
  C  C732  1  0.109300  0.601200  0.954000  1.0  0.6481
  C  C733  1  0.390000  0.853600  0.955400  1.0  0.6339
  C  C734  1  0.255900  0.758600  0.182900  1.0  -0.2172
  C  C735  1  0.246200  0.891400  0.135500  1.0  -0.1939
  C  C736  1  0.918270  0.192230  0.444730  1.0  0.7008
  C  C737  1  0.769870  0.076730  0.466530  1.0  -0.1963
  C  C738  1  0.802270  0.105730  0.430530  1.0  0.7151
  C  C739  1  0.890670  0.078730  0.468830  1.0  0.6873
  C  C740  1  0.936070  0.195530  0.177630  1.0  -0.2024
  C  C741  1  0.940370  0.174430  0.227230  1.0  0.6784
  C  C742  1  0.801570  0.046330  0.183930  1.0  -0.1946
  C  C743  1  0.824170  0.083830  0.218330  1.0  0.6901
  C  C744  1  0.944370  0.056730  0.236630  1.0  -0.232
  C  C745  1  0.906670  0.055830  0.259730  1.0  0.6633
  C  C746  1  0.802370  0.220130  0.372330  1.0  0.5443
  C  C747  1  0.775970  0.934530  0.287330  1.0  0.6481
  C  C748  1  0.056670  0.186930  0.288730  1.0  0.6339
  C  C749  1  0.922570  0.091930  0.516230  1.0  -0.2172
  C  C750  1  0.912870  0.224730  0.468830  1.0  -0.1939
  C  C751  1  0.584930  0.525570  0.778070  1.0  0.7011
  C  C752  1  0.436530  0.410070  0.799870  1.0  -0.1963
  C  C753  1  0.468930  0.439070  0.763870  1.0  0.7151
  C  C754  1  0.557330  0.412070  0.802170  1.0  0.6873
  C  C755  1  0.602730  0.528870  0.510970  1.0  -0.2024
  C  C756  1  0.607030  0.507770  0.560570  1.0  0.6784
  C  C757  1  0.468230  0.379670  0.517270  1.0  -0.1947
  C  C758  1  0.490830  0.417170  0.551670  1.0  0.6902
  C  C759  1  0.611030  0.390070  0.569970  1.0  -0.232
  C  C760  1  0.573330  0.389170  0.593070  1.0  0.6633
  C  C761  1  0.469030  0.553470  0.705670  1.0  0.5443
  C  C762  1  0.442630  0.267870  0.620670  1.0  0.6481
  C  C763  1  0.723330  0.520270  0.622070  1.0  0.6339
  C  C764  1  0.589230  0.425270  0.849570  1.0  -0.2172
  C  C765  1  0.579530  0.558070  0.802170  1.0  -0.1939
  C  C766  1  0.858900  0.607300  0.888600  1.0  0.7036
  C  C767  1  0.743400  0.640200  0.866800  1.0  -0.1991
  C  C768  1  0.772400  0.636800  0.902800  1.0  0.7142
  C  C769  1  0.745400  0.521400  0.864500  1.0  0.6867
  C  C770  1  0.862200  0.592800  0.155700  1.0  -0.2001
  C  C771  1  0.841100  0.567400  0.106100  1.0  0.6796
  C  C772  1  0.713000  0.578100  0.149400  1.0  -0.1986
  C  C773  1  0.750500  0.593000  0.115000  1.0  0.6898
  C  C774  1  0.723400  0.445700  0.096700  1.0  -0.2346
  C  C775  1  0.722500  0.482500  0.073600  1.0  0.6592
  C  C776  1  0.886800  0.751100  0.961000  1.0  0.5404
  C  C777  1  0.601200  0.491900  0.046000  1.0  0.6463
  C  C778  1  0.853600  0.463600  0.044600  1.0  0.6326
  C  C779  1  0.758600  0.502700  0.817100  1.0  -0.2159
  C  C780  1  0.891400  0.645200  0.864500  1.0  -0.1923
  C  C781  1  0.525570  0.940630  0.221930  1.0  0.7036
  C  C782  1  0.410070  0.973530  0.200130  1.0  -0.1991
  C  C783  1  0.439070  0.970130  0.236130  1.0  0.7142
  C  C784  1  0.412070  0.854730  0.197830  1.0  0.6867
  C  C785  1  0.528870  0.926130  0.489030  1.0  -0.2001
  C  C786  1  0.507770  0.900730  0.439430  1.0  0.6796
  C  C787  1  0.379670  0.911430  0.482730  1.0  -0.1986
  C  C788  1  0.417170  0.926330  0.448330  1.0  0.6898
  C  C789  1  0.390070  0.779030  0.430030  1.0  -0.2346
  C  C790  1  0.389170  0.815830  0.406930  1.0  0.6592
  C  C791  1  0.553470  0.084430  0.294330  1.0  0.5405
  C  C792  1  0.267870  0.825230  0.379330  1.0  0.6463
  C  C793  1  0.520270  0.796930  0.377930  1.0  0.6326
  C  C794  1  0.425270  0.836030  0.150430  1.0  -0.2159
  C  C795  1  0.558070  0.978530  0.197830  1.0  -0.1923
  C  C796  1  0.192230  0.273970  0.555270  1.0  0.7032
  C  C797  1  0.076730  0.306870  0.533470  1.0  -0.1991
  C  C798  1  0.105730  0.303470  0.569470  1.0  0.7142
  C  C799  1  0.078730  0.188070  0.531170  1.0  0.6867
  C  C800  1  0.195530  0.259470  0.822370  1.0  -0.2001
  C  C801  1  0.174430  0.234070  0.772770  1.0  0.6796
  C  C802  1  0.046330  0.244770  0.816070  1.0  -0.1986
  C  C803  1  0.083830  0.259670  0.781670  1.0  0.6898
  C  C804  1  0.056730  0.112370  0.763370  1.0  -0.2346
  C  C805  1  0.055830  0.149170  0.740270  1.0  0.6592
  C  C806  1  0.220130  0.417770  0.627670  1.0  0.5404
  C  C807  1  0.934530  0.158570  0.712670  1.0  0.6463
  C  C808  1  0.186930  0.130270  0.711270  1.0  0.6327
  C  C809  1  0.091930  0.169370  0.483770  1.0  -0.2159
  C  C810  1  0.224730  0.311870  0.531170  1.0  -0.1923
  C  C811  1  0.392700  0.251600  0.888600  1.0  0.7049
  C  C812  1  0.359800  0.103200  0.866800  1.0  -0.1984
  C  C813  1  0.363200  0.135600  0.902800  1.0  0.7125
  C  C814  1  0.478600  0.224000  0.864500  1.0  0.6869
  C  C815  1  0.407200  0.269400  0.155700  1.0  -0.2029
  C  C816  1  0.432600  0.273700  0.106100  1.0  0.6779
  C  C817  1  0.421900  0.134900  0.149400  1.0  -0.1972
  C  C818  1  0.407000  0.157500  0.115000  1.0  0.6897
  C  C819  1  0.554300  0.277700  0.096700  1.0  -0.2321
  C  C820  1  0.517500  0.240000  0.073600  1.0  0.6638
  C  C821  1  0.248900  0.135700  0.961000  1.0  0.5462
  C  C822  1  0.508100  0.109300  0.046000  1.0  0.6451
  C  C823  1  0.536400  0.390000  0.044600  1.0  0.6335
  C  C824  1  0.497300  0.255900  0.817100  1.0  -0.2193
  C  C825  1  0.354800  0.246200  0.864500  1.0  -0.1931
  C  C826  1  0.059370  0.584930  0.221930  1.0  0.7049
  C  C827  1  0.026470  0.436530  0.200130  1.0  -0.1984
  C  C828  1  0.029870  0.468930  0.236130  1.0  0.7125
  C  C829  1  0.145270  0.557330  0.197830  1.0  0.6869
  C  C830  1  0.073870  0.602730  0.489030  1.0  -0.2029
  C  C831  1  0.099270  0.607030  0.439430  1.0  0.6779
  C  C832  1  0.088570  0.468230  0.482730  1.0  -0.1972
  C  C833  1  0.073670  0.490830  0.448330  1.0  0.6897
  C  C834  1  0.220970  0.611030  0.430030  1.0  -0.2321
  C  C835  1  0.184170  0.573330  0.406930  1.0  0.6638
  C  C836  1  0.915570  0.469030  0.294330  1.0  0.5462
  C  C837  1  0.174770  0.442630  0.379330  1.0  0.6451
  C  C838  1  0.203070  0.723330  0.377930  1.0  0.6335
  C  C839  1  0.163970  0.589230  0.150430  1.0  -0.2193
  C  C840  1  0.021470  0.579530  0.197830  1.0  -0.1931
  C  C841  1  0.726030  0.918270  0.555270  1.0  0.7047
  C  C842  1  0.693130  0.769870  0.533470  1.0  -0.1984
  C  C843  1  0.696530  0.802270  0.569470  1.0  0.7125
  C  C844  1  0.811930  0.890670  0.531170  1.0  0.6869
  C  C845  1  0.740530  0.936070  0.822370  1.0  -0.2029
  C  C846  1  0.765930  0.940370  0.772770  1.0  0.6779
  C  C847  1  0.755230  0.801570  0.816070  1.0  -0.1972
  C  C848  1  0.740330  0.824170  0.781670  1.0  0.6897
  C  C849  1  0.887630  0.944370  0.763370  1.0  -0.2321
  C  C850  1  0.850830  0.906670  0.740270  1.0  0.6638
  C  C851  1  0.582230  0.802370  0.627670  1.0  0.5462
  C  C852  1  0.841430  0.775970  0.712670  1.0  0.6451
  C  C853  1  0.869730  0.056670  0.711270  1.0  0.6336
  C  C854  1  0.830630  0.922570  0.483770  1.0  -0.2193
  C  C855  1  0.688130  0.912870  0.531170  1.0  -0.1931
  C  C856  1  0.748400  0.141100  0.888600  1.0  0.7026
  C  C857  1  0.896800  0.256600  0.866800  1.0  -0.1985
  C  C858  1  0.864400  0.227600  0.902800  1.0  0.7162
  C  C859  1  0.776000  0.254600  0.864500  1.0  0.6852
  C  C860  1  0.730600  0.137800  0.155700  1.0  -0.201
  C  C861  1  0.726300  0.158900  0.106100  1.0  0.6783
  C  C862  1  0.865100  0.287000  0.149400  1.0  -0.1966
  C  C863  1  0.842500  0.249500  0.115000  1.0  0.6887
  C  C864  1  0.722300  0.276600  0.096700  1.0  -0.2319
  C  C865  1  0.760000  0.277500  0.073600  1.0  0.6628
  C  C866  1  0.864300  0.113200  0.961000  1.0  0.5461
  C  C867  1  0.890700  0.398800  0.046000  1.0  0.6475
  C  C868  1  0.610000  0.146400  0.044600  1.0  0.6331
  C  C869  1  0.744100  0.241400  0.817100  1.0  -0.2164
  C  C870  1  0.753800  0.108600  0.864500  1.0  -0.1931
  C  C871  1  0.415070  0.474430  0.221930  1.0  0.7026
  C  C872  1  0.563470  0.589930  0.200130  1.0  -0.1985
  C  C873  1  0.531070  0.560930  0.236130  1.0  0.7162
  C  C874  1  0.442670  0.587930  0.197830  1.0  0.6852
  C  C875  1  0.397270  0.471130  0.489030  1.0  -0.201
  C  C876  1  0.392970  0.492230  0.439430  1.0  0.6783
  C  C877  1  0.531770  0.620330  0.482730  1.0  -0.1967
  C  C878  1  0.509170  0.582830  0.448330  1.0  0.6888
  C  C879  1  0.388970  0.609930  0.430030  1.0  -0.2319
  C  C880  1  0.426670  0.610830  0.406930  1.0  0.6628
  C  C881  1  0.530970  0.446530  0.294330  1.0  0.5461
  C  C882  1  0.557370  0.732130  0.379330  1.0  0.6475
  C  C883  1  0.276670  0.479730  0.377930  1.0  0.6331
  C  C884  1  0.410770  0.574730  0.150430  1.0  -0.2164
  C  C885  1  0.420470  0.441930  0.197830  1.0  -0.1931
  C  C886  1  0.081730  0.807770  0.555270  1.0  0.7024
  C  C887  1  0.230130  0.923270  0.533470  1.0  -0.1985
  C  C888  1  0.197730  0.894270  0.569470  1.0  0.7162
  C  C889  1  0.109330  0.921270  0.531170  1.0  0.6852
  C  C890  1  0.063930  0.804470  0.822370  1.0  -0.201
  C  C891  1  0.059630  0.825570  0.772770  1.0  0.6783
  C  C892  1  0.198430  0.953670  0.816070  1.0  -0.1966
  C  C893  1  0.175830  0.916170  0.781670  1.0  0.6887
  C  C894  1  0.055630  0.943270  0.763370  1.0  -0.2319
  C  C895  1  0.093330  0.944170  0.740270  1.0  0.6628
  C  C896  1  0.197630  0.779870  0.627670  1.0  0.5461
  C  C897  1  0.224030  0.065470  0.712670  1.0  0.6475
  C  C898  1  0.943330  0.813070  0.711270  1.0  0.6331
  C  C899  1  0.077430  0.908070  0.483770  1.0  -0.2164
  C  C900  1  0.087130  0.775270  0.531170  1.0  -0.1932
  N  N901  1  0.102900  0.318900  0.105800  1.0  -0.6208
  N  N902  1  0.295500  0.396900  0.138100  1.0  -0.6841
  N  N903  1  0.215300  0.512300  0.165400  1.0  -0.6706
  N  N904  1  0.127800  0.366060  0.848700  1.0  -0.6651
  N  N905  1  0.324100  0.445600  0.879900  1.0  -0.6584
  N  N906  1  0.238700  0.553780  0.913700  1.0  -0.6488
  N  N907  1  0.769570  0.652230  0.439130  1.0  -0.6208
  N  N908  1  0.962170  0.730230  0.471430  1.0  -0.6841
  N  N909  1  0.881970  0.845630  0.498730  1.0  -0.6709
  N  N910  1  0.794470  0.699390  0.182030  1.0  -0.6651
  N  N911  1  0.990770  0.778930  0.213230  1.0  -0.6584
  N  N912  1  0.905370  0.887110  0.247030  1.0  -0.6488
  N  N913  1  0.436230  0.985570  0.772470  1.0  -0.6208
  N  N914  1  0.628830  0.063570  0.804770  1.0  -0.6841
  N  N915  1  0.548630  0.178970  0.832070  1.0  -0.6706
  N  N916  1  0.461130  0.032730  0.515370  1.0  -0.6653
  N  N917  1  0.657430  0.112270  0.546570  1.0  -0.6584
  N  N918  1  0.572030  0.220450  0.580370  1.0  -0.6488
  N  N919  1  0.681100  0.784000  0.105800  1.0  -0.6207
  N  N920  1  0.603100  0.898600  0.138100  1.0  -0.6843
  N  N921  1  0.487700  0.703000  0.165400  1.0  -0.6685
  N  N922  1  0.633940  0.761740  0.848700  1.0  -0.6623
  N  N923  1  0.554400  0.878500  0.879900  1.0  -0.659
  N  N924  1  0.446220  0.684920  0.913700  1.0  -0.6469
  N  N925  1  0.347770  0.117330  0.439130  1.0  -0.6207
  N  N926  1  0.269770  0.231930  0.471430  1.0  -0.6843
  N  N927  1  0.154370  0.036330  0.498730  1.0  -0.6684
  N  N928  1  0.300610  0.095070  0.182030  1.0  -0.6623
  N  N929  1  0.221070  0.211830  0.213230  1.0  -0.659
  N  N930  1  0.112890  0.018250  0.247030  1.0  -0.6469
  N  N931  1  0.014430  0.450670  0.772470  1.0  -0.6207
  N  N932  1  0.936430  0.565270  0.804770  1.0  -0.6843
  N  N933  1  0.821030  0.369670  0.832070  1.0  -0.6685
  N  N934  1  0.967270  0.428410  0.515370  1.0  -0.6625
  N  N935  1  0.887730  0.545170  0.546570  1.0  -0.659
  N  N936  1  0.779550  0.351590  0.580370  1.0  -0.6469
  N  N937  1  0.216000  0.897100  0.105800  1.0  -0.6229
  N  N938  1  0.101400  0.704500  0.138100  1.0  -0.6852
  N  N939  1  0.297000  0.784700  0.165400  1.0  -0.6646
  N  N940  1  0.238260  0.872200  0.848700  1.0  -0.6669
  N  N941  1  0.121500  0.675900  0.879900  1.0  -0.6577
  N  N942  1  0.315080  0.761300  0.913700  1.0  -0.6453
  N  N943  1  0.882670  0.230430  0.439130  1.0  -0.6229
  N  N944  1  0.768070  0.037830  0.471430  1.0  -0.6852
  N  N945  1  0.963670  0.118030  0.498730  1.0  -0.6644
  N  N946  1  0.904930  0.205530  0.182030  1.0  -0.6669
  N  N947  1  0.788170  0.009230  0.213230  1.0  -0.6577
  N  N948  1  0.981750  0.094630  0.247030  1.0  -0.6453
  N  N949  1  0.549330  0.563770  0.772470  1.0  -0.6231
  N  N950  1  0.434730  0.371170  0.804770  1.0  -0.6852
  N  N951  1  0.630330  0.451370  0.832070  1.0  -0.6646
  N  N952  1  0.571590  0.538870  0.515370  1.0  -0.6666
  N  N953  1  0.454830  0.342570  0.546570  1.0  -0.6577
  N  N954  1  0.648410  0.427970  0.580370  1.0  -0.6453
  N  N955  1  0.897100  0.681100  0.894200  1.0  -0.622
  N  N956  1  0.704500  0.603100  0.861900  1.0  -0.6788
  N  N957  1  0.784700  0.487700  0.834600  1.0  -0.67
  N  N958  1  0.872200  0.633940  0.151300  1.0  -0.6668
  N  N959  1  0.675900  0.554400  0.120100  1.0  -0.6547
  N  N960  1  0.761300  0.446220  0.086300  1.0  -0.6496
  N  N961  1  0.563770  0.014430  0.227530  1.0  -0.622
  N  N962  1  0.371170  0.936430  0.195230  1.0  -0.6788
  N  N963  1  0.451370  0.821030  0.167930  1.0  -0.67
  N  N964  1  0.538870  0.967270  0.484630  1.0  -0.667
  N  N965  1  0.342570  0.887730  0.453430  1.0  -0.6547
  N  N966  1  0.427970  0.779550  0.419630  1.0  -0.6496
  N  N967  1  0.230430  0.347770  0.560870  1.0  -0.622
  N  N968  1  0.037830  0.269770  0.528570  1.0  -0.6788
  N  N969  1  0.118030  0.154370  0.501270  1.0  -0.6701
  N  N970  1  0.205530  0.300610  0.817970  1.0  -0.6668
  N  N971  1  0.009230  0.221070  0.786770  1.0  -0.6547
  N  N972  1  0.094630  0.112890  0.752970  1.0  -0.6496
  N  N973  1  0.318900  0.216000  0.894200  1.0  -0.6207
  N  N974  1  0.396900  0.101400  0.861900  1.0  -0.6818
  N  N975  1  0.512300  0.297000  0.834600  1.0  -0.6689
  N  N976  1  0.366060  0.238260  0.151300  1.0  -0.6639
  N  N977  1  0.445600  0.121500  0.120100  1.0  -0.6574
  N  N978  1  0.553780  0.315080  0.086300  1.0  -0.6484
  N  N979  1  0.985570  0.549330  0.227530  1.0  -0.6207
  N  N980  1  0.063570  0.434730  0.195230  1.0  -0.6818
  N  N981  1  0.178970  0.630330  0.167930  1.0  -0.6689
  N  N982  1  0.032730  0.571590  0.484630  1.0  -0.6642
  N  N983  1  0.112270  0.454830  0.453430  1.0  -0.6574
  N  N984  1  0.220450  0.648410  0.419630  1.0  -0.6484
  N  N985  1  0.652230  0.882670  0.560870  1.0  -0.6207
  N  N986  1  0.730230  0.768070  0.528570  1.0  -0.6818
  N  N987  1  0.845630  0.963670  0.501270  1.0  -0.6688
  N  N988  1  0.699390  0.904930  0.817970  1.0  -0.6639
  N  N989  1  0.778930  0.788170  0.786770  1.0  -0.6574
  N  N990  1  0.887110  0.981750  0.752970  1.0  -0.6484
  N  N991  1  0.784000  0.102900  0.894200  1.0  -0.621
  N  N992  1  0.898600  0.295500  0.861900  1.0  -0.6812
  N  N993  1  0.703000  0.215300  0.834600  1.0  -0.6671
  N  N994  1  0.761740  0.127800  0.151300  1.0  -0.6675
  N  N995  1  0.878500  0.324100  0.120100  1.0  -0.6607
  N  N996  1  0.684920  0.238700  0.086300  1.0  -0.6473
  N  N997  1  0.450670  0.436230  0.227530  1.0  -0.6212
  N  N998  1  0.565270  0.628830  0.195230  1.0  -0.6812
  N  N999  1  0.369670  0.548630  0.167930  1.0  -0.6671
  N  N1000  1  0.428410  0.461130  0.484630  1.0  -0.6671
  N  N1001  1  0.545170  0.657430  0.453430  1.0  -0.6607
  N  N1002  1  0.351590  0.572030  0.419630  1.0  -0.6473
  N  N1003  1  0.117330  0.769570  0.560870  1.0  -0.621
  N  N1004  1  0.231930  0.962170  0.528570  1.0  -0.6812
  N  N1005  1  0.036330  0.881970  0.501270  1.0  -0.667
  N  N1006  1  0.095070  0.794470  0.817970  1.0  -0.6675
  N  N1007  1  0.211830  0.990770  0.786770  1.0  -0.6607
  N  N1008  1  0.018250  0.905370  0.752970  1.0  -0.6473
  O  O1009  1  0.158790  0.390440  0.068760  1.0  -0.6739
  O  O1010  1  0.148340  0.424340  0.134700  1.0  -0.6606
  O  O1011  1  0.240080  0.396170  0.071240  1.0  -0.6755
  O  O1012  1  0.192690  0.333480  0.093800  1.0  -0.6609
  O  O1013  1  0.234790  0.472140  0.092080  1.0  -0.6547
  O  O1014  1  0.282670  0.471950  0.143400  1.0  -0.6062
  O  O1015  1  0.171830  0.416710  0.928340  1.0  -0.6791
  O  O1016  1  0.164390  0.467270  0.897100  1.0  -0.6518
  O  O1017  1  0.255250  0.421510  0.933820  1.0  -0.7072
  O  O1018  1  0.216040  0.382700  0.866460  1.0  -0.6441
  O  O1019  1  0.246850  0.494550  0.956980  1.0  -0.6819
  O  O1020  1  0.305960  0.512360  0.916900  1.0  -0.5901
  O  O1021  1  0.179780  0.360470  0.983800  1.0  -0.754
  O  O1022  1  0.291470  0.465140  0.022530  1.0  -0.769
  O  O1023  1  0.180920  0.466590  0.019550  1.0  -0.7935
  O  O1024  1  0.122690  0.280770  0.010650  1.0  -0.6194
  O  O1025  1  0.109170  0.247170  0.090000  1.0  -0.6417
  O  O1026  1  0.368520  0.486320  0.981000  1.0  -0.6274
  O  O1027  1  0.398980  0.519450  0.906600  1.0  -0.6696
  O  O1028  1  0.164480  0.525700  0.988200  1.0  -0.625
  O  O1029  1  0.155500  0.546050  0.906400  1.0  -0.658
  O  O1030  1  0.825460  0.723770  0.402090  1.0  -0.6738
  O  O1031  1  0.815010  0.757670  0.468030  1.0  -0.6606
  O  O1032  1  0.906750  0.729500  0.404570  1.0  -0.6755
  O  O1033  1  0.859360  0.666810  0.427130  1.0  -0.6609
  O  O1034  1  0.901460  0.805470  0.425410  1.0  -0.6547
  O  O1035  1  0.949340  0.805280  0.476730  1.0  -0.6062
  O  O1036  1  0.838500  0.750040  0.261670  1.0  -0.6791
  O  O1037  1  0.831060  0.800600  0.230430  1.0  -0.6518
  O  O1038  1  0.921920  0.754840  0.267150  1.0  -0.7072
  O  O1039  1  0.882710  0.716030  0.199790  1.0  -0.6441
  O  O1040  1  0.913520  0.827880  0.290310  1.0  -0.6819
  O  O1041  1  0.972630  0.845690  0.250230  1.0  -0.5901
  O  O1042  1  0.846450  0.693800  0.317130  1.0  -0.754
  O  O1043  1  0.958140  0.798470  0.355860  1.0  -0.769
  O  O1044  1  0.847590  0.799920  0.352880  1.0  -0.7935
  O  O1045  1  0.789360  0.614100  0.343980  1.0  -0.6194
  O  O1046  1  0.775840  0.580500  0.423330  1.0  -0.6418
  O  O1047  1  0.035190  0.819650  0.314330  1.0  -0.6274
  O  O1048  1  0.065650  0.852780  0.239930  1.0  -0.6696
  O  O1049  1  0.831150  0.859030  0.321530  1.0  -0.625
  O  O1050  1  0.822170  0.879380  0.239730  1.0  -0.658
  O  O1051  1  0.492120  0.057110  0.735430  1.0  -0.6739
  O  O1052  1  0.481670  0.091010  0.801370  1.0  -0.6606
  O  O1053  1  0.573410  0.062840  0.737910  1.0  -0.6755
  O  O1054  1  0.526020  0.000150  0.760470  1.0  -0.6609
  O  O1055  1  0.568120  0.138810  0.758750  1.0  -0.6547
  O  O1056  1  0.616000  0.138620  0.810070  1.0  -0.6062
  O  O1057  1  0.505160  0.083380  0.595010  1.0  -0.6791
  O  O1058  1  0.497720  0.133940  0.563770  1.0  -0.6518
  O  O1059  1  0.588580  0.088180  0.600490  1.0  -0.7072
  O  O1060  1  0.549370  0.049370  0.533130  1.0  -0.6441
  O  O1061  1  0.580180  0.161220  0.623650  1.0  -0.6819
  O  O1062  1  0.639290  0.179030  0.583570  1.0  -0.5901
  O  O1063  1  0.513110  0.027140  0.650470  1.0  -0.754
  O  O1064  1  0.624800  0.131810  0.689200  1.0  -0.769
  O  O1065  1  0.514250  0.133260  0.686220  1.0  -0.7935
  O  O1066  1  0.456020  0.947440  0.677320  1.0  -0.6194
  O  O1067  1  0.442500  0.913840  0.756670  1.0  -0.6417
  O  O1068  1  0.701850  0.152990  0.647670  1.0  -0.6274
  O  O1069  1  0.732310  0.186120  0.573270  1.0  -0.6692
  O  O1070  1  0.497810  0.192370  0.654870  1.0  -0.625
  O  O1071  1  0.488830  0.212720  0.573070  1.0  -0.658
  O  O1072  1  0.609560  0.768350  0.068760  1.0  -0.6724
  O  O1073  1  0.575660  0.724000  0.134700  1.0  -0.6588
  O  O1074  1  0.603830  0.843910  0.071240  1.0  -0.6756
  O  O1075  1  0.666520  0.859210  0.093800  1.0  -0.66
  O  O1076  1  0.527860  0.762650  0.092080  1.0  -0.6555
  O  O1077  1  0.528050  0.810720  0.143400  1.0  -0.6064
  O  O1078  1  0.583290  0.755120  0.928340  1.0  -0.681
  O  O1079  1  0.532730  0.697120  0.897100  1.0  -0.6422
  O  O1080  1  0.578490  0.833740  0.933820  1.0  -0.7073
  O  O1081  1  0.617300  0.833340  0.866460  1.0  -0.642
  O  O1082  1  0.505450  0.752300  0.956980  1.0  -0.6785
  O  O1083  1  0.487640  0.793600  0.916900  1.0  -0.5939
  O  O1084  1  0.639530  0.819310  0.983800  1.0  -0.7559
  O  O1085  1  0.534860  0.826330  0.022530  1.0  -0.7694
  O  O1086  1  0.533410  0.714330  0.019550  1.0  -0.7923
  O  O1087  1  0.719230  0.841920  0.010650  1.0  -0.6199
  O  O1088  1  0.752830  0.862000  0.090000  1.0  -0.6421
  O  O1089  1  0.513680  0.882200  0.981000  1.0  -0.6266
  O  O1090  1  0.480550  0.879530  0.906600  1.0  -0.6688
  O  O1091  1  0.474300  0.638780  0.988200  1.0  -0.6235
  O  O1092  1  0.453950  0.609450  0.906400  1.0  -0.6542
  O  O1093  1  0.276230  0.101680  0.402090  1.0  -0.6724
  O  O1094  1  0.242330  0.057330  0.468030  1.0  -0.6589
  O  O1095  1  0.270500  0.177240  0.404570  1.0  -0.6756
  O  O1096  1  0.333190  0.192540  0.427130  1.0  -0.66
  O  O1097  1  0.194530  0.095980  0.425410  1.0  -0.6555
  O  O1098  1  0.194720  0.144050  0.476730  1.0  -0.6064
  O  O1099  1  0.249960  0.088450  0.261670  1.0  -0.681
  O  O1100  1  0.199400  0.030450  0.230430  1.0  -0.6422
  O  O1101  1  0.245160  0.167070  0.267150  1.0  -0.7073
  O  O1102  1  0.283970  0.166670  0.199790  1.0  -0.642
  O  O1103  1  0.172120  0.085630  0.290310  1.0  -0.6785
  O  O1104  1  0.154310  0.126930  0.250230  1.0  -0.5939
  O  O1105  1  0.306200  0.152640  0.317130  1.0  -0.7559
  O  O1106  1  0.201530  0.159660  0.355860  1.0  -0.7694
  O  O1107  1  0.200080  0.047660  0.352880  1.0  -0.7923
  O  O1108  1  0.385900  0.175250  0.343980  1.0  -0.6199
  O  O1109  1  0.419500  0.195330  0.423330  1.0  -0.6421
  O  O1110  1  0.180350  0.215530  0.314330  1.0  -0.6266
  O  O1111  1  0.147220  0.212860  0.239930  1.0  -0.6688
  O  O1112  1  0.140970  0.972110  0.321530  1.0  -0.6235
  O  O1113  1  0.120620  0.942780  0.239730  1.0  -0.6542
  O  O1114  1  0.942890  0.435020  0.735430  1.0  -0.6724
  O  O1115  1  0.908990  0.390670  0.801370  1.0  -0.6588
  O  O1116  1  0.937160  0.510580  0.737910  1.0  -0.6756
  O  O1117  1  0.999850  0.525880  0.760470  1.0  -0.66
  O  O1118  1  0.861190  0.429320  0.758750  1.0  -0.6555
  O  O1119  1  0.861380  0.477390  0.810070  1.0  -0.6064
  O  O1120  1  0.916620  0.421790  0.595010  1.0  -0.681
  O  O1121  1  0.866060  0.363790  0.563770  1.0  -0.6422
  O  O1122  1  0.911820  0.500410  0.600490  1.0  -0.7073
  O  O1123  1  0.950630  0.500010  0.533130  1.0  -0.642
  O  O1124  1  0.838780  0.418970  0.623650  1.0  -0.6785
  O  O1125  1  0.820970  0.460270  0.583570  1.0  -0.5939
  O  O1126  1  0.972860  0.485980  0.650470  1.0  -0.7559
  O  O1127  1  0.868190  0.493000  0.689200  1.0  -0.7694
  O  O1128  1  0.866740  0.381000  0.686220  1.0  -0.7923
  O  O1129  1  0.052560  0.508590  0.677320  1.0  -0.62
  O  O1130  1  0.086160  0.528670  0.756670  1.0  -0.6422
  O  O1131  1  0.847010  0.548870  0.647670  1.0  -0.6266
  O  O1132  1  0.813880  0.546200  0.573270  1.0  -0.6689
  O  O1133  1  0.807630  0.305450  0.654870  1.0  -0.6235
  O  O1134  1  0.787280  0.276120  0.573070  1.0  -0.6542
  O  O1135  1  0.231650  0.841210  0.068760  1.0  -0.6733
  O  O1136  1  0.276000  0.851660  0.134700  1.0  -0.6574
  O  O1137  1  0.156090  0.759920  0.071240  1.0  -0.6746
  O  O1138  1  0.140790  0.807310  0.093800  1.0  -0.6644
  O  O1139  1  0.237350  0.765210  0.092080  1.0  -0.6553
  O  O1140  1  0.189280  0.717330  0.143400  1.0  -0.6038
  O  O1141  1  0.244880  0.828170  0.928340  1.0  -0.6801
  O  O1142  1  0.302880  0.835610  0.897100  1.0  -0.6444
  O  O1143  1  0.166260  0.744750  0.933820  1.0  -0.7073
  O  O1144  1  0.166660  0.783960  0.866460  1.0  -0.6463
  O  O1145  1  0.247700  0.753150  0.956980  1.0  -0.6801
  O  O1146  1  0.206400  0.694040  0.916900  1.0  -0.5908
  O  O1147  1  0.180690  0.820220  0.983800  1.0  -0.7566
  O  O1148  1  0.173670  0.708530  0.022530  1.0  -0.7698
  O  O1149  1  0.285670  0.819080  0.019550  1.0  -0.7916
  O  O1150  1  0.158080  0.877310  0.010650  1.0  -0.6198
  O  O1151  1  0.138000  0.890830  0.090000  1.0  -0.6427
  O  O1152  1  0.117800  0.631480  0.981000  1.0  -0.6272
  O  O1153  1  0.120470  0.601020  0.906600  1.0  -0.6681
  O  O1154  1  0.361220  0.835520  0.988200  1.0  -0.6238
  O  O1155  1  0.390550  0.844500  0.906400  1.0  -0.6567
  O  O1156  1  0.898320  0.174540  0.402090  1.0  -0.6733
  O  O1157  1  0.942670  0.184990  0.468030  1.0  -0.6571
  O  O1158  1  0.822760  0.093250  0.404570  1.0  -0.6746
  O  O1159  1  0.807460  0.140640  0.427130  1.0  -0.6646
  O  O1160  1  0.904020  0.098540  0.425410  1.0  -0.6553
  O  O1161  1  0.855950  0.050660  0.476730  1.0  -0.6038
  O  O1162  1  0.911550  0.161500  0.261670  1.0  -0.6801
  O  O1163  1  0.969550  0.168940  0.230430  1.0  -0.6444
  O  O1164  1  0.832930  0.078080  0.267150  1.0  -0.7073
  O  O1165  1  0.833330  0.117290  0.199790  1.0  -0.6463
  O  O1166  1  0.914370  0.086480  0.290310  1.0  -0.6801
  O  O1167  1  0.873070  0.027370  0.250230  1.0  -0.5908
  O  O1168  1  0.847360  0.153550  0.317130  1.0  -0.7566
  O  O1169  1  0.840340  0.041860  0.355860  1.0  -0.7698
  O  O1170  1  0.952340  0.152410  0.352880  1.0  -0.7916
  O  O1171  1  0.824750  0.210640  0.343980  1.0  -0.6198
  O  O1172  1  0.804670  0.224160  0.423330  1.0  -0.6427
  O  O1173  1  0.784470  0.964810  0.314330  1.0  -0.6272
  O  O1174  1  0.787140  0.934350  0.239930  1.0  -0.6681
  O  O1175  1  0.027890  0.168850  0.321530  1.0  -0.6238
  O  O1176  1  0.057220  0.177830  0.239730  1.0  -0.6567
  O  O1177  1  0.564980  0.507880  0.735430  1.0  -0.6733
  O  O1178  1  0.609330  0.518330  0.801370  1.0  -0.6574
  O  O1179  1  0.489420  0.426590  0.737910  1.0  -0.6746
  O  O1180  1  0.474120  0.473980  0.760470  1.0  -0.6644
  O  O1181  1  0.570680  0.431880  0.758750  1.0  -0.6553
  O  O1182  1  0.522610  0.384000  0.810070  1.0  -0.6038
  O  O1183  1  0.578210  0.494840  0.595010  1.0  -0.6801
  O  O1184  1  0.636210  0.502280  0.563770  1.0  -0.6444
  O  O1185  1  0.499590  0.411420  0.600490  1.0  -0.7073
  O  O1186  1  0.499990  0.450630  0.533130  1.0  -0.6463
  O  O1187  1  0.581030  0.419820  0.623650  1.0  -0.6801
  O  O1188  1  0.539730  0.360710  0.583570  1.0  -0.5908
  O  O1189  1  0.514020  0.486890  0.650470  1.0  -0.7566
  O  O1190  1  0.507000  0.375200  0.689200  1.0  -0.7698
  O  O1191  1  0.619000  0.485750  0.686220  1.0  -0.7916
  O  O1192  1  0.491410  0.543980  0.677320  1.0  -0.6198
  O  O1193  1  0.471330  0.557500  0.756670  1.0  -0.6428
  O  O1194  1  0.451130  0.298150  0.647670  1.0  -0.6272
  O  O1195  1  0.453800  0.267690  0.573270  1.0  -0.6681
  O  O1196  1  0.694550  0.502190  0.654870  1.0  -0.6238
  O  O1197  1  0.723880  0.511170  0.573070  1.0  -0.6567
  O  O1198  1  0.841210  0.609560  0.931240  1.0  -0.6745
  O  O1199  1  0.851660  0.575660  0.865300  1.0  -0.6614
  O  O1200  1  0.759920  0.603830  0.928760  1.0  -0.6762
  O  O1201  1  0.807310  0.666520  0.906200  1.0  -0.6596
  O  O1202  1  0.765210  0.527860  0.907920  1.0  -0.6554
  O  O1203  1  0.717330  0.528050  0.856600  1.0  -0.6036
  O  O1204  1  0.828170  0.583290  0.071660  1.0  -0.677
  O  O1205  1  0.835610  0.532730  0.102900  1.0  -0.6479
  O  O1206  1  0.744750  0.578490  0.066180  1.0  -0.7085
  O  O1207  1  0.783960  0.617300  0.133540  1.0  -0.6451
  O  O1208  1  0.753150  0.505450  0.043020  1.0  -0.6806
  O  O1209  1  0.694040  0.487640  0.083100  1.0  -0.5903
  O  O1210  1  0.820220  0.639530  0.016200  1.0  -0.7564
  O  O1211  1  0.708530  0.534860  0.977470  1.0  -0.7693
  O  O1212  1  0.819080  0.533410  0.980450  1.0  -0.7937
  O  O1213  1  0.877310  0.719230  0.989350  1.0  -0.6221
  O  O1214  1  0.890830  0.752830  0.910000  1.0  -0.6416
  O  O1215  1  0.631480  0.513680  0.019000  1.0  -0.6251
  O  O1216  1  0.601020  0.480550  0.093400  1.0  -0.6727
  O  O1217  1  0.835520  0.474300  0.011800  1.0  -0.6208
  O  O1218  1  0.844500  0.453950  0.093600  1.0  -0.6591
  O  O1219  1  0.507880  0.942890  0.264570  1.0  -0.6745
  O  O1220  1  0.518330  0.908990  0.198630  1.0  -0.6614
  O  O1221  1  0.426590  0.937160  0.262090  1.0  -0.6762
  O  O1222  1  0.473980  0.999850  0.239530  1.0  -0.6596
  O  O1223  1  0.431880  0.861190  0.241250  1.0  -0.6554
  O  O1224  1  0.384000  0.861380  0.189930  1.0  -0.6036
  O  O1225  1  0.494840  0.916620  0.404990  1.0  -0.677
  O  O1226  1  0.502280  0.866060  0.436230  1.0  -0.6479
  O  O1227  1  0.411420  0.911820  0.399510  1.0  -0.7085
  O  O1228  1  0.450630  0.950630  0.466870  1.0  -0.6451
  O  O1229  1  0.419820  0.838780  0.376350  1.0  -0.6806
  O  O1230  1  0.360710  0.820970  0.416430  1.0  -0.5903
  O  O1231  1  0.486890  0.972860  0.349530  1.0  -0.7564
  O  O1232  1  0.375200  0.868190  0.310800  1.0  -0.7693
  O  O1233  1  0.485750  0.866740  0.313780  1.0  -0.7937
  O  O1234  1  0.543980  0.052560  0.322680  1.0  -0.6222
  O  O1235  1  0.557500  0.086160  0.243330  1.0  -0.6416
  O  O1236  1  0.298150  0.847010  0.352330  1.0  -0.6252
  O  O1237  1  0.267690  0.813880  0.426730  1.0  -0.6723
  O  O1238  1  0.502190  0.807630  0.345130  1.0  -0.6208
  O  O1239  1  0.511170  0.787280  0.426930  1.0  -0.6591
  O  O1240  1  0.174540  0.276230  0.597910  1.0  -0.6745
  O  O1241  1  0.184990  0.242330  0.531970  1.0  -0.6614
  O  O1242  1  0.093250  0.270500  0.595430  1.0  -0.6762
  O  O1243  1  0.140640  0.333190  0.572870  1.0  -0.6596
  O  O1244  1  0.098540  0.194530  0.574590  1.0  -0.6554
  O  O1245  1  0.050660  0.194720  0.523270  1.0  -0.6035
  O  O1246  1  0.161500  0.249960  0.738330  1.0  -0.677
  O  O1247  1  0.168940  0.199400  0.769570  1.0  -0.6479
  O  O1248  1  0.078080  0.245160  0.732850  1.0  -0.7085
  O  O1249  1  0.117290  0.283970  0.800210  1.0  -0.6451
  O  O1250  1  0.086480  0.172120  0.709690  1.0  -0.6806
  O  O1251  1  0.027370  0.154310  0.749770  1.0  -0.5903
  O  O1252  1  0.153550  0.306200  0.682870  1.0  -0.7564
  O  O1253  1  0.041860  0.201530  0.644140  1.0  -0.7693
  O  O1254  1  0.152410  0.200080  0.647120  1.0  -0.7937
  O  O1255  1  0.210640  0.385900  0.656020  1.0  -0.6221
  O  O1256  1  0.224160  0.419500  0.576670  1.0  -0.6416
  O  O1257  1  0.964810  0.180350  0.685670  1.0  -0.6251
  O  O1258  1  0.934350  0.147220  0.760070  1.0  -0.6727
  O  O1259  1  0.168850  0.140970  0.678470  1.0  -0.6208
  O  O1260  1  0.177830  0.120620  0.760270  1.0  -0.6591
  O  O1261  1  0.390440  0.231650  0.931240  1.0  -0.6745
  O  O1262  1  0.424340  0.276000  0.865300  1.0  -0.6578
  O  O1263  1  0.396170  0.156090  0.928760  1.0  -0.6759
  O  O1264  1  0.333480  0.140790  0.906200  1.0  -0.6592
  O  O1265  1  0.472140  0.237350  0.907920  1.0  -0.6565
  O  O1266  1  0.471950  0.189280  0.856600  1.0  -0.6044
  O  O1267  1  0.416710  0.244880  0.071660  1.0  -0.6799
  O  O1268  1  0.467270  0.302880  0.102900  1.0  -0.6421
  O  O1269  1  0.421510  0.166260  0.066180  1.0  -0.7084
  O  O1270  1  0.382700  0.166660  0.133540  1.0  -0.6418
  O  O1271  1  0.494550  0.247700  0.043020  1.0  -0.6787
  O  O1272  1  0.512360  0.206400  0.083100  1.0  -0.594
  O  O1273  1  0.360470  0.180690  0.016200  1.0  -0.7544
  O  O1274  1  0.465140  0.173670  0.977470  1.0  -0.7678
  O  O1275  1  0.466590  0.285670  0.980450  1.0  -0.7924
  O  O1276  1  0.280770  0.158080  0.989350  1.0  -0.6222
  O  O1277  1  0.247170  0.138000  0.910000  1.0  -0.6458
  O  O1278  1  0.486320  0.117800  0.019000  1.0  -0.6216
  O  O1279  1  0.519450  0.120470  0.093400  1.0  -0.6712
  O  O1280  1  0.525700  0.361220  0.011800  1.0  -0.6232
  O  O1281  1  0.546050  0.390550  0.093600  1.0  -0.6564
  O  O1282  1  0.057110  0.564980  0.264570  1.0  -0.6745
  O  O1283  1  0.091010  0.609330  0.198630  1.0  -0.6578
  O  O1284  1  0.062840  0.489420  0.262090  1.0  -0.6759
  O  O1285  1  0.000150  0.474120  0.239530  1.0  -0.6593
  O  O1286  1  0.138810  0.570680  0.241250  1.0  -0.6565
  O  O1287  1  0.138620  0.522610  0.189930  1.0  -0.6044
  O  O1288  1  0.083380  0.578210  0.404990  1.0  -0.6799
  O  O1289  1  0.133940  0.636210  0.436230  1.0  -0.6421
  O  O1290  1  0.088180  0.499590  0.399510  1.0  -0.7084
  O  O1291  1  0.049370  0.499990  0.466870  1.0  -0.6418
  O  O1292  1  0.161220  0.581030  0.376350  1.0  -0.6787
  O  O1293  1  0.179030  0.539730  0.416430  1.0  -0.594
  O  O1294  1  0.027140  0.514020  0.349530  1.0  -0.7544
  O  O1295  1  0.131810  0.507000  0.310800  1.0  -0.7678
  O  O1296  1  0.133260  0.619000  0.313780  1.0  -0.7924
  O  O1297  1  0.947440  0.491410  0.322680  1.0  -0.6223
  O  O1298  1  0.913840  0.471330  0.243330  1.0  -0.6458
  O  O1299  1  0.152990  0.451130  0.352330  1.0  -0.6215
  O  O1300  1  0.186120  0.453800  0.426730  1.0  -0.6713
  O  O1301  1  0.192370  0.694550  0.345130  1.0  -0.6232
  O  O1302  1  0.212720  0.723880  0.426930  1.0  -0.6564
  O  O1303  1  0.723770  0.898320  0.597910  1.0  -0.6745
  O  O1304  1  0.757670  0.942670  0.531970  1.0  -0.6579
  O  O1305  1  0.729500  0.822760  0.595430  1.0  -0.6759
  O  O1306  1  0.666810  0.807460  0.572870  1.0  -0.6592
  O  O1307  1  0.805470  0.904020  0.574590  1.0  -0.6566
  O  O1308  1  0.805280  0.855950  0.523270  1.0  -0.6044
  O  O1309  1  0.750040  0.911550  0.738330  1.0  -0.6799
  O  O1310  1  0.800600  0.969550  0.769570  1.0  -0.6421
  O  O1311  1  0.754840  0.832930  0.732850  1.0  -0.7084
  O  O1312  1  0.716030  0.833330  0.800210  1.0  -0.6418
  O  O1313  1  0.827880  0.914370  0.709690  1.0  -0.6787
  O  O1314  1  0.845690  0.873070  0.749770  1.0  -0.594
  O  O1315  1  0.693800  0.847360  0.682870  1.0  -0.7544
  O  O1316  1  0.798470  0.840340  0.644140  1.0  -0.7678
  O  O1317  1  0.799920  0.952340  0.647120  1.0  -0.7924
  O  O1318  1  0.614100  0.824750  0.656020  1.0  -0.6222
  O  O1319  1  0.580500  0.804670  0.576670  1.0  -0.6458
  O  O1320  1  0.819650  0.784470  0.685670  1.0  -0.6215
  O  O1321  1  0.852780  0.787140  0.760070  1.0  -0.6712
  O  O1322  1  0.859030  0.027890  0.678470  1.0  -0.6232
  O  O1323  1  0.879380  0.057220  0.760270  1.0  -0.6564
  O  O1324  1  0.768350  0.158790  0.931240  1.0  -0.6736
  O  O1325  1  0.724000  0.148340  0.865300  1.0  -0.6579
  O  O1326  1  0.843910  0.240080  0.928760  1.0  -0.6738
  O  O1327  1  0.859210  0.192690  0.906200  1.0  -0.6655
  O  O1328  1  0.762650  0.234790  0.907920  1.0  -0.6563
  O  O1329  1  0.810720  0.282670  0.856600  1.0  -0.6022
  O  O1330  1  0.755120  0.171830  0.071660  1.0  -0.6789
  O  O1331  1  0.697120  0.164390  0.102900  1.0  -0.6432
  O  O1332  1  0.833740  0.255250  0.066180  1.0  -0.7085
  O  O1333  1  0.833340  0.216040  0.133540  1.0  -0.6455
  O  O1334  1  0.752300  0.246850  0.043020  1.0  -0.6814
  O  O1335  1  0.793600  0.305960  0.083100  1.0  -0.5915
  O  O1336  1  0.819310  0.179780  0.016200  1.0  -0.7553
  O  O1337  1  0.826330  0.291470  0.977470  1.0  -0.77
  O  O1338  1  0.714330  0.180920  0.980450  1.0  -0.7924
  O  O1339  1  0.841920  0.122690  0.989350  1.0  -0.621
  O  O1340  1  0.862000  0.109170  0.910000  1.0  -0.6441
  O  O1341  1  0.882200  0.368520  0.019000  1.0  -0.624
  O  O1342  1  0.879530  0.398980  0.093400  1.0  -0.6717
  O  O1343  1  0.638780  0.164480  0.011800  1.0  -0.6214
  O  O1344  1  0.609450  0.155500  0.093600  1.0  -0.658
  O  O1345  1  0.435020  0.492120  0.264570  1.0  -0.6736
  O  O1346  1  0.390670  0.481670  0.198630  1.0  -0.6579
  O  O1347  1  0.510580  0.573410  0.262090  1.0  -0.6738
  O  O1348  1  0.525880  0.526020  0.239530  1.0  -0.6655
  O  O1349  1  0.429320  0.568120  0.241250  1.0  -0.6563
  O  O1350  1  0.477390  0.616000  0.189930  1.0  -0.6022
  O  O1351  1  0.421790  0.505160  0.404990  1.0  -0.6789
  O  O1352  1  0.363790  0.497720  0.436230  1.0  -0.6432
  O  O1353  1  0.500410  0.588580  0.399510  1.0  -0.7085
  O  O1354  1  0.500010  0.549370  0.466870  1.0  -0.6455
  O  O1355  1  0.418970  0.580180  0.376350  1.0  -0.6814
  O  O1356  1  0.460270  0.639290  0.416430  1.0  -0.5915
  O  O1357  1  0.485980  0.513110  0.349530  1.0  -0.7553
  O  O1358  1  0.493000  0.624800  0.310800  1.0  -0.77
  O  O1359  1  0.381000  0.514250  0.313780  1.0  -0.7924
  O  O1360  1  0.508590  0.456020  0.322680  1.0  -0.621
  O  O1361  1  0.528670  0.442500  0.243330  1.0  -0.6441
  O  O1362  1  0.548870  0.701850  0.352330  1.0  -0.624
  O  O1363  1  0.546200  0.732310  0.426730  1.0  -0.6717
  O  O1364  1  0.305450  0.497810  0.345130  1.0  -0.6214
  O  O1365  1  0.276120  0.488830  0.426930  1.0  -0.658
  O  O1366  1  0.101680  0.825460  0.597910  1.0  -0.6736
  O  O1367  1  0.057330  0.815010  0.531970  1.0  -0.6578
  O  O1368  1  0.177240  0.906750  0.595430  1.0  -0.6738
  O  O1369  1  0.192540  0.859360  0.572870  1.0  -0.6655
  O  O1370  1  0.095980  0.901460  0.574590  1.0  -0.6563
  O  O1371  1  0.144050  0.949340  0.523270  1.0  -0.6023
  O  O1372  1  0.088450  0.838500  0.738330  1.0  -0.6789
  O  O1373  1  0.030450  0.831060  0.769570  1.0  -0.6432
  O  O1374  1  0.167070  0.921920  0.732850  1.0  -0.7085
  O  O1375  1  0.166670  0.882710  0.800210  1.0  -0.6455
  O  O1376  1  0.085630  0.913520  0.709690  1.0  -0.6814
  O  O1377  1  0.126930  0.972630  0.749770  1.0  -0.5915
  O  O1378  1  0.152640  0.846450  0.682870  1.0  -0.7553
  O  O1379  1  0.159660  0.958140  0.644140  1.0  -0.77
  O  O1380  1  0.047660  0.847590  0.647120  1.0  -0.7924
  O  O1381  1  0.175250  0.789360  0.656020  1.0  -0.621
  O  O1382  1  0.195330  0.775840  0.576670  1.0  -0.6441
  O  O1383  1  0.215530  0.035190  0.685670  1.0  -0.624
  O  O1384  1  0.212860  0.065650  0.760070  1.0  -0.6717
  O  O1385  1  0.972110  0.831150  0.678470  1.0  -0.6214
  O  O1386  1  0.942780  0.822170  0.760270  1.0  -0.658
