# generated using pymatgen
data_Co5H76C95(N9O10)2
_symmetry_space_group_name_H-M   'P 1'
_cell_length_a   16.20990000
_cell_length_b   17.20610000
_cell_length_c   34.91230000
_cell_angle_alpha   94.60400000
_cell_angle_beta   90.00000000
_cell_angle_gamma   90.00000000
_symmetry_Int_Tables_number   1
_chemical_formula_structural   Co5H76C95(N9O10)2
_chemical_formula_sum   'Co20 H304 C380 N72 O80'
_cell_volume   9705.94051675
_cell_formula_units_Z   4
loop_
 _symmetry_equiv_pos_site_id
 _symmetry_equiv_pos_as_xyz
  1  'x, y, z'
loop_
 _atom_site_type_symbol
 _atom_site_label
 _atom_site_symmetry_multiplicity
 _atom_site_fract_x
 _atom_site_fract_y
 _atom_site_fract_z
 _atom_site_occupancy
 _atom_site_charge
  Co  Co1  1  0.218720  0.113690  0.011830  1.0  1.0072
  Co  Co2  1  0.718720  0.386310  0.488170  1.0  1.0098
  Co  Co3  1  0.527250  0.952000  0.663750  1.0  0.8981
  Co  Co4  1  0.027250  0.548000  0.836250  1.0  0.896
  Co  Co5  1  0.430890  0.414880  0.146670  1.0  0.9164
  Co  Co6  1  0.781280  0.886310  0.988170  1.0  1.0101
  Co  Co7  1  0.763840  0.609830  0.488920  1.0  0.9611
  Co  Co8  1  0.755740  0.720330  0.205070  1.0  0.9299
  Co  Co9  1  0.744260  0.220330  0.705070  1.0  0.931
  Co  Co10  1  0.263840  0.890170  0.011080  1.0  0.9607
  Co  Co11  1  0.569110  0.585120  0.853330  1.0  0.9141
  Co  Co12  1  0.736160  0.109830  0.988920  1.0  0.9609
  Co  Co13  1  0.244260  0.279670  0.794930  1.0  0.9308
  Co  Co14  1  0.255740  0.779670  0.294930  1.0  0.9315
  Co  Co15  1  0.236160  0.390170  0.511080  1.0  0.9606
  Co  Co16  1  0.972750  0.452000  0.163750  1.0  0.8987
  Co  Co17  1  0.069110  0.914880  0.646670  1.0  0.916
  Co  Co18  1  0.281280  0.613690  0.511830  1.0  1.0072
  Co  Co19  1  0.472750  0.048000  0.336250  1.0  0.8959
  Co  Co20  1  0.930890  0.085120  0.353330  1.0  0.9146
  H  H21  1  0.119500  0.937200  0.254100  1.0  0.1279
  H  H22  1  0.101800  0.797100  0.409200  1.0  0.11
  H  H23  1  0.462300  0.126200  0.997500  1.0  0.1223
  H  H24  1  0.545600  0.139800  0.196700  1.0  0.1214
  H  H25  1  0.979500  0.267900  0.177200  1.0  0.0973
  H  H26  1  0.018600  0.182000  0.472000  1.0  0.1046
  H  H27  1  0.981400  0.818000  0.528000  1.0  0.1036
  H  H28  1  0.005200  0.995600  0.959100  1.0  0.1244
  H  H29  1  0.934400  0.588900  0.388800  1.0  0.1041
  H  H30  1  0.959700  0.085700  0.056500  1.0  0.1209
  H  H31  1  0.625300  0.085800  0.089200  1.0  0.1186
  H  H32  1  0.772500  0.360000  0.627600  1.0  0.1238
  H  H33  1  0.139800  0.573600  0.333100  1.0  0.1226
  H  H34  1  0.824500  0.485700  0.253500  1.0  0.1464
  H  H35  1  0.170700  0.618600  0.632100  1.0  0.0972
  H  H36  1  0.880500  0.062800  0.745900  1.0  0.1276
  H  H37  1  0.350300  0.418800  0.389800  1.0  0.1068
  H  H38  1  0.753400  0.194800  0.910000  1.0  0.1123
  H  H39  1  0.329300  0.118600  0.132100  1.0  0.0971
  H  H40  1  0.576800  0.813900  0.059100  1.0  0.1076
  H  H41  1  0.654200  0.497800  0.925000  1.0  0.105
  H  H42  1  0.454100  0.669500  0.715500  1.0  0.1211
  H  H43  1  0.873300  0.759600  0.133800  1.0  0.095
  H  H44  1  0.962300  0.373800  0.502500  1.0  0.1223
  H  H45  1  0.200400  0.151300  0.257900  1.0  0.0924
  H  H46  1  0.299600  0.651300  0.757900  1.0  0.0925
  H  H47  1  0.362800  0.605300  0.610400  1.0  0.1208
  H  H48  1  0.333500  0.281200  0.090900  1.0  0.1008
  H  H49  1  0.957700  0.465900  0.974300  1.0  0.0948
  H  H50  1  0.139100  0.040900  0.781800  1.0  0.1183
  H  H51  1  0.045600  0.360200  0.303300  1.0  0.1221
  H  H52  1  0.190000  0.247000  0.119600  1.0  0.1286
  H  H53  1  0.156000  0.510400  0.455000  1.0  0.1015
  H  H54  1  0.620000  0.555700  0.084100  1.0  0.1262
  H  H55  1  0.532800  0.765900  0.833500  1.0  0.097
  H  H56  1  0.494800  0.495600  0.459100  1.0  0.1241
  H  H57  1  0.324700  0.298300  0.438800  1.0  0.1003
  H  H58  1  0.626700  0.259600  0.633800  1.0  0.0952
  H  H59  1  0.113700  0.948400  0.188700  1.0  0.1271
  H  H60  1  0.223900  0.064200  0.528500  1.0  0.1146
  H  H61  1  0.537700  0.873800  0.002500  1.0  0.122
  H  H62  1  0.045900  0.169500  0.215500  1.0  0.1207
  H  H63  1  0.954100  0.830500  0.784500  1.0  0.1223
  H  H64  1  0.345900  0.505200  0.567200  1.0  0.0993
  H  H65  1  0.292700  0.305600  0.333100  1.0  0.0858
  H  H66  1  0.727500  0.860000  0.127600  1.0  0.1238
  H  H67  1  0.792700  0.194400  0.166900  1.0  0.0862
  H  H68  1  0.120000  0.944300  0.415900  1.0  0.1261
  H  H69  1  0.222300  0.917300  0.367200  1.0  0.0967
  H  H70  1  0.467200  0.234100  0.166500  1.0  0.0969
  H  H71  1  0.272500  0.140000  0.872400  1.0  0.1238
  H  H72  1  0.218900  0.195700  0.520900  1.0  0.1049
  H  H73  1  0.954400  0.639800  0.696700  1.0  0.1214
  H  H74  1  0.006800  0.766900  0.950100  1.0  0.1472
  H  H75  1  0.200100  0.870700  0.150700  1.0  0.1331
  H  H76  1  0.524100  0.359000  0.642300  1.0  0.0962
  H  H77  1  0.874700  0.585800  0.589200  1.0  0.1186
  H  H78  1  0.844000  0.489600  0.545000  1.0  0.1017
  H  H79  1  0.166500  0.781200  0.590900  1.0  0.0992
  H  H80  1  0.754800  0.650000  0.023800  1.0  0.1094
  H  H81  1  0.398200  0.297100  0.909200  1.0  0.1098
  H  H82  1  0.860200  0.426400  0.666900  1.0  0.1226
  H  H83  1  0.984900  0.589300  0.974900  1.0  0.1071
  H  H84  1  0.832100  0.338900  0.079100  1.0  0.1148
  H  H85  1  0.142600  0.381700  0.120400  1.0  0.1046
  H  H86  1  0.015100  0.410700  0.025100  1.0  0.1073
  H  H87  1  0.238600  0.798600  0.531300  1.0  0.1251
  H  H88  1  0.040300  0.914300  0.943500  1.0  0.1222
  H  H89  1  0.327800  0.464100  0.331500  1.0  0.1148
  H  H90  1  0.761400  0.201400  0.468700  1.0  0.1254
  H  H91  1  0.260400  0.680700  0.854800  1.0  0.1375
  H  H92  1  0.254800  0.850000  0.476200  1.0  0.11
  H  H93  1  0.475900  0.641000  0.357700  1.0  0.0969
  H  H94  1  0.801400  0.461900  0.081500  1.0  0.1221
  H  H95  1  0.190000  0.593200  0.695300  1.0  0.0982
  H  H96  1  0.079200  0.150000  0.409300  1.0  0.0899
  H  H97  1  0.310000  0.093200  0.195300  1.0  0.0985
  H  H98  1  0.420800  0.650000  0.909300  1.0  0.0896
  H  H99  1  0.613700  0.551600  0.311300  1.0  0.1273
  H  H100  1  0.975900  0.859000  0.142300  1.0  0.0969
  H  H101  1  0.268100  0.942400  0.732800  1.0  0.1344
  H  H102  1  0.670700  0.881400  0.867900  1.0  0.0975
  H  H103  1  0.057600  0.090000  0.786000  1.0  0.1287
  H  H104  1  0.159400  0.621500  0.098500  1.0  0.1335
  H  H105  1  0.859200  0.402300  0.728200  1.0  0.1368
  H  H106  1  0.859300  0.459800  0.923400  1.0  0.1273
  H  H107  1  0.285000  0.694400  0.433500  1.0  0.1036
  H  H108  1  0.883800  0.689900  0.070800  1.0  0.1067
  H  H109  1  0.829300  0.381400  0.367900  1.0  0.097
  H  H110  1  0.310000  0.747000  0.619600  1.0  0.1261
  H  H111  1  0.672200  0.535900  0.668500  1.0  0.1148
  H  H112  1  0.520500  0.767900  0.677200  1.0  0.0979
  H  H113  1  0.738600  0.701400  0.968700  1.0  0.1253
  H  H114  1  0.690000  0.253000  0.380400  1.0  0.129
  H  H115  1  0.799600  0.848700  0.742100  1.0  0.0925
  H  H116  1  0.601800  0.702900  0.090800  1.0  0.11
  H  H117  1  0.642600  0.118300  0.379600  1.0  0.1041
  H  H118  1  0.731900  0.057600  0.267200  1.0  0.1363
  H  H119  1  0.032800  0.734100  0.666500  1.0  0.0962
  H  H120  1  0.198600  0.538100  0.918500  1.0  0.1223
  H  H121  1  0.020500  0.732100  0.822800  1.0  0.0962
  H  H122  1  0.024100  0.141000  0.857700  1.0  0.0968
  H  H123  1  0.785000  0.805600  0.066500  1.0  0.1034
  H  H124  1  0.649700  0.581200  0.610200  1.0  0.1071
  H  H125  1  0.414400  0.886700  0.174000  1.0  0.1108
  H  H126  1  0.207300  0.805600  0.833100  1.0  0.0857
  H  H127  1  0.140700  0.540200  0.076600  1.0  0.128
  H  H128  1  0.845800  0.997800  0.425000  1.0  0.1051
  H  H129  1  0.940400  0.049300  0.681400  1.0  0.1011
  H  H130  1  0.776100  0.935800  0.471500  1.0  0.1149
  H  H131  1  0.967200  0.265900  0.333500  1.0  0.0964
  H  H132  1  0.149700  0.918800  0.889800  1.0  0.1072
  H  H133  1  0.540300  0.585700  0.556500  1.0  0.121
  H  H134  1  0.172200  0.964100  0.831500  1.0  0.1148
  H  H135  1  0.454400  0.860200  0.803300  1.0  0.1233
  H  H136  1  0.566400  0.508500  0.053100  1.0  0.1328
  H  H137  1  0.125300  0.414200  0.410800  1.0  0.1183
  H  H138  1  0.446800  0.803500  0.557900  1.0  0.1414
  H  H139  1  0.644700  0.223300  0.088600  1.0  0.1205
  H  H140  1  0.154100  0.005200  0.067200  1.0  0.0996
  H  H141  1  0.052000  0.576200  0.574100  1.0  0.1343
  H  H142  1  0.786400  0.103500  0.209900  1.0  0.1252
  H  H143  1  0.400600  0.958700  0.243000  1.0  0.1427
  H  H144  1  0.477100  0.376400  0.234800  1.0  0.0893
  H  H145  1  0.042300  0.534100  0.025700  1.0  0.0935
  H  H146  1  0.193900  0.242800  0.214500  1.0  0.087
  H  H147  1  0.246600  0.805200  0.090000  1.0  0.112
  H  H148  1  0.718900  0.304300  0.979100  1.0  0.1047
  H  H149  1  0.286400  0.396500  0.290100  1.0  0.1254
  H  H150  1  0.144700  0.276700  0.411400  1.0  0.1206
  H  H151  1  0.810000  0.406800  0.304700  1.0  0.0983
  H  H152  1  0.479500  0.232100  0.322800  1.0  0.0977
  H  H153  1  0.522900  0.623600  0.765200  1.0  0.0892
  H  H154  1  0.357400  0.881700  0.620400  1.0  0.1046
  H  H155  1  0.359300  0.040200  0.576600  1.0  0.1291
  H  H156  1  0.812100  0.616700  0.796800  1.0  0.1281
  H  H157  1  0.037700  0.626200  0.497500  1.0  0.1221
  H  H158  1  0.442400  0.590000  0.286000  1.0  0.1269
  H  H159  1  0.227500  0.640000  0.372400  1.0  0.1242
  H  H160  1  0.827800  0.035900  0.168500  1.0  0.1148
  H  H161  1  0.914400  0.613300  0.326000  1.0  0.1096
  H  H162  1  0.746600  0.694800  0.410000  1.0  0.1118
  H  H163  1  0.933600  0.008500  0.553100  1.0  0.1329
  H  H164  1  0.639800  0.926400  0.166900  1.0  0.1225
  H  H165  1  0.231900  0.442400  0.232800  1.0  0.1338
  H  H166  1  0.430600  0.989000  0.060300  1.0  0.1325
  H  H167  1  0.011400  0.403800  0.248000  1.0  0.1025
  H  H168  1  0.659400  0.878500  0.401500  1.0  0.1338
  H  H169  1  0.175300  0.798300  0.938800  1.0  0.1005
  H  H170  1  0.324500  0.014300  0.246500  1.0  0.146
  H  H171  1  0.988600  0.596200  0.752000  1.0  0.1025
  H  H172  1  0.085600  0.386700  0.674000  1.0  0.1106
  H  H173  1  0.126700  0.240400  0.866200  1.0  0.0956
  H  H174  1  0.409900  0.239000  0.576400  1.0  0.1011
  H  H175  1  0.360200  0.073600  0.833100  1.0  0.123
  H  H176  1  0.448000  0.076200  0.074100  1.0  0.1334
  H  H177  1  0.239600  0.180700  0.354800  1.0  0.1376
  H  H178  1  0.253400  0.305200  0.590000  1.0  0.1128
  H  H179  1  0.698600  0.961900  0.581500  1.0  0.1216
  H  H180  1  0.860900  0.959100  0.218200  1.0  0.1161
  H  H181  1  0.707300  0.694400  0.666900  1.0  0.0867
  H  H182  1  0.690000  0.906800  0.804700  1.0  0.0979
  H  H183  1  0.511400  0.096200  0.252000  1.0  0.1024
  H  H184  1  0.116200  0.310100  0.929200  1.0  0.1087
  H  H185  1  0.545900  0.330500  0.284500  1.0  0.1219
  H  H186  1  0.656000  0.989600  0.045000  1.0  0.1018
  H  H187  1  0.810000  0.753000  0.880400  1.0  0.1265
  H  H188  1  0.423200  0.186100  0.940900  1.0  0.1073
  H  H189  1  0.187900  0.383300  0.203200  1.0  0.1281
  H  H190  1  0.003100  0.926800  0.495600  1.0  0.0916
  H  H191  1  0.994800  0.004400  0.040900  1.0  0.1236
  H  H192  1  0.022900  0.876400  0.734800  1.0  0.0898
  H  H193  1  0.281100  0.695700  0.020900  1.0  0.1052
  H  H194  1  0.599400  0.041300  0.757000  1.0  0.1452
  H  H195  1  0.404300  0.091300  0.704900  1.0  0.0971
  H  H196  1  0.948000  0.423800  0.425900  1.0  0.1337
  H  H197  1  0.066400  0.991500  0.446900  1.0  0.1318
  H  H198  1  0.306100  0.742800  0.714500  1.0  0.0869
  H  H199  1  0.904300  0.408700  0.795100  1.0  0.0979
  H  H200  1  0.245200  0.350000  0.976200  1.0  0.1093
  H  H201  1  0.880000  0.055700  0.584100  1.0  0.1255
  H  H202  1  0.332100  0.161100  0.420900  1.0  0.1151
  H  H203  1  0.383800  0.810100  0.429200  1.0  0.107
  H  H204  1  0.745200  0.150000  0.523800  1.0  0.1098
  H  H205  1  0.989300  0.321400  0.465800  1.0  0.1089
  H  H206  1  0.510700  0.821400  0.965800  1.0  0.1091
  H  H207  1  0.472700  0.297400  0.527100  1.0  0.0982
  H  H208  1  0.277700  0.417300  0.867200  1.0  0.0989
  H  H209  1  0.175500  0.514300  0.746500  1.0  0.1464
  H  H210  1  0.713300  0.383200  0.177300  1.0  0.144
  H  H211  1  0.850300  0.081200  0.110200  1.0  0.1066
  H  H212  1  0.459700  0.414300  0.443500  1.0  0.1222
  H  H213  1  0.857400  0.618300  0.879600  1.0  0.1039
  H  H214  1  0.355300  0.776700  0.911400  1.0  0.1207
  H  H215  1  0.569400  0.011000  0.939700  1.0  0.1314
  H  H216  1  0.374700  0.914200  0.910800  1.0  0.1184
  H  H217  1  0.213300  0.116800  0.322700  1.0  0.1447
  H  H218  1  0.862800  0.894700  0.889600  1.0  0.1219
  H  H219  1  0.434400  0.911100  0.111200  1.0  0.1032
  H  H220  1  0.542300  0.965900  0.474300  1.0  0.0946
  H  H221  1  0.215000  0.194400  0.933500  1.0  0.1035
  H  H222  1  0.167900  0.661100  0.920900  1.0  0.1152
  H  H223  1  0.946800  0.696500  0.942100  1.0  0.1382
  H  H224  1  0.722300  0.582700  0.132800  1.0  0.1004
  H  H225  1  0.616200  0.189900  0.570800  1.0  0.1071
  H  H226  1  0.137200  0.105300  0.110400  1.0  0.1204
  H  H227  1  0.053200  0.303500  0.057900  1.0  0.1378
  H  H228  1  0.345800  0.502200  0.075000  1.0  0.1045
  H  H229  1  0.845900  0.994800  0.932800  1.0  0.1003
  H  H230  1  0.700100  0.629300  0.349300  1.0  0.1325
  H  H231  1  0.824700  0.201700  0.061200  1.0  0.1005
  H  H232  1  0.261400  0.298600  0.031300  1.0  0.1251
  H  H233  1  0.565600  0.088900  0.888800  1.0  0.1041
  H  H234  1  0.506800  0.733100  0.549900  1.0  0.1471
  H  H235  1  0.301400  0.038100  0.418500  1.0  0.1226
  H  H236  1  0.675300  0.701700  0.561200  1.0  0.1006
  H  H237  1  0.213600  0.896500  0.790100  1.0  0.1254
  H  H238  1  0.496700  0.599300  0.417600  1.0  0.111
  H  H239  1  0.559600  0.549300  0.181400  1.0  0.1006
  H  H240  1  0.552000  0.923800  0.925900  1.0  0.1342
  H  H241  1  0.286700  0.616800  0.822700  1.0  0.145
  H  H242  1  0.069400  0.489000  0.560300  1.0  0.1324
  H  H243  1  0.484900  0.910700  0.525100  1.0  0.1074
  H  H244  1  0.693900  0.257200  0.285500  1.0  0.0862
  H  H245  1  0.687900  0.116700  0.296800  1.0  0.1276
  H  H246  1  0.065600  0.411100  0.611200  1.0  0.103
  H  H247  1  0.595700  0.908700  0.295100  1.0  0.0977
  H  H248  1  0.489300  0.178600  0.034200  1.0  0.11
  H  H249  1  0.977100  0.123600  0.265200  1.0  0.089
  H  H250  1  0.359200  0.097700  0.771800  1.0  0.136
  H  H251  1  0.276100  0.564200  0.028500  1.0  0.1144
  H  H252  1  0.380000  0.444300  0.915900  1.0  0.1261
  H  H253  1  0.637200  0.394700  0.389600  1.0  0.1216
  H  H254  1  0.140800  0.597700  0.271800  1.0  0.1359
  H  H255  1  0.619500  0.562800  0.245900  1.0  0.1273
  H  H256  1  0.900600  0.541300  0.257000  1.0  0.1422
  H  H257  1  0.768100  0.557600  0.767200  1.0  0.1365
  H  H258  1  0.299900  0.370700  0.650700  1.0  0.1334
  H  H259  1  0.095700  0.591300  0.204900  1.0  0.0967
  H  H260  1  0.360900  0.540900  0.281800  1.0  0.1178
  H  H261  1  0.996900  0.073200  0.504400  1.0  0.091
  H  H262  1  0.373300  0.740400  0.366200  1.0  0.0959
  H  H263  1  0.806100  0.757200  0.785500  1.0  0.086
  H  H264  1  0.666500  0.718800  0.909100  1.0  0.0988
  H  H265  1  0.715000  0.305600  0.566500  1.0  0.1032
  H  H266  1  0.433600  0.491500  0.946900  1.0  0.132
  H  H267  1  0.840600  0.378500  0.901500  1.0  0.134
  H  H268  1  0.639100  0.459100  0.718200  1.0  0.1167
  H  H269  1  0.481400  0.682000  0.972000  1.0  0.1044
  H  H270  1  0.027300  0.797400  0.027100  1.0  0.0975
  H  H271  1  0.386300  0.448400  0.688700  1.0  0.1269
  H  H272  1  0.777700  0.082700  0.632800  1.0  0.0995
  H  H273  1  0.739600  0.319300  0.145200  1.0  0.1391
  H  H274  1  0.786700  0.883200  0.677300  1.0  0.1446
  H  H275  1  0.640700  0.959800  0.423400  1.0  0.1273
  H  H276  1  0.527300  0.702600  0.472900  1.0  0.0975
  H  H277  1  0.099400  0.458700  0.743000  1.0  0.1444
  H  H278  1  0.579200  0.350000  0.090700  1.0  0.0908
  H  H279  1  0.923200  0.313900  0.559100  1.0  0.1072
  H  H280  1  0.090100  0.739000  0.076400  1.0  0.1009
  H  H281  1  0.700400  0.348700  0.242100  1.0  0.0926
  H  H282  1  0.503100  0.573200  0.004400  1.0  0.0912
  H  H283  1  0.723900  0.435800  0.971500  1.0  0.115
  H  H284  1  0.312100  0.883300  0.703200  1.0  0.1281
  H  H285  1  0.585600  0.113300  0.826000  1.0  0.1094
  H  H286  1  0.654100  0.494800  0.432800  1.0  0.1007
  H  H287  1  0.930600  0.511000  0.439700  1.0  0.1318
  H  H288  1  0.518600  0.318000  0.028000  1.0  0.104
  H  H289  1  0.457700  0.034100  0.525700  1.0  0.0938
  H  H290  1  0.515100  0.089300  0.474900  1.0  0.1072
  H  H291  1  0.557600  0.410000  0.714000  1.0  0.1291
  H  H292  1  0.667900  0.838900  0.579100  1.0  0.1145
  H  H293  1  0.833500  0.218800  0.409100  1.0  0.099
  H  H294  1  0.972700  0.202600  0.972900  1.0  0.0984
  H  H295  1  0.675500  0.985700  0.753500  1.0  0.1464
  H  H296  1  0.920800  0.850000  0.590700  1.0  0.0909
  H  H297  1  0.380500  0.437200  0.754100  1.0  0.1281
  H  H298  1  0.010700  0.678600  0.534200  1.0  0.1103
  H  H299  1  0.781100  0.804300  0.479100  1.0  0.105
  H  H300  1  0.440400  0.450700  0.818600  1.0  0.1001
  H  H301  1  0.340600  0.121500  0.598500  1.0  0.1361
  H  H302  1  0.760400  0.819300  0.645200  1.0  0.1388
  H  H303  1  0.713600  0.603500  0.709900  1.0  0.1251
  H  H304  1  0.003300  0.099300  0.917600  1.0  0.1109
  H  H305  1  0.488600  0.903800  0.748000  1.0  0.1024
  H  H306  1  0.505200  0.504400  0.540900  1.0  0.1238
  H  H307  1  0.799900  0.129300  0.849300  1.0  0.1325
  H  H308  1  0.886300  0.051600  0.811300  1.0  0.1274
  H  H309  1  0.590100  0.761000  0.423600  1.0  0.1007
  H  H310  1  0.154200  0.002200  0.575000  1.0  0.1046
  H  H311  1  0.898200  0.202900  0.590800  1.0  0.1098
  H  H312  1  0.553200  0.196500  0.442100  1.0  0.1387
  H  H313  1  0.496900  0.426800  0.995600  1.0  0.092
  H  H314  1  0.059600  0.950700  0.318600  1.0  0.1001
  H  H315  1  0.942400  0.910000  0.214000  1.0  0.1271
  H  H316  1  0.996700  0.900700  0.082400  1.0  0.111
  H  H317  1  0.493200  0.266900  0.450100  1.0  0.1475
  H  H318  1  0.076800  0.686100  0.440900  1.0  0.1076
  H  H319  1  0.909900  0.261000  0.923600  1.0  0.1007
  H  H320  1  0.855300  0.723300  0.588600  1.0  0.1205
  H  H321  1  0.640800  0.902300  0.228200  1.0  0.1368
  H  H322  1  0.993200  0.233100  0.049900  1.0  0.1468
  H  H323  1  0.344000  0.010400  0.955000  1.0  0.1017
  H  H324  1  0.503300  0.400700  0.582400  1.0  0.1108
  C  C325  1  0.748500  0.349600  0.569870  1.0  0.0242
  C  C326  1  0.090500  0.448900  0.627900  1.0  -0.1495
  C  C327  1  0.994900  0.921300  0.729280  1.0  0.1655
  C  C328  1  0.152600  0.571500  0.640300  1.0  -0.1026
  C  C329  1  0.746700  0.842300  0.670700  1.0  -0.416
  C  C330  1  0.041100  0.588200  0.026000  1.0  -0.0902
  C  C331  1  0.497300  0.752800  0.852920  1.0  0.1646
  C  C332  1  0.195900  0.759700  0.953360  1.0  0.072
  C  C333  1  0.530900  0.756700  0.473900  1.0  -0.1277
  C  C334  1  0.501700  0.831300  0.993200  1.0  -0.3329
  C  C335  1  0.580600  0.122200  0.141350  1.0  0.1544
  C  C336  1  0.736200  0.547900  0.992200  1.0  0.1265
  C  C337  1  0.002700  0.252800  0.352920  1.0  0.1648
  C  C338  1  0.343700  0.785000  0.374330  1.0  0.0344
  C  C339  1  0.762900  0.608400  0.781100  1.0  -0.3877
  C  C340  1  0.431700  0.208100  0.555800  1.0  -0.07
  C  C341  1  0.001700  0.668700  0.506800  1.0  -0.3302
  C  C342  1  0.263800  0.452100  0.007800  1.0  0.1266
  C  C343  1  0.391300  0.709200  0.531510  1.0  0.689
  C  C344  1  0.603600  0.066200  0.834400  1.0  -0.1205
  C  C345  1  0.994800  0.378800  0.004400  1.0  -0.1893
  C  C346  1  0.810300  0.106200  0.307700  1.0  0.733
  C  C347  1  0.415500  0.054100  0.722120  1.0  0.0191
  C  C348  1  0.286100  0.757200  0.739100  1.0  -0.1421
  C  C349  1  0.864100  0.009200  0.151600  1.0  -0.1485
  C  C350  1  0.995400  0.187000  0.496400  1.0  -0.1377
  C  C351  1  0.285200  0.016700  0.440930  1.0  -0.1568
  C  C352  1  0.974500  0.720100  0.837060  1.0  0.1418
  C  C353  1  0.980800  0.121700  0.515700  1.0  -0.119
  C  C354  1  0.438600  0.234700  0.952100  1.0  -0.1237
  C  C355  1  0.588800  0.029500  0.187680  1.0  0.0955
  C  C356  1  0.818800  0.450600  0.557800  1.0  0.1473
  C  C357  1  0.607800  0.500900  0.318370  1.0  -0.2185
  C  C358  1  0.462300  0.951200  0.745330  1.0  0.1552
  C  C359  1  0.424300  0.556900  0.707180  1.0  0.1787
  C  C360  1  0.561400  0.765300  0.047900  1.0  -0.1317
  C  C361  1  0.173300  0.828500  0.580100  1.0  0.0505
  C  C362  1  0.661200  0.343400  0.702370  1.0  0.701
  C  C363  1  0.318800  0.049400  0.942200  1.0  0.1474
  C  C364  1  0.567800  0.103600  0.178330  1.0  -0.2039
  C  C365  1  0.890600  0.441600  0.740970  1.0  -0.1554
  C  C366  1  0.834700  0.440000  0.449530  1.0  0.6908
  C  C367  1  0.377400  0.463700  0.383500  1.0  -0.142
  C  C368  1  0.906600  0.464600  0.426570  1.0  -0.3051
  C  C369  1  0.246700  0.657700  0.829300  1.0  -0.4169
  C  C370  1  0.738700  0.118300  0.625480  1.0  0.1636
  C  C371  1  0.498300  0.168700  0.006800  1.0  -0.3345
  C  C372  1  0.401600  0.555100  0.337600  1.0  0.0594
  C  C373  1  0.498000  0.459200  0.898300  1.0  0.7352
  C  C374  1  0.826700  0.171500  0.419900  1.0  0.0518
  C  C375  1  0.131100  0.017900  0.145550  1.0  0.1085
  C  C376  1  0.622600  0.536300  0.616500  1.0  -0.142
  C  C377  1  0.253300  0.157700  0.329300  1.0  -0.4164
  C  C378  1  0.598400  0.444900  0.662400  1.0  0.0616
  C  C379  1  0.115700  0.588300  0.087400  1.0  -0.3614
  C  C380  1  0.695900  0.740300  0.546640  1.0  0.072
  C  C381  1  0.292400  0.900800  0.240160  1.0  0.7419
  C  C382  1  0.944100  0.430300  0.880900  1.0  0.7601
  C  C383  1  0.608700  0.290800  0.468490  1.0  0.6897
  C  C384  1  0.446800  0.469400  0.447650  1.0  -0.333
  C  C385  1  0.888900  0.918200  0.202500  1.0  -0.3641
  C  C386  1  0.098400  0.055100  0.837600  1.0  0.0593
  C  C387  1  0.739200  0.467800  0.993090  1.0  -0.1897
  C  C388  1  0.875000  0.475900  0.660430  1.0  -0.2012
  C  C389  1  0.828800  0.036900  0.919620  1.0  0.1548
  C  C390  1  0.435700  0.689900  0.894270  1.0  0.0572
  C  C391  1  0.142100  0.486000  0.691000  1.0  0.0623
  C  C392  1  0.161200  0.156600  0.797630  1.0  0.6993
  C  C393  1  0.883800  0.571300  0.613970  1.0  -0.208
  C  C394  1  0.075700  0.056900  0.207180  1.0  0.1792
  C  C395  1  0.550100  0.515700  0.200600  1.0  0.0497
  C  C396  1  0.622400  0.407100  0.365090  1.0  -0.2167
  C  C397  1  0.553200  0.530600  0.552350  1.0  -0.3326
  C  C398  1  0.207600  0.400800  0.740160  1.0  0.7414
  C  C399  1  0.237100  0.391600  0.218900  1.0  -0.3888
  C  C400  1  0.719300  0.062300  0.557610  1.0  0.1915
  C  C401  1  0.720400  0.879700  0.103830  1.0  -0.1773
  C  C402  1  0.755200  0.780500  0.698800  1.0  0.1369
  C  C403  1  0.103600  0.433800  0.665600  1.0  -0.1185
  C  C404  1  0.671200  0.536900  0.419620  1.0  0.1547
  C  C405  1  0.064300  0.189900  0.394270  1.0  0.0573
  C  C406  1  0.926200  0.371200  0.944400  1.0  0.1367
  C  C407  1  0.213900  0.257200  0.239100  1.0  -0.1422
  C  C408  1  0.962300  0.548800  0.754670  1.0  0.1545
  C  C409  1  0.463100  0.762400  0.538700  1.0  -0.3994
  C  C410  1  0.361900  0.001900  0.876130  1.0  0.1262
  C  C411  1  0.084500  0.554100  0.222120  1.0  0.0197
  C  C412  1  0.030900  0.743300  0.026100  1.0  -0.1292
  C  C413  1  0.964300  0.930100  0.100100  1.0  -0.1575
  C  C414  1  0.665300  0.944200  0.821700  1.0  -0.1344
  C  C415  1  0.850300  0.676400  0.090890  1.0  -0.1341
  C  C416  1  0.278200  0.354100  0.592970  1.0  0.0486
  C  C417  1  0.915900  0.023600  0.736100  1.0  -0.1542
  C  C418  1  0.689700  0.606200  0.807700  1.0  0.7252
  C  C419  1  0.432700  0.631400  0.697890  1.0  -0.2138
  C  C420  1  0.760800  0.967800  0.493090  1.0  -0.1867
  C  C421  1  0.933600  0.053500  0.571700  1.0  -0.396
  C  C422  1  0.901600  0.944900  0.162400  1.0  0.0618
  C  C423  1  0.142400  0.267600  0.131240  1.0  -0.1356
  C  C424  1  0.635900  0.509200  0.651600  1.0  -0.1466
  C  C425  1  0.590500  0.051100  0.872100  1.0  -0.1523
  C  C426  1  0.067800  0.396400  0.321670  1.0  -0.2036
  C  C427  1  0.549200  0.404800  0.635900  1.0  -0.1061
  C  C428  1  0.050100  0.984300  0.299400  1.0  0.0516
  C  C429  1  0.761300  0.618300  0.125480  1.0  0.164
  C  C430  1  0.929700  0.999100  0.090510  1.0  0.0964
  C  C431  1  0.998300  0.331300  0.493200  1.0  -0.3197
  C  C432  1  0.908800  0.850400  0.838490  1.0  0.1356
  C  C433  1  0.846600  0.531900  0.267600  1.0  -0.4062
  C  C434  1  0.913000  0.645000  0.499590  1.0  0.67
  C  C435  1  0.673300  0.671500  0.919900  1.0  0.0514
  C  C436  1  0.786900  0.162600  0.452820  1.0  -0.1741
  C  C437  1  0.384600  0.841600  0.631580  1.0  0.0188
  C  C438  1  0.999200  0.699300  0.995250  1.0  0.0836
  C  C439  1  0.347400  0.071500  0.140300  1.0  -0.103
  C  C440  1  0.892200  0.000900  0.818370  1.0  -0.2185
  C  C441  1  0.346600  0.968100  0.232400  1.0  -0.4068
  C  C442  1  0.350300  0.823600  0.409110  1.0  -0.1357
  C  C443  1  0.019200  0.878300  0.484300  1.0  -0.1267
  C  C444  1  0.384300  0.088300  0.587400  1.0  -0.3639
  C  C445  1  0.891300  0.790800  0.968490  1.0  0.688
  C  C446  1  0.409500  0.948900  0.127900  1.0  -0.145
  C  C447  1  0.567300  0.368600  0.302110  1.0  -0.2156
  C  C448  1  0.780700  0.562300  0.057610  1.0  0.1921
  C  C449  1  0.189700  0.893800  0.692300  1.0  0.7315
  C  C450  1  0.383800  0.928700  0.886030  1.0  -0.2094
  C  C451  1  0.076900  0.801700  0.433300  1.0  -0.067
  C  C452  1  0.753500  0.795600  0.501650  1.0  0.153
  C  C453  1  0.932200  0.603600  0.678330  1.0  -0.2002
  C  C454  1  0.713900  0.242800  0.260900  1.0  -0.1418
  C  C455  1  0.238300  0.331600  0.247400  1.0  0.1317
  C  C456  1  0.232500  0.846400  0.782800  1.0  -0.1656
  C  C457  1  0.334700  0.055800  0.178300  1.0  -0.134
  C  C458  1  0.785200  0.483300  0.059070  1.0  -0.1569
  C  C459  1  0.396400  0.933800  0.165600  1.0  -0.1193
  C  C460  1  0.642400  0.232400  0.368760  1.0  -0.135
  C  C461  1  0.221800  0.854100  0.092970  1.0  0.0476
  C  C462  1  0.433600  0.446500  0.928300  1.0  -0.3988
  C  C463  1  0.500800  0.199300  0.495250  1.0  0.0838
  C  C464  1  0.714800  0.983300  0.559070  1.0  -0.1589
  C  C465  1  0.005200  0.621200  0.995600  1.0  -0.1898
  C  C466  1  0.080600  0.377800  0.358650  1.0  0.1551
  C  C467  1  0.037700  0.451200  0.245330  1.0  0.1558
  C  C468  1  0.652600  0.928500  0.859700  1.0  -0.11
  C  C469  1  0.884600  0.658400  0.868420  1.0  0.0201
  C  C470  1  0.886600  0.481600  0.385450  1.0  0.1031
  C  C471  1  0.804100  0.240300  0.046640  1.0  0.0722
  C  C472  1  0.310300  0.393800  0.192300  1.0  0.7335
  C  C473  1  0.153400  0.468100  0.732400  1.0  -0.4082
  C  C474  1  0.000800  0.300700  0.004750  1.0  0.0839
  C  C475  1  0.251500  0.650400  0.430130  1.0  0.0251
  C  C476  1  0.444100  0.069700  0.619100  1.0  0.759
  C  C477  1  0.555900  0.930300  0.380900  1.0  0.7607
  C  C478  1  0.573800  0.871200  0.444400  1.0  0.1373
  C  C479  1  0.523900  0.759000  0.013000  1.0  0.056
  C  C480  1  0.804000  0.110000  0.873320  1.0  -0.1673
  C  C481  1  0.838000  0.379100  0.169200  1.0  0.6836
  C  C482  1  0.923100  0.198300  0.566700  1.0  -0.0672
  C  C483  1  0.390600  0.058400  0.759030  1.0  -0.157
  C  C484  1  0.377600  0.592900  0.634910  1.0  -0.217
  C  C485  1  0.857900  0.514000  0.309000  1.0  0.0626
  C  C486  1  0.122400  0.092900  0.134910  1.0  -0.216
  C  C487  1  0.729000  0.708500  0.691200  1.0  -0.1479
  C  C488  1  0.458900  0.088200  0.526000  1.0  -0.0964
  C  C489  1  0.615700  0.911700  0.412600  1.0  -0.3612
  C  C490  1  0.847400  0.428500  0.359700  1.0  -0.1053
  C  C491  1  0.943800  0.125900  0.550400  1.0  0.0702
  C  C492  1  0.125000  0.524100  0.339570  1.0  -0.2013
  C  C493  1  0.091200  0.149600  0.161510  1.0  0.1351
  C  C494  1  0.732500  0.653600  0.717200  1.0  -0.1603
  C  C495  1  0.138100  0.501900  0.376130  1.0  0.1267
  C  C496  1  0.004600  0.813000  0.503600  1.0  -0.1387
  C  C497  1  0.025500  0.279900  0.162940  1.0  0.1419
  C  C498  1  0.696000  0.610000  0.373320  1.0  -0.168
  C  C499  1  0.935700  0.810100  0.605730  1.0  0.0574
  C  C500  1  0.494800  0.121200  0.495600  1.0  -0.1877
  C  C501  1  0.499200  0.800700  0.504750  1.0  0.0834
  C  C502  1  0.334700  0.060000  0.050470  1.0  0.6912
  C  C503  1  0.093400  0.535400  0.573430  1.0  -0.3054
  C  C504  1  0.587000  0.145000  0.999590  1.0  0.6714
  C  C505  1  0.495400  0.313000  0.003600  1.0  -0.1391
  C  C506  1  0.616200  0.071300  0.113970  1.0  -0.2077
  C  C507  1  0.116200  0.428700  0.386030  1.0  -0.2093
  C  C508  1  0.767500  0.153600  0.217200  1.0  -0.1645
  C  C509  1  0.761700  0.668400  0.752600  1.0  0.1319
  C  C510  1  0.443800  0.374100  0.949600  1.0  0.0702
  C  C511  1  0.611100  0.418200  0.702500  1.0  -0.3637
  C  C512  1  0.833600  0.050700  0.428460  1.0  0.1612
  C  C513  1  0.779600  0.379700  0.603830  1.0  -0.1838
  C  C514  1  0.066400  0.946500  0.428300  1.0  -0.4
  C  C515  1  0.564300  0.310100  0.105730  1.0  0.0573
  C  C516  1  0.450800  0.595200  0.364100  1.0  -0.1064
  C  C517  1  0.662000  0.879100  0.669200  1.0  0.6759
  C  C518  1  0.406600  0.035400  0.073430  1.0  -0.3038
  C  C519  1  0.426200  0.128800  0.555600  1.0  0.137
  C  C520  1  0.541100  0.911800  0.474000  1.0  -0.0983
  C  C521  1  0.375000  0.024100  0.839570  1.0  -0.1997
  C  C522  1  0.576900  0.698300  0.066700  1.0  -0.0691
  C  C523  1  0.519200  0.621700  0.015700  1.0  -0.1266
  C  C524  1  0.408800  0.649600  0.661510  1.0  0.1355
  C  C525  1  0.744800  0.280500  0.198800  1.0  0.1377
  C  C526  1  0.115400  0.341600  0.131580  1.0  0.0196
  C  C527  1  0.969100  0.256700  0.973900  1.0  -0.1279
  C  C528  1  0.262900  0.891600  0.718900  1.0  -0.3875
  C  C529  1  0.474500  0.779900  0.662940  1.0  0.1401
  C  C530  1  0.681200  0.950600  0.057800  1.0  0.1481
  C  C531  1  0.181200  0.549400  0.442200  1.0  0.1479
  C  C532  1  0.950800  0.904800  0.135900  1.0  -0.1088
  C  C533  1  0.328800  0.463100  0.580380  1.0  0.1544
  C  C534  1  0.261300  0.881700  0.374520  1.0  0.1638
  C  C535  1  0.665300  0.940000  0.949530  1.0  0.693
  C  C536  1  0.756800  0.596000  0.024360  1.0  -0.175
  C  C537  1  0.535700  0.430100  0.600100  1.0  -0.1507
  C  C538  1  0.638100  0.998100  0.123870  1.0  0.1269
  C  C539  1  0.998000  0.040800  0.601700  1.0  0.7341
  C  C540  1  0.786100  0.742800  0.760900  1.0  -0.1416
  C  C541  1  0.304000  0.390000  0.626680  1.0  -0.1643
  C  C542  1  0.248500  0.150400  0.930130  1.0  0.0247
  C  C543  1  0.238700  0.381700  0.874520  1.0  0.1631
  C  C544  1  0.260800  0.532200  0.006910  1.0  -0.1874
  C  C545  1  0.877600  0.907100  0.865090  1.0  -0.2182
  C  C546  1  0.476100  0.241000  0.987000  1.0  0.0559
  C  C547  1  0.843700  0.715000  0.125670  1.0  0.0344
  C  C548  1  0.267500  0.346400  0.282800  1.0  -0.1651
  C  C549  1  0.958900  0.411800  0.974000  1.0  -0.0975
  C  C550  1  0.949900  0.015700  0.700600  1.0  0.0498
  C  C551  1  0.214800  0.516700  0.940930  1.0  -0.1583
  C  C552  1  0.932700  0.868600  0.802110  1.0  -0.2136
  C  C553  1  0.419400  0.877800  0.858650  1.0  0.1553
  C  C554  1  0.113400  0.518400  0.614550  1.0  0.1031
  C  C555  1  0.911200  0.529500  0.687680  1.0  0.0945
  C  C556  1  0.713100  0.662600  0.952820  1.0  -0.1725
  C  C557  1  0.135900  0.990800  0.848400  1.0  -0.1443
  C  C558  1  0.536900  0.237600  0.461300  1.0  -0.4001
  C  C559  1  0.220400  0.620300  0.396170  1.0  -0.1778
  C  C560  1  0.005100  0.078700  0.270720  1.0  0.1654
  C  C561  1  0.884300  0.411700  0.912600  1.0  -0.3623
  C  C562  1  0.338800  0.656600  0.297630  1.0  0.7029
  C  C563  1  0.217300  0.202000  0.265200  1.0  -0.1864
  C  C564  1  0.649700  0.176400  0.590890  1.0  -0.1342
  C  C565  1  0.235100  0.564800  0.973940  1.0  0.1199
  C  C566  1  0.480800  0.378300  0.984300  1.0  -0.1177
  C  C567  1  0.073800  0.628800  0.055600  1.0  0.1375
  C  C568  1  0.261700  0.831600  0.747400  1.0  0.132
  C  C569  1  0.087000  0.355000  0.500410  1.0  0.672
  C  C570  1  0.642100  0.014000  0.809000  1.0  0.0627
  C  C571  1  0.368900  0.517900  0.645550  1.0  0.1084
  C  C572  1  0.909500  0.551100  0.372100  1.0  -0.1518
  C  C573  1  0.691300  0.815600  0.556740  1.0  -0.1379
  C  C574  1  0.171200  0.963100  0.080380  1.0  0.1549
  C  C575  1  0.308700  0.184400  0.443260  1.0  -0.1379
  C  C576  1  0.834700  0.444200  0.321700  1.0  -0.1251
  C  C577  1  0.931700  0.291900  0.944200  1.0  -0.0688
  C  C578  1  0.494900  0.578700  0.770720  1.0  0.166
  C  C579  1  0.707600  0.099200  0.759840  1.0  0.7405
  C  C580  1  0.279600  0.120300  0.896170  1.0  -0.1847
  C  C581  1  0.196000  0.890000  0.126680  1.0  -0.169
  C  C582  1  0.084100  0.976400  0.263900  1.0  -0.1511
  C  C583  1  0.357900  0.986000  0.191000  1.0  0.0619
  C  C584  1  0.449900  0.484300  0.799400  1.0  0.0515
  C  C585  1  0.246500  0.204400  0.498350  1.0  0.1515
  C  C586  1  0.861900  0.498100  0.623870  1.0  0.1264
  C  C587  1  0.271000  0.291500  0.308800  1.0  -0.1465
  C  C588  1  0.165300  0.560000  0.550470  1.0  0.6932
  C  C589  1  0.746500  0.295600  0.001650  1.0  0.1536
  C  C590  1  0.191300  0.684400  0.943260  1.0  -0.1419
  C  C591  1  0.333600  0.449300  0.071540  1.0  0.1618
  C  C592  1  0.388900  0.581800  0.297500  1.0  -0.3632
  C  C593  1  0.411200  0.970500  0.812320  1.0  0.0943
  C  C594  1  0.219300  0.437700  0.942390  1.0  0.1904
  C  C595  1  0.868900  0.982100  0.854450  1.0  0.1084
  C  C596  1  0.229000  0.791500  0.808800  1.0  -0.1474
  C  C597  1  0.653400  0.031900  0.767600  1.0  -0.4066
  C  C598  1  0.782700  0.798000  0.734800  1.0  -0.1852
  C  C599  1  0.165300  0.555800  0.678300  1.0  -0.1346
  C  C600  1  0.737100  0.108400  0.281100  1.0  -0.3876
  C  C601  1  0.877400  0.036300  0.116500  1.0  -0.1429
  C  C602  1  0.061400  0.734700  0.452100  1.0  -0.1233
  C  C603  1  0.896400  0.566200  0.334400  1.0  -0.1198
  C  C604  1  0.253500  0.704400  0.998350  1.0  0.1517
  C  C605  1  0.875200  0.020200  0.024730  1.0  0.7439
  C  C606  1  0.244800  0.219500  0.301200  1.0  0.1384
  C  C607  1  0.899100  0.740500  0.604340  1.0  -0.1446
  C  C608  1  0.976100  0.259000  0.513000  1.0  0.056
  C  C609  1  0.124800  0.979800  0.975270  1.0  0.7452
  C  C610  1  0.504600  0.687000  0.996400  1.0  -0.1305
  C  C611  1  0.243200  0.404000  0.975640  1.0  -0.1742
  C  C612  1  0.505200  0.878800  0.504400  1.0  -0.1893
  C  C613  1  0.375200  0.479800  0.475270  1.0  0.7388
  C  C614  1  0.392200  0.499100  0.681630  1.0  -0.2192
  C  C615  1  0.575700  0.443100  0.292820  1.0  0.1789
  C  C616  1  0.023900  0.741000  0.487000  1.0  0.056
  C  C617  1  0.613400  0.981600  0.885450  1.0  0.1029
  C  C618  1  0.282700  0.702000  0.765200  1.0  -0.1844
  C  C619  1  0.568300  0.791900  0.444200  1.0  -0.0694
  C  C620  1  0.656300  0.215000  0.625670  1.0  0.0352
  C  C621  1  0.036900  0.262400  0.038700  1.0  -0.4
  C  C622  1  0.304100  0.259700  0.453360  1.0  0.0721
  C  C623  1  0.415900  0.476400  0.763900  1.0  -0.1501
  C  C624  1  0.055900  0.569700  0.119100  1.0  0.7596
  C  C625  1  0.600900  0.240500  0.104340  1.0  -0.1454
  C  C626  1  0.053200  0.969400  0.947650  1.0  -0.3327
  C  C627  1  0.717300  0.298000  0.234800  1.0  -0.1873
  C  C628  1  0.946800  0.030600  0.052350  1.0  -0.3449
  C  C629  1  0.326700  0.328500  0.080100  1.0  0.0509
  C  C630  1  0.808700  0.315600  0.056740  1.0  -0.1371
  C  C631  1  0.423100  0.301700  0.933300  1.0  -0.0661
  C  C632  1  0.566400  0.553500  0.071700  1.0  -0.3988
  C  C633  1  0.838800  0.843400  0.202370  1.0  0.6991
  C  C634  1  0.357600  0.767600  0.631240  1.0  -0.1355
  C  C635  1  0.100900  0.259500  0.395660  1.0  -0.1449
  C  C636  1  0.615400  0.158400  0.368420  1.0  0.0195
  C  C637  1  0.778200  0.145900  0.907030  1.0  0.0477
  C  C638  1  0.049200  0.095200  0.864100  1.0  -0.1068
  C  C639  1  0.591200  0.350400  0.338490  1.0  0.1351
  C  C640  1  0.149700  0.323600  0.909110  1.0  -0.1361
  C  C641  1  0.963100  0.737600  0.961300  1.0  -0.3994
  C  C642  1  0.255200  0.719500  0.801200  1.0  0.1376
  C  C643  1  0.792400  0.599200  0.259840  1.0  0.7409
  C  C644  1  0.584100  0.523600  0.236100  1.0  -0.1506
  C  C645  1  0.108700  0.209200  0.031510  1.0  0.6899
  C  C646  1  0.432200  0.896400  0.821670  1.0  -0.2
  C  C647  1  0.537700  0.048800  0.254670  1.0  0.1547
  C  C648  1  0.213100  0.837400  0.547180  1.0  -0.1724
  C  C649  1  0.399100  0.759500  0.895660  1.0  -0.1465
  C  C650  1  0.386600  0.018400  0.114550  1.0  0.1033
  C  C651  1  0.088800  0.470500  0.312320  1.0  0.0953
  C  C652  1  0.915500  0.445900  0.777880  1.0  0.0185
  C  C653  1  0.631100  0.482100  0.354450  1.0  0.1086
  C  C654  1  0.469100  0.243300  0.526100  1.0  -0.1348
  C  C655  1  0.609400  0.941600  0.240970  1.0  -0.1541
  C  C656  1  0.286900  0.337400  0.047180  1.0  -0.1793
  C  C657  1  0.239200  0.032200  0.506910  1.0  -0.1888
  C  C658  1  0.002000  0.959200  0.398300  1.0  0.7349
  C  C659  1  0.111100  0.081800  0.797500  1.0  -0.3645
  C  C660  1  0.764900  0.435200  0.026060  1.0  0.1203
  C  C661  1  0.236200  0.952100  0.507800  1.0  0.1265
  C  C662  1  0.067300  0.131400  0.197890  1.0  -0.2153
  C  C663  1  0.625000  0.975900  0.160430  1.0  -0.2025
  C  C664  1  0.056200  0.874100  0.449600  1.0  0.0702
  C  C665  1  0.593400  0.964600  0.926570  1.0  -0.304
  C  C666  1  0.107800  0.999100  0.181630  1.0  -0.2192
  C  C667  1  0.068300  0.708100  0.055800  1.0  -0.0702
  C  C668  1  0.413000  0.855000  0.000410  1.0  0.6699
  C  C669  1  0.505100  0.421300  0.229280  1.0  0.1655
  C  C670  1  0.743200  0.096000  0.524360  1.0  -0.1759
  C  C671  1  0.584500  0.945900  0.277880  1.0  0.0186
  C  C672  1  0.919400  0.622200  0.641350  1.0  0.1545
  C  C673  1  0.924300  0.943100  0.792820  1.0  0.1786
  C  C674  1  0.721800  0.645900  0.407030  1.0  0.0474
  C  C675  1  0.738300  0.168400  0.252600  1.0  0.1317
  C  C676  1  0.256800  0.904000  0.475640  1.0  -0.1733
  C  C677  1  0.997300  0.747200  0.647080  1.0  0.1644
  C  C678  1  0.771000  0.208500  0.191200  1.0  -0.1466
  C  C679  1  0.525500  0.220100  0.337060  1.0  0.1425
  C  C680  1  0.938600  0.265300  0.547900  1.0  -0.1323
  C  C681  1  0.035700  0.069900  0.899900  1.0  -0.156
  C  C682  1  0.763800  0.047900  0.492200  1.0  0.1268
  C  C683  1  0.162000  0.620900  0.830800  1.0  0.6816
  C  C684  1  0.122600  0.963700  0.883500  1.0  -0.1413
  C  C685  1  0.624800  0.520200  0.524730  1.0  0.745
  C  C686  1  0.166400  0.949300  0.571540  1.0  0.1616
  C  C687  1  0.751500  0.849600  0.069870  1.0  0.0245
  C  C688  1  0.464300  0.569900  0.399900  1.0  -0.1519
  C  C689  1  0.156300  0.285000  0.874330  1.0  0.0356
  C  C690  1  0.364100  0.490800  0.348400  1.0  -0.1448
  C  C691  1  0.264900  0.064800  0.473940  1.0  0.1201
  C  C692  1  0.570300  0.499100  0.590510  1.0  0.0964
  C  C693  1  0.338000  0.120900  0.330800  1.0  0.6829
  C  C694  1  0.070300  0.000900  0.909490  1.0  0.0966
  C  C695  1  0.502700  0.247200  0.147080  1.0  0.1642
  C  C696  1  0.502000  0.540800  0.101700  1.0  0.7332
  C  C697  1  0.753300  0.342300  0.170700  1.0  -0.4158
  C  C698  1  0.857600  0.732400  0.868760  1.0  -0.1402
  C  C699  1  0.429700  0.500900  0.409490  1.0  0.0965
  C  C700  1  0.109400  0.558400  0.259030  1.0  -0.1566
  C  C701  1  0.735100  0.935200  0.526060  1.0  0.1201
  C  C702  1  0.556200  0.625900  0.050400  1.0  0.0708
  C  C703  1  0.280700  0.937700  0.442390  1.0  0.1912
  C  C704  1  0.666400  0.550700  0.928460  1.0  0.1606
  N  N705  1  0.725900  0.894200  0.041130  1.0  -0.3586
  N  N706  1  0.213000  0.320500  0.852410  1.0  -0.3956
  N  N707  1  0.002000  0.184800  0.367790  1.0  -0.4015
  N  N708  1  0.323400  0.055500  0.903420  1.0  0.0457
  N  N709  1  0.499800  0.548200  0.803460  1.0  -0.37
  N  N710  1  0.085000  0.228800  0.151690  1.0  0.0435
  N  N711  1  0.299300  0.885800  0.409590  1.0  0.0341
  N  N712  1  0.959200  0.650700  0.848880  1.0  -0.3923
  N  N713  1  0.578500  0.007800  0.226070  1.0  0.0382
  N  N714  1  0.939600  0.699000  0.631090  1.0  0.0373
  N  N715  1  0.498000  0.684800  0.867790  1.0  -0.4001
  N  N716  1  0.144000  0.898000  0.595530  1.0  -0.3725
  N  N717  1  0.856000  0.102000  0.404470  1.0  -0.3739
  N  N718  1  0.705900  0.599400  0.436080  1.0  -0.3701
  N  N719  1  0.078500  0.492200  0.273930  1.0  0.0372
  N  N720  1  0.176600  0.555500  0.403420  1.0  0.0452
  N  N721  1  0.915000  0.771200  0.848310  1.0  0.0446
  N  N722  1  0.709000  0.583800  0.958600  1.0  0.0266
  N  N723  1  0.772400  0.353400  0.027840  1.0  0.0416
  N  N724  1  0.274100  0.105800  0.958870  1.0  -0.3589
  N  N725  1  0.287000  0.820500  0.352410  1.0  -0.396
  N  N726  1  0.444700  0.538000  0.745510  1.0  0.0408
  N  N727  1  0.998000  0.815200  0.632210  1.0  -0.4005
  N  N728  1  0.162900  0.959900  0.118920  1.0  0.0437
  N  N729  1  0.791000  0.083800  0.458600  1.0  0.0259
  N  N730  1  0.439600  0.801000  0.868910  1.0  0.0375
  N  N731  1  0.837100  0.040100  0.881080  1.0  0.0448
  N  N732  1  0.676600  0.944500  0.096580  1.0  0.0448
  N  N733  1  0.039700  0.486300  0.213360  1.0  -0.3865
  N  N734  1  0.774100  0.394200  0.541130  1.0  -0.3588
  N  N735  1  0.294100  0.400600  0.563920  1.0  -0.3696
  N  N736  1  0.794100  0.099400  0.936080  1.0  -0.3701
  N  N737  1  0.205900  0.900600  0.063920  1.0  -0.3699
  N  N738  1  0.713000  0.179500  0.647590  1.0  -0.3925
  N  N739  1  0.227600  0.646600  0.972160  1.0  0.0427
  N  N740  1  0.060400  0.301000  0.368910  1.0  0.0375
  N  N741  1  0.234800  0.774200  0.987900  1.0  -0.4028
  N  N742  1  0.421500  0.992200  0.773930  1.0  0.0371
  N  N743  1  0.459200  0.849300  0.651120  1.0  -0.3919
  N  N744  1  0.265200  0.274200  0.487900  1.0  -0.4039
  N  N745  1  0.662900  0.540100  0.381080  1.0  0.0443
  N  N746  1  0.337100  0.459900  0.618920  1.0  0.0443
  N  N747  1  0.540800  0.150700  0.348880  1.0  -0.3936
  N  N748  1  0.000200  0.048200  0.303460  1.0  -0.3705
  N  N749  1  0.727600  0.853400  0.527840  1.0  0.0419
  N  N750  1  0.765200  0.225800  0.012100  1.0  -0.4025
  N  N751  1  0.944700  0.962000  0.754490  1.0  0.0397
  N  N752  1  0.272400  0.146600  0.472160  1.0  0.0423
  N  N753  1  0.500200  0.451800  0.196540  1.0  -0.3717
  N  N754  1  0.555300  0.462000  0.254490  1.0  0.0397
  N  N755  1  0.734800  0.725800  0.512100  1.0  -0.4018
  N  N756  1  0.999800  0.951800  0.696540  1.0  -0.3721
  N  N757  1  0.502000  0.315200  0.132210  1.0  -0.4013
  N  N758  1  0.415000  0.728800  0.651690  1.0  0.0443
  N  N759  1  0.209000  0.916200  0.541400  1.0  0.028
  N  N760  1  0.823400  0.444500  0.596580  1.0  0.0453
  N  N761  1  0.921500  0.507800  0.726070  1.0  0.0379
  N  N762  1  0.799300  0.614200  0.090410  1.0  0.0348
  N  N763  1  0.356000  0.398000  0.095530  1.0  -0.3726
  N  N764  1  0.539700  0.013700  0.286640  1.0  -0.3871
  N  N765  1  0.460300  0.986300  0.713360  1.0  -0.386
  N  N766  1  0.200700  0.385800  0.909590  1.0  0.0338
  N  N767  1  0.700700  0.114200  0.590410  1.0  0.0339
  N  N768  1  0.585000  0.271200  0.348310  1.0  0.0437
  N  N769  1  0.055300  0.038000  0.245510  1.0  0.0411
  N  N770  1  0.225900  0.605800  0.458870  1.0  -0.3585
  N  N771  1  0.787000  0.679500  0.147590  1.0  -0.3953
  N  N772  1  0.960300  0.513700  0.786640  1.0  -0.3857
  N  N773  1  0.644000  0.602000  0.904470  1.0  -0.3735
  N  N774  1  0.291000  0.416200  0.041400  1.0  0.0273
  N  N775  1  0.560400  0.199000  0.131090  1.0  0.0372
  N  N776  1  0.040800  0.349300  0.151120  1.0  -0.3941
  O  O777  1  0.460800  0.001500  0.622730  1.0  -0.6043
  O  O778  1  0.300500  0.013700  0.026320  1.0  -0.6653
  O  O779  1  0.676800  0.544800  0.824110  1.0  -0.5791
  O  O780  1  0.679200  0.572000  0.525450  1.0  -0.5977
  O  O781  1  0.993000  0.977800  0.616180  1.0  -0.5943
  O  O782  1  0.320800  0.428000  0.474550  1.0  -0.5983
  O  O783  1  0.507000  0.477800  0.116180  1.0  -0.5945
  O  O784  1  0.860500  0.407800  0.138590  1.0  -0.5782
  O  O785  1  0.176800  0.955200  0.675890  1.0  -0.5788
  O  O786  1  0.844200  0.784400  0.997170  1.0  -0.5874
  O  O787  1  0.493000  0.522200  0.883820  1.0  -0.5934
  O  O788  1  0.690400  0.870300  0.945180  1.0  -0.5986
  O  O789  1  0.820800  0.072000  0.025450  1.0  -0.5977
  O  O790  1  0.253600  0.371100  0.714660  1.0  -0.6081
  O  O791  1  0.793800  0.618800  0.225790  1.0  -0.612
  O  O792  1  0.378400  0.842500  0.031900  1.0  -0.577
  O  O793  1  0.360500  0.092200  0.361410  1.0  -0.5778
  O  O794  1  0.323200  0.455200  0.175890  1.0  -0.5788
  O  O795  1  0.446400  0.589000  0.108760  1.0  -0.569
  O  O796  1  0.800500  0.486300  0.473680  1.0  -0.6648
  O  O797  1  0.699500  0.986300  0.973680  1.0  -0.6647
  O  O798  1  0.553600  0.411000  0.891240  1.0  -0.5714
  O  O799  1  0.125100  0.040900  0.997100  1.0  -0.6025
  O  O800  1  0.884100  0.381100  0.197880  1.0  -0.5736
  O  O801  1  0.139500  0.592200  0.861410  1.0  -0.5775
  O  O802  1  0.809600  0.370300  0.445180  1.0  -0.5985
  O  O803  1  0.615900  0.881100  0.697880  1.0  -0.5733
  O  O804  1  0.627100  0.113100  0.024830  1.0  -0.5872
  O  O805  1  0.753600  0.128900  0.785340  1.0  -0.6121
  O  O806  1  0.621600  0.157500  0.968100  1.0  -0.5764
  O  O807  1  0.121600  0.342500  0.531900  1.0  -0.5772
  O  O808  1  0.624000  0.339900  0.445220  1.0  -0.6267
  O  O809  1  0.856200  0.163900  0.312960  1.0  -0.5783
  O  O810  1  0.039200  0.501500  0.122730  1.0  -0.6044
  O  O811  1  0.706200  0.118800  0.725790  1.0  -0.6122
  O  O812  1  0.374900  0.540900  0.497100  1.0  -0.6014
  O  O813  1  0.356200  0.336100  0.187040  1.0  -0.5774
  O  O814  1  0.124000  0.160100  0.054780  1.0  -0.6266
  O  O815  1  0.643800  0.663900  0.812960  1.0  -0.5776
  O  O816  1  0.384100  0.118900  0.302120  1.0  -0.574
  O  O817  1  0.129300  0.217900  0.786740  1.0  -0.5618
  O  O818  1  0.115900  0.618900  0.802120  1.0  -0.5738
  O  O819  1  0.629300  0.282100  0.713260  1.0  -0.5653
  O  O820  1  0.874900  0.959100  0.002900  1.0  -0.6022
  O  O821  1  0.376000  0.660100  0.554780  1.0  -0.626
  O  O822  1  0.246400  0.871100  0.214660  1.0  -0.609
  O  O823  1  0.155800  0.215600  0.002830  1.0  -0.585
  O  O824  1  0.972000  0.373100  0.860080  1.0  -0.5907
  O  O825  1  0.206200  0.381200  0.774210  1.0  -0.6134
  O  O826  1  0.823200  0.044800  0.324110  1.0  -0.5783
  O  O827  1  0.946400  0.911000  0.391240  1.0  -0.5714
  O  O828  1  0.539200  0.998500  0.377270  1.0  -0.6042
  O  O829  1  0.179200  0.928000  0.974550  1.0  -0.5974
  O  O830  1  0.872900  0.613100  0.524830  1.0  -0.5871
  O  O831  1  0.765000  0.842000  0.191320  1.0  -0.5841
  O  O832  1  0.876000  0.839900  0.945220  1.0  -0.6264
  O  O833  1  0.053600  0.089000  0.608760  1.0  -0.5697
  O  O834  1  0.878400  0.657500  0.468100  1.0  -0.5764
  O  O835  1  0.007000  0.022200  0.383820  1.0  -0.5937
  O  O836  1  0.127100  0.386900  0.475170  1.0  -0.5877
  O  O837  1  0.639500  0.907800  0.638590  1.0  -0.5775
  O  O838  1  0.870700  0.782100  0.213260  1.0  -0.5637
  O  O839  1  0.370700  0.717900  0.286740  1.0  -0.5628
  O  O840  1  0.960800  0.498500  0.877270  1.0  -0.604
  O  O841  1  0.655800  0.284400  0.497170  1.0  -0.587
  O  O842  1  0.028000  0.626900  0.139920  1.0  -0.5924
  O  O843  1  0.735000  0.342000  0.691320  1.0  -0.5844
  O  O844  1  0.190400  0.629700  0.554820  1.0  -0.5975
  O  O845  1  0.625100  0.459100  0.502900  1.0  -0.6029
  O  O846  1  0.472000  0.126900  0.639920  1.0  -0.5944
  O  O847  1  0.344200  0.715600  0.502830  1.0  -0.5858
  O  O848  1  0.746400  0.628900  0.285340  1.0  -0.613
  O  O849  1  0.528000  0.873100  0.360080  1.0  -0.5925
  O  O850  1  0.235000  0.158000  0.808680  1.0  -0.5845
  O  O851  1  0.199500  0.513700  0.526320  1.0  -0.6653
  O  O852  1  0.143800  0.836100  0.687040  1.0  -0.5774
  O  O853  1  0.265000  0.658000  0.308680  1.0  -0.5835
  O  O854  1  0.309600  0.129700  0.054820  1.0  -0.5973
  O  O855  1  0.293800  0.881200  0.274210  1.0  -0.6132
  O  O856  1  0.372900  0.886900  0.975170  1.0  -0.5873
