# generated using pymatgen
data_Cu4NiH21C56(NO4)4
_symmetry_space_group_name_H-M   'P 1'
_cell_length_a   28.55000000
_cell_length_b   28.55000000
_cell_length_c   27.05940000
_cell_angle_alpha   90.00000000
_cell_angle_beta   90.00000000
_cell_angle_gamma   90.00000000
_symmetry_Int_Tables_number   1
_chemical_formula_structural   Cu4NiH21C56(NO4)4
_chemical_formula_sum   'Cu32 Ni8 H168 C448 N32 O128'
_cell_volume   22056.18458850
_cell_formula_units_Z   8
loop_
 _symmetry_equiv_pos_site_id
 _symmetry_equiv_pos_as_xyz
  1  'x, y, z'
loop_
 _atom_site_type_symbol
 _atom_site_label
 _atom_site_symmetry_multiplicity
 _atom_site_fract_x
 _atom_site_fract_y
 _atom_site_fract_z
 _atom_site_occupancy
 _atom_site_charge
  Cu  Cu1  1  0.035050  0.263380  0.213720  1.0  0.9067
  Cu  Cu2  1  0.027900  0.205070  0.290910  1.0  0.928
  Cu  Cu3  1  0.964950  0.736620  0.213720  1.0  0.9074
  Cu  Cu4  1  0.972100  0.794930  0.290910  1.0  0.9286
  Cu  Cu5  1  0.736620  0.035050  0.213720  1.0  0.9084
  Cu  Cu6  1  0.794930  0.027900  0.290910  1.0  0.9301
  Cu  Cu7  1  0.263380  0.964950  0.213720  1.0  0.9071
  Cu  Cu8  1  0.205070  0.972100  0.290910  1.0  0.9293
  Cu  Cu9  1  0.464950  0.763380  0.786280  1.0  0.9094
  Cu  Cu10  1  0.472100  0.705070  0.709090  1.0  0.9281
  Cu  Cu11  1  0.535050  0.236620  0.786280  1.0  0.9077
  Cu  Cu12  1  0.527900  0.294930  0.709090  1.0  0.9271
  Cu  Cu13  1  0.763380  0.535050  0.786280  1.0  0.909
  Cu  Cu14  1  0.705070  0.527900  0.709090  1.0  0.929
  Cu  Cu15  1  0.236620  0.464950  0.786280  1.0  0.9089
  Cu  Cu16  1  0.294930  0.472100  0.709090  1.0  0.9279
  Cu  Cu17  1  0.964950  0.736620  0.786280  1.0  0.9077
  Cu  Cu18  1  0.972100  0.794930  0.709090  1.0  0.9267
  Cu  Cu19  1  0.035050  0.263380  0.786280  1.0  0.9091
  Cu  Cu20  1  0.027900  0.205070  0.709090  1.0  0.9289
  Cu  Cu21  1  0.263380  0.964950  0.786280  1.0  0.9092
  Cu  Cu22  1  0.205070  0.972100  0.709090  1.0  0.9291
  Cu  Cu23  1  0.736620  0.035050  0.786280  1.0  0.9087
  Cu  Cu24  1  0.794930  0.027900  0.709090  1.0  0.9281
  Cu  Cu25  1  0.535050  0.236620  0.213720  1.0  0.9071
  Cu  Cu26  1  0.527900  0.294930  0.290910  1.0  0.9281
  Cu  Cu27  1  0.464950  0.763380  0.213720  1.0  0.9072
  Cu  Cu28  1  0.472100  0.705070  0.290910  1.0  0.9279
  Cu  Cu29  1  0.236620  0.464950  0.213720  1.0  0.9081
  Cu  Cu30  1  0.294930  0.472100  0.290910  1.0  0.9297
  Cu  Cu31  1  0.763380  0.535050  0.213720  1.0  0.9071
  Cu  Cu32  1  0.705070  0.527900  0.290910  1.0  0.9295
  Ni  Ni33  1  0.774130  0.274130  0.000000  1.0  0.4811
  Ni  Ni34  1  0.225870  0.725870  0.000000  1.0  0.4803
  Ni  Ni35  1  0.725870  0.774130  0.000000  1.0  0.481
  Ni  Ni36  1  0.274130  0.225870  0.000000  1.0  0.4803
  Ni  Ni37  1  0.793530  0.293530  0.500000  1.0  0.4247
  Ni  Ni38  1  0.206470  0.706470  0.500000  1.0  0.4253
  Ni  Ni39  1  0.706470  0.793530  0.500000  1.0  0.425
  Ni  Ni40  1  0.293530  0.206470  0.500000  1.0  0.4251
  H  H41  1  0.804700  0.243900  0.181900  1.0  0.1112
  H  H42  1  0.893600  0.149400  0.044700  1.0  0.1129
  H  H43  1  0.911700  0.228000  0.138300  1.0  0.1083
  H  H44  1  0.904500  0.125500  0.240000  1.0  0.1095
  H  H45  1  0.806500  0.136700  0.133700  1.0  0.1243
  H  H46  1  0.755900  0.154100  0.363700  1.0  0.1193
  H  H47  1  0.995500  0.393900  0.290800  1.0  0.2667
  H  H48  1  0.926800  0.291200  0.364000  1.0  0.081
  H  H49  1  0.195300  0.756100  0.181900  1.0  0.111
  H  H50  1  0.106400  0.850600  0.044700  1.0  0.1134
  H  H51  1  0.088300  0.772000  0.138300  1.0  0.1084
  H  H52  1  0.095500  0.874500  0.240000  1.0  0.1097
  H  H53  1  0.193500  0.863300  0.133700  1.0  0.1241
  H  H54  1  0.244100  0.845900  0.363700  1.0  0.1187
  H  H55  1  0.004500  0.606100  0.290800  1.0  0.2675
  H  H56  1  0.073200  0.708800  0.364000  1.0  0.0813
  H  H57  1  0.756100  0.804700  0.181900  1.0  0.1111
  H  H58  1  0.850600  0.893600  0.044700  1.0  0.1134
  H  H59  1  0.772000  0.911700  0.138300  1.0  0.1098
  H  H60  1  0.874500  0.904500  0.240000  1.0  0.109
  H  H61  1  0.863300  0.806500  0.133700  1.0  0.1238
  H  H62  1  0.845900  0.755900  0.363700  1.0  0.1182
  H  H63  1  0.606100  0.995500  0.290800  1.0  0.2672
  H  H64  1  0.708800  0.926800  0.364000  1.0  0.0818
  H  H65  1  0.243900  0.195300  0.181900  1.0  0.1112
  H  H66  1  0.149400  0.106400  0.044700  1.0  0.113
  H  H67  1  0.228000  0.088300  0.138300  1.0  0.1095
  H  H68  1  0.125500  0.095500  0.240000  1.0  0.1095
  H  H69  1  0.136700  0.193500  0.133700  1.0  0.1239
  H  H70  1  0.154100  0.244100  0.363700  1.0  0.1192
  H  H71  1  0.393900  0.004500  0.290800  1.0  0.2694
  H  H72  1  0.291200  0.073200  0.364000  1.0  0.0821
  H  H73  1  0.695300  0.743900  0.818100  1.0  0.1115
  H  H74  1  0.606400  0.649400  0.955300  1.0  0.1128
  H  H75  1  0.588300  0.728000  0.861700  1.0  0.1095
  H  H76  1  0.595500  0.625500  0.760000  1.0  0.1096
  H  H77  1  0.693500  0.636700  0.866300  1.0  0.1238
  H  H78  1  0.744100  0.654100  0.636300  1.0  0.1186
  H  H79  1  0.504500  0.893900  0.709200  1.0  0.2674
  H  H80  1  0.573200  0.791200  0.636000  1.0  0.081
  H  H81  1  0.304700  0.256100  0.818100  1.0  0.1114
  H  H82  1  0.393600  0.350600  0.955300  1.0  0.1133
  H  H83  1  0.411700  0.272000  0.861700  1.0  0.1085
  H  H84  1  0.404500  0.374500  0.760000  1.0  0.1098
  H  H85  1  0.306500  0.363300  0.866300  1.0  0.1241
  H  H86  1  0.255900  0.345900  0.636300  1.0  0.1189
  H  H87  1  0.495500  0.106100  0.709200  1.0  0.2666
  H  H88  1  0.426800  0.208800  0.636000  1.0  0.0806
  H  H89  1  0.743900  0.304700  0.818100  1.0  0.1111
  H  H90  1  0.649400  0.393600  0.955300  1.0  0.1141
  H  H91  1  0.728000  0.411700  0.861700  1.0  0.11
  H  H92  1  0.625500  0.404500  0.760000  1.0  0.1093
  H  H93  1  0.636700  0.306500  0.866300  1.0  0.1233
  H  H94  1  0.654100  0.255900  0.636300  1.0  0.1178
  H  H95  1  0.893900  0.495500  0.709200  1.0  0.2677
  H  H96  1  0.791200  0.426800  0.636000  1.0  0.0817
  H  H97  1  0.256100  0.695300  0.818100  1.0  0.1116
  H  H98  1  0.350600  0.606400  0.955300  1.0  0.1133
  H  H99  1  0.272000  0.588300  0.861700  1.0  0.11
  H  H100  1  0.374500  0.595500  0.760000  1.0  0.1093
  H  H101  1  0.363300  0.693500  0.866300  1.0  0.1238
  H  H102  1  0.345900  0.744100  0.636300  1.0  0.1193
  H  H103  1  0.106100  0.504500  0.709200  1.0  0.2695
  H  H104  1  0.208800  0.573200  0.636000  1.0  0.0818
  H  H105  1  0.195300  0.756100  0.818100  1.0  0.1112
  H  H106  1  0.106400  0.850600  0.955300  1.0  0.1138
  H  H107  1  0.088300  0.772000  0.861700  1.0  0.1088
  H  H108  1  0.095500  0.874500  0.760000  1.0  0.1097
  H  H109  1  0.193500  0.863300  0.866300  1.0  0.1239
  H  H110  1  0.244100  0.845900  0.636300  1.0  0.1184
  H  H111  1  0.004500  0.606100  0.709200  1.0  0.2678
  H  H112  1  0.073200  0.708800  0.636000  1.0  0.0807
  H  H113  1  0.804700  0.243900  0.818100  1.0  0.1115
  H  H114  1  0.893600  0.149400  0.955300  1.0  0.113
  H  H115  1  0.911700  0.228000  0.861700  1.0  0.1087
  H  H116  1  0.904500  0.125500  0.760000  1.0  0.1097
  H  H117  1  0.806500  0.136700  0.866300  1.0  0.1242
  H  H118  1  0.755900  0.154100  0.636300  1.0  0.1192
  H  H119  1  0.995500  0.393900  0.709200  1.0  0.2667
  H  H120  1  0.926800  0.291200  0.636000  1.0  0.0811
  H  H121  1  0.243900  0.195300  0.818100  1.0  0.1113
  H  H122  1  0.149400  0.106400  0.955300  1.0  0.1133
  H  H123  1  0.228000  0.088300  0.861700  1.0  0.1097
  H  H124  1  0.125500  0.095500  0.760000  1.0  0.1093
  H  H125  1  0.136700  0.193500  0.866300  1.0  0.1239
  H  H126  1  0.154100  0.244100  0.636300  1.0  0.1187
  H  H127  1  0.393900  0.004500  0.709200  1.0  0.2693
  H  H128  1  0.291200  0.073200  0.636000  1.0  0.0818
  H  H129  1  0.756100  0.804700  0.818100  1.0  0.1113
  H  H130  1  0.850600  0.893600  0.955300  1.0  0.1136
  H  H131  1  0.772000  0.911700  0.861700  1.0  0.1103
  H  H132  1  0.874500  0.904500  0.760000  1.0  0.1094
  H  H133  1  0.863300  0.806500  0.866300  1.0  0.1232
  H  H134  1  0.845900  0.755900  0.636300  1.0  0.1181
  H  H135  1  0.606100  0.995500  0.709200  1.0  0.2678
  H  H136  1  0.708800  0.926800  0.636000  1.0  0.0817
  H  H137  1  0.304700  0.256100  0.181900  1.0  0.1111
  H  H138  1  0.393600  0.350600  0.044700  1.0  0.1132
  H  H139  1  0.411700  0.272000  0.138300  1.0  0.1085
  H  H140  1  0.404500  0.374500  0.240000  1.0  0.1095
  H  H141  1  0.306500  0.363300  0.133700  1.0  0.1242
  H  H142  1  0.255900  0.345900  0.363700  1.0  0.119
  H  H143  1  0.495500  0.106100  0.290800  1.0  0.2665
  H  H144  1  0.426800  0.208800  0.364000  1.0  0.0808
  H  H145  1  0.695300  0.743900  0.181900  1.0  0.1113
  H  H146  1  0.606400  0.649400  0.044700  1.0  0.1126
  H  H147  1  0.588300  0.728000  0.138300  1.0  0.1088
  H  H148  1  0.595500  0.625500  0.240000  1.0  0.1098
  H  H149  1  0.693500  0.636700  0.133700  1.0  0.1242
  H  H150  1  0.744100  0.654100  0.363700  1.0  0.1191
  H  H151  1  0.504500  0.893900  0.290800  1.0  0.2675
  H  H152  1  0.573200  0.791200  0.364000  1.0  0.0811
  H  H153  1  0.256100  0.695300  0.181900  1.0  0.1114
  H  H154  1  0.350600  0.606400  0.044700  1.0  0.1132
  H  H155  1  0.272000  0.588300  0.138300  1.0  0.1097
  H  H156  1  0.374500  0.595500  0.240000  1.0  0.109
  H  H157  1  0.363300  0.693500  0.133700  1.0  0.124
  H  H158  1  0.345900  0.744100  0.363700  1.0  0.1193
  H  H159  1  0.106100  0.504500  0.290800  1.0  0.2692
  H  H160  1  0.208800  0.573200  0.364000  1.0  0.0822
  H  H161  1  0.743900  0.304700  0.181900  1.0  0.111
  H  H162  1  0.649400  0.393600  0.044700  1.0  0.1136
  H  H163  1  0.728000  0.411700  0.138300  1.0  0.1096
  H  H164  1  0.625500  0.404500  0.240000  1.0  0.1093
  H  H165  1  0.636700  0.306500  0.133700  1.0  0.1233
  H  H166  1  0.654100  0.255900  0.363700  1.0  0.1183
  H  H167  1  0.893900  0.495500  0.290800  1.0  0.2673
  H  H168  1  0.791200  0.426800  0.364000  1.0  0.082
  H  H169  1  0.671300  0.171300  0.455500  1.0  0.1088
  H  H170  1  0.762600  0.262600  0.320100  1.0  0.1168
  H  H171  1  0.821600  0.321600  0.319300  1.0  0.1169
  H  H172  1  0.914000  0.414000  0.454000  1.0  0.1169
  H  H173  1  0.655500  0.155500  0.257300  1.0  0.1147
  H  H174  1  0.328700  0.828700  0.455500  1.0  0.1087
  H  H175  1  0.237400  0.737400  0.320100  1.0  0.1167
  H  H176  1  0.178400  0.678400  0.319300  1.0  0.1172
  H  H177  1  0.086000  0.586000  0.454000  1.0  0.1178
  H  H178  1  0.344500  0.844500  0.257300  1.0  0.1149
  H  H179  1  0.828700  0.671300  0.455500  1.0  0.1085
  H  H180  1  0.737400  0.762600  0.320100  1.0  0.1168
  H  H181  1  0.678400  0.821600  0.319300  1.0  0.117
  H  H182  1  0.586000  0.914000  0.454000  1.0  0.1176
  H  H183  1  0.844500  0.655500  0.257300  1.0  0.1147
  H  H184  1  0.171300  0.328700  0.455500  1.0  0.1096
  H  H185  1  0.262600  0.237400  0.320100  1.0  0.1167
  H  H186  1  0.321600  0.178400  0.319300  1.0  0.1171
  H  H187  1  0.414000  0.086000  0.454000  1.0  0.1175
  H  H188  1  0.155500  0.344500  0.257300  1.0  0.1147
  H  H189  1  0.828700  0.671300  0.544500  1.0  0.1082
  H  H190  1  0.737400  0.762600  0.679900  1.0  0.1162
  H  H191  1  0.678400  0.821600  0.680700  1.0  0.1164
  H  H192  1  0.586000  0.914000  0.546000  1.0  0.1187
  H  H193  1  0.844500  0.655500  0.742700  1.0  0.1148
  H  H194  1  0.171300  0.328700  0.544500  1.0  0.109
  H  H195  1  0.262600  0.237400  0.679900  1.0  0.1159
  H  H196  1  0.321600  0.178400  0.680700  1.0  0.1167
  H  H197  1  0.414000  0.086000  0.546000  1.0  0.1186
  H  H198  1  0.155500  0.344500  0.742700  1.0  0.1148
  H  H199  1  0.671300  0.171300  0.544500  1.0  0.1084
  H  H200  1  0.762600  0.262600  0.679900  1.0  0.1161
  H  H201  1  0.821600  0.321600  0.680700  1.0  0.1164
  H  H202  1  0.914000  0.414000  0.546000  1.0  0.1184
  H  H203  1  0.655500  0.155500  0.742700  1.0  0.1149
  H  H204  1  0.328700  0.828700  0.544500  1.0  0.1084
  H  H205  1  0.237400  0.737400  0.679900  1.0  0.116
  H  H206  1  0.178400  0.678400  0.680700  1.0  0.1166
  H  H207  1  0.086000  0.586000  0.546000  1.0  0.1189
  H  H208  1  0.344500  0.844500  0.742700  1.0  0.1149
  C  C209  1  0.790400  0.257100  0.154300  1.0  -0.1644
  C  C210  1  0.799800  0.245800  0.103100  1.0  0.1853
  C  C211  1  0.831800  0.213600  0.088500  1.0  -0.1227
  C  C212  1  0.843200  0.204900  0.039900  1.0  0.2284
  C  C213  1  0.876000  0.168800  0.024200  1.0  -0.1482
  C  C214  1  0.855900  0.185800  0.131000  1.0  0.0385
  C  C215  1  0.896900  0.201800  0.151600  1.0  -0.0376
  C  C216  1  0.916500  0.179000  0.192100  1.0  -0.1823
  C  C217  1  0.892800  0.140600  0.212100  1.0  0.0245
  C  C218  1  0.851300  0.125200  0.189700  1.0  -0.1378
  C  C219  1  0.833600  0.147600  0.148900  1.0  -0.0627
  C  C220  1  0.960000  0.197100  0.214200  1.0  0.7072
  C  C221  1  0.824200  0.085800  0.215100  1.0  0.6478
  C  C222  1  0.728200  0.166700  0.351300  1.0  -0.1099
  C  C223  1  0.704600  0.145300  0.310900  1.0  -0.1153
  C  C224  1  0.726000  0.102400  0.287600  1.0  0.6585
  C  C225  1  0.903600  0.355600  0.374400  1.0  0.0243
  C  C226  1  0.966100  0.387100  0.303700  1.0  0.0331
  C  C227  1  0.955200  0.330800  0.313700  1.0  -0.0904
  C  C228  1  0.928500  0.321700  0.352100  1.0  0.0718
  C  C229  1  0.982300  0.295700  0.290000  1.0  0.6732
  C  C230  1  0.209600  0.742900  0.154300  1.0  -0.1663
  C  C231  1  0.200200  0.754200  0.103100  1.0  0.1852
  C  C232  1  0.168200  0.786400  0.088500  1.0  -0.1228
  C  C233  1  0.156800  0.795100  0.039900  1.0  0.2285
  C  C234  1  0.124000  0.831200  0.024200  1.0  -0.1492
  C  C235  1  0.144100  0.814200  0.131000  1.0  0.0373
  C  C236  1  0.103100  0.798200  0.151600  1.0  -0.0377
  C  C237  1  0.083500  0.821000  0.192100  1.0  -0.1822
  C  C238  1  0.107200  0.859400  0.212100  1.0  0.024
  C  C239  1  0.148700  0.874800  0.189700  1.0  -0.1378
  C  C240  1  0.166400  0.852400  0.148900  1.0  -0.065
  C  C241  1  0.040000  0.802900  0.214200  1.0  0.7075
  C  C242  1  0.175800  0.914200  0.215100  1.0  0.6476
  C  C243  1  0.271800  0.833300  0.351300  1.0  -0.112
  C  C244  1  0.295400  0.854700  0.310900  1.0  -0.1145
  C  C245  1  0.274000  0.897600  0.287600  1.0  0.6591
  C  C246  1  0.096400  0.644400  0.374400  1.0  0.0256
  C  C247  1  0.033900  0.612900  0.303700  1.0  0.0353
  C  C248  1  0.044800  0.669200  0.313700  1.0  -0.0907
  C  C249  1  0.071500  0.678300  0.352100  1.0  0.0698
  C  C250  1  0.017700  0.704300  0.290000  1.0  0.673
  C  C251  1  0.742900  0.790400  0.154300  1.0  -0.1653
  C  C252  1  0.754200  0.799800  0.103100  1.0  0.1845
  C  C253  1  0.786400  0.831800  0.088500  1.0  -0.1228
  C  C254  1  0.795100  0.843200  0.039900  1.0  0.2277
  C  C255  1  0.831200  0.876000  0.024200  1.0  -0.1475
  C  C256  1  0.814200  0.855900  0.131000  1.0  0.0388
  C  C257  1  0.798200  0.896900  0.151600  1.0  -0.0382
  C  C258  1  0.821000  0.916500  0.192100  1.0  -0.1835
  C  C259  1  0.859400  0.892800  0.212100  1.0  0.024
  C  C260  1  0.874800  0.851300  0.189700  1.0  -0.1375
  C  C261  1  0.852400  0.833600  0.148900  1.0  -0.0621
  C  C262  1  0.802900  0.960000  0.214200  1.0  0.7077
  C  C263  1  0.914200  0.824200  0.215100  1.0  0.6466
  C  C264  1  0.833300  0.728200  0.351300  1.0  -0.1086
  C  C265  1  0.854700  0.704600  0.310900  1.0  -0.116
  C  C266  1  0.897600  0.726000  0.287600  1.0  0.6606
  C  C267  1  0.644400  0.903600  0.374400  1.0  0.0261
  C  C268  1  0.612900  0.966100  0.303700  1.0  0.0351
  C  C269  1  0.669200  0.955200  0.313700  1.0  -0.0925
  C  C270  1  0.678300  0.928500  0.352100  1.0  0.0712
  C  C271  1  0.704300  0.982300  0.290000  1.0  0.672
  C  C272  1  0.257100  0.209600  0.154300  1.0  -0.1666
  C  C273  1  0.245800  0.200200  0.103100  1.0  0.1852
  C  C274  1  0.213600  0.168200  0.088500  1.0  -0.1224
  C  C275  1  0.204900  0.156800  0.039900  1.0  0.2281
  C  C276  1  0.168800  0.124000  0.024200  1.0  -0.1483
  C  C277  1  0.185800  0.144100  0.131000  1.0  0.039
  C  C278  1  0.201800  0.103100  0.151600  1.0  -0.0383
  C  C279  1  0.179000  0.083500  0.192100  1.0  -0.1839
  C  C280  1  0.140600  0.107200  0.212100  1.0  0.0235
  C  C281  1  0.125200  0.148700  0.189700  1.0  -0.1367
  C  C282  1  0.147600  0.166400  0.148900  1.0  -0.0646
  C  C283  1  0.197100  0.040000  0.214200  1.0  0.7078
  C  C284  1  0.085800  0.175800  0.215100  1.0  0.6476
  C  C285  1  0.166700  0.271800  0.351300  1.0  -0.1099
  C  C286  1  0.145300  0.295400  0.310900  1.0  -0.115
  C  C287  1  0.102400  0.274000  0.287600  1.0  0.6603
  C  C288  1  0.355600  0.096400  0.374400  1.0  0.0258
  C  C289  1  0.387100  0.033900  0.303700  1.0  0.0355
  C  C290  1  0.330800  0.044800  0.313700  1.0  -0.0913
  C  C291  1  0.321700  0.071500  0.352100  1.0  0.0719
  C  C292  1  0.295700  0.017700  0.290000  1.0  0.6727
  C  C293  1  0.709600  0.757100  0.845700  1.0  -0.165
  C  C294  1  0.700200  0.745800  0.896900  1.0  0.1839
  C  C295  1  0.668200  0.713600  0.911500  1.0  -0.1231
  C  C296  1  0.656800  0.704900  0.960100  1.0  0.2285
  C  C297  1  0.624000  0.668800  0.975800  1.0  -0.149
  C  C298  1  0.644100  0.685800  0.869000  1.0  0.0371
  C  C299  1  0.603100  0.701800  0.848400  1.0  -0.0368
  C  C300  1  0.583500  0.679000  0.807900  1.0  -0.1825
  C  C301  1  0.607200  0.640600  0.787900  1.0  0.0252
  C  C302  1  0.648700  0.625200  0.810300  1.0  -0.1375
  C  C303  1  0.666400  0.647600  0.851100  1.0  -0.0636
  C  C304  1  0.540000  0.697100  0.785800  1.0  0.707
  C  C305  1  0.675800  0.585800  0.784900  1.0  0.6476
  C  C306  1  0.771800  0.666667  0.648700  1.0  -0.1079
  C  C307  1  0.795400  0.645300  0.689100  1.0  -0.1152
  C  C308  1  0.774000  0.602400  0.712400  1.0  0.659
  C  C309  1  0.596400  0.855600  0.625600  1.0  0.0253
  C  C310  1  0.533900  0.887100  0.696300  1.0  0.033
  C  C311  1  0.544800  0.830800  0.686300  1.0  -0.0912
  C  C312  1  0.571500  0.821700  0.647900  1.0  0.0708
  C  C313  1  0.517700  0.795700  0.710000  1.0  0.6732
  C  C314  1  0.290400  0.242900  0.845700  1.0  -0.1639
  C  C315  1  0.299800  0.254200  0.896900  1.0  0.1845
  C  C316  1  0.331800  0.286400  0.911500  1.0  -0.1243
  C  C317  1  0.343200  0.295100  0.960100  1.0  0.2278
  C  C318  1  0.376000  0.331200  0.975800  1.0  -0.149
  C  C319  1  0.355900  0.314200  0.869000  1.0  0.0375
  C  C320  1  0.396900  0.298200  0.848400  1.0  -0.0369
  C  C321  1  0.416500  0.321000  0.807900  1.0  -0.182
  C  C322  1  0.392800  0.359400  0.787900  1.0  0.0252
  C  C323  1  0.351300  0.374800  0.810300  1.0  -0.1384
  C  C324  1  0.333600  0.352400  0.851100  1.0  -0.0648
  C  C325  1  0.460000  0.302900  0.785800  1.0  0.707
  C  C326  1  0.324200  0.414200  0.784900  1.0  0.6475
  C  C327  1  0.228200  0.333333  0.648700  1.0  -0.1079
  C  C328  1  0.204600  0.354700  0.689100  1.0  -0.1141
  C  C329  1  0.226000  0.397600  0.712400  1.0  0.6587
  C  C330  1  0.403600  0.144400  0.625600  1.0  0.026
  C  C331  1  0.466100  0.112900  0.696300  1.0  0.0367
  C  C332  1  0.455200  0.169200  0.686300  1.0  -0.0908
  C  C333  1  0.428500  0.178300  0.647900  1.0  0.0702
  C  C334  1  0.482300  0.204300  0.710000  1.0  0.6739
  C  C335  1  0.757100  0.290400  0.845700  1.0  -0.1655
  C  C336  1  0.745800  0.299800  0.896900  1.0  0.184
  C  C337  1  0.713600  0.331800  0.911500  1.0  -0.1234
  C  C338  1  0.704900  0.343200  0.960100  1.0  0.2272
  C  C339  1  0.668800  0.376000  0.975800  1.0  -0.1495
  C  C340  1  0.685800  0.355900  0.869000  1.0  0.0383
  C  C341  1  0.701800  0.396900  0.848400  1.0  -0.0378
  C  C342  1  0.679000  0.416500  0.807900  1.0  -0.183
  C  C343  1  0.640600  0.392800  0.787900  1.0  0.0258
  C  C344  1  0.625200  0.351300  0.810300  1.0  -0.1374
  C  C345  1  0.647600  0.333600  0.851100  1.0  -0.064
  C  C346  1  0.697100  0.460000  0.785800  1.0  0.7077
  C  C347  1  0.585800  0.324200  0.784900  1.0  0.6475
  C  C348  1  0.666667  0.228200  0.648700  1.0  -0.1071
  C  C349  1  0.645300  0.204600  0.689100  1.0  -0.1147
  C  C350  1  0.602400  0.226000  0.712400  1.0  0.6602
  C  C351  1  0.855600  0.403600  0.625600  1.0  0.0289
  C  C352  1  0.887100  0.466100  0.696300  1.0  0.0362
  C  C353  1  0.830800  0.455200  0.686300  1.0  -0.0919
  C  C354  1  0.821700  0.428500  0.647900  1.0  0.0715
  C  C355  1  0.795700  0.482300  0.710000  1.0  0.6731
  C  C356  1  0.242900  0.709600  0.845700  1.0  -0.1642
  C  C357  1  0.254200  0.700200  0.896900  1.0  0.1834
  C  C358  1  0.286400  0.668200  0.911500  1.0  -0.1236
  C  C359  1  0.295100  0.656800  0.960100  1.0  0.2276
  C  C360  1  0.331200  0.624000  0.975800  1.0  -0.1486
  C  C361  1  0.314200  0.644100  0.869000  1.0  0.0386
  C  C362  1  0.298200  0.603100  0.848400  1.0  -0.0381
  C  C363  1  0.321000  0.583500  0.807900  1.0  -0.1841
  C  C364  1  0.359400  0.607200  0.787900  1.0  0.0242
  C  C365  1  0.374800  0.648700  0.810300  1.0  -0.1369
  C  C366  1  0.352400  0.666400  0.851100  1.0  -0.0632
  C  C367  1  0.302900  0.540000  0.785800  1.0  0.7073
  C  C368  1  0.414200  0.675800  0.784900  1.0  0.6466
  C  C369  1  0.333333  0.771800  0.648700  1.0  -0.1042
  C  C370  1  0.354700  0.795400  0.689100  1.0  -0.1161
  C  C371  1  0.397600  0.774000  0.712400  1.0  0.6605
  C  C372  1  0.144400  0.596400  0.625600  1.0  0.0257
  C  C373  1  0.112900  0.533900  0.696300  1.0  0.034
  C  C374  1  0.169200  0.544800  0.686300  1.0  -0.093
  C  C375  1  0.178300  0.571500  0.647900  1.0  0.0715
  C  C376  1  0.204300  0.517700  0.710000  1.0  0.6723
  C  C377  1  0.209600  0.742900  0.845700  1.0  -0.1649
  C  C378  1  0.200200  0.754200  0.896900  1.0  0.1835
  C  C379  1  0.168200  0.786400  0.911500  1.0  -0.1237
  C  C380  1  0.156800  0.795100  0.960100  1.0  0.2279
  C  C381  1  0.124000  0.831200  0.975800  1.0  -0.1497
  C  C382  1  0.144100  0.814200  0.869000  1.0  0.0371
  C  C383  1  0.103100  0.798200  0.848400  1.0  -0.0378
  C  C384  1  0.083500  0.821000  0.807900  1.0  -0.1823
  C  C385  1  0.107200  0.859400  0.787900  1.0  0.026
  C  C386  1  0.148700  0.874800  0.810300  1.0  -0.1379
  C  C387  1  0.166400  0.852400  0.851100  1.0  -0.0652
  C  C388  1  0.040000  0.802900  0.785800  1.0  0.7072
  C  C389  1  0.175800  0.914200  0.784900  1.0  0.6477
  C  C390  1  0.271800  0.833300  0.648700  1.0  -0.1141
  C  C391  1  0.295400  0.854700  0.689100  1.0  -0.1144
  C  C392  1  0.274000  0.897600  0.712400  1.0  0.6593
  C  C393  1  0.096400  0.644400  0.625600  1.0  0.0263
  C  C394  1  0.033900  0.612900  0.696300  1.0  0.0365
  C  C395  1  0.044800  0.669200  0.686300  1.0  -0.091
  C  C396  1  0.071500  0.678300  0.647900  1.0  0.0703
  C  C397  1  0.017700  0.704300  0.710000  1.0  0.6734
  C  C398  1  0.790400  0.257100  0.845700  1.0  -0.1637
  C  C399  1  0.799800  0.245800  0.896900  1.0  0.1832
  C  C400  1  0.831800  0.213600  0.911500  1.0  -0.1237
  C  C401  1  0.843200  0.204900  0.960100  1.0  0.2278
  C  C402  1  0.876000  0.168800  0.975800  1.0  -0.1492
  C  C403  1  0.855900  0.185800  0.869000  1.0  0.0376
  C  C404  1  0.896900  0.201800  0.848400  1.0  -0.0374
  C  C405  1  0.916500  0.179000  0.807900  1.0  -0.1819
  C  C406  1  0.892800  0.140600  0.787900  1.0  0.0246
  C  C407  1  0.851300  0.125200  0.810300  1.0  -0.1376
  C  C408  1  0.833600  0.147600  0.851100  1.0  -0.0618
  C  C409  1  0.960000  0.197100  0.785800  1.0  0.7069
  C  C410  1  0.824200  0.085800  0.784900  1.0  0.6475
  C  C411  1  0.728200  0.166700  0.648700  1.0  -0.1129
  C  C412  1  0.704600  0.145300  0.689100  1.0  -0.1152
  C  C413  1  0.726000  0.102400  0.712400  1.0  0.6587
  C  C414  1  0.903600  0.355600  0.625600  1.0  0.0253
  C  C415  1  0.966100  0.387100  0.696300  1.0  0.0336
  C  C416  1  0.955200  0.330800  0.686300  1.0  -0.0911
  C  C417  1  0.928500  0.321700  0.647900  1.0  0.0712
  C  C418  1  0.982300  0.295700  0.710000  1.0  0.6736
  C  C419  1  0.257100  0.209600  0.845700  1.0  -0.1655
  C  C420  1  0.245800  0.200200  0.896900  1.0  0.1832
  C  C421  1  0.213600  0.168200  0.911500  1.0  -0.1231
  C  C422  1  0.204900  0.156800  0.960100  1.0  0.2273
  C  C423  1  0.168800  0.124000  0.975800  1.0  -0.1491
  C  C424  1  0.185800  0.144100  0.869000  1.0  0.0384
  C  C425  1  0.201800  0.103100  0.848400  1.0  -0.0379
  C  C426  1  0.179000  0.083500  0.807900  1.0  -0.1839
  C  C427  1  0.140600  0.107200  0.787900  1.0  0.0252
  C  C428  1  0.125200  0.148700  0.810300  1.0  -0.1369
  C  C429  1  0.147600  0.166400  0.851100  1.0  -0.0643
  C  C430  1  0.197100  0.040000  0.785800  1.0  0.7075
  C  C431  1  0.085800  0.175800  0.784900  1.0  0.6477
  C  C432  1  0.166700  0.271800  0.648700  1.0  -0.1124
  C  C433  1  0.145300  0.295400  0.689100  1.0  -0.1151
  C  C434  1  0.102400  0.274000  0.712400  1.0  0.6604
  C  C435  1  0.355600  0.096400  0.625600  1.0  0.0266
  C  C436  1  0.387100  0.033900  0.696300  1.0  0.0365
  C  C437  1  0.330800  0.044800  0.686300  1.0  -0.0915
  C  C438  1  0.321700  0.071500  0.647900  1.0  0.0715
  C  C439  1  0.295700  0.017700  0.710000  1.0  0.6731
  C  C440  1  0.742900  0.790400  0.845700  1.0  -0.1642
  C  C441  1  0.754200  0.799800  0.896900  1.0  0.1826
  C  C442  1  0.786400  0.831800  0.911500  1.0  -0.124
  C  C443  1  0.795100  0.843200  0.960100  1.0  0.2271
  C  C444  1  0.831200  0.876000  0.975800  1.0  -0.1486
  C  C445  1  0.814200  0.855900  0.869000  1.0  0.0385
  C  C446  1  0.798200  0.896900  0.848400  1.0  -0.0383
  C  C447  1  0.821000  0.916500  0.807900  1.0  -0.1834
  C  C448  1  0.859400  0.892800  0.787900  1.0  0.0246
  C  C449  1  0.874800  0.851300  0.810300  1.0  -0.1372
  C  C450  1  0.852400  0.833600  0.851100  1.0  -0.0618
  C  C451  1  0.802900  0.960000  0.785800  1.0  0.7074
  C  C452  1  0.914200  0.824200  0.784900  1.0  0.6462
  C  C453  1  0.833300  0.728200  0.648700  1.0  -0.1113
  C  C454  1  0.854700  0.704600  0.689100  1.0  -0.116
  C  C455  1  0.897600  0.726000  0.712400  1.0  0.6608
  C  C456  1  0.644400  0.903600  0.625600  1.0  0.0276
  C  C457  1  0.612900  0.966100  0.696300  1.0  0.0369
  C  C458  1  0.669200  0.955200  0.686300  1.0  -0.0929
  C  C459  1  0.678300  0.928500  0.647900  1.0  0.0716
  C  C460  1  0.704300  0.982300  0.710000  1.0  0.6722
  C  C461  1  0.290400  0.242900  0.154300  1.0  -0.1642
  C  C462  1  0.299800  0.254200  0.103100  1.0  0.1846
  C  C463  1  0.331800  0.286400  0.088500  1.0  -0.1232
  C  C464  1  0.343200  0.295100  0.039900  1.0  0.2279
  C  C465  1  0.376000  0.331200  0.024200  1.0  -0.1483
  C  C466  1  0.355900  0.314200  0.131000  1.0  0.0377
  C  C467  1  0.396900  0.298200  0.151600  1.0  -0.0369
  C  C468  1  0.416500  0.321000  0.192100  1.0  -0.1824
  C  C469  1  0.392800  0.359400  0.212100  1.0  0.0251
  C  C470  1  0.351300  0.374800  0.189700  1.0  -0.1384
  C  C471  1  0.333600  0.352400  0.148900  1.0  -0.0648
  C  C472  1  0.460000  0.302900  0.214200  1.0  0.7074
  C  C473  1  0.324200  0.414200  0.215100  1.0  0.6476
  C  C474  1  0.228200  0.333333  0.351300  1.0  -0.1117
  C  C475  1  0.204600  0.354700  0.310900  1.0  -0.1139
  C  C476  1  0.226000  0.397600  0.287600  1.0  0.6585
  C  C477  1  0.403600  0.144400  0.374400  1.0  0.0245
  C  C478  1  0.466100  0.112900  0.303700  1.0  0.0358
  C  C479  1  0.455200  0.169200  0.313700  1.0  -0.0907
  C  C480  1  0.428500  0.178300  0.352100  1.0  0.0697
  C  C481  1  0.482300  0.204300  0.290000  1.0  0.6734
  C  C482  1  0.709600  0.757100  0.154300  1.0  -0.1661
  C  C483  1  0.700200  0.745800  0.103100  1.0  0.1842
  C  C484  1  0.668200  0.713600  0.088500  1.0  -0.1222
  C  C485  1  0.656800  0.704900  0.039900  1.0  0.2287
  C  C486  1  0.624000  0.668800  0.024200  1.0  -0.1486
  C  C487  1  0.644100  0.685800  0.131000  1.0  0.038
  C  C488  1  0.603100  0.701800  0.151600  1.0  -0.0369
  C  C489  1  0.583500  0.679000  0.192100  1.0  -0.1823
  C  C490  1  0.607200  0.640600  0.212100  1.0  0.0233
  C  C491  1  0.648700  0.625200  0.189700  1.0  -0.1375
  C  C492  1  0.666400  0.647600  0.148900  1.0  -0.0642
  C  C493  1  0.540000  0.697100  0.214200  1.0  0.7072
  C  C494  1  0.675800  0.585800  0.215100  1.0  0.6476
  C  C495  1  0.771800  0.666667  0.351300  1.0  -0.1107
  C  C496  1  0.795400  0.645300  0.310900  1.0  -0.115
  C  C497  1  0.774000  0.602400  0.287600  1.0  0.6587
  C  C498  1  0.596400  0.855600  0.374400  1.0  0.0252
  C  C499  1  0.533900  0.887100  0.303700  1.0  0.0324
  C  C500  1  0.544800  0.830800  0.313700  1.0  -0.0903
  C  C501  1  0.571500  0.821700  0.352100  1.0  0.0715
  C  C502  1  0.517700  0.795700  0.290000  1.0  0.6728
  C  C503  1  0.242900  0.709600  0.154300  1.0  -0.1649
  C  C504  1  0.254200  0.700200  0.103100  1.0  0.1837
  C  C505  1  0.286400  0.668200  0.088500  1.0  -0.1226
  C  C506  1  0.295100  0.656800  0.039900  1.0  0.2279
  C  C507  1  0.331200  0.624000  0.024200  1.0  -0.148
  C  C508  1  0.314200  0.644100  0.131000  1.0  0.0391
  C  C509  1  0.298200  0.603100  0.151600  1.0  -0.038
  C  C510  1  0.321000  0.583500  0.192100  1.0  -0.1843
  C  C511  1  0.359400  0.607200  0.212100  1.0  0.0236
  C  C512  1  0.374800  0.648700  0.189700  1.0  -0.1373
  C  C513  1  0.352400  0.666400  0.148900  1.0  -0.0636
  C  C514  1  0.302900  0.540000  0.214200  1.0  0.7076
  C  C515  1  0.414200  0.675800  0.215100  1.0  0.6469
  C  C516  1  0.333333  0.771800  0.351300  1.0  -0.108
  C  C517  1  0.354700  0.795400  0.310900  1.0  -0.1159
  C  C518  1  0.397600  0.774000  0.287600  1.0  0.6603
  C  C519  1  0.144400  0.596400  0.374400  1.0  0.0243
  C  C520  1  0.112900  0.533900  0.303700  1.0  0.0332
  C  C521  1  0.169200  0.544800  0.313700  1.0  -0.0933
  C  C522  1  0.178300  0.571500  0.352100  1.0  0.0717
  C  C523  1  0.204300  0.517700  0.290000  1.0  0.6719
  C  C524  1  0.757100  0.290400  0.154300  1.0  -0.1666
  C  C525  1  0.745800  0.299800  0.103100  1.0  0.1842
  C  C526  1  0.713600  0.331800  0.088500  1.0  -0.1225
  C  C527  1  0.704900  0.343200  0.039900  1.0  0.2275
  C  C528  1  0.668800  0.376000  0.024200  1.0  -0.1493
  C  C529  1  0.685800  0.355900  0.131000  1.0  0.0387
  C  C530  1  0.701800  0.396900  0.151600  1.0  -0.0378
  C  C531  1  0.679000  0.416500  0.192100  1.0  -0.183
  C  C532  1  0.640600  0.392800  0.212100  1.0  0.0237
  C  C533  1  0.625200  0.351300  0.189700  1.0  -0.1371
  C  C534  1  0.647600  0.333600  0.148900  1.0  -0.0642
  C  C535  1  0.697100  0.460000  0.214200  1.0  0.708
  C  C536  1  0.585800  0.324200  0.215100  1.0  0.6474
  C  C537  1  0.666667  0.228200  0.351300  1.0  -0.1108
  C  C538  1  0.645300  0.204600  0.310900  1.0  -0.1148
  C  C539  1  0.602400  0.226000  0.287600  1.0  0.6601
  C  C540  1  0.855600  0.403600  0.374400  1.0  0.0277
  C  C541  1  0.887100  0.466100  0.303700  1.0  0.0347
  C  C542  1  0.830800  0.455200  0.313700  1.0  -0.091
  C  C543  1  0.821700  0.428500  0.352100  1.0  0.0712
  C  C544  1  0.795700  0.482300  0.290000  1.0  0.6728
  C  C545  1  0.689800  0.189800  0.475900  1.0  -0.1457
  C  C546  1  0.724200  0.224200  0.460000  1.0  0.1846
  C  C547  1  0.735000  0.235000  0.411700  1.0  -0.052
  C  C548  1  0.767200  0.267200  0.397400  1.0  0.285
  C  C549  1  0.776600  0.276600  0.347300  1.0  -0.1663
  C  C550  1  0.807600  0.307600  0.346700  1.0  -0.144
  C  C551  1  0.816500  0.316500  0.397000  1.0  0.1654
  C  C552  1  0.851800  0.351800  0.412100  1.0  -0.0707
  C  C553  1  0.861100  0.361100  0.464600  1.0  0.1509
  C  C554  1  0.896100  0.396100  0.475600  1.0  -0.151
  C  C555  1  0.708200  0.208200  0.372600  1.0  -0.0955
  C  C556  1  0.666400  0.166400  0.287500  1.0  -0.0446
  C  C557  1  0.901800  0.401800  0.358700  1.0  0.0035
  C  C558  1  0.932300  0.432300  0.313400  1.0  -0.0825
  C  C559  1  0.310200  0.810200  0.475900  1.0  -0.1451
  C  C560  1  0.275800  0.775800  0.460000  1.0  0.1828
  C  C561  1  0.265000  0.765000  0.411700  1.0  -0.0529
  C  C562  1  0.232800  0.732800  0.397400  1.0  0.2863
  C  C563  1  0.223400  0.723400  0.347300  1.0  -0.1652
  C  C564  1  0.192400  0.692400  0.346700  1.0  -0.1439
  C  C565  1  0.183500  0.683500  0.397000  1.0  0.1672
  C  C566  1  0.148200  0.648200  0.412100  1.0  -0.0709
  C  C567  1  0.138900  0.638900  0.464600  1.0  0.152
  C  C568  1  0.103900  0.603900  0.475600  1.0  -0.1532
  C  C569  1  0.291800  0.791800  0.372600  1.0  -0.0945
  C  C570  1  0.333600  0.833600  0.287500  1.0  -0.046
  C  C571  1  0.098200  0.598200  0.358700  1.0  0.0033
  C  C572  1  0.067700  0.567700  0.313400  1.0  -0.0884
  C  C573  1  0.810200  0.689800  0.475900  1.0  -0.1454
  C  C574  1  0.775800  0.724200  0.460000  1.0  0.1834
  C  C575  1  0.765000  0.735000  0.411700  1.0  -0.0526
  C  C576  1  0.732800  0.767200  0.397400  1.0  0.2854
  C  C577  1  0.723400  0.776600  0.347300  1.0  -0.1653
  C  C578  1  0.692400  0.807600  0.346700  1.0  -0.1441
  C  C579  1  0.683500  0.816500  0.397000  1.0  0.166
  C  C580  1  0.648200  0.851800  0.412100  1.0  -0.0706
  C  C581  1  0.638900  0.861100  0.464600  1.0  0.1517
  C  C582  1  0.603900  0.896100  0.475600  1.0  -0.1535
  C  C583  1  0.791800  0.708200  0.372600  1.0  -0.0944
  C  C584  1  0.833600  0.666400  0.287500  1.0  -0.0456
  C  C585  1  0.598200  0.901800  0.358700  1.0  0.0037
  C  C586  1  0.567700  0.932300  0.313400  1.0  -0.0865
  C  C587  1  0.189800  0.310200  0.475900  1.0  -0.1452
  C  C588  1  0.224200  0.275800  0.460000  1.0  0.1839
  C  C589  1  0.235000  0.265000  0.411700  1.0  -0.0523
  C  C590  1  0.267200  0.232800  0.397400  1.0  0.286
  C  C591  1  0.276600  0.223400  0.347300  1.0  -0.1662
  C  C592  1  0.307600  0.192400  0.346700  1.0  -0.144
  C  C593  1  0.316500  0.183500  0.397000  1.0  0.1663
  C  C594  1  0.351800  0.148200  0.412100  1.0  -0.0711
  C  C595  1  0.361100  0.138900  0.464600  1.0  0.1512
  C  C596  1  0.396100  0.103900  0.475600  1.0  -0.1506
  C  C597  1  0.208200  0.291800  0.372600  1.0  -0.0954
  C  C598  1  0.166400  0.333600  0.287500  1.0  -0.0447
  C  C599  1  0.401800  0.098200  0.358700  1.0  0.0043
  C  C600  1  0.432300  0.067700  0.313400  1.0  -0.0848
  C  C601  1  0.810200  0.689800  0.524100  1.0  -0.1456
  C  C602  1  0.775800  0.724200  0.540000  1.0  0.1855
  C  C603  1  0.765000  0.735000  0.588300  1.0  -0.0519
  C  C604  1  0.732800  0.767200  0.602600  1.0  0.2868
  C  C605  1  0.723400  0.776600  0.652700  1.0  -0.1661
  C  C606  1  0.692400  0.807600  0.653300  1.0  -0.1459
  C  C607  1  0.683500  0.816500  0.603000  1.0  0.1677
  C  C608  1  0.648200  0.851800  0.587900  1.0  -0.0711
  C  C609  1  0.638900  0.861100  0.535400  1.0  0.1512
  C  C610  1  0.603900  0.896100  0.524400  1.0  -0.154
  C  C611  1  0.791800  0.708200  0.627400  1.0  -0.0945
  C  C612  1  0.833600  0.666400  0.712500  1.0  -0.0455
  C  C613  1  0.598200  0.901800  0.641300  1.0  0.004
  C  C614  1  0.567700  0.932300  0.686600  1.0  -0.0888
  C  C615  1  0.189800  0.310200  0.524100  1.0  -0.146
  C  C616  1  0.224200  0.275800  0.540000  1.0  0.1856
  C  C617  1  0.235000  0.265000  0.588300  1.0  -0.0515
  C  C618  1  0.267200  0.232800  0.602600  1.0  0.2871
  C  C619  1  0.276600  0.223400  0.652700  1.0  -0.1683
  C  C620  1  0.307600  0.192400  0.653300  1.0  -0.145
  C  C621  1  0.316500  0.183500  0.603000  1.0  0.1673
  C  C622  1  0.351800  0.148200  0.587900  1.0  -0.0715
  C  C623  1  0.361100  0.138900  0.535400  1.0  0.1506
  C  C624  1  0.396100  0.103900  0.524400  1.0  -0.1502
  C  C625  1  0.208200  0.291800  0.627400  1.0  -0.0955
  C  C626  1  0.166400  0.333600  0.712500  1.0  -0.047
  C  C627  1  0.401800  0.098200  0.641300  1.0  0.0044
  C  C628  1  0.432300  0.067700  0.686600  1.0  -0.0872
  C  C629  1  0.689800  0.189800  0.524100  1.0  -0.1457
  C  C630  1  0.724200  0.224200  0.540000  1.0  0.1865
  C  C631  1  0.735000  0.235000  0.588300  1.0  -0.0513
  C  C632  1  0.767200  0.267200  0.602600  1.0  0.2864
  C  C633  1  0.776600  0.276600  0.652700  1.0  -0.1679
  C  C634  1  0.807600  0.307600  0.653300  1.0  -0.1451
  C  C635  1  0.816500  0.316500  0.603000  1.0  0.1669
  C  C636  1  0.851800  0.351800  0.587900  1.0  -0.0712
  C  C637  1  0.861100  0.361100  0.535400  1.0  0.1501
  C  C638  1  0.896100  0.396100  0.524400  1.0  -0.1507
  C  C639  1  0.708200  0.208200  0.627400  1.0  -0.0955
  C  C640  1  0.666400  0.166400  0.712500  1.0  -0.0461
  C  C641  1  0.901800  0.401800  0.641300  1.0  0.004
  C  C642  1  0.932300  0.432300  0.686600  1.0  -0.0852
  C  C643  1  0.310200  0.810200  0.524100  1.0  -0.1458
  C  C644  1  0.275800  0.775800  0.540000  1.0  0.1845
  C  C645  1  0.265000  0.765000  0.588300  1.0  -0.0522
  C  C646  1  0.232800  0.732800  0.602600  1.0  0.2876
  C  C647  1  0.223400  0.723400  0.652700  1.0  -0.1664
  C  C648  1  0.192400  0.692400  0.653300  1.0  -0.1456
  C  C649  1  0.183500  0.683500  0.603000  1.0  0.1685
  C  C650  1  0.148200  0.648200  0.587900  1.0  -0.0714
  C  C651  1  0.138900  0.638900  0.535400  1.0  0.1516
  C  C652  1  0.103900  0.603900  0.524400  1.0  -0.153
  C  C653  1  0.291800  0.791800  0.627400  1.0  -0.0947
  C  C654  1  0.333600  0.833600  0.712500  1.0  -0.0465
  C  C655  1  0.098200  0.598200  0.641300  1.0  0.0034
  C  C656  1  0.067700  0.567700  0.686600  1.0  -0.0907
  N  N657  1  0.744500  0.244500  0.500000  1.0  -0.3849
  N  N658  1  0.840400  0.340400  0.500000  1.0  -0.346
  N  N659  1  0.255500  0.755500  0.500000  1.0  -0.3826
  N  N660  1  0.159600  0.659600  0.500000  1.0  -0.3469
  N  N661  1  0.755500  0.744500  0.500000  1.0  -0.382
  N  N662  1  0.659600  0.840400  0.500000  1.0  -0.3462
  N  N663  1  0.244500  0.255500  0.500000  1.0  -0.3857
  N  N664  1  0.340400  0.159600  0.500000  1.0  -0.3458
  N  N665  1  0.774700  0.274700  0.072000  1.0  -0.407
  N  N666  1  0.793300  0.293300  0.429200  1.0  -0.3765
  N  N667  1  0.225300  0.725300  0.072000  1.0  -0.4072
  N  N668  1  0.206700  0.706700  0.429200  1.0  -0.3771
  N  N669  1  0.725300  0.774700  0.072000  1.0  -0.4073
  N  N670  1  0.706700  0.793300  0.429200  1.0  -0.3771
  N  N671  1  0.274700  0.225300  0.072000  1.0  -0.4069
  N  N672  1  0.293300  0.206700  0.429200  1.0  -0.3765
  N  N673  1  0.725300  0.774700  0.928000  1.0  -0.4086
  N  N674  1  0.706700  0.793300  0.570800  1.0  -0.3763
  N  N675  1  0.274700  0.225300  0.928000  1.0  -0.409
  N  N676  1  0.293300  0.206700  0.570800  1.0  -0.3755
  N  N677  1  0.774700  0.274700  0.928000  1.0  -0.409
  N  N678  1  0.793300  0.293300  0.570800  1.0  -0.3757
  N  N679  1  0.225300  0.725300  0.928000  1.0  -0.4086
  N  N680  1  0.206700  0.706700  0.570800  1.0  -0.3762
  N  N681  1  0.822600  0.225400  0.000000  1.0  -0.4198
  N  N682  1  0.177400  0.774600  0.000000  1.0  -0.4225
  N  N683  1  0.774600  0.822600  0.000000  1.0  -0.4207
  N  N684  1  0.225400  0.177400  0.000000  1.0  -0.4221
  N  N685  1  0.677400  0.725400  0.000000  1.0  -0.4224
  N  N686  1  0.322600  0.274600  0.000000  1.0  -0.4203
  N  N687  1  0.725400  0.322600  0.000000  1.0  -0.4225
  N  N688  1  0.274600  0.677400  0.000000  1.0  -0.42
  O  O689  1  0.978430  0.231100  0.193300  1.0  -0.6026
  O  O690  1  0.973960  0.179920  0.254200  1.0  -0.5851
  O  O691  1  0.835830  0.069630  0.256000  1.0  -0.563
  O  O692  1  0.787000  0.073500  0.189800  1.0  -0.589
  O  O693  1  0.712400  0.089900  0.244900  1.0  -0.5756
  O  O694  1  0.759900  0.083600  0.312200  1.0  -0.5825
  O  O695  1  0.998600  0.303700  0.249300  1.0  -0.569
  O  O696  1  0.988300  0.255900  0.315500  1.0  -0.5707
  O  O697  1  0.021570  0.768900  0.193300  1.0  -0.6022
  O  O698  1  0.026040  0.820080  0.254200  1.0  -0.5853
  O  O699  1  0.164170  0.930370  0.256000  1.0  -0.563
  O  O700  1  0.213000  0.926500  0.189800  1.0  -0.5885
  O  O701  1  0.287600  0.910100  0.244900  1.0  -0.5758
  O  O702  1  0.240100  0.916400  0.312200  1.0  -0.5824
  O  O703  1  0.001400  0.696300  0.249300  1.0  -0.5693
  O  O704  1  0.011700  0.744100  0.315500  1.0  -0.5696
  O  O705  1  0.768900  0.978430  0.193300  1.0  -0.6012
  O  O706  1  0.820080  0.973960  0.254200  1.0  -0.5844
  O  O707  1  0.930370  0.835830  0.256000  1.0  -0.5647
  O  O708  1  0.926500  0.787000  0.189800  1.0  -0.5893
  O  O709  1  0.910100  0.712400  0.244900  1.0  -0.5761
  O  O710  1  0.916400  0.759900  0.312200  1.0  -0.5826
  O  O711  1  0.696300  0.998600  0.249300  1.0  -0.5674
  O  O712  1  0.744100  0.988300  0.315500  1.0  -0.5694
  O  O713  1  0.231100  0.021570  0.193300  1.0  -0.602
  O  O714  1  0.179920  0.026040  0.254200  1.0  -0.5839
  O  O715  1  0.069630  0.164170  0.256000  1.0  -0.5648
  O  O716  1  0.073500  0.213000  0.189800  1.0  -0.5888
  O  O717  1  0.089900  0.287600  0.244900  1.0  -0.5762
  O  O718  1  0.083600  0.240100  0.312200  1.0  -0.5841
  O  O719  1  0.303700  0.001400  0.249300  1.0  -0.5676
  O  O720  1  0.255900  0.011700  0.315500  1.0  -0.5686
  O  O721  1  0.521570  0.731100  0.806700  1.0  -0.603
  O  O722  1  0.526040  0.679920  0.745800  1.0  -0.5838
  O  O723  1  0.664170  0.569630  0.744000  1.0  -0.5626
  O  O724  1  0.713000  0.573500  0.810200  1.0  -0.5872
  O  O725  1  0.787600  0.589900  0.755100  1.0  -0.5763
  O  O726  1  0.740100  0.583600  0.687800  1.0  -0.582
  O  O727  1  0.501400  0.803700  0.750700  1.0  -0.5691
  O  O728  1  0.511700  0.755900  0.684500  1.0  -0.5696
  O  O729  1  0.478430  0.268900  0.806700  1.0  -0.6021
  O  O730  1  0.473960  0.320080  0.745800  1.0  -0.5853
  O  O731  1  0.335830  0.430370  0.744000  1.0  -0.5625
  O  O732  1  0.287000  0.426500  0.810200  1.0  -0.5885
  O  O733  1  0.212400  0.410100  0.755100  1.0  -0.576
  O  O734  1  0.259900  0.416400  0.687800  1.0  -0.5829
  O  O735  1  0.498600  0.196300  0.750700  1.0  -0.5682
  O  O736  1  0.488300  0.244100  0.684500  1.0  -0.5715
  O  O737  1  0.731100  0.478430  0.806700  1.0  -0.602
  O  O738  1  0.679920  0.473960  0.745800  1.0  -0.5834
  O  O739  1  0.569630  0.335830  0.744000  1.0  -0.565
  O  O740  1  0.573500  0.287000  0.810200  1.0  -0.5883
  O  O741  1  0.589900  0.212400  0.755100  1.0  -0.576
  O  O742  1  0.583600  0.259900  0.687800  1.0  -0.5836
  O  O743  1  0.803700  0.498600  0.750700  1.0  -0.5676
  O  O744  1  0.755900  0.488300  0.684500  1.0  -0.5693
  O  O745  1  0.268900  0.521570  0.806700  1.0  -0.6018
  O  O746  1  0.320080  0.526040  0.745800  1.0  -0.5836
  O  O747  1  0.430370  0.664170  0.744000  1.0  -0.5632
  O  O748  1  0.426500  0.713000  0.810200  1.0  -0.5871
  O  O749  1  0.410100  0.787600  0.755100  1.0  -0.576
  O  O750  1  0.416400  0.740100  0.687800  1.0  -0.584
  O  O751  1  0.196300  0.501400  0.750700  1.0  -0.5674
  O  O752  1  0.244100  0.511700  0.684500  1.0  -0.5701
  O  O753  1  0.021570  0.768900  0.806700  1.0  -0.602
  O  O754  1  0.026040  0.820080  0.745800  1.0  -0.5852
  O  O755  1  0.164170  0.930370  0.744000  1.0  -0.5623
  O  O756  1  0.213000  0.926500  0.810200  1.0  -0.5874
  O  O757  1  0.287600  0.910100  0.755100  1.0  -0.5763
  O  O758  1  0.240100  0.916400  0.687800  1.0  -0.5821
  O  O759  1  0.001400  0.696300  0.750700  1.0  -0.5687
  O  O760  1  0.011700  0.744100  0.684500  1.0  -0.5711
  O  O761  1  0.978430  0.231100  0.806700  1.0  -0.6032
  O  O762  1  0.973960  0.179920  0.745800  1.0  -0.584
  O  O763  1  0.835830  0.069630  0.744000  1.0  -0.5623
  O  O764  1  0.787000  0.073500  0.810200  1.0  -0.588
  O  O765  1  0.712400  0.089900  0.755100  1.0  -0.5757
  O  O766  1  0.759900  0.083600  0.687800  1.0  -0.5829
  O  O767  1  0.998600  0.303700  0.750700  1.0  -0.5688
  O  O768  1  0.988300  0.255900  0.684500  1.0  -0.5699
  O  O769  1  0.231100  0.021570  0.806700  1.0  -0.602
  O  O770  1  0.179920  0.026040  0.745800  1.0  -0.5836
  O  O771  1  0.069630  0.164170  0.744000  1.0  -0.5636
  O  O772  1  0.073500  0.213000  0.810200  1.0  -0.5881
  O  O773  1  0.089900  0.287600  0.755100  1.0  -0.5763
  O  O774  1  0.083600  0.240100  0.687800  1.0  -0.5842
  O  O775  1  0.303700  0.001400  0.750700  1.0  -0.5675
  O  O776  1  0.255900  0.011700  0.684500  1.0  -0.569
  O  O777  1  0.768900  0.978430  0.806700  1.0  -0.6019
  O  O778  1  0.820080  0.973960  0.745800  1.0  -0.5832
  O  O779  1  0.930370  0.835830  0.744000  1.0  -0.5644
  O  O780  1  0.926500  0.787000  0.810200  1.0  -0.5877
  O  O781  1  0.910100  0.712400  0.755100  1.0  -0.5759
  O  O782  1  0.916400  0.759900  0.687800  1.0  -0.5836
  O  O783  1  0.696300  0.998600  0.750700  1.0  -0.5674
  O  O784  1  0.744100  0.988300  0.684500  1.0  -0.5702
  O  O785  1  0.478430  0.268900  0.193300  1.0  -0.6024
  O  O786  1  0.473960  0.320080  0.254200  1.0  -0.5849
  O  O787  1  0.335830  0.430370  0.256000  1.0  -0.5633
  O  O788  1  0.287000  0.426500  0.189800  1.0  -0.5887
  O  O789  1  0.212400  0.410100  0.244900  1.0  -0.5759
  O  O790  1  0.259900  0.416400  0.312200  1.0  -0.582
  O  O791  1  0.498600  0.196300  0.249300  1.0  -0.5687
  O  O792  1  0.488300  0.244100  0.315500  1.0  -0.5698
  O  O793  1  0.521570  0.731100  0.193300  1.0  -0.6023
  O  O794  1  0.526040  0.679920  0.254200  1.0  -0.5853
  O  O795  1  0.664170  0.569630  0.256000  1.0  -0.5624
  O  O796  1  0.713000  0.573500  0.189800  1.0  -0.5888
  O  O797  1  0.787600  0.589900  0.244900  1.0  -0.5757
  O  O798  1  0.740100  0.583600  0.312200  1.0  -0.5816
  O  O799  1  0.501400  0.803700  0.249300  1.0  -0.5694
  O  O800  1  0.511700  0.755900  0.315500  1.0  -0.5707
  O  O801  1  0.268900  0.521570  0.193300  1.0  -0.6015
  O  O802  1  0.320080  0.526040  0.254200  1.0  -0.5842
  O  O803  1  0.430370  0.664170  0.256000  1.0  -0.5643
  O  O804  1  0.426500  0.713000  0.189800  1.0  -0.5888
  O  O805  1  0.410100  0.787600  0.244900  1.0  -0.5761
  O  O806  1  0.416400  0.740100  0.312200  1.0  -0.5836
  O  O807  1  0.196300  0.501400  0.249300  1.0  -0.5681
  O  O808  1  0.244100  0.511700  0.315500  1.0  -0.5693
  O  O809  1  0.731100  0.478430  0.193300  1.0  -0.6016
  O  O810  1  0.679920  0.473960  0.254200  1.0  -0.5842
  O  O811  1  0.569630  0.335830  0.256000  1.0  -0.5655
  O  O812  1  0.573500  0.287000  0.189800  1.0  -0.5894
  O  O813  1  0.589900  0.212400  0.244900  1.0  -0.5763
  O  O814  1  0.583600  0.259900  0.312200  1.0  -0.583
  O  O815  1  0.803700  0.498600  0.249300  1.0  -0.5675
  O  O816  1  0.755900  0.488300  0.315500  1.0  -0.5691
