# generated using pymatgen
data_CdH14C18N3O2
_symmetry_space_group_name_H-M   'P 1'
_cell_length_a   15.43300000
_cell_length_b   28.55200000
_cell_length_c   36.86100000
_cell_angle_alpha   90.00000000
_cell_angle_beta   90.00000000
_cell_angle_gamma   90.00000000
_symmetry_Int_Tables_number   1
_chemical_formula_structural   CdH14C18N3O2
_chemical_formula_sum   'Cd32 H448 C576 N96 O64'
_cell_volume   16242.54221278
_cell_formula_units_Z   32
loop_
 _symmetry_equiv_pos_site_id
 _symmetry_equiv_pos_as_xyz
  1  'x, y, z'
loop_
 _atom_site_type_symbol
 _atom_site_label
 _atom_site_symmetry_multiplicity
 _atom_site_fract_x
 _atom_site_fract_y
 _atom_site_fract_z
 _atom_site_occupancy
 _atom_site_charge
  Cd  Cd1  1  0.461360  0.258130  0.552280  1.0  0.7664
  Cd  Cd2  1  0.461360  0.758130  0.052280  1.0  0.7664
  Cd  Cd3  1  0.961360  0.258130  0.052280  1.0  0.7664
  Cd  Cd4  1  0.961360  0.758130  0.552280  1.0  0.7664
  Cd  Cd5  1  0.288640  0.491870  0.552280  1.0  0.7698
  Cd  Cd6  1  0.288640  0.991870  0.052280  1.0  0.7698
  Cd  Cd7  1  0.788640  0.491870  0.052280  1.0  0.7698
  Cd  Cd8  1  0.788640  0.991870  0.552280  1.0  0.7698
  Cd  Cd9  1  0.288640  0.258130  0.197720  1.0  0.7652
  Cd  Cd10  1  0.288640  0.758130  0.697720  1.0  0.7652
  Cd  Cd11  1  0.788640  0.258130  0.697720  1.0  0.7652
  Cd  Cd12  1  0.788640  0.758130  0.197720  1.0  0.7652
  Cd  Cd13  1  0.461360  0.491870  0.197720  1.0  0.7716
  Cd  Cd14  1  0.461360  0.991870  0.697720  1.0  0.7716
  Cd  Cd15  1  0.961360  0.491870  0.697720  1.0  0.7716
  Cd  Cd16  1  0.961360  0.991870  0.197720  1.0  0.7716
  Cd  Cd17  1  0.538640  0.741870  0.447720  1.0  0.7691
  Cd  Cd18  1  0.538640  0.241870  0.947720  1.0  0.7691
  Cd  Cd19  1  0.038640  0.741870  0.947720  1.0  0.7691
  Cd  Cd20  1  0.038640  0.241870  0.447720  1.0  0.7691
  Cd  Cd21  1  0.711360  0.508130  0.447720  1.0  0.7655
  Cd  Cd22  1  0.711360  0.008130  0.947720  1.0  0.7655
  Cd  Cd23  1  0.211360  0.508130  0.947720  1.0  0.7655
  Cd  Cd24  1  0.211360  0.008130  0.447720  1.0  0.7655
  Cd  Cd25  1  0.711360  0.741870  0.802280  1.0  0.7721
  Cd  Cd26  1  0.711360  0.241870  0.302280  1.0  0.7721
  Cd  Cd27  1  0.211360  0.741870  0.302280  1.0  0.7721
  Cd  Cd28  1  0.211360  0.241870  0.802280  1.0  0.7721
  Cd  Cd29  1  0.538640  0.508130  0.802280  1.0  0.7664
  Cd  Cd30  1  0.538640  0.008130  0.302280  1.0  0.7664
  Cd  Cd31  1  0.038640  0.508130  0.302280  1.0  0.7664
  Cd  Cd32  1  0.038640  0.008130  0.802280  1.0  0.7664
  H  H33  1  0.477100  0.386300  0.429200  1.0  0.1803
  H  H34  1  0.532600  0.349600  0.453000  1.0  0.1468
  H  H35  1  0.371900  0.217500  0.623900  1.0  0.0605
  H  H36  1  0.245900  0.213600  0.655900  1.0  0.0983
  H  H37  1  0.120300  0.253000  0.565900  1.0  0.0905
  H  H38  1  0.251900  0.259500  0.537700  1.0  0.0486
  H  H39  1  0.579900  0.189700  0.431900  1.0  0.0989
  H  H40  1  0.563100  0.238000  0.480700  1.0  0.0595
  H  H41  1  0.359100  0.169500  0.512300  1.0  0.0429
  H  H42  1  0.370000  0.118700  0.464400  1.0  0.098
  H  H43  1  0.519000  0.166800  0.373400  1.0  0.0837
  H  H44  1  0.538200  0.116500  0.325400  1.0  0.055
  H  H45  1  0.472500  0.010300  0.384600  1.0  0.0605
  H  H46  1  0.450600  0.056800  0.434300  1.0  0.1153
  H  H47  1  0.477100  0.886300  0.929200  1.0  0.1803
  H  H48  1  0.532600  0.849600  0.953000  1.0  0.1468
  H  H49  1  0.371900  0.717500  0.123900  1.0  0.0605
  H  H50  1  0.245900  0.713600  0.155900  1.0  0.0983
  H  H51  1  0.120300  0.753000  0.065900  1.0  0.0905
  H  H52  1  0.251900  0.759500  0.037700  1.0  0.0486
  H  H53  1  0.579900  0.689700  0.931900  1.0  0.0989
  H  H54  1  0.563100  0.738000  0.980700  1.0  0.0595
  H  H55  1  0.359100  0.669500  0.012300  1.0  0.0429
  H  H56  1  0.370000  0.618700  0.964400  1.0  0.098
  H  H57  1  0.519000  0.666800  0.873400  1.0  0.0837
  H  H58  1  0.538200  0.616500  0.825400  1.0  0.055
  H  H59  1  0.472500  0.510300  0.884600  1.0  0.0605
  H  H60  1  0.450600  0.556800  0.934300  1.0  0.1153
  H  H61  1  0.977100  0.386300  0.929200  1.0  0.1803
  H  H62  1  0.032600  0.349600  0.953000  1.0  0.1468
  H  H63  1  0.871900  0.217500  0.123900  1.0  0.0605
  H  H64  1  0.745900  0.213600  0.155900  1.0  0.0982
  H  H65  1  0.620300  0.253000  0.065900  1.0  0.0905
  H  H66  1  0.751900  0.259500  0.037700  1.0  0.0486
  H  H67  1  0.079900  0.189700  0.931900  1.0  0.0989
  H  H68  1  0.063100  0.238000  0.980700  1.0  0.0595
  H  H69  1  0.859100  0.169500  0.012300  1.0  0.0429
  H  H70  1  0.870000  0.118700  0.964400  1.0  0.098
  H  H71  1  0.019000  0.166800  0.873400  1.0  0.0837
  H  H72  1  0.038200  0.116500  0.825400  1.0  0.055
  H  H73  1  0.972500  0.010300  0.884600  1.0  0.0605
  H  H74  1  0.950600  0.056800  0.934300  1.0  0.1153
  H  H75  1  0.977100  0.886300  0.429200  1.0  0.1803
  H  H76  1  0.032600  0.849600  0.453000  1.0  0.1468
  H  H77  1  0.871900  0.717500  0.623900  1.0  0.0605
  H  H78  1  0.745900  0.713600  0.655900  1.0  0.0982
  H  H79  1  0.620300  0.753000  0.565900  1.0  0.0905
  H  H80  1  0.751900  0.759500  0.537700  1.0  0.0486
  H  H81  1  0.079900  0.689700  0.431900  1.0  0.0989
  H  H82  1  0.063100  0.738000  0.480700  1.0  0.0595
  H  H83  1  0.859100  0.669500  0.512300  1.0  0.0429
  H  H84  1  0.870000  0.618700  0.464400  1.0  0.098
  H  H85  1  0.019000  0.666800  0.373400  1.0  0.0837
  H  H86  1  0.038200  0.616500  0.325400  1.0  0.055
  H  H87  1  0.972500  0.510300  0.384600  1.0  0.0605
  H  H88  1  0.950600  0.556800  0.434300  1.0  0.1153
  H  H89  1  0.272900  0.363700  0.429200  1.0  0.1819
  H  H90  1  0.217400  0.400400  0.453000  1.0  0.1456
  H  H91  1  0.378100  0.532500  0.623900  1.0  0.06
  H  H92  1  0.504100  0.536400  0.655900  1.0  0.0982
  H  H93  1  0.629700  0.497000  0.565900  1.0  0.0907
  H  H94  1  0.498100  0.490500  0.537700  1.0  0.0487
  H  H95  1  0.170100  0.560300  0.431900  1.0  0.098
  H  H96  1  0.186900  0.512000  0.480700  1.0  0.0593
  H  H97  1  0.390900  0.580500  0.512300  1.0  0.0417
  H  H98  1  0.380000  0.631300  0.464400  1.0  0.098
  H  H99  1  0.231000  0.583200  0.373400  1.0  0.0842
  H  H100  1  0.211800  0.633500  0.325400  1.0  0.0551
  H  H101  1  0.277500  0.739700  0.384600  1.0  0.0591
  H  H102  1  0.299400  0.693200  0.434300  1.0  0.1149
  H  H103  1  0.272900  0.863700  0.929200  1.0  0.1819
  H  H104  1  0.217400  0.900400  0.953000  1.0  0.1456
  H  H105  1  0.378100  0.032500  0.123900  1.0  0.06
  H  H106  1  0.504100  0.036400  0.155900  1.0  0.0982
  H  H107  1  0.629700  0.997000  0.065900  1.0  0.0907
  H  H108  1  0.498100  0.990500  0.037700  1.0  0.0487
  H  H109  1  0.170100  0.060300  0.931900  1.0  0.098
  H  H110  1  0.186900  0.012000  0.980700  1.0  0.0593
  H  H111  1  0.390900  0.080500  0.012300  1.0  0.0417
  H  H112  1  0.380000  0.131300  0.964400  1.0  0.098
  H  H113  1  0.231000  0.083200  0.873400  1.0  0.0842
  H  H114  1  0.211800  0.133500  0.825400  1.0  0.0551
  H  H115  1  0.277500  0.239700  0.884600  1.0  0.0591
  H  H116  1  0.299400  0.193200  0.934300  1.0  0.1149
  H  H117  1  0.772900  0.363700  0.929200  1.0  0.1819
  H  H118  1  0.717400  0.400400  0.953000  1.0  0.1456
  H  H119  1  0.878100  0.532500  0.123900  1.0  0.06
  H  H120  1  0.004100  0.536400  0.155900  1.0  0.0982
  H  H121  1  0.129700  0.497000  0.065900  1.0  0.0908
  H  H122  1  0.998100  0.490500  0.037700  1.0  0.0487
  H  H123  1  0.670100  0.560300  0.931900  1.0  0.098
  H  H124  1  0.686900  0.512000  0.980700  1.0  0.0593
  H  H125  1  0.890900  0.580500  0.012300  1.0  0.0417
  H  H126  1  0.880000  0.631300  0.964400  1.0  0.098
  H  H127  1  0.731000  0.583200  0.873400  1.0  0.0842
  H  H128  1  0.711800  0.633500  0.825400  1.0  0.0551
  H  H129  1  0.777500  0.739700  0.884600  1.0  0.0591
  H  H130  1  0.799400  0.693200  0.934300  1.0  0.1149
  H  H131  1  0.772900  0.863700  0.429200  1.0  0.1819
  H  H132  1  0.717400  0.900400  0.453000  1.0  0.1456
  H  H133  1  0.878100  0.032500  0.623900  1.0  0.06
  H  H134  1  0.004100  0.036400  0.655900  1.0  0.0982
  H  H135  1  0.129700  0.997000  0.565900  1.0  0.0908
  H  H136  1  0.998100  0.990500  0.537700  1.0  0.0487
  H  H137  1  0.670100  0.060300  0.431900  1.0  0.098
  H  H138  1  0.686900  0.012000  0.480700  1.0  0.0593
  H  H139  1  0.890900  0.080500  0.512300  1.0  0.0417
  H  H140  1  0.880000  0.131300  0.464400  1.0  0.098
  H  H141  1  0.731000  0.083200  0.373400  1.0  0.0842
  H  H142  1  0.711800  0.133500  0.325400  1.0  0.0551
  H  H143  1  0.777500  0.239700  0.384600  1.0  0.0591
  H  H144  1  0.799400  0.193200  0.434300  1.0  0.1149
  H  H145  1  0.272900  0.386300  0.320800  1.0  0.1819
  H  H146  1  0.217400  0.349600  0.297000  1.0  0.1449
  H  H147  1  0.378100  0.217500  0.126100  1.0  0.0596
  H  H148  1  0.504100  0.213600  0.094100  1.0  0.099
  H  H149  1  0.629700  0.253000  0.184100  1.0  0.091
  H  H150  1  0.498100  0.259500  0.212300  1.0  0.048
  H  H151  1  0.170100  0.189700  0.318100  1.0  0.0976
  H  H152  1  0.186900  0.238000  0.269300  1.0  0.0596
  H  H153  1  0.390900  0.169500  0.237700  1.0  0.0414
  H  H154  1  0.380000  0.118700  0.285600  1.0  0.0983
  H  H155  1  0.231000  0.166800  0.376600  1.0  0.0837
  H  H156  1  0.211800  0.116500  0.424600  1.0  0.054
  H  H157  1  0.277500  0.010300  0.365400  1.0  0.06
  H  H158  1  0.299400  0.056800  0.315700  1.0  0.1151
  H  H159  1  0.272900  0.886300  0.820800  1.0  0.1819
  H  H160  1  0.217400  0.849600  0.797000  1.0  0.1449
  H  H161  1  0.378100  0.717500  0.626100  1.0  0.0596
  H  H162  1  0.504100  0.713600  0.594100  1.0  0.099
  H  H163  1  0.629700  0.753000  0.684100  1.0  0.091
  H  H164  1  0.498100  0.759500  0.712300  1.0  0.048
  H  H165  1  0.170100  0.689700  0.818100  1.0  0.0976
  H  H166  1  0.186900  0.738000  0.769300  1.0  0.0596
  H  H167  1  0.390900  0.669500  0.737700  1.0  0.0414
  H  H168  1  0.380000  0.618700  0.785600  1.0  0.0983
  H  H169  1  0.231000  0.666800  0.876600  1.0  0.0837
  H  H170  1  0.211800  0.616500  0.924600  1.0  0.054
  H  H171  1  0.277500  0.510300  0.865400  1.0  0.06
  H  H172  1  0.299400  0.556800  0.815700  1.0  0.1151
  H  H173  1  0.772900  0.386300  0.820800  1.0  0.1819
  H  H174  1  0.717400  0.349600  0.797000  1.0  0.1449
  H  H175  1  0.878100  0.217500  0.626100  1.0  0.0596
  H  H176  1  0.004100  0.213600  0.594100  1.0  0.099
  H  H177  1  0.129700  0.253000  0.684100  1.0  0.091
  H  H178  1  0.998100  0.259500  0.712300  1.0  0.048
  H  H179  1  0.670100  0.189700  0.818100  1.0  0.0976
  H  H180  1  0.686900  0.238000  0.769300  1.0  0.0596
  H  H181  1  0.890900  0.169500  0.737700  1.0  0.0414
  H  H182  1  0.880000  0.118700  0.785600  1.0  0.0983
  H  H183  1  0.731000  0.166800  0.876600  1.0  0.0837
  H  H184  1  0.711800  0.116500  0.924600  1.0  0.054
  H  H185  1  0.777500  0.010300  0.865400  1.0  0.06
  H  H186  1  0.799400  0.056800  0.815700  1.0  0.1151
  H  H187  1  0.772900  0.886300  0.320800  1.0  0.1819
  H  H188  1  0.717400  0.849600  0.297000  1.0  0.1449
  H  H189  1  0.878100  0.717500  0.126100  1.0  0.0596
  H  H190  1  0.004100  0.713600  0.094100  1.0  0.099
  H  H191  1  0.129700  0.753000  0.184100  1.0  0.091
  H  H192  1  0.998100  0.759500  0.212300  1.0  0.048
  H  H193  1  0.670100  0.689700  0.318100  1.0  0.0976
  H  H194  1  0.686900  0.738000  0.269300  1.0  0.0596
  H  H195  1  0.890900  0.669500  0.237700  1.0  0.0414
  H  H196  1  0.880000  0.618700  0.285600  1.0  0.0983
  H  H197  1  0.731000  0.666800  0.376600  1.0  0.0837
  H  H198  1  0.711800  0.616500  0.424600  1.0  0.054
  H  H199  1  0.777500  0.510300  0.365400  1.0  0.06
  H  H200  1  0.799400  0.556800  0.315700  1.0  0.1151
  H  H201  1  0.477100  0.363700  0.320800  1.0  0.182
  H  H202  1  0.532600  0.400400  0.297000  1.0  0.1457
  H  H203  1  0.371900  0.532500  0.126100  1.0  0.0601
  H  H204  1  0.245900  0.536400  0.094100  1.0  0.0991
  H  H205  1  0.120300  0.497000  0.184100  1.0  0.0905
  H  H206  1  0.251900  0.490500  0.212300  1.0  0.0484
  H  H207  1  0.579900  0.560300  0.318100  1.0  0.0985
  H  H208  1  0.563100  0.512000  0.269300  1.0  0.0597
  H  H209  1  0.359100  0.580500  0.237700  1.0  0.0428
  H  H210  1  0.370000  0.631300  0.285600  1.0  0.0988
  H  H211  1  0.519000  0.583200  0.376600  1.0  0.0838
  H  H212  1  0.538200  0.633500  0.424600  1.0  0.0544
  H  H213  1  0.472500  0.739700  0.365400  1.0  0.0592
  H  H214  1  0.450600  0.693200  0.315700  1.0  0.1152
  H  H215  1  0.477100  0.863700  0.820800  1.0  0.182
  H  H216  1  0.532600  0.900400  0.797000  1.0  0.1457
  H  H217  1  0.371900  0.032500  0.626100  1.0  0.0601
  H  H218  1  0.245900  0.036400  0.594100  1.0  0.0991
  H  H219  1  0.120300  0.997000  0.684100  1.0  0.0905
  H  H220  1  0.251900  0.990500  0.712300  1.0  0.0484
  H  H221  1  0.579900  0.060300  0.818100  1.0  0.0985
  H  H222  1  0.563100  0.012000  0.769300  1.0  0.0597
  H  H223  1  0.359100  0.080500  0.737700  1.0  0.0428
  H  H224  1  0.370000  0.131300  0.785600  1.0  0.0988
  H  H225  1  0.519000  0.083200  0.876600  1.0  0.0838
  H  H226  1  0.538200  0.133500  0.924600  1.0  0.0544
  H  H227  1  0.472500  0.239700  0.865400  1.0  0.0592
  H  H228  1  0.450600  0.193200  0.815700  1.0  0.1152
  H  H229  1  0.977100  0.363700  0.820800  1.0  0.182
  H  H230  1  0.032600  0.400400  0.797000  1.0  0.1457
  H  H231  1  0.871900  0.532500  0.626100  1.0  0.0601
  H  H232  1  0.745900  0.536400  0.594100  1.0  0.099
  H  H233  1  0.620300  0.497000  0.684100  1.0  0.0905
  H  H234  1  0.751900  0.490500  0.712300  1.0  0.0484
  H  H235  1  0.079900  0.560300  0.818100  1.0  0.0985
  H  H236  1  0.063100  0.512000  0.769300  1.0  0.0597
  H  H237  1  0.859100  0.580500  0.737700  1.0  0.0428
  H  H238  1  0.870000  0.631300  0.785600  1.0  0.0988
  H  H239  1  0.019000  0.583200  0.876600  1.0  0.0838
  H  H240  1  0.038200  0.633500  0.924600  1.0  0.0544
  H  H241  1  0.972500  0.739700  0.865400  1.0  0.0592
  H  H242  1  0.950600  0.693200  0.815700  1.0  0.1152
  H  H243  1  0.977100  0.863700  0.320800  1.0  0.182
  H  H244  1  0.032600  0.900400  0.297000  1.0  0.1457
  H  H245  1  0.871900  0.032500  0.126100  1.0  0.0601
  H  H246  1  0.745900  0.036400  0.094100  1.0  0.099
  H  H247  1  0.620300  0.997000  0.184100  1.0  0.0905
  H  H248  1  0.751900  0.990500  0.212300  1.0  0.0484
  H  H249  1  0.079900  0.060300  0.318100  1.0  0.0985
  H  H250  1  0.063100  0.012000  0.269300  1.0  0.0597
  H  H251  1  0.859100  0.080500  0.237700  1.0  0.0428
  H  H252  1  0.870000  0.131300  0.285600  1.0  0.0988
  H  H253  1  0.019000  0.083200  0.376600  1.0  0.0838
  H  H254  1  0.038200  0.133500  0.424600  1.0  0.0544
  H  H255  1  0.972500  0.239700  0.365400  1.0  0.0592
  H  H256  1  0.950600  0.193200  0.315700  1.0  0.1152
  H  H257  1  0.522900  0.613700  0.570800  1.0  0.183
  H  H258  1  0.467400  0.650400  0.547000  1.0  0.1445
  H  H259  1  0.628100  0.782500  0.376100  1.0  0.0596
  H  H260  1  0.754100  0.786400  0.344100  1.0  0.0993
  H  H261  1  0.879700  0.747000  0.434100  1.0  0.091
  H  H262  1  0.748100  0.740500  0.462300  1.0  0.0482
  H  H263  1  0.420100  0.810300  0.568100  1.0  0.0977
  H  H264  1  0.436900  0.762000  0.519300  1.0  0.0589
  H  H265  1  0.640900  0.830500  0.487700  1.0  0.0414
  H  H266  1  0.630000  0.881300  0.535600  1.0  0.0984
  H  H267  1  0.481000  0.833200  0.626600  1.0  0.0842
  H  H268  1  0.461800  0.883500  0.674600  1.0  0.0543
  H  H269  1  0.527500  0.989700  0.615400  1.0  0.0593
  H  H270  1  0.549400  0.943200  0.565700  1.0  0.1152
  H  H271  1  0.522900  0.113700  0.070800  1.0  0.183
  H  H272  1  0.467400  0.150400  0.047000  1.0  0.1445
  H  H273  1  0.628100  0.282500  0.876100  1.0  0.0596
  H  H274  1  0.754100  0.286400  0.844100  1.0  0.0993
  H  H275  1  0.879700  0.247000  0.934100  1.0  0.091
  H  H276  1  0.748100  0.240500  0.962300  1.0  0.0482
  H  H277  1  0.420100  0.310300  0.068100  1.0  0.0977
  H  H278  1  0.436900  0.262000  0.019300  1.0  0.0589
  H  H279  1  0.640900  0.330500  0.987700  1.0  0.0414
  H  H280  1  0.630000  0.381300  0.035600  1.0  0.0984
  H  H281  1  0.481000  0.333200  0.126600  1.0  0.0842
  H  H282  1  0.461800  0.383500  0.174600  1.0  0.0543
  H  H283  1  0.527500  0.489700  0.115400  1.0  0.0593
  H  H284  1  0.549400  0.443200  0.065700  1.0  0.1152
  H  H285  1  0.022900  0.613700  0.070800  1.0  0.183
  H  H286  1  0.967400  0.650400  0.047000  1.0  0.1445
  H  H287  1  0.128100  0.782500  0.876100  1.0  0.0596
  H  H288  1  0.254100  0.786400  0.844100  1.0  0.0993
  H  H289  1  0.379700  0.747000  0.934100  1.0  0.091
  H  H290  1  0.248100  0.740500  0.962300  1.0  0.0482
  H  H291  1  0.920100  0.810300  0.068100  1.0  0.0977
  H  H292  1  0.936900  0.762000  0.019300  1.0  0.0589
  H  H293  1  0.140900  0.830500  0.987700  1.0  0.0414
  H  H294  1  0.130000  0.881300  0.035600  1.0  0.0984
  H  H295  1  0.981000  0.833200  0.126600  1.0  0.0842
  H  H296  1  0.961800  0.883500  0.174600  1.0  0.0543
  H  H297  1  0.027500  0.989700  0.115400  1.0  0.0593
  H  H298  1  0.049400  0.943200  0.065700  1.0  0.1152
  H  H299  1  0.022900  0.113700  0.570800  1.0  0.183
  H  H300  1  0.967400  0.150400  0.547000  1.0  0.1445
  H  H301  1  0.128100  0.282500  0.376100  1.0  0.0596
  H  H302  1  0.254100  0.286400  0.344100  1.0  0.0993
  H  H303  1  0.379700  0.247000  0.434100  1.0  0.091
  H  H304  1  0.248100  0.240500  0.462300  1.0  0.0482
  H  H305  1  0.920100  0.310300  0.568100  1.0  0.0977
  H  H306  1  0.936900  0.262000  0.519300  1.0  0.0589
  H  H307  1  0.140900  0.330500  0.487700  1.0  0.0414
  H  H308  1  0.130000  0.381300  0.535600  1.0  0.0984
  H  H309  1  0.981000  0.333200  0.626600  1.0  0.0842
  H  H310  1  0.961800  0.383500  0.674600  1.0  0.0543
  H  H311  1  0.027500  0.489700  0.615400  1.0  0.0593
  H  H312  1  0.049400  0.443200  0.565700  1.0  0.1152
  H  H313  1  0.727100  0.636300  0.570800  1.0  0.1811
  H  H314  1  0.782600  0.599600  0.547000  1.0  0.1461
  H  H315  1  0.621900  0.467500  0.376100  1.0  0.0596
  H  H316  1  0.495900  0.463600  0.344100  1.0  0.0985
  H  H317  1  0.370300  0.503000  0.434100  1.0  0.0905
  H  H318  1  0.501900  0.509500  0.462300  1.0  0.0482
  H  H319  1  0.829900  0.439700  0.568100  1.0  0.0984
  H  H320  1  0.813100  0.488000  0.519300  1.0  0.06
  H  H321  1  0.609100  0.419500  0.487700  1.0  0.043
  H  H322  1  0.620000  0.368700  0.535600  1.0  0.0981
  H  H323  1  0.769000  0.416800  0.626600  1.0  0.0835
  H  H324  1  0.788200  0.366500  0.674600  1.0  0.0541
  H  H325  1  0.722500  0.260300  0.615400  1.0  0.0601
  H  H326  1  0.700600  0.306800  0.565700  1.0  0.115
  H  H327  1  0.727100  0.136300  0.070800  1.0  0.1811
  H  H328  1  0.782600  0.099600  0.047000  1.0  0.1461
  H  H329  1  0.621900  0.967500  0.876100  1.0  0.0596
  H  H330  1  0.495900  0.963600  0.844100  1.0  0.0985
  H  H331  1  0.370300  0.003000  0.934100  1.0  0.0905
  H  H332  1  0.501900  0.009500  0.962300  1.0  0.0482
  H  H333  1  0.829900  0.939700  0.068100  1.0  0.0984
  H  H334  1  0.813100  0.988000  0.019300  1.0  0.06
  H  H335  1  0.609100  0.919500  0.987700  1.0  0.043
  H  H336  1  0.620000  0.868700  0.035600  1.0  0.0981
  H  H337  1  0.769000  0.916800  0.126600  1.0  0.0835
  H  H338  1  0.788200  0.866500  0.174600  1.0  0.0541
  H  H339  1  0.722500  0.760300  0.115400  1.0  0.0601
  H  H340  1  0.700600  0.806800  0.065700  1.0  0.115
  H  H341  1  0.227100  0.636300  0.070800  1.0  0.1812
  H  H342  1  0.282600  0.599600  0.047000  1.0  0.1461
  H  H343  1  0.121900  0.467500  0.876100  1.0  0.0596
  H  H344  1  0.995900  0.463600  0.844100  1.0  0.0985
  H  H345  1  0.870300  0.503000  0.934100  1.0  0.0905
  H  H346  1  0.001900  0.509500  0.962300  1.0  0.0482
  H  H347  1  0.329900  0.439700  0.068100  1.0  0.0984
  H  H348  1  0.313100  0.488000  0.019300  1.0  0.06
  H  H349  1  0.109100  0.419500  0.987700  1.0  0.043
  H  H350  1  0.120000  0.368700  0.035600  1.0  0.0981
  H  H351  1  0.269000  0.416800  0.126600  1.0  0.0835
  H  H352  1  0.288200  0.366500  0.174600  1.0  0.0541
  H  H353  1  0.222500  0.260300  0.115400  1.0  0.0601
  H  H354  1  0.200600  0.306800  0.065700  1.0  0.115
  H  H355  1  0.227100  0.136300  0.570800  1.0  0.1812
  H  H356  1  0.282600  0.099600  0.547000  1.0  0.1461
  H  H357  1  0.121900  0.967500  0.376100  1.0  0.0596
  H  H358  1  0.995900  0.963600  0.344100  1.0  0.0985
  H  H359  1  0.870300  0.003000  0.434100  1.0  0.0905
  H  H360  1  0.001900  0.009500  0.462300  1.0  0.0482
  H  H361  1  0.329900  0.939700  0.568100  1.0  0.0984
  H  H362  1  0.313100  0.988000  0.519300  1.0  0.06
  H  H363  1  0.109100  0.919500  0.487700  1.0  0.043
  H  H364  1  0.120000  0.868700  0.535600  1.0  0.0981
  H  H365  1  0.269000  0.916800  0.626600  1.0  0.0835
  H  H366  1  0.288200  0.866500  0.674600  1.0  0.0541
  H  H367  1  0.222500  0.760300  0.615400  1.0  0.0601
  H  H368  1  0.200600  0.806800  0.565700  1.0  0.115
  H  H369  1  0.727100  0.613700  0.679200  1.0  0.1811
  H  H370  1  0.782600  0.650400  0.703000  1.0  0.1468
  H  H371  1  0.621900  0.782500  0.873900  1.0  0.0606
  H  H372  1  0.495900  0.786400  0.905900  1.0  0.0984
  H  H373  1  0.370300  0.747000  0.815900  1.0  0.0903
  H  H374  1  0.501900  0.740500  0.787700  1.0  0.0487
  H  H375  1  0.829900  0.810300  0.681900  1.0  0.0989
  H  H376  1  0.813100  0.762000  0.730700  1.0  0.0596
  H  H377  1  0.609100  0.830500  0.762300  1.0  0.0429
  H  H378  1  0.620000  0.881300  0.714400  1.0  0.0983
  H  H379  1  0.769000  0.833200  0.623400  1.0  0.0838
  H  H380  1  0.788200  0.883500  0.575400  1.0  0.0552
  H  H381  1  0.722500  0.989700  0.634600  1.0  0.0591
  H  H382  1  0.700600  0.943200  0.684300  1.0  0.1149
  H  H383  1  0.727100  0.113700  0.179200  1.0  0.1811
  H  H384  1  0.782600  0.150400  0.203000  1.0  0.1468
  H  H385  1  0.621900  0.282500  0.373900  1.0  0.0606
  H  H386  1  0.495900  0.286400  0.405900  1.0  0.0984
  H  H387  1  0.370300  0.247000  0.315900  1.0  0.0903
  H  H388  1  0.501900  0.240500  0.287700  1.0  0.0487
  H  H389  1  0.829900  0.310300  0.181900  1.0  0.0989
  H  H390  1  0.813100  0.262000  0.230700  1.0  0.0596
  H  H391  1  0.609100  0.330500  0.262300  1.0  0.0429
  H  H392  1  0.620000  0.381300  0.214400  1.0  0.0983
  H  H393  1  0.769000  0.333200  0.123400  1.0  0.0838
  H  H394  1  0.788200  0.383500  0.075400  1.0  0.0552
  H  H395  1  0.722500  0.489700  0.134600  1.0  0.0591
  H  H396  1  0.700600  0.443200  0.184300  1.0  0.1149
  H  H397  1  0.227100  0.613700  0.179200  1.0  0.1812
  H  H398  1  0.282600  0.650400  0.203000  1.0  0.1468
  H  H399  1  0.121900  0.782500  0.373900  1.0  0.0606
  H  H400  1  0.995900  0.786400  0.405900  1.0  0.0984
  H  H401  1  0.870300  0.747000  0.315900  1.0  0.0903
  H  H402  1  0.001900  0.740500  0.287700  1.0  0.0487
  H  H403  1  0.329900  0.810300  0.181900  1.0  0.0989
  H  H404  1  0.313100  0.762000  0.230700  1.0  0.0596
  H  H405  1  0.109100  0.830500  0.262300  1.0  0.0429
  H  H406  1  0.120000  0.881300  0.214400  1.0  0.0983
  H  H407  1  0.269000  0.833200  0.123400  1.0  0.0838
  H  H408  1  0.288200  0.883500  0.075400  1.0  0.0552
  H  H409  1  0.222500  0.989700  0.134600  1.0  0.0591
  H  H410  1  0.200600  0.943200  0.184300  1.0  0.1149
  H  H411  1  0.227100  0.113700  0.679200  1.0  0.1812
  H  H412  1  0.282600  0.150400  0.703000  1.0  0.1468
  H  H413  1  0.121900  0.282500  0.873900  1.0  0.0606
  H  H414  1  0.995900  0.286400  0.905900  1.0  0.0984
  H  H415  1  0.870300  0.247000  0.815900  1.0  0.0903
  H  H416  1  0.001900  0.240500  0.787700  1.0  0.0487
  H  H417  1  0.329900  0.310300  0.681900  1.0  0.0989
  H  H418  1  0.313100  0.262000  0.730700  1.0  0.0596
  H  H419  1  0.109100  0.330500  0.762300  1.0  0.0429
  H  H420  1  0.120000  0.381300  0.714400  1.0  0.0983
  H  H421  1  0.269000  0.333200  0.623400  1.0  0.0838
  H  H422  1  0.288200  0.383500  0.575400  1.0  0.0552
  H  H423  1  0.222500  0.489700  0.634600  1.0  0.0591
  H  H424  1  0.200600  0.443200  0.684300  1.0  0.1149
  H  H425  1  0.522900  0.636300  0.679200  1.0  0.1809
  H  H426  1  0.467400  0.599600  0.703000  1.0  0.1456
  H  H427  1  0.628100  0.467500  0.873900  1.0  0.0606
  H  H428  1  0.754100  0.463600  0.905900  1.0  0.0983
  H  H429  1  0.879700  0.503000  0.815900  1.0  0.0907
  H  H430  1  0.748100  0.509500  0.787700  1.0  0.0486
  H  H431  1  0.420100  0.439700  0.681900  1.0  0.0982
  H  H432  1  0.436900  0.488000  0.730700  1.0  0.0596
  H  H433  1  0.640900  0.419500  0.762300  1.0  0.0424
  H  H434  1  0.630000  0.368700  0.714400  1.0  0.0981
  H  H435  1  0.481000  0.416800  0.623400  1.0  0.084
  H  H436  1  0.461800  0.366500  0.575400  1.0  0.055
  H  H437  1  0.527500  0.260300  0.634600  1.0  0.0603
  H  H438  1  0.549400  0.306800  0.684300  1.0  0.1153
  H  H439  1  0.522900  0.136300  0.179200  1.0  0.1809
  H  H440  1  0.467400  0.099600  0.203000  1.0  0.1456
  H  H441  1  0.628100  0.967500  0.373900  1.0  0.0606
  H  H442  1  0.754100  0.963600  0.405900  1.0  0.0983
  H  H443  1  0.879700  0.003000  0.315900  1.0  0.0907
  H  H444  1  0.748100  0.009500  0.287700  1.0  0.0486
  H  H445  1  0.420100  0.939700  0.181900  1.0  0.0982
  H  H446  1  0.436900  0.988000  0.230700  1.0  0.0596
  H  H447  1  0.640900  0.919500  0.262300  1.0  0.0424
  H  H448  1  0.630000  0.868700  0.214400  1.0  0.0981
  H  H449  1  0.481000  0.916800  0.123400  1.0  0.084
  H  H450  1  0.461800  0.866500  0.075400  1.0  0.055
  H  H451  1  0.527500  0.760300  0.134600  1.0  0.0603
  H  H452  1  0.549400  0.806800  0.184300  1.0  0.1153
  H  H453  1  0.022900  0.636300  0.179200  1.0  0.1808
  H  H454  1  0.967400  0.599600  0.203000  1.0  0.1456
  H  H455  1  0.128100  0.467500  0.373900  1.0  0.0606
  H  H456  1  0.254100  0.463600  0.405900  1.0  0.0983
  H  H457  1  0.379700  0.503000  0.315900  1.0  0.0907
  H  H458  1  0.248100  0.509500  0.287700  1.0  0.0486
  H  H459  1  0.920100  0.439700  0.181900  1.0  0.0982
  H  H460  1  0.936900  0.488000  0.230700  1.0  0.0596
  H  H461  1  0.140900  0.419500  0.262300  1.0  0.0424
  H  H462  1  0.130000  0.368700  0.214400  1.0  0.0981
  H  H463  1  0.981000  0.416800  0.123400  1.0  0.084
  H  H464  1  0.961800  0.366500  0.075400  1.0  0.055
  H  H465  1  0.027500  0.260300  0.134600  1.0  0.0603
  H  H466  1  0.049400  0.306800  0.184300  1.0  0.1153
  H  H467  1  0.022900  0.136300  0.679200  1.0  0.1808
  H  H468  1  0.967400  0.099600  0.703000  1.0  0.1456
  H  H469  1  0.128100  0.967500  0.873900  1.0  0.0606
  H  H470  1  0.254100  0.963600  0.905900  1.0  0.0983
  H  H471  1  0.379700  0.003000  0.815900  1.0  0.0907
  H  H472  1  0.248100  0.009500  0.787700  1.0  0.0486
  H  H473  1  0.920100  0.939700  0.681900  1.0  0.0982
  H  H474  1  0.936900  0.988000  0.730700  1.0  0.0596
  H  H475  1  0.140900  0.919500  0.762300  1.0  0.0424
  H  H476  1  0.130000  0.868700  0.714400  1.0  0.0981
  H  H477  1  0.981000  0.916800  0.623400  1.0  0.084
  H  H478  1  0.961800  0.866500  0.575400  1.0  0.055
  H  H479  1  0.027500  0.760300  0.634600  1.0  0.0603
  H  H480  1  0.049400  0.806800  0.684300  1.0  0.1153
  C  C481  1  0.433140  0.329630  0.502990  1.0  0.6796
  C  C482  1  0.418390  0.363240  0.472070  1.0  0.0243
  C  C483  1  0.482000  0.366700  0.449270  1.0  -0.0593
  C  C484  1  0.320550  0.225640  0.612310  1.0  0.1609
  C  C485  1  0.244990  0.222830  0.631720  1.0  -0.2326
  C  C486  1  0.166710  0.233940  0.614860  1.0  0.0624
  C  C487  1  0.170800  0.246580  0.578700  1.0  -0.2176
  C  C488  1  0.250490  0.249630  0.561770  1.0  0.1607
  C  C489  1  0.533980  0.185020  0.447870  1.0  -0.222
  C  C490  1  0.523530  0.213800  0.477240  1.0  0.1641
  C  C491  1  0.404020  0.173570  0.495740  1.0  0.1768
  C  C492  1  0.409780  0.142910  0.466990  1.0  -0.2592
  C  C493  1  0.475860  0.148790  0.441970  1.0  0.071
  C  C494  1  0.484860  0.117670  0.409940  1.0  0.0764
  C  C495  1  0.509800  0.134850  0.376490  1.0  -0.2157
  C  C496  1  0.521070  0.104390  0.347680  1.0  0.1707
  C  C497  1  0.482480  0.042290  0.382470  1.0  0.1598
  C  C498  1  0.469430  0.069890  0.412560  1.0  -0.2386
  C  C499  1  0.433140  0.829630  0.002990  1.0  0.6796
  C  C500  1  0.418390  0.863240  0.972070  1.0  0.0243
  C  C501  1  0.482000  0.866700  0.949270  1.0  -0.0593
  C  C502  1  0.320550  0.725640  0.112310  1.0  0.1609
  C  C503  1  0.244990  0.722830  0.131720  1.0  -0.2326
  C  C504  1  0.166710  0.733940  0.114860  1.0  0.0624
  C  C505  1  0.170800  0.746580  0.078700  1.0  -0.2176
  C  C506  1  0.250490  0.749630  0.061770  1.0  0.1607
  C  C507  1  0.533980  0.685020  0.947870  1.0  -0.222
  C  C508  1  0.523530  0.713800  0.977240  1.0  0.1641
  C  C509  1  0.404020  0.673570  0.995740  1.0  0.1768
  C  C510  1  0.409780  0.642910  0.966990  1.0  -0.2592
  C  C511  1  0.475860  0.648790  0.941970  1.0  0.071
  C  C512  1  0.484860  0.617670  0.909940  1.0  0.0764
  C  C513  1  0.509800  0.634850  0.876490  1.0  -0.2157
  C  C514  1  0.521070  0.604390  0.847680  1.0  0.1707
  C  C515  1  0.482480  0.542290  0.882470  1.0  0.1598
  C  C516  1  0.469430  0.569890  0.912560  1.0  -0.2386
  C  C517  1  0.933140  0.329630  0.002990  1.0  0.6796
  C  C518  1  0.918390  0.363240  0.972070  1.0  0.0243
  C  C519  1  0.982000  0.366700  0.949270  1.0  -0.0593
  C  C520  1  0.820550  0.225640  0.112310  1.0  0.1607
  C  C521  1  0.744990  0.222830  0.131720  1.0  -0.2328
  C  C522  1  0.666667  0.233940  0.114860  1.0  0.0641
  C  C523  1  0.670800  0.246580  0.078700  1.0  -0.2175
  C  C524  1  0.750490  0.249630  0.061770  1.0  0.1606
  C  C525  1  0.033980  0.185020  0.947870  1.0  -0.222
  C  C526  1  0.023530  0.213800  0.977240  1.0  0.1641
  C  C527  1  0.904020  0.173570  0.995740  1.0  0.1768
  C  C528  1  0.909780  0.142910  0.966990  1.0  -0.2592
  C  C529  1  0.975860  0.148790  0.941970  1.0  0.071
  C  C530  1  0.984860  0.117670  0.909940  1.0  0.0764
  C  C531  1  0.009800  0.134850  0.876490  1.0  -0.2157
  C  C532  1  0.021070  0.104390  0.847680  1.0  0.1707
  C  C533  1  0.982480  0.042290  0.882470  1.0  0.1598
  C  C534  1  0.969430  0.069890  0.912560  1.0  -0.2386
  C  C535  1  0.933140  0.829630  0.502990  1.0  0.6796
  C  C536  1  0.918390  0.863240  0.472070  1.0  0.0243
  C  C537  1  0.982000  0.866700  0.449270  1.0  -0.0593
  C  C538  1  0.820550  0.725640  0.612310  1.0  0.1607
  C  C539  1  0.744990  0.722830  0.631720  1.0  -0.2328
  C  C540  1  0.666667  0.733940  0.614860  1.0  0.0641
  C  C541  1  0.670800  0.746580  0.578700  1.0  -0.2175
  C  C542  1  0.750490  0.749630  0.561770  1.0  0.1606
  C  C543  1  0.033980  0.685020  0.447870  1.0  -0.222
  C  C544  1  0.023530  0.713800  0.477240  1.0  0.1641
  C  C545  1  0.904020  0.673570  0.495740  1.0  0.1768
  C  C546  1  0.909780  0.642910  0.466990  1.0  -0.2592
  C  C547  1  0.975860  0.648790  0.441970  1.0  0.071
  C  C548  1  0.984860  0.617670  0.409940  1.0  0.0764
  C  C549  1  0.009800  0.634850  0.376490  1.0  -0.2157
  C  C550  1  0.021070  0.604390  0.347680  1.0  0.1707
  C  C551  1  0.982480  0.542290  0.382470  1.0  0.1598
  C  C552  1  0.969430  0.569890  0.412560  1.0  -0.2386
  C  C553  1  0.316860  0.420370  0.502990  1.0  0.678
  C  C554  1  0.331610  0.386760  0.472070  1.0  0.0226
  C  C555  1  0.268000  0.383300  0.449270  1.0  -0.0649
  C  C556  1  0.429450  0.524360  0.612310  1.0  0.158
  C  C557  1  0.505010  0.527170  0.631720  1.0  -0.2317
  C  C558  1  0.583290  0.516060  0.614860  1.0  0.0624
  C  C559  1  0.579200  0.503420  0.578700  1.0  -0.2171
  C  C560  1  0.499510  0.500370  0.561770  1.0  0.1611
  C  C561  1  0.216020  0.564980  0.447870  1.0  -0.2225
  C  C562  1  0.226470  0.536200  0.477240  1.0  0.1635
  C  C563  1  0.345980  0.576430  0.495740  1.0  0.177
  C  C564  1  0.340220  0.607090  0.466990  1.0  -0.261
  C  C565  1  0.274140  0.601210  0.441970  1.0  0.0704
  C  C566  1  0.265140  0.632330  0.409940  1.0  0.0761
  C  C567  1  0.240200  0.615150  0.376490  1.0  -0.2156
  C  C568  1  0.228930  0.645610  0.347680  1.0  0.1699
  C  C569  1  0.267520  0.707710  0.382470  1.0  0.1567
  C  C570  1  0.280570  0.680110  0.412560  1.0  -0.24
  C  C571  1  0.316860  0.920370  0.002990  1.0  0.678
  C  C572  1  0.331610  0.886760  0.972070  1.0  0.0226
  C  C573  1  0.268000  0.883300  0.949270  1.0  -0.0649
  C  C574  1  0.429450  0.024360  0.112310  1.0  0.158
  C  C575  1  0.505010  0.027170  0.131720  1.0  -0.2317
  C  C576  1  0.583290  0.016060  0.114860  1.0  0.0624
  C  C577  1  0.579200  0.003420  0.078700  1.0  -0.2171
  C  C578  1  0.499510  0.000370  0.061770  1.0  0.1611
  C  C579  1  0.216020  0.064980  0.947870  1.0  -0.2225
  C  C580  1  0.226470  0.036200  0.977240  1.0  0.1635
  C  C581  1  0.345980  0.076430  0.995740  1.0  0.177
  C  C582  1  0.340220  0.107090  0.966990  1.0  -0.261
  C  C583  1  0.274140  0.101210  0.941970  1.0  0.0704
  C  C584  1  0.265140  0.132330  0.909940  1.0  0.0761
  C  C585  1  0.240200  0.115150  0.876490  1.0  -0.2156
  C  C586  1  0.228930  0.145610  0.847680  1.0  0.1699
  C  C587  1  0.267520  0.207710  0.882470  1.0  0.1567
  C  C588  1  0.280570  0.180110  0.912560  1.0  -0.24
  C  C589  1  0.816860  0.420370  0.002990  1.0  0.678
  C  C590  1  0.831610  0.386760  0.972070  1.0  0.0226
  C  C591  1  0.768000  0.383300  0.949270  1.0  -0.0649
  C  C592  1  0.929450  0.524360  0.112310  1.0  0.1578
  C  C593  1  0.005010  0.527170  0.131720  1.0  -0.2313
  C  C594  1  0.083290  0.516060  0.114860  1.0  0.062
  C  C595  1  0.079200  0.503420  0.078700  1.0  -0.2172
  C  C596  1  0.999510  0.500370  0.061770  1.0  0.1611
  C  C597  1  0.716020  0.564980  0.947870  1.0  -0.2225
  C  C598  1  0.726470  0.536200  0.977240  1.0  0.1635
  C  C599  1  0.845980  0.576430  0.995740  1.0  0.177
  C  C600  1  0.840220  0.607090  0.966990  1.0  -0.261
  C  C601  1  0.774140  0.601210  0.941970  1.0  0.0704
  C  C602  1  0.765140  0.632330  0.909940  1.0  0.0761
  C  C603  1  0.740200  0.615150  0.876490  1.0  -0.2156
  C  C604  1  0.728930  0.645610  0.847680  1.0  0.1699
  C  C605  1  0.767520  0.707710  0.882470  1.0  0.1567
  C  C606  1  0.780570  0.680110  0.912560  1.0  -0.24
  C  C607  1  0.816860  0.920370  0.502990  1.0  0.678
  C  C608  1  0.831610  0.886760  0.472070  1.0  0.0226
  C  C609  1  0.768000  0.883300  0.449270  1.0  -0.0649
  C  C610  1  0.929450  0.024360  0.612310  1.0  0.1578
  C  C611  1  0.005010  0.027170  0.631720  1.0  -0.2313
  C  C612  1  0.083290  0.016060  0.614860  1.0  0.062
  C  C613  1  0.079200  0.003420  0.578700  1.0  -0.2172
  C  C614  1  0.999510  0.000370  0.561770  1.0  0.1611
  C  C615  1  0.716020  0.064980  0.447870  1.0  -0.2225
  C  C616  1  0.726470  0.036200  0.477240  1.0  0.1635
  C  C617  1  0.845980  0.076430  0.495740  1.0  0.177
  C  C618  1  0.840220  0.107090  0.466990  1.0  -0.261
  C  C619  1  0.774140  0.101210  0.441970  1.0  0.0704
  C  C620  1  0.765140  0.132330  0.409940  1.0  0.0761
  C  C621  1  0.740200  0.115150  0.376490  1.0  -0.2156
  C  C622  1  0.728930  0.145610  0.347680  1.0  0.1699
  C  C623  1  0.767520  0.207710  0.382470  1.0  0.1567
  C  C624  1  0.780570  0.180110  0.412560  1.0  -0.24
  C  C625  1  0.316860  0.329630  0.247010  1.0  0.6793
  C  C626  1  0.331610  0.363240  0.277930  1.0  0.0229
  C  C627  1  0.268000  0.366700  0.300730  1.0  -0.0604
  C  C628  1  0.429450  0.225640  0.137690  1.0  0.1583
  C  C629  1  0.505010  0.222830  0.118280  1.0  -0.2295
  C  C630  1  0.583290  0.233940  0.135140  1.0  0.0628
  C  C631  1  0.579200  0.246580  0.171300  1.0  -0.2183
  C  C632  1  0.499510  0.249630  0.188230  1.0  0.1603
  C  C633  1  0.216020  0.185020  0.302130  1.0  -0.2208
  C  C634  1  0.226470  0.213800  0.272760  1.0  0.1632
  C  C635  1  0.345980  0.173570  0.254260  1.0  0.177
  C  C636  1  0.340220  0.142910  0.283010  1.0  -0.2616
  C  C637  1  0.274140  0.148790  0.308030  1.0  0.0684
  C  C638  1  0.265140  0.117670  0.340060  1.0  0.0775
  C  C639  1  0.240200  0.134850  0.373510  1.0  -0.2157
  C  C640  1  0.228930  0.104390  0.402320  1.0  0.1694
  C  C641  1  0.267520  0.042290  0.367530  1.0  0.159
  C  C642  1  0.280570  0.069890  0.337440  1.0  -0.2385
  C  C643  1  0.316860  0.829630  0.747010  1.0  0.6793
  C  C644  1  0.331610  0.863240  0.777930  1.0  0.0229
  C  C645  1  0.268000  0.866700  0.800730  1.0  -0.0604
  C  C646  1  0.429450  0.725640  0.637690  1.0  0.1583
  C  C647  1  0.505010  0.722830  0.618280  1.0  -0.2295
  C  C648  1  0.583290  0.733940  0.635140  1.0  0.0628
  C  C649  1  0.579200  0.746580  0.671300  1.0  -0.2183
  C  C650  1  0.499510  0.749630  0.688230  1.0  0.1603
  C  C651  1  0.216020  0.685020  0.802130  1.0  -0.2208
  C  C652  1  0.226470  0.713800  0.772760  1.0  0.1632
  C  C653  1  0.345980  0.673570  0.754260  1.0  0.177
  C  C654  1  0.340220  0.642910  0.783010  1.0  -0.2616
  C  C655  1  0.274140  0.648790  0.808030  1.0  0.0684
  C  C656  1  0.265140  0.617670  0.840060  1.0  0.0775
  C  C657  1  0.240200  0.634850  0.873510  1.0  -0.2157
  C  C658  1  0.228930  0.604390  0.902320  1.0  0.1694
  C  C659  1  0.267520  0.542290  0.867530  1.0  0.159
  C  C660  1  0.280570  0.569890  0.837440  1.0  -0.2385
  C  C661  1  0.816860  0.329630  0.747010  1.0  0.6793
  C  C662  1  0.831610  0.363240  0.777930  1.0  0.0229
  C  C663  1  0.768000  0.366700  0.800730  1.0  -0.0604
  C  C664  1  0.929450  0.225640  0.637690  1.0  0.1582
  C  C665  1  0.005010  0.222830  0.618280  1.0  -0.229
  C  C666  1  0.083290  0.233940  0.635140  1.0  0.0625
  C  C667  1  0.079200  0.246580  0.671300  1.0  -0.2183
  C  C668  1  0.999510  0.249630  0.688230  1.0  0.1603
  C  C669  1  0.716020  0.185020  0.802130  1.0  -0.2208
  C  C670  1  0.726470  0.213800  0.772760  1.0  0.1632
  C  C671  1  0.845980  0.173570  0.754260  1.0  0.177
  C  C672  1  0.840220  0.142910  0.783010  1.0  -0.2616
  C  C673  1  0.774140  0.148790  0.808030  1.0  0.0684
  C  C674  1  0.765140  0.117670  0.840060  1.0  0.0775
  C  C675  1  0.740200  0.134850  0.873510  1.0  -0.2157
  C  C676  1  0.728930  0.104390  0.902320  1.0  0.1694
  C  C677  1  0.767520  0.042290  0.867530  1.0  0.159
  C  C678  1  0.780570  0.069890  0.837440  1.0  -0.2385
  C  C679  1  0.816860  0.829630  0.247010  1.0  0.6793
  C  C680  1  0.831610  0.863240  0.277930  1.0  0.0229
  C  C681  1  0.768000  0.866700  0.300730  1.0  -0.0604
  C  C682  1  0.929450  0.725640  0.137690  1.0  0.1582
  C  C683  1  0.005010  0.722830  0.118280  1.0  -0.229
  C  C684  1  0.083290  0.733940  0.135140  1.0  0.0625
  C  C685  1  0.079200  0.746580  0.171300  1.0  -0.2183
  C  C686  1  0.999510  0.749630  0.188230  1.0  0.1603
  C  C687  1  0.716020  0.685020  0.302130  1.0  -0.2208
  C  C688  1  0.726470  0.713800  0.272760  1.0  0.1632
  C  C689  1  0.845980  0.673570  0.254260  1.0  0.177
  C  C690  1  0.840220  0.642910  0.283010  1.0  -0.2616
  C  C691  1  0.774140  0.648790  0.308030  1.0  0.0684
  C  C692  1  0.765140  0.617670  0.340060  1.0  0.0775
  C  C693  1  0.740200  0.634850  0.373510  1.0  -0.2157
  C  C694  1  0.728930  0.604390  0.402320  1.0  0.1694
  C  C695  1  0.767520  0.542290  0.367530  1.0  0.159
  C  C696  1  0.780570  0.569890  0.337440  1.0  -0.2385
  C  C697  1  0.433140  0.420370  0.247010  1.0  0.6797
  C  C698  1  0.418390  0.386760  0.277930  1.0  0.0246
  C  C699  1  0.482000  0.383300  0.300730  1.0  -0.065
  C  C700  1  0.320550  0.524360  0.137690  1.0  0.1598
  C  C701  1  0.244990  0.527170  0.118280  1.0  -0.2309
  C  C702  1  0.166710  0.516060  0.135140  1.0  0.0628
  C  C703  1  0.170800  0.503420  0.171300  1.0  -0.2185
  C  C704  1  0.250490  0.500370  0.188230  1.0  0.1605
  C  C705  1  0.533980  0.564980  0.302130  1.0  -0.2198
  C  C706  1  0.523530  0.536200  0.272760  1.0  0.1639
  C  C707  1  0.404020  0.576430  0.254260  1.0  0.1774
  C  C708  1  0.409780  0.607090  0.283010  1.0  -0.2597
  C  C709  1  0.475860  0.601210  0.308030  1.0  0.07
  C  C710  1  0.484860  0.632330  0.340060  1.0  0.0775
  C  C711  1  0.509800  0.615150  0.373510  1.0  -0.216
  C  C712  1  0.521070  0.645610  0.402320  1.0  0.1707
  C  C713  1  0.482480  0.707710  0.367530  1.0  0.1566
  C  C714  1  0.469430  0.680110  0.337440  1.0  -0.2406
  C  C715  1  0.433140  0.920370  0.747010  1.0  0.6797
  C  C716  1  0.418390  0.886760  0.777930  1.0  0.0246
  C  C717  1  0.482000  0.883300  0.800730  1.0  -0.065
  C  C718  1  0.320550  0.024360  0.637690  1.0  0.1598
  C  C719  1  0.244990  0.027170  0.618280  1.0  -0.2309
  C  C720  1  0.166710  0.016060  0.635140  1.0  0.0628
  C  C721  1  0.170800  0.003420  0.671300  1.0  -0.2185
  C  C722  1  0.250490  0.000370  0.688230  1.0  0.1605
  C  C723  1  0.533980  0.064980  0.802130  1.0  -0.2198
  C  C724  1  0.523530  0.036200  0.772760  1.0  0.1639
  C  C725  1  0.404020  0.076430  0.754260  1.0  0.1774
  C  C726  1  0.409780  0.107090  0.783010  1.0  -0.2597
  C  C727  1  0.475860  0.101210  0.808030  1.0  0.07
  C  C728  1  0.484860  0.132330  0.840060  1.0  0.0775
  C  C729  1  0.509800  0.115150  0.873510  1.0  -0.216
  C  C730  1  0.521070  0.145610  0.902320  1.0  0.1707
  C  C731  1  0.482480  0.207710  0.867530  1.0  0.1566
  C  C732  1  0.469430  0.180110  0.837440  1.0  -0.2406
  C  C733  1  0.933140  0.420370  0.747010  1.0  0.6797
  C  C734  1  0.918390  0.386760  0.777930  1.0  0.0246
  C  C735  1  0.982000  0.383300  0.800730  1.0  -0.065
  C  C736  1  0.820550  0.524360  0.637690  1.0  0.1596
  C  C737  1  0.744990  0.527170  0.618280  1.0  -0.2314
  C  C738  1  0.666667  0.516060  0.635140  1.0  0.0645
  C  C739  1  0.670800  0.503420  0.671300  1.0  -0.2181
  C  C740  1  0.750490  0.500370  0.688230  1.0  0.1605
  C  C741  1  0.033980  0.564980  0.802130  1.0  -0.2198
  C  C742  1  0.023530  0.536200  0.772760  1.0  0.1639
  C  C743  1  0.904020  0.576430  0.754260  1.0  0.1774
  C  C744  1  0.909780  0.607090  0.783010  1.0  -0.2597
  C  C745  1  0.975860  0.601210  0.808030  1.0  0.07
  C  C746  1  0.984860  0.632330  0.840060  1.0  0.0775
  C  C747  1  0.009800  0.615150  0.873510  1.0  -0.216
  C  C748  1  0.021070  0.645610  0.902320  1.0  0.1707
  C  C749  1  0.982480  0.707710  0.867530  1.0  0.1566
  C  C750  1  0.969430  0.680110  0.837440  1.0  -0.2406
  C  C751  1  0.933140  0.920370  0.247010  1.0  0.6797
  C  C752  1  0.918390  0.886760  0.277930  1.0  0.0246
  C  C753  1  0.982000  0.883300  0.300730  1.0  -0.065
  C  C754  1  0.820550  0.024360  0.137690  1.0  0.1596
  C  C755  1  0.744990  0.027170  0.118280  1.0  -0.2314
  C  C756  1  0.666667  0.016060  0.135140  1.0  0.0645
  C  C757  1  0.670800  0.003420  0.171300  1.0  -0.2181
  C  C758  1  0.750490  0.000370  0.188230  1.0  0.1605
  C  C759  1  0.033980  0.064980  0.302130  1.0  -0.2198
  C  C760  1  0.023530  0.036200  0.272760  1.0  0.1639
  C  C761  1  0.904020  0.076430  0.254260  1.0  0.1774
  C  C762  1  0.909780  0.107090  0.283010  1.0  -0.2597
  C  C763  1  0.975860  0.101210  0.308030  1.0  0.07
  C  C764  1  0.984860  0.132330  0.340060  1.0  0.0775
  C  C765  1  0.009800  0.115150  0.373510  1.0  -0.216
  C  C766  1  0.021070  0.145610  0.402320  1.0  0.1707
  C  C767  1  0.982480  0.207710  0.367530  1.0  0.1566
  C  C768  1  0.969430  0.180110  0.337440  1.0  -0.2406
  C  C769  1  0.566860  0.670370  0.497010  1.0  0.6789
  C  C770  1  0.581610  0.636760  0.527930  1.0  0.0228
  C  C771  1  0.518000  0.633300  0.550730  1.0  -0.058
  C  C772  1  0.679450  0.774360  0.387690  1.0  0.1576
  C  C773  1  0.755010  0.777170  0.368280  1.0  -0.2295
  C  C774  1  0.833290  0.766060  0.385140  1.0  0.0624
  C  C775  1  0.829200  0.753420  0.421300  1.0  -0.2175
  C  C776  1  0.749510  0.750370  0.438230  1.0  0.1603
  C  C777  1  0.466020  0.814980  0.552130  1.0  -0.2207
  C  C778  1  0.476470  0.786200  0.522760  1.0  0.1637
  C  C779  1  0.595980  0.826430  0.504260  1.0  0.177
  C  C780  1  0.590220  0.857090  0.533010  1.0  -0.2607
  C  C781  1  0.524140  0.851210  0.558030  1.0  0.0691
  C  C782  1  0.515140  0.882330  0.590060  1.0  0.0772
  C  C783  1  0.490200  0.865150  0.623510  1.0  -0.2159
  C  C784  1  0.478930  0.895610  0.652320  1.0  0.1693
  C  C785  1  0.517520  0.957710  0.617530  1.0  0.1572
  C  C786  1  0.530570  0.930110  0.587440  1.0  -0.2399
  C  C787  1  0.566860  0.170370  0.997010  1.0  0.6789
  C  C788  1  0.581610  0.136760  0.027930  1.0  0.0228
  C  C789  1  0.518000  0.133300  0.050730  1.0  -0.058
  C  C790  1  0.679450  0.274360  0.887690  1.0  0.1576
  C  C791  1  0.755010  0.277170  0.868280  1.0  -0.2295
  C  C792  1  0.833290  0.266060  0.885140  1.0  0.0624
  C  C793  1  0.829200  0.253420  0.921300  1.0  -0.2175
  C  C794  1  0.749510  0.250370  0.938230  1.0  0.1603
  C  C795  1  0.466020  0.314980  0.052130  1.0  -0.2207
  C  C796  1  0.476470  0.286200  0.022760  1.0  0.1637
  C  C797  1  0.595980  0.326430  0.004260  1.0  0.177
  C  C798  1  0.590220  0.357090  0.033010  1.0  -0.2607
  C  C799  1  0.524140  0.351210  0.058030  1.0  0.0691
  C  C800  1  0.515140  0.382330  0.090060  1.0  0.0772
  C  C801  1  0.490200  0.365150  0.123510  1.0  -0.2159
  C  C802  1  0.478930  0.395610  0.152320  1.0  0.1693
  C  C803  1  0.517520  0.457710  0.117530  1.0  0.1572
  C  C804  1  0.530570  0.430110  0.087440  1.0  -0.2399
  C  C805  1  0.066860  0.670370  0.997010  1.0  0.6789
  C  C806  1  0.081610  0.636760  0.027930  1.0  0.0228
  C  C807  1  0.018000  0.633300  0.050730  1.0  -0.058
  C  C808  1  0.179450  0.774360  0.887690  1.0  0.1576
  C  C809  1  0.255010  0.777170  0.868280  1.0  -0.2295
  C  C810  1  0.333290  0.766060  0.885140  1.0  0.0624
  C  C811  1  0.329200  0.753420  0.921300  1.0  -0.2175
  C  C812  1  0.249510  0.750370  0.938230  1.0  0.1603
  C  C813  1  0.966020  0.814980  0.052130  1.0  -0.2207
  C  C814  1  0.976470  0.786200  0.022760  1.0  0.1637
  C  C815  1  0.095980  0.826430  0.004260  1.0  0.177
  C  C816  1  0.090220  0.857090  0.033010  1.0  -0.2607
  C  C817  1  0.024140  0.851210  0.058030  1.0  0.0691
  C  C818  1  0.015140  0.882330  0.090060  1.0  0.0772
  C  C819  1  0.990200  0.865150  0.123510  1.0  -0.2159
  C  C820  1  0.978930  0.895610  0.152320  1.0  0.1693
  C  C821  1  0.017520  0.957710  0.117530  1.0  0.1572
  C  C822  1  0.030570  0.930110  0.087440  1.0  -0.2399
  C  C823  1  0.066860  0.170370  0.497010  1.0  0.6789
  C  C824  1  0.081610  0.136760  0.527930  1.0  0.0228
  C  C825  1  0.018000  0.133300  0.550730  1.0  -0.058
  C  C826  1  0.179450  0.274360  0.387690  1.0  0.1576
  C  C827  1  0.255010  0.277170  0.368280  1.0  -0.2295
  C  C828  1  0.333290  0.266060  0.385140  1.0  0.0624
  C  C829  1  0.329200  0.253420  0.421300  1.0  -0.2175
  C  C830  1  0.249510  0.250370  0.438230  1.0  0.1603
  C  C831  1  0.966020  0.314980  0.552130  1.0  -0.2207
  C  C832  1  0.976470  0.286200  0.522760  1.0  0.1637
  C  C833  1  0.095980  0.326430  0.504260  1.0  0.177
  C  C834  1  0.090220  0.357090  0.533010  1.0  -0.2607
  C  C835  1  0.024140  0.351210  0.558030  1.0  0.0691
  C  C836  1  0.015140  0.382330  0.590060  1.0  0.0772
  C  C837  1  0.990200  0.365150  0.623510  1.0  -0.2159
  C  C838  1  0.978930  0.395610  0.652320  1.0  0.1693
  C  C839  1  0.017520  0.457710  0.617530  1.0  0.1572
  C  C840  1  0.030570  0.430110  0.587440  1.0  -0.2399
  C  C841  1  0.683140  0.579630  0.497010  1.0  0.6801
  C  C842  1  0.668390  0.613240  0.527930  1.0  0.0246
  C  C843  1  0.732000  0.616700  0.550730  1.0  -0.0608
  C  C844  1  0.570550  0.475640  0.387690  1.0  0.1606
  C  C845  1  0.494990  0.472830  0.368280  1.0  -0.2299
  C  C846  1  0.416710  0.483940  0.385140  1.0  0.0627
  C  C847  1  0.420800  0.496580  0.421300  1.0  -0.2179
  C  C848  1  0.500490  0.499630  0.438230  1.0  0.1609
  C  C849  1  0.783980  0.435020  0.552130  1.0  -0.2201
  C  C850  1  0.773530  0.463800  0.522760  1.0  0.1645
  C  C851  1  0.654020  0.423570  0.504260  1.0  0.1774
  C  C852  1  0.659780  0.392910  0.533010  1.0  -0.2609
  C  C853  1  0.725860  0.398790  0.558030  1.0  0.0698
  C  C854  1  0.734860  0.367670  0.590060  1.0  0.0779
  C  C855  1  0.759800  0.384850  0.623510  1.0  -0.2158
  C  C856  1  0.771070  0.354390  0.652320  1.0  0.1708
  C  C857  1  0.732480  0.292290  0.617530  1.0  0.1598
  C  C858  1  0.719430  0.319890  0.587440  1.0  -0.2384
  C  C859  1  0.683140  0.079630  0.997010  1.0  0.6801
  C  C860  1  0.668390  0.113240  0.027930  1.0  0.0246
  C  C861  1  0.732000  0.116700  0.050730  1.0  -0.0608
  C  C862  1  0.570550  0.975640  0.887690  1.0  0.1606
  C  C863  1  0.494990  0.972830  0.868280  1.0  -0.2299
  C  C864  1  0.416710  0.983940  0.885140  1.0  0.0627
  C  C865  1  0.420800  0.996580  0.921300  1.0  -0.2179
  C  C866  1  0.500490  0.999630  0.938230  1.0  0.1609
  C  C867  1  0.783980  0.935020  0.052130  1.0  -0.2201
  C  C868  1  0.773530  0.963800  0.022760  1.0  0.1645
  C  C869  1  0.654020  0.923570  0.004260  1.0  0.1774
  C  C870  1  0.659780  0.892910  0.033010  1.0  -0.2609
  C  C871  1  0.725860  0.898790  0.058030  1.0  0.0698
  C  C872  1  0.734860  0.867670  0.090060  1.0  0.0779
  C  C873  1  0.759800  0.884850  0.123510  1.0  -0.2158
  C  C874  1  0.771070  0.854390  0.152320  1.0  0.1708
  C  C875  1  0.732480  0.792290  0.117530  1.0  0.1598
  C  C876  1  0.719430  0.819890  0.087440  1.0  -0.2384
  C  C877  1  0.183140  0.579630  0.997010  1.0  0.6801
  C  C878  1  0.168390  0.613240  0.027930  1.0  0.0246
  C  C879  1  0.232000  0.616700  0.050730  1.0  -0.0608
  C  C880  1  0.070550  0.475640  0.887690  1.0  0.1606
  C  C881  1  0.994990  0.472830  0.868280  1.0  -0.2299
  C  C882  1  0.916710  0.483940  0.885140  1.0  0.0627
  C  C883  1  0.920800  0.496580  0.921300  1.0  -0.2179
  C  C884  1  0.000490  0.499630  0.938230  1.0  0.1609
  C  C885  1  0.283980  0.435020  0.052130  1.0  -0.2201
  C  C886  1  0.273530  0.463800  0.022760  1.0  0.1645
  C  C887  1  0.154020  0.423570  0.004260  1.0  0.1774
  C  C888  1  0.159780  0.392910  0.033010  1.0  -0.2609
  C  C889  1  0.225860  0.398790  0.058030  1.0  0.0698
  C  C890  1  0.234860  0.367670  0.090060  1.0  0.0779
  C  C891  1  0.259800  0.384850  0.123510  1.0  -0.2158
  C  C892  1  0.271070  0.354390  0.152320  1.0  0.1708
  C  C893  1  0.232480  0.292290  0.117530  1.0  0.1598
  C  C894  1  0.219430  0.319890  0.087440  1.0  -0.2384
  C  C895  1  0.183140  0.079630  0.497010  1.0  0.6801
  C  C896  1  0.168390  0.113240  0.527930  1.0  0.0246
  C  C897  1  0.232000  0.116700  0.550730  1.0  -0.0608
  C  C898  1  0.070550  0.975640  0.387690  1.0  0.1606
  C  C899  1  0.994990  0.972830  0.368280  1.0  -0.2299
  C  C900  1  0.916710  0.983940  0.385140  1.0  0.0627
  C  C901  1  0.920800  0.996580  0.421300  1.0  -0.2179
  C  C902  1  0.000490  0.999630  0.438230  1.0  0.1609
  C  C903  1  0.283980  0.935020  0.552130  1.0  -0.2201
  C  C904  1  0.273530  0.963800  0.522760  1.0  0.1645
  C  C905  1  0.154020  0.923570  0.504260  1.0  0.1774
  C  C906  1  0.159780  0.892910  0.533010  1.0  -0.2609
  C  C907  1  0.225860  0.898790  0.558030  1.0  0.0698
  C  C908  1  0.234860  0.867670  0.590060  1.0  0.0779
  C  C909  1  0.259800  0.884850  0.623510  1.0  -0.2158
  C  C910  1  0.271070  0.854390  0.652320  1.0  0.1708
  C  C911  1  0.232480  0.792290  0.617530  1.0  0.1598
  C  C912  1  0.219430  0.819890  0.587440  1.0  -0.2384
  C  C913  1  0.683140  0.670370  0.752990  1.0  0.6788
  C  C914  1  0.668390  0.636760  0.722070  1.0  0.0243
  C  C915  1  0.732000  0.633300  0.699270  1.0  -0.0594
  C  C916  1  0.570550  0.774360  0.862310  1.0  0.1598
  C  C917  1  0.494990  0.777170  0.881720  1.0  -0.2326
  C  C918  1  0.416710  0.766060  0.864860  1.0  0.0625
  C  C919  1  0.420800  0.753420  0.828700  1.0  -0.2182
  C  C920  1  0.500490  0.750370  0.811770  1.0  0.1604
  C  C921  1  0.783980  0.814980  0.697870  1.0  -0.222
  C  C922  1  0.773530  0.786200  0.727240  1.0  0.1637
  C  C923  1  0.654020  0.826430  0.745740  1.0  0.1764
  C  C924  1  0.659780  0.857090  0.716990  1.0  -0.2599
  C  C925  1  0.725860  0.851210  0.691970  1.0  0.0711
  C  C926  1  0.734860  0.882330  0.659940  1.0  0.0764
  C  C927  1  0.759800  0.865150  0.626490  1.0  -0.2158
  C  C928  1  0.771070  0.895610  0.597680  1.0  0.1711
  C  C929  1  0.732480  0.957710  0.632470  1.0  0.1561
  C  C930  1  0.719430  0.930110  0.662560  1.0  -0.2411
  C  C931  1  0.683140  0.170370  0.252990  1.0  0.6788
  C  C932  1  0.668390  0.136760  0.222070  1.0  0.0243
  C  C933  1  0.732000  0.133300  0.199270  1.0  -0.0594
  C  C934  1  0.570550  0.274360  0.362310  1.0  0.1598
  C  C935  1  0.494990  0.277170  0.381720  1.0  -0.2326
  C  C936  1  0.416710  0.266060  0.364860  1.0  0.0625
  C  C937  1  0.420800  0.253420  0.328700  1.0  -0.2182
  C  C938  1  0.500490  0.250370  0.311770  1.0  0.1604
  C  C939  1  0.783980  0.314980  0.197870  1.0  -0.222
  C  C940  1  0.773530  0.286200  0.227240  1.0  0.1637
  C  C941  1  0.654020  0.326430  0.245740  1.0  0.1764
  C  C942  1  0.659780  0.357090  0.216990  1.0  -0.2599
  C  C943  1  0.725860  0.351210  0.191970  1.0  0.0711
  C  C944  1  0.734860  0.382330  0.159940  1.0  0.0764
  C  C945  1  0.759800  0.365150  0.126490  1.0  -0.2158
  C  C946  1  0.771070  0.395610  0.097680  1.0  0.1711
  C  C947  1  0.732480  0.457710  0.132470  1.0  0.1561
  C  C948  1  0.719430  0.430110  0.162560  1.0  -0.2411
  C  C949  1  0.183140  0.670370  0.252990  1.0  0.6788
  C  C950  1  0.168390  0.636760  0.222070  1.0  0.0243
  C  C951  1  0.232000  0.633300  0.199270  1.0  -0.0594
  C  C952  1  0.070550  0.774360  0.362310  1.0  0.1598
  C  C953  1  0.994990  0.777170  0.381720  1.0  -0.2326
  C  C954  1  0.916710  0.766060  0.364860  1.0  0.0625
  C  C955  1  0.920800  0.753420  0.328700  1.0  -0.2182
  C  C956  1  0.000490  0.750370  0.311770  1.0  0.1604
  C  C957  1  0.283980  0.814980  0.197870  1.0  -0.222
  C  C958  1  0.273530  0.786200  0.227240  1.0  0.1637
  C  C959  1  0.154020  0.826430  0.245740  1.0  0.1764
  C  C960  1  0.159780  0.857090  0.216990  1.0  -0.2599
  C  C961  1  0.225860  0.851210  0.191970  1.0  0.0711
  C  C962  1  0.234860  0.882330  0.159940  1.0  0.0764
  C  C963  1  0.259800  0.865150  0.126490  1.0  -0.2158
  C  C964  1  0.271070  0.895610  0.097680  1.0  0.1711
  C  C965  1  0.232480  0.957710  0.132470  1.0  0.1561
  C  C966  1  0.219430  0.930110  0.162560  1.0  -0.2411
  C  C967  1  0.183140  0.170370  0.752990  1.0  0.6788
  C  C968  1  0.168390  0.136760  0.722070  1.0  0.0243
  C  C969  1  0.232000  0.133300  0.699270  1.0  -0.0594
  C  C970  1  0.070550  0.274360  0.862310  1.0  0.1598
  C  C971  1  0.994990  0.277170  0.881720  1.0  -0.2326
  C  C972  1  0.916710  0.266060  0.864860  1.0  0.0625
  C  C973  1  0.920800  0.253420  0.828700  1.0  -0.2182
  C  C974  1  0.000490  0.250370  0.811770  1.0  0.1604
  C  C975  1  0.283980  0.314980  0.697870  1.0  -0.222
  C  C976  1  0.273530  0.286200  0.727240  1.0  0.1637
  C  C977  1  0.154020  0.326430  0.745740  1.0  0.1764
  C  C978  1  0.159780  0.357090  0.716990  1.0  -0.2599
  C  C979  1  0.225860  0.351210  0.691970  1.0  0.0711
  C  C980  1  0.234860  0.382330  0.659940  1.0  0.0764
  C  C981  1  0.259800  0.365150  0.626490  1.0  -0.2158
  C  C982  1  0.271070  0.395610  0.597680  1.0  0.1711
  C  C983  1  0.232480  0.457710  0.632470  1.0  0.1561
  C  C984  1  0.219430  0.430110  0.662560  1.0  -0.2411
  C  C985  1  0.566860  0.579630  0.752990  1.0  0.6789
  C  C986  1  0.581610  0.613240  0.722070  1.0  0.0226
  C  C987  1  0.518000  0.616700  0.699270  1.0  -0.0603
  C  C988  1  0.679450  0.475640  0.862310  1.0  0.1587
  C  C989  1  0.755010  0.472830  0.881720  1.0  -0.2315
  C  C990  1  0.833290  0.483940  0.864860  1.0  0.0621
  C  C991  1  0.829200  0.496580  0.828700  1.0  -0.2181
  C  C992  1  0.749510  0.499630  0.811770  1.0  0.1609
  C  C993  1  0.466020  0.435020  0.697870  1.0  -0.2222
  C  C994  1  0.476470  0.463800  0.727240  1.0  0.1624
  C  C995  1  0.595980  0.423570  0.745740  1.0  0.1771
  C  C996  1  0.590220  0.392910  0.716990  1.0  -0.2601
  C  C997  1  0.524140  0.398790  0.691970  1.0  0.0701
  C  C998  1  0.515140  0.367670  0.659940  1.0  0.0761
  C  C999  1  0.490200  0.384850  0.626490  1.0  -0.2156
  C  C1000  1  0.478930  0.354390  0.597680  1.0  0.1694
  C  C1001  1  0.517520  0.292290  0.632470  1.0  0.1591
  C  C1002  1  0.530570  0.319890  0.662560  1.0  -0.2386
  C  C1003  1  0.566860  0.079630  0.252990  1.0  0.6789
  C  C1004  1  0.581610  0.113240  0.222070  1.0  0.0226
  C  C1005  1  0.518000  0.116700  0.199270  1.0  -0.0603
  C  C1006  1  0.679450  0.975640  0.362310  1.0  0.1587
  C  C1007  1  0.755010  0.972830  0.381720  1.0  -0.2315
  C  C1008  1  0.833290  0.983940  0.364860  1.0  0.0621
  C  C1009  1  0.829200  0.996580  0.328700  1.0  -0.2181
  C  C1010  1  0.749510  0.999630  0.311770  1.0  0.1609
  C  C1011  1  0.466020  0.935020  0.197870  1.0  -0.2222
  C  C1012  1  0.476470  0.963800  0.227240  1.0  0.1624
  C  C1013  1  0.595980  0.923570  0.245740  1.0  0.1771
  C  C1014  1  0.590220  0.892910  0.216990  1.0  -0.2601
  C  C1015  1  0.524140  0.898790  0.191970  1.0  0.0701
  C  C1016  1  0.515140  0.867670  0.159940  1.0  0.0761
  C  C1017  1  0.490200  0.884850  0.126490  1.0  -0.2156
  C  C1018  1  0.478930  0.854390  0.097680  1.0  0.1694
  C  C1019  1  0.517520  0.792290  0.132470  1.0  0.1591
  C  C1020  1  0.530570  0.819890  0.162560  1.0  -0.2386
  C  C1021  1  0.066860  0.579630  0.252990  1.0  0.6789
  C  C1022  1  0.081610  0.613240  0.222070  1.0  0.0226
  C  C1023  1  0.018000  0.616700  0.199270  1.0  -0.0603
  C  C1024  1  0.179450  0.475640  0.362310  1.0  0.1587
  C  C1025  1  0.255010  0.472830  0.381720  1.0  -0.2315
  C  C1026  1  0.333290  0.483940  0.364860  1.0  0.0621
  C  C1027  1  0.329200  0.496580  0.328700  1.0  -0.2181
  C  C1028  1  0.249510  0.499630  0.311770  1.0  0.1609
  C  C1029  1  0.966020  0.435020  0.197870  1.0  -0.2222
  C  C1030  1  0.976470  0.463800  0.227240  1.0  0.1624
  C  C1031  1  0.095980  0.423570  0.245740  1.0  0.1771
  C  C1032  1  0.090220  0.392910  0.216990  1.0  -0.2601
  C  C1033  1  0.024140  0.398790  0.191970  1.0  0.0701
  C  C1034  1  0.015140  0.367670  0.159940  1.0  0.0761
  C  C1035  1  0.990200  0.384850  0.126490  1.0  -0.2156
  C  C1036  1  0.978930  0.354390  0.097680  1.0  0.1694
  C  C1037  1  0.017520  0.292290  0.132470  1.0  0.1591
  C  C1038  1  0.030570  0.319890  0.162560  1.0  -0.2386
  C  C1039  1  0.066860  0.079630  0.752990  1.0  0.6789
  C  C1040  1  0.081610  0.113240  0.722070  1.0  0.0226
  C  C1041  1  0.018000  0.116700  0.699270  1.0  -0.0603
  C  C1042  1  0.179450  0.975640  0.862310  1.0  0.1587
  C  C1043  1  0.255010  0.972830  0.881720  1.0  -0.2315
  C  C1044  1  0.333290  0.983940  0.864860  1.0  0.0621
  C  C1045  1  0.329200  0.996580  0.828700  1.0  -0.2181
  C  C1046  1  0.249510  0.999630  0.811770  1.0  0.1609
  C  C1047  1  0.966020  0.935020  0.697870  1.0  -0.2222
  C  C1048  1  0.976470  0.963800  0.727240  1.0  0.1624
  C  C1049  1  0.095980  0.923570  0.745740  1.0  0.1771
  C  C1050  1  0.090220  0.892910  0.716990  1.0  -0.2601
  C  C1051  1  0.024140  0.898790  0.691970  1.0  0.0701
  C  C1052  1  0.015140  0.867670  0.659940  1.0  0.0761
  C  C1053  1  0.990200  0.884850  0.626490  1.0  -0.2156
  C  C1054  1  0.978930  0.854390  0.597680  1.0  0.1694
  C  C1055  1  0.017520  0.792290  0.632470  1.0  0.1591
  C  C1056  1  0.030570  0.819890  0.662560  1.0  -0.2386
  N  N1057  1  0.324960  0.239340  0.577740  1.0  -0.3877
  N  N1058  1  0.459160  0.208790  0.501200  1.0  -0.3917
  N  N1059  1  0.508440  0.058520  0.350540  1.0  -0.3871
  N  N1060  1  0.324960  0.739340  0.077740  1.0  -0.3877
  N  N1061  1  0.459160  0.708790  0.001200  1.0  -0.3917
  N  N1062  1  0.508440  0.558520  0.850540  1.0  -0.3871
  N  N1063  1  0.824960  0.239340  0.077740  1.0  -0.3879
  N  N1064  1  0.959160  0.208790  0.001200  1.0  -0.3917
  N  N1065  1  0.008440  0.058520  0.850540  1.0  -0.3871
  N  N1066  1  0.824960  0.739340  0.577740  1.0  -0.3879
  N  N1067  1  0.959160  0.708790  0.501200  1.0  -0.3917
  N  N1068  1  0.008440  0.558520  0.350540  1.0  -0.3871
  N  N1069  1  0.425040  0.510660  0.577740  1.0  -0.3866
  N  N1070  1  0.290840  0.541210  0.501200  1.0  -0.3922
  N  N1071  1  0.241560  0.691480  0.350540  1.0  -0.3882
  N  N1072  1  0.425040  0.010660  0.077740  1.0  -0.3866
  N  N1073  1  0.290840  0.041210  0.001200  1.0  -0.3922
  N  N1074  1  0.241560  0.191480  0.850540  1.0  -0.3882
  N  N1075  1  0.925040  0.510660  0.077740  1.0  -0.3866
  N  N1076  1  0.790840  0.541210  0.001200  1.0  -0.3922
  N  N1077  1  0.741560  0.691480  0.850540  1.0  -0.3882
  N  N1078  1  0.925040  0.010660  0.577740  1.0  -0.3866
  N  N1079  1  0.790840  0.041210  0.501200  1.0  -0.3922
  N  N1080  1  0.741560  0.191480  0.350540  1.0  -0.3882
  N  N1081  1  0.425040  0.239340  0.172260  1.0  -0.3874
  N  N1082  1  0.290840  0.208790  0.248800  1.0  -0.3892
  N  N1083  1  0.241560  0.058520  0.399460  1.0  -0.3871
  N  N1084  1  0.425040  0.739340  0.672260  1.0  -0.3874
  N  N1085  1  0.290840  0.708790  0.748800  1.0  -0.3892
  N  N1086  1  0.241560  0.558520  0.899460  1.0  -0.3871
  N  N1087  1  0.925040  0.239340  0.672260  1.0  -0.3874
  N  N1088  1  0.790840  0.208790  0.748800  1.0  -0.3892
  N  N1089  1  0.741560  0.058520  0.899460  1.0  -0.3871
  N  N1090  1  0.925040  0.739340  0.172260  1.0  -0.3874
  N  N1091  1  0.790840  0.708790  0.248800  1.0  -0.3892
  N  N1092  1  0.741560  0.558520  0.399460  1.0  -0.3871
  N  N1093  1  0.324960  0.510660  0.172260  1.0  -0.3872
  N  N1094  1  0.459160  0.541210  0.248800  1.0  -0.3915
  N  N1095  1  0.508440  0.691480  0.399460  1.0  -0.3877
  N  N1096  1  0.324960  0.010660  0.672260  1.0  -0.3872
  N  N1097  1  0.459160  0.041210  0.748800  1.0  -0.3915
  N  N1098  1  0.508440  0.191480  0.899460  1.0  -0.3877
  N  N1099  1  0.824960  0.510660  0.672260  1.0  -0.3874
  N  N1100  1  0.959160  0.541210  0.748800  1.0  -0.3915
  N  N1101  1  0.008440  0.691480  0.899460  1.0  -0.3877
  N  N1102  1  0.824960  0.010660  0.172260  1.0  -0.3874
  N  N1103  1  0.959160  0.041210  0.248800  1.0  -0.3915
  N  N1104  1  0.008440  0.191480  0.399460  1.0  -0.3877
  N  N1105  1  0.675040  0.760660  0.422260  1.0  -0.3876
  N  N1106  1  0.540840  0.791210  0.498800  1.0  -0.3911
  N  N1107  1  0.491560  0.941480  0.649460  1.0  -0.3874
  N  N1108  1  0.675040  0.260660  0.922260  1.0  -0.3876
  N  N1109  1  0.540840  0.291210  0.998800  1.0  -0.3911
  N  N1110  1  0.491560  0.441480  0.149460  1.0  -0.3874
  N  N1111  1  0.175040  0.760660  0.922260  1.0  -0.3876
  N  N1112  1  0.040840  0.791210  0.998800  1.0  -0.3911
  N  N1113  1  0.991560  0.941480  0.149460  1.0  -0.3874
  N  N1114  1  0.175040  0.260660  0.422260  1.0  -0.3876
  N  N1115  1  0.040840  0.291210  0.498800  1.0  -0.3911
  N  N1116  1  0.991560  0.441480  0.649460  1.0  -0.3874
  N  N1117  1  0.574960  0.489340  0.422260  1.0  -0.3877
  N  N1118  1  0.709160  0.458790  0.498800  1.0  -0.3905
  N  N1119  1  0.758440  0.308520  0.649460  1.0  -0.3866
  N  N1120  1  0.574960  0.989340  0.922260  1.0  -0.3877
  N  N1121  1  0.709160  0.958790  0.998800  1.0  -0.3905
  N  N1122  1  0.758440  0.808520  0.149460  1.0  -0.3866
  N  N1123  1  0.074960  0.489340  0.922260  1.0  -0.3877
  N  N1124  1  0.209160  0.458790  0.998800  1.0  -0.3905
  N  N1125  1  0.258440  0.308520  0.149460  1.0  -0.3866
  N  N1126  1  0.074960  0.989340  0.422260  1.0  -0.3877
  N  N1127  1  0.209160  0.958790  0.498800  1.0  -0.3905
  N  N1128  1  0.258440  0.808520  0.649460  1.0  -0.3866
  N  N1129  1  0.574960  0.760660  0.827740  1.0  -0.3867
  N  N1130  1  0.709160  0.791210  0.751200  1.0  -0.3913
  N  N1131  1  0.758440  0.941480  0.600540  1.0  -0.3885
  N  N1132  1  0.574960  0.260660  0.327740  1.0  -0.3867
  N  N1133  1  0.709160  0.291210  0.251200  1.0  -0.3913
  N  N1134  1  0.758440  0.441480  0.100540  1.0  -0.3885
  N  N1135  1  0.074960  0.760660  0.327740  1.0  -0.3867
  N  N1136  1  0.209160  0.791210  0.251200  1.0  -0.3914
  N  N1137  1  0.258440  0.941480  0.100540  1.0  -0.3885
  N  N1138  1  0.074960  0.260660  0.827740  1.0  -0.3867
  N  N1139  1  0.209160  0.291210  0.751200  1.0  -0.3914
  N  N1140  1  0.258440  0.441480  0.600540  1.0  -0.3885
  N  N1141  1  0.675040  0.489340  0.827740  1.0  -0.3867
  N  N1142  1  0.540840  0.458790  0.751200  1.0  -0.392
  N  N1143  1  0.491560  0.308520  0.600540  1.0  -0.3876
  N  N1144  1  0.675040  0.989340  0.327740  1.0  -0.3867
  N  N1145  1  0.540840  0.958790  0.251200  1.0  -0.392
  N  N1146  1  0.491560  0.808520  0.100540  1.0  -0.3876
  N  N1147  1  0.175040  0.489340  0.327740  1.0  -0.3867
  N  N1148  1  0.040840  0.458790  0.251200  1.0  -0.392
  N  N1149  1  0.991560  0.308520  0.100540  1.0  -0.3876
  N  N1150  1  0.175040  0.989340  0.827740  1.0  -0.3867
  N  N1151  1  0.040840  0.958790  0.751200  1.0  -0.392
  N  N1152  1  0.991560  0.808520  0.600540  1.0  -0.3876
  O  O1153  1  0.369900  0.315580  0.520550  1.0  -0.6419
  O  O1154  1  0.508770  0.316180  0.509950  1.0  -0.6516
  O  O1155  1  0.369900  0.815580  0.020550  1.0  -0.6419
  O  O1156  1  0.508770  0.816180  0.009950  1.0  -0.6516
  O  O1157  1  0.869900  0.315580  0.020550  1.0  -0.6419
  O  O1158  1  0.008770  0.316180  0.009950  1.0  -0.6516
  O  O1159  1  0.869900  0.815580  0.520550  1.0  -0.6419
  O  O1160  1  0.008770  0.816180  0.509950  1.0  -0.6516
  O  O1161  1  0.380100  0.434420  0.520550  1.0  -0.6424
  O  O1162  1  0.241230  0.433820  0.509950  1.0  -0.6507
  O  O1163  1  0.380100  0.934420  0.020550  1.0  -0.6424
  O  O1164  1  0.241230  0.933820  0.009950  1.0  -0.6507
  O  O1165  1  0.880100  0.434420  0.020550  1.0  -0.6424
  O  O1166  1  0.741230  0.433820  0.009950  1.0  -0.6507
  O  O1167  1  0.880100  0.934420  0.520550  1.0  -0.6424
  O  O1168  1  0.741230  0.933820  0.509950  1.0  -0.6507
  O  O1169  1  0.380100  0.315580  0.229450  1.0  -0.642
  O  O1170  1  0.241230  0.316180  0.240050  1.0  -0.651
  O  O1171  1  0.380100  0.815580  0.729450  1.0  -0.642
  O  O1172  1  0.241230  0.816180  0.740050  1.0  -0.651
  O  O1173  1  0.880100  0.315580  0.729450  1.0  -0.642
  O  O1174  1  0.741230  0.316180  0.740050  1.0  -0.651
  O  O1175  1  0.880100  0.815580  0.229450  1.0  -0.642
  O  O1176  1  0.741230  0.816180  0.240050  1.0  -0.651
  O  O1177  1  0.369900  0.434420  0.229450  1.0  -0.6416
  O  O1178  1  0.508770  0.433820  0.240050  1.0  -0.651
  O  O1179  1  0.369900  0.934420  0.729450  1.0  -0.6416
  O  O1180  1  0.508770  0.933820  0.740050  1.0  -0.651
  O  O1181  1  0.869900  0.434420  0.729450  1.0  -0.6416
  O  O1182  1  0.008770  0.433820  0.740050  1.0  -0.651
  O  O1183  1  0.869900  0.934420  0.229450  1.0  -0.6416
  O  O1184  1  0.008770  0.933820  0.240050  1.0  -0.651
  O  O1185  1  0.630100  0.684420  0.479450  1.0  -0.6419
  O  O1186  1  0.491230  0.683820  0.490050  1.0  -0.6507
  O  O1187  1  0.630100  0.184420  0.979450  1.0  -0.6419
  O  O1188  1  0.491230  0.183820  0.990050  1.0  -0.6507
  O  O1189  1  0.130100  0.684420  0.979450  1.0  -0.6419
  O  O1190  1  0.991230  0.683820  0.990050  1.0  -0.6507
  O  O1191  1  0.130100  0.184420  0.479450  1.0  -0.6419
  O  O1192  1  0.991230  0.183820  0.490050  1.0  -0.6507
  O  O1193  1  0.619900  0.565580  0.479450  1.0  -0.6425
  O  O1194  1  0.758770  0.566180  0.490050  1.0  -0.6518
  O  O1195  1  0.619900  0.065580  0.979450  1.0  -0.6425
  O  O1196  1  0.758770  0.066180  0.990050  1.0  -0.6518
  O  O1197  1  0.119900  0.565580  0.979450  1.0  -0.6425
  O  O1198  1  0.258770  0.566180  0.990050  1.0  -0.6518
  O  O1199  1  0.119900  0.065580  0.479450  1.0  -0.6425
  O  O1200  1  0.258770  0.066180  0.490050  1.0  -0.6518
  O  O1201  1  0.619900  0.684420  0.770550  1.0  -0.6419
  O  O1202  1  0.758770  0.683820  0.759950  1.0  -0.651
  O  O1203  1  0.619900  0.184420  0.270550  1.0  -0.6419
  O  O1204  1  0.758770  0.183820  0.259950  1.0  -0.651
  O  O1205  1  0.119900  0.684420  0.270550  1.0  -0.6419
  O  O1206  1  0.258770  0.683820  0.259950  1.0  -0.651
  O  O1207  1  0.119900  0.184420  0.770550  1.0  -0.6419
  O  O1208  1  0.258770  0.183820  0.759950  1.0  -0.651
  O  O1209  1  0.630100  0.565580  0.770550  1.0  -0.6426
  O  O1210  1  0.491230  0.566180  0.759950  1.0  -0.6508
  O  O1211  1  0.630100  0.065580  0.270550  1.0  -0.6426
  O  O1212  1  0.491230  0.066180  0.259950  1.0  -0.6508
  O  O1213  1  0.130100  0.565580  0.270550  1.0  -0.6426
  O  O1214  1  0.991230  0.566180  0.259950  1.0  -0.6508
  O  O1215  1  0.130100  0.065580  0.770550  1.0  -0.6426
  O  O1216  1  0.991230  0.066180  0.759950  1.0  -0.6508
