# generated using pymatgen
data_CdH14C18N3O2
_symmetry_space_group_name_H-M   'P 1'
_cell_length_a   15.41600000
_cell_length_b   28.64140000
_cell_length_c   36.81300000
_cell_angle_alpha   90.00000000
_cell_angle_beta   90.00000000
_cell_angle_gamma   90.00000000
_symmetry_Int_Tables_number   1
_chemical_formula_structural   CdH14C18N3O2
_chemical_formula_sum   'Cd32 H448 C576 N96 O64'
_cell_volume   16254.25823001
_cell_formula_units_Z   32
loop_
 _symmetry_equiv_pos_site_id
 _symmetry_equiv_pos_as_xyz
  1  'x, y, z'
loop_
 _atom_site_type_symbol
 _atom_site_label
 _atom_site_symmetry_multiplicity
 _atom_site_fract_x
 _atom_site_fract_y
 _atom_site_fract_z
 _atom_site_occupancy
 _atom_site_charge
  Cd  Cd1  1  0.461820  0.258110  0.552210  1.0  0.7536
  Cd  Cd2  1  0.461820  0.758110  0.052210  1.0  0.7536
  Cd  Cd3  1  0.961820  0.258110  0.052210  1.0  0.7536
  Cd  Cd4  1  0.961820  0.758110  0.552210  1.0  0.7536
  Cd  Cd5  1  0.288180  0.491890  0.552210  1.0  0.7573
  Cd  Cd6  1  0.288180  0.991890  0.052210  1.0  0.7573
  Cd  Cd7  1  0.788180  0.491890  0.052210  1.0  0.7573
  Cd  Cd8  1  0.788180  0.991890  0.552210  1.0  0.7573
  Cd  Cd9  1  0.288180  0.258110  0.197790  1.0  0.7526
  Cd  Cd10  1  0.288180  0.758110  0.697790  1.0  0.7526
  Cd  Cd11  1  0.788180  0.258110  0.697790  1.0  0.7526
  Cd  Cd12  1  0.788180  0.758110  0.197790  1.0  0.7526
  Cd  Cd13  1  0.461820  0.491890  0.197790  1.0  0.7586
  Cd  Cd14  1  0.461820  0.991890  0.697790  1.0  0.7586
  Cd  Cd15  1  0.961820  0.491890  0.697790  1.0  0.7586
  Cd  Cd16  1  0.961820  0.991890  0.197790  1.0  0.7586
  Cd  Cd17  1  0.538180  0.741890  0.447790  1.0  0.7565
  Cd  Cd18  1  0.538180  0.241890  0.947790  1.0  0.7565
  Cd  Cd19  1  0.038180  0.741890  0.947790  1.0  0.7565
  Cd  Cd20  1  0.038180  0.241890  0.447790  1.0  0.7565
  Cd  Cd21  1  0.711820  0.508110  0.447790  1.0  0.7527
  Cd  Cd22  1  0.711820  0.008110  0.947790  1.0  0.7526
  Cd  Cd23  1  0.211820  0.508110  0.947790  1.0  0.7527
  Cd  Cd24  1  0.211820  0.008110  0.447790  1.0  0.7526
  Cd  Cd25  1  0.711820  0.741890  0.802210  1.0  0.7592
  Cd  Cd26  1  0.711820  0.241890  0.302210  1.0  0.7592
  Cd  Cd27  1  0.211820  0.741890  0.302210  1.0  0.7592
  Cd  Cd28  1  0.211820  0.241890  0.802210  1.0  0.7592
  Cd  Cd29  1  0.538180  0.508110  0.802210  1.0  0.754
  Cd  Cd30  1  0.538180  0.008110  0.302210  1.0  0.754
  Cd  Cd31  1  0.038180  0.508110  0.302210  1.0  0.754
  Cd  Cd32  1  0.038180  0.008110  0.802210  1.0  0.754
  H  H33  1  0.478700  0.386100  0.428400  1.0  0.1858
  H  H34  1  0.533900  0.349600  0.452400  1.0  0.1504
  H  H35  1  0.372400  0.217600  0.624000  1.0  0.0586
  H  H36  1  0.245500  0.213300  0.655800  1.0  0.0932
  H  H37  1  0.120200  0.253600  0.565900  1.0  0.0863
  H  H38  1  0.251500  0.259700  0.537400  1.0  0.0484
  H  H39  1  0.370600  0.118700  0.464600  1.0  0.1025
  H  H40  1  0.359300  0.170000  0.512000  1.0  0.0407
  H  H41  1  0.563400  0.238100  0.480500  1.0  0.0592
  H  H42  1  0.579800  0.190000  0.431600  1.0  0.093
  H  H43  1  0.450800  0.057100  0.434400  1.0  0.1137
  H  H44  1  0.472200  0.010600  0.384700  1.0  0.0597
  H  H45  1  0.537900  0.116300  0.325100  1.0  0.052
  H  H46  1  0.520200  0.166700  0.373000  1.0  0.0916
  H  H47  1  0.478700  0.886100  0.928400  1.0  0.1858
  H  H48  1  0.533900  0.849600  0.952400  1.0  0.1504
  H  H49  1  0.372400  0.717600  0.124000  1.0  0.0585
  H  H50  1  0.245500  0.713300  0.155800  1.0  0.0932
  H  H51  1  0.120200  0.753600  0.065900  1.0  0.0863
  H  H52  1  0.251500  0.759700  0.037400  1.0  0.0484
  H  H53  1  0.370600  0.618700  0.964600  1.0  0.1025
  H  H54  1  0.359300  0.670000  0.012000  1.0  0.0407
  H  H55  1  0.563400  0.738100  0.980500  1.0  0.0592
  H  H56  1  0.579800  0.690000  0.931600  1.0  0.093
  H  H57  1  0.450800  0.557100  0.934400  1.0  0.1137
  H  H58  1  0.472200  0.510600  0.884700  1.0  0.0597
  H  H59  1  0.537900  0.616300  0.825100  1.0  0.0522
  H  H60  1  0.520200  0.666667  0.873000  1.0  0.0921
  H  H61  1  0.978700  0.386100  0.928400  1.0  0.1858
  H  H62  1  0.033900  0.349600  0.952400  1.0  0.1504
  H  H63  1  0.872400  0.217600  0.124000  1.0  0.0586
  H  H64  1  0.745500  0.213300  0.155800  1.0  0.0932
  H  H65  1  0.620200  0.253600  0.065900  1.0  0.0863
  H  H66  1  0.751500  0.259700  0.037400  1.0  0.0484
  H  H67  1  0.870600  0.118700  0.964600  1.0  0.1025
  H  H68  1  0.859300  0.170000  0.012000  1.0  0.0407
  H  H69  1  0.063400  0.238100  0.980500  1.0  0.0592
  H  H70  1  0.079800  0.190000  0.931600  1.0  0.093
  H  H71  1  0.950800  0.057100  0.934400  1.0  0.1137
  H  H72  1  0.972200  0.010600  0.884700  1.0  0.0597
  H  H73  1  0.037900  0.116300  0.825100  1.0  0.052
  H  H74  1  0.020200  0.166700  0.873000  1.0  0.0916
  H  H75  1  0.978700  0.886100  0.428400  1.0  0.1858
  H  H76  1  0.033900  0.849600  0.452400  1.0  0.1504
  H  H77  1  0.872400  0.717600  0.624000  1.0  0.0585
  H  H78  1  0.745500  0.713300  0.655800  1.0  0.0932
  H  H79  1  0.620200  0.753600  0.565900  1.0  0.0863
  H  H80  1  0.751500  0.759700  0.537400  1.0  0.0484
  H  H81  1  0.870600  0.618700  0.464600  1.0  0.1025
  H  H82  1  0.859300  0.670000  0.512000  1.0  0.0407
  H  H83  1  0.063400  0.738100  0.480500  1.0  0.0592
  H  H84  1  0.079800  0.690000  0.431600  1.0  0.093
  H  H85  1  0.950800  0.557100  0.434400  1.0  0.1137
  H  H86  1  0.972200  0.510600  0.384700  1.0  0.0597
  H  H87  1  0.037900  0.616300  0.325100  1.0  0.0522
  H  H88  1  0.020200  0.666667  0.373000  1.0  0.0921
  H  H89  1  0.271300  0.363900  0.428400  1.0  0.1878
  H  H90  1  0.216100  0.400400  0.452400  1.0  0.1491
  H  H91  1  0.377600  0.532400  0.624000  1.0  0.058
  H  H92  1  0.504500  0.536700  0.655800  1.0  0.0931
  H  H93  1  0.629800  0.496400  0.565900  1.0  0.0862
  H  H94  1  0.498500  0.490300  0.537400  1.0  0.0485
  H  H95  1  0.379400  0.631300  0.464600  1.0  0.1025
  H  H96  1  0.390700  0.580000  0.512000  1.0  0.0398
  H  H97  1  0.186600  0.511900  0.480500  1.0  0.0589
  H  H98  1  0.170200  0.560000  0.431600  1.0  0.0928
  H  H99  1  0.299200  0.692900  0.434400  1.0  0.1131
  H  H100  1  0.277800  0.739400  0.384700  1.0  0.059
  H  H101  1  0.212100  0.633700  0.325100  1.0  0.052
  H  H102  1  0.229800  0.583300  0.373000  1.0  0.092
  H  H103  1  0.271300  0.863900  0.928400  1.0  0.1878
  H  H104  1  0.216100  0.900400  0.952400  1.0  0.1491
  H  H105  1  0.377600  0.032400  0.124000  1.0  0.058
  H  H106  1  0.504500  0.036700  0.155800  1.0  0.0931
  H  H107  1  0.629800  0.996400  0.065900  1.0  0.0862
  H  H108  1  0.498500  0.990300  0.037400  1.0  0.0485
  H  H109  1  0.379400  0.131300  0.964600  1.0  0.1025
  H  H110  1  0.390700  0.080000  0.012000  1.0  0.0398
  H  H111  1  0.186600  0.011900  0.980500  1.0  0.0589
  H  H112  1  0.170200  0.060000  0.931600  1.0  0.0928
  H  H113  1  0.299200  0.192900  0.934400  1.0  0.1131
  H  H114  1  0.277800  0.239400  0.884700  1.0  0.059
  H  H115  1  0.212100  0.133700  0.825100  1.0  0.052
  H  H116  1  0.229800  0.083300  0.873000  1.0  0.092
  H  H117  1  0.771300  0.363900  0.928400  1.0  0.1878
  H  H118  1  0.716100  0.400400  0.952400  1.0  0.1491
  H  H119  1  0.877600  0.532400  0.124000  1.0  0.058
  H  H120  1  0.004500  0.536700  0.155800  1.0  0.0931
  H  H121  1  0.129800  0.496400  0.065900  1.0  0.0862
  H  H122  1  0.998500  0.490300  0.037400  1.0  0.0485
  H  H123  1  0.879400  0.631300  0.964600  1.0  0.1025
  H  H124  1  0.890700  0.580000  0.012000  1.0  0.0398
  H  H125  1  0.686600  0.511900  0.980500  1.0  0.0589
  H  H126  1  0.670200  0.560000  0.931600  1.0  0.0928
  H  H127  1  0.799200  0.692900  0.934400  1.0  0.1131
  H  H128  1  0.777800  0.739400  0.884700  1.0  0.059
  H  H129  1  0.712100  0.633700  0.825100  1.0  0.052
  H  H130  1  0.729800  0.583300  0.873000  1.0  0.092
  H  H131  1  0.771300  0.863900  0.428400  1.0  0.1878
  H  H132  1  0.716100  0.900400  0.452400  1.0  0.1491
  H  H133  1  0.877600  0.032400  0.624000  1.0  0.058
  H  H134  1  0.004500  0.036700  0.655800  1.0  0.0931
  H  H135  1  0.129800  0.996400  0.565900  1.0  0.0862
  H  H136  1  0.998500  0.990300  0.537400  1.0  0.0485
  H  H137  1  0.879400  0.131300  0.464600  1.0  0.1025
  H  H138  1  0.890700  0.080000  0.512000  1.0  0.0398
  H  H139  1  0.686600  0.011900  0.480500  1.0  0.0589
  H  H140  1  0.670200  0.060000  0.431600  1.0  0.0928
  H  H141  1  0.799200  0.192900  0.434400  1.0  0.1131
  H  H142  1  0.777800  0.239400  0.384700  1.0  0.059
  H  H143  1  0.712100  0.133700  0.325100  1.0  0.052
  H  H144  1  0.729800  0.083300  0.373000  1.0  0.092
  H  H145  1  0.271300  0.386100  0.321600  1.0  0.1874
  H  H146  1  0.216100  0.349600  0.297600  1.0  0.1489
  H  H147  1  0.377600  0.217600  0.126000  1.0  0.0578
  H  H148  1  0.504500  0.213300  0.094200  1.0  0.0933
  H  H149  1  0.629800  0.253600  0.184100  1.0  0.0866
  H  H150  1  0.498500  0.259700  0.212600  1.0  0.0479
  H  H151  1  0.379400  0.118700  0.285400  1.0  0.1029
  H  H152  1  0.390700  0.170000  0.238000  1.0  0.0392
  H  H153  1  0.186600  0.238100  0.269500  1.0  0.059
  H  H154  1  0.170200  0.190000  0.318400  1.0  0.0924
  H  H155  1  0.299200  0.057100  0.315600  1.0  0.1135
  H  H156  1  0.277800  0.010600  0.365300  1.0  0.0594
  H  H157  1  0.212100  0.116300  0.424900  1.0  0.0507
  H  H158  1  0.229800  0.166700  0.377000  1.0  0.0917
  H  H159  1  0.271300  0.886100  0.821600  1.0  0.1874
  H  H160  1  0.216100  0.849600  0.797600  1.0  0.1489
  H  H161  1  0.377600  0.717600  0.626000  1.0  0.0577
  H  H162  1  0.504500  0.713300  0.594200  1.0  0.0933
  H  H163  1  0.629800  0.753600  0.684100  1.0  0.0866
  H  H164  1  0.498500  0.759700  0.712600  1.0  0.0479
  H  H165  1  0.379400  0.618700  0.785400  1.0  0.1029
  H  H166  1  0.390700  0.670000  0.738000  1.0  0.0392
  H  H167  1  0.186600  0.738100  0.769500  1.0  0.059
  H  H168  1  0.170200  0.690000  0.818400  1.0  0.0924
  H  H169  1  0.299200  0.557100  0.815600  1.0  0.1135
  H  H170  1  0.277800  0.510600  0.865300  1.0  0.0594
  H  H171  1  0.212100  0.616300  0.924900  1.0  0.0508
  H  H172  1  0.229800  0.666667  0.877000  1.0  0.0923
  H  H173  1  0.771300  0.386100  0.821600  1.0  0.1874
  H  H174  1  0.716100  0.349600  0.797600  1.0  0.1489
  H  H175  1  0.877600  0.217600  0.626000  1.0  0.0578
  H  H176  1  0.004500  0.213300  0.594200  1.0  0.0933
  H  H177  1  0.129800  0.253600  0.684100  1.0  0.0866
  H  H178  1  0.998500  0.259700  0.712600  1.0  0.0479
  H  H179  1  0.879400  0.118700  0.785400  1.0  0.1029
  H  H180  1  0.890700  0.170000  0.738000  1.0  0.0392
  H  H181  1  0.686600  0.238100  0.769500  1.0  0.059
  H  H182  1  0.670200  0.190000  0.818400  1.0  0.0924
  H  H183  1  0.799200  0.057100  0.815600  1.0  0.1135
  H  H184  1  0.777800  0.010600  0.865300  1.0  0.0594
  H  H185  1  0.712100  0.116300  0.924900  1.0  0.0507
  H  H186  1  0.729800  0.166700  0.877000  1.0  0.0917
  H  H187  1  0.771300  0.886100  0.321600  1.0  0.1874
  H  H188  1  0.716100  0.849600  0.297600  1.0  0.1489
  H  H189  1  0.877600  0.717600  0.126000  1.0  0.0577
  H  H190  1  0.004500  0.713300  0.094200  1.0  0.0933
  H  H191  1  0.129800  0.753600  0.184100  1.0  0.0866
  H  H192  1  0.998500  0.759700  0.212600  1.0  0.0479
  H  H193  1  0.879400  0.618700  0.285400  1.0  0.1029
  H  H194  1  0.890700  0.670000  0.238000  1.0  0.0392
  H  H195  1  0.686600  0.738100  0.269500  1.0  0.059
  H  H196  1  0.670200  0.690000  0.318400  1.0  0.0924
  H  H197  1  0.799200  0.557100  0.315600  1.0  0.1135
  H  H198  1  0.777800  0.510600  0.365300  1.0  0.0594
  H  H199  1  0.712100  0.616300  0.424900  1.0  0.0508
  H  H200  1  0.729800  0.666667  0.377000  1.0  0.0923
  H  H201  1  0.478700  0.363900  0.321600  1.0  0.1881
  H  H202  1  0.533900  0.400400  0.297600  1.0  0.1493
  H  H203  1  0.372400  0.532400  0.126000  1.0  0.0579
  H  H204  1  0.245500  0.536700  0.094200  1.0  0.0937
  H  H205  1  0.120200  0.496400  0.184100  1.0  0.0864
  H  H206  1  0.251500  0.490300  0.212600  1.0  0.048
  H  H207  1  0.370600  0.631300  0.285400  1.0  0.1035
  H  H208  1  0.359300  0.580000  0.238000  1.0  0.0404
  H  H209  1  0.563400  0.511900  0.269500  1.0  0.0592
  H  H210  1  0.579800  0.560000  0.318400  1.0  0.0927
  H  H211  1  0.450800  0.692900  0.315600  1.0  0.1135
  H  H212  1  0.472200  0.739400  0.365300  1.0  0.059
  H  H213  1  0.537900  0.633700  0.424900  1.0  0.051
  H  H214  1  0.520200  0.583300  0.377000  1.0  0.0916
  H  H215  1  0.478700  0.863900  0.821600  1.0  0.1881
  H  H216  1  0.533900  0.900400  0.797600  1.0  0.1493
  H  H217  1  0.372400  0.032400  0.626000  1.0  0.0579
  H  H218  1  0.245500  0.036700  0.594200  1.0  0.0937
  H  H219  1  0.120200  0.996400  0.684100  1.0  0.0864
  H  H220  1  0.251500  0.990300  0.712600  1.0  0.048
  H  H221  1  0.370600  0.131300  0.785400  1.0  0.1035
  H  H222  1  0.359300  0.080000  0.738000  1.0  0.0404
  H  H223  1  0.563400  0.011900  0.769500  1.0  0.0592
  H  H224  1  0.579800  0.060000  0.818400  1.0  0.0927
  H  H225  1  0.450800  0.192900  0.815600  1.0  0.1135
  H  H226  1  0.472200  0.239400  0.865300  1.0  0.059
  H  H227  1  0.537900  0.133700  0.924900  1.0  0.051
  H  H228  1  0.520200  0.083300  0.877000  1.0  0.0916
  H  H229  1  0.978700  0.363900  0.821600  1.0  0.1881
  H  H230  1  0.033900  0.400400  0.797600  1.0  0.1493
  H  H231  1  0.872400  0.532400  0.626000  1.0  0.0579
  H  H232  1  0.745500  0.536700  0.594200  1.0  0.0937
  H  H233  1  0.620200  0.496400  0.684100  1.0  0.0864
  H  H234  1  0.751500  0.490300  0.712600  1.0  0.048
  H  H235  1  0.870600  0.631300  0.785400  1.0  0.1035
  H  H236  1  0.859300  0.580000  0.738000  1.0  0.0404
  H  H237  1  0.063400  0.511900  0.769500  1.0  0.0592
  H  H238  1  0.079800  0.560000  0.818400  1.0  0.0927
  H  H239  1  0.950800  0.692900  0.815600  1.0  0.1135
  H  H240  1  0.972200  0.739400  0.865300  1.0  0.059
  H  H241  1  0.037900  0.633700  0.924900  1.0  0.051
  H  H242  1  0.020200  0.583300  0.877000  1.0  0.0916
  H  H243  1  0.978700  0.863900  0.321600  1.0  0.1881
  H  H244  1  0.033900  0.900400  0.297600  1.0  0.1493
  H  H245  1  0.872400  0.032400  0.126000  1.0  0.0579
  H  H246  1  0.745500  0.036700  0.094200  1.0  0.0937
  H  H247  1  0.620200  0.996400  0.184100  1.0  0.0864
  H  H248  1  0.751500  0.990300  0.212600  1.0  0.048
  H  H249  1  0.870600  0.131300  0.285400  1.0  0.1035
  H  H250  1  0.859300  0.080000  0.238000  1.0  0.0404
  H  H251  1  0.063400  0.011900  0.269500  1.0  0.0592
  H  H252  1  0.079800  0.060000  0.318400  1.0  0.0927
  H  H253  1  0.950800  0.192900  0.315600  1.0  0.1135
  H  H254  1  0.972200  0.239400  0.365300  1.0  0.059
  H  H255  1  0.037900  0.133700  0.424900  1.0  0.051
  H  H256  1  0.020200  0.083300  0.377000  1.0  0.0916
  H  H257  1  0.521300  0.613900  0.571600  1.0  0.189
  H  H258  1  0.466100  0.650400  0.547600  1.0  0.1481
  H  H259  1  0.627600  0.782400  0.376000  1.0  0.0574
  H  H260  1  0.754500  0.786700  0.344200  1.0  0.0938
  H  H261  1  0.879800  0.746400  0.434100  1.0  0.0866
  H  H262  1  0.748500  0.740300  0.462600  1.0  0.0479
  H  H263  1  0.629400  0.881300  0.535400  1.0  0.1029
  H  H264  1  0.640700  0.830000  0.488000  1.0  0.039
  H  H265  1  0.436600  0.761900  0.519500  1.0  0.0582
  H  H266  1  0.420200  0.810000  0.568400  1.0  0.0924
  H  H267  1  0.549200  0.942900  0.565600  1.0  0.1134
  H  H268  1  0.527800  0.989400  0.615300  1.0  0.0591
  H  H269  1  0.462100  0.883700  0.674900  1.0  0.0508
  H  H270  1  0.479800  0.833300  0.627000  1.0  0.0921
  H  H271  1  0.521300  0.113900  0.071600  1.0  0.189
  H  H272  1  0.466100  0.150400  0.047600  1.0  0.1481
  H  H273  1  0.627600  0.282400  0.876000  1.0  0.0574
  H  H274  1  0.754500  0.286700  0.844200  1.0  0.0938
  H  H275  1  0.879800  0.246400  0.934100  1.0  0.0866
  H  H276  1  0.748500  0.240300  0.962600  1.0  0.0479
  H  H277  1  0.629400  0.381300  0.035400  1.0  0.1029
  H  H278  1  0.640700  0.330000  0.988000  1.0  0.039
  H  H279  1  0.436600  0.261900  0.019500  1.0  0.0582
  H  H280  1  0.420200  0.310000  0.068400  1.0  0.0924
  H  H281  1  0.549200  0.442900  0.065600  1.0  0.1134
  H  H282  1  0.527800  0.489400  0.115300  1.0  0.0591
  H  H283  1  0.462100  0.383700  0.174900  1.0  0.051
  H  H284  1  0.479800  0.333333  0.127000  1.0  0.0924
  H  H285  1  0.021300  0.613900  0.071600  1.0  0.189
  H  H286  1  0.966100  0.650400  0.047600  1.0  0.1481
  H  H287  1  0.127600  0.782400  0.876000  1.0  0.0574
  H  H288  1  0.254500  0.786700  0.844200  1.0  0.0938
  H  H289  1  0.379800  0.746400  0.934100  1.0  0.0866
  H  H290  1  0.248500  0.740300  0.962600  1.0  0.0479
  H  H291  1  0.129400  0.881300  0.035400  1.0  0.1029
  H  H292  1  0.140700  0.830000  0.988000  1.0  0.039
  H  H293  1  0.936600  0.761900  0.019500  1.0  0.0582
  H  H294  1  0.920200  0.810000  0.068400  1.0  0.0924
  H  H295  1  0.049200  0.942900  0.065600  1.0  0.1134
  H  H296  1  0.027800  0.989400  0.115300  1.0  0.0591
  H  H297  1  0.962100  0.883700  0.174900  1.0  0.0508
  H  H298  1  0.979800  0.833300  0.127000  1.0  0.0921
  H  H299  1  0.021300  0.113900  0.571600  1.0  0.189
  H  H300  1  0.966100  0.150400  0.547600  1.0  0.1481
  H  H301  1  0.127600  0.282400  0.376000  1.0  0.0574
  H  H302  1  0.254500  0.286700  0.344200  1.0  0.0938
  H  H303  1  0.379800  0.246400  0.434100  1.0  0.0866
  H  H304  1  0.248500  0.240300  0.462600  1.0  0.0479
  H  H305  1  0.129400  0.381300  0.535400  1.0  0.1029
  H  H306  1  0.140700  0.330000  0.488000  1.0  0.039
  H  H307  1  0.936600  0.261900  0.519500  1.0  0.0582
  H  H308  1  0.920200  0.310000  0.568400  1.0  0.0924
  H  H309  1  0.049200  0.442900  0.565600  1.0  0.1134
  H  H310  1  0.027800  0.489400  0.615300  1.0  0.0591
  H  H311  1  0.962100  0.383700  0.674900  1.0  0.051
  H  H312  1  0.979800  0.333333  0.627000  1.0  0.0924
  H  H313  1  0.728700  0.636100  0.571600  1.0  0.1868
  H  H314  1  0.783900  0.599600  0.547600  1.0  0.1499
  H  H315  1  0.622400  0.467600  0.376000  1.0  0.0575
  H  H316  1  0.495500  0.463300  0.344200  1.0  0.0931
  H  H317  1  0.370200  0.503600  0.434100  1.0  0.0864
  H  H318  1  0.501500  0.509700  0.462600  1.0  0.0481
  H  H319  1  0.620600  0.368700  0.535400  1.0  0.1028
  H  H320  1  0.609300  0.420000  0.488000  1.0  0.0403
  H  H321  1  0.813400  0.488100  0.519500  1.0  0.0597
  H  H322  1  0.829800  0.440000  0.568400  1.0  0.0926
  H  H323  1  0.700800  0.307100  0.565600  1.0  0.1134
  H  H324  1  0.722200  0.260600  0.615300  1.0  0.0592
  H  H325  1  0.787900  0.366300  0.674900  1.0  0.0509
  H  H326  1  0.770200  0.416700  0.627000  1.0  0.0914
  H  H327  1  0.728700  0.136100  0.071600  1.0  0.1868
  H  H328  1  0.783900  0.099600  0.047600  1.0  0.1499
  H  H329  1  0.622400  0.967600  0.876000  1.0  0.0575
  H  H330  1  0.495500  0.963300  0.844200  1.0  0.0931
  H  H331  1  0.370200  0.003600  0.934100  1.0  0.0864
  H  H332  1  0.501500  0.009700  0.962600  1.0  0.0481
  H  H333  1  0.620600  0.868700  0.035400  1.0  0.1028
  H  H334  1  0.609300  0.920000  0.988000  1.0  0.0403
  H  H335  1  0.813400  0.988100  0.019500  1.0  0.0597
  H  H336  1  0.829800  0.940000  0.068400  1.0  0.0926
  H  H337  1  0.700800  0.807100  0.065600  1.0  0.1134
  H  H338  1  0.722200  0.760600  0.115300  1.0  0.0592
  H  H339  1  0.787900  0.866300  0.174900  1.0  0.0509
  H  H340  1  0.770200  0.916700  0.127000  1.0  0.0914
  H  H341  1  0.228700  0.636100  0.071600  1.0  0.1868
  H  H342  1  0.283900  0.599600  0.047600  1.0  0.1499
  H  H343  1  0.122400  0.467600  0.876000  1.0  0.0575
  H  H344  1  0.995500  0.463300  0.844200  1.0  0.0931
  H  H345  1  0.870200  0.503600  0.934100  1.0  0.0864
  H  H346  1  0.001500  0.509700  0.962600  1.0  0.0481
  H  H347  1  0.120600  0.368700  0.035400  1.0  0.1028
  H  H348  1  0.109300  0.420000  0.988000  1.0  0.0403
  H  H349  1  0.313400  0.488100  0.019500  1.0  0.0597
  H  H350  1  0.329800  0.440000  0.068400  1.0  0.0926
  H  H351  1  0.200800  0.307100  0.065600  1.0  0.1134
  H  H352  1  0.222200  0.260600  0.115300  1.0  0.0592
  H  H353  1  0.287900  0.366300  0.174900  1.0  0.0509
  H  H354  1  0.270200  0.416700  0.127000  1.0  0.0914
  H  H355  1  0.228700  0.136100  0.571600  1.0  0.1868
  H  H356  1  0.283900  0.099600  0.547600  1.0  0.1499
  H  H357  1  0.122400  0.967600  0.376000  1.0  0.0575
  H  H358  1  0.995500  0.963300  0.344200  1.0  0.0931
  H  H359  1  0.870200  0.003600  0.434100  1.0  0.0864
  H  H360  1  0.001500  0.009700  0.462600  1.0  0.0481
  H  H361  1  0.120600  0.868700  0.535400  1.0  0.1028
  H  H362  1  0.109300  0.920000  0.488000  1.0  0.0403
  H  H363  1  0.313400  0.988100  0.519500  1.0  0.0597
  H  H364  1  0.329800  0.940000  0.568400  1.0  0.0926
  H  H365  1  0.200800  0.807100  0.565600  1.0  0.1134
  H  H366  1  0.222200  0.760600  0.615300  1.0  0.0592
  H  H367  1  0.287900  0.866300  0.674900  1.0  0.0509
  H  H368  1  0.270200  0.916700  0.627000  1.0  0.0914
  H  H369  1  0.728700  0.613900  0.678400  1.0  0.1872
  H  H370  1  0.783900  0.650400  0.702400  1.0  0.1503
  H  H371  1  0.622400  0.782400  0.874000  1.0  0.0584
  H  H372  1  0.495500  0.786700  0.905800  1.0  0.0934
  H  H373  1  0.370200  0.746400  0.815900  1.0  0.0862
  H  H374  1  0.501500  0.740300  0.787400  1.0  0.0485
  H  H375  1  0.620600  0.881300  0.714600  1.0  0.103
  H  H376  1  0.609300  0.830000  0.762000  1.0  0.0406
  H  H377  1  0.813400  0.761900  0.730500  1.0  0.0593
  H  H378  1  0.829800  0.810000  0.681600  1.0  0.093
  H  H379  1  0.700800  0.942900  0.684400  1.0  0.1131
  H  H380  1  0.722200  0.989400  0.634700  1.0  0.059
  H  H381  1  0.787900  0.883700  0.575100  1.0  0.0522
  H  H382  1  0.770200  0.833300  0.623000  1.0  0.0916
  H  H383  1  0.728700  0.113900  0.178400  1.0  0.1872
  H  H384  1  0.783900  0.150400  0.202400  1.0  0.1503
  H  H385  1  0.622400  0.282400  0.374000  1.0  0.0583
  H  H386  1  0.495500  0.286700  0.405800  1.0  0.0934
  H  H387  1  0.370200  0.246400  0.315900  1.0  0.0862
  H  H388  1  0.501500  0.240300  0.287400  1.0  0.0485
  H  H389  1  0.620600  0.381300  0.214600  1.0  0.103
  H  H390  1  0.609300  0.330000  0.262000  1.0  0.0406
  H  H391  1  0.813400  0.261900  0.230500  1.0  0.0593
  H  H392  1  0.829800  0.310000  0.181600  1.0  0.093
  H  H393  1  0.700800  0.442900  0.184400  1.0  0.1131
  H  H394  1  0.722200  0.489400  0.134700  1.0  0.059
  H  H395  1  0.787900  0.383700  0.075100  1.0  0.0523
  H  H396  1  0.770200  0.333333  0.123000  1.0  0.0919
  H  H397  1  0.228700  0.613900  0.178400  1.0  0.1872
  H  H398  1  0.283900  0.650400  0.202400  1.0  0.1503
  H  H399  1  0.122400  0.782400  0.374000  1.0  0.0584
  H  H400  1  0.995500  0.786700  0.405800  1.0  0.0934
  H  H401  1  0.870200  0.746400  0.315900  1.0  0.0862
  H  H402  1  0.001500  0.740300  0.287400  1.0  0.0485
  H  H403  1  0.120600  0.881300  0.214600  1.0  0.103
  H  H404  1  0.109300  0.830000  0.262000  1.0  0.0406
  H  H405  1  0.313400  0.761900  0.230500  1.0  0.0593
  H  H406  1  0.329800  0.810000  0.181600  1.0  0.093
  H  H407  1  0.200800  0.942900  0.184400  1.0  0.1131
  H  H408  1  0.222200  0.989400  0.134700  1.0  0.059
  H  H409  1  0.287900  0.883700  0.075100  1.0  0.0522
  H  H410  1  0.270200  0.833300  0.123000  1.0  0.0916
  H  H411  1  0.228700  0.113900  0.678400  1.0  0.1872
  H  H412  1  0.283900  0.150400  0.702400  1.0  0.1503
  H  H413  1  0.122400  0.282400  0.874000  1.0  0.0583
  H  H414  1  0.995500  0.286700  0.905800  1.0  0.0934
  H  H415  1  0.870200  0.246400  0.815900  1.0  0.0862
  H  H416  1  0.001500  0.240300  0.787400  1.0  0.0485
  H  H417  1  0.120600  0.381300  0.714600  1.0  0.103
  H  H418  1  0.109300  0.330000  0.762000  1.0  0.0406
  H  H419  1  0.313400  0.261900  0.730500  1.0  0.0593
  H  H420  1  0.329800  0.310000  0.681600  1.0  0.093
  H  H421  1  0.200800  0.442900  0.684400  1.0  0.1131
  H  H422  1  0.222200  0.489400  0.634700  1.0  0.059
  H  H423  1  0.287900  0.383700  0.575100  1.0  0.0523
  H  H424  1  0.270200  0.333333  0.623000  1.0  0.0919
  H  H425  1  0.521300  0.636100  0.678400  1.0  0.1863
  H  H426  1  0.466100  0.599600  0.702400  1.0  0.1495
  H  H427  1  0.627600  0.467600  0.874000  1.0  0.0586
  H  H428  1  0.754500  0.463300  0.905800  1.0  0.0931
  H  H429  1  0.879800  0.503600  0.815900  1.0  0.0862
  H  H430  1  0.748500  0.509700  0.787400  1.0  0.0485
  H  H431  1  0.629400  0.368700  0.714600  1.0  0.1026
  H  H432  1  0.640700  0.420000  0.762000  1.0  0.0402
  H  H433  1  0.436600  0.488100  0.730500  1.0  0.0593
  H  H434  1  0.420200  0.440000  0.681600  1.0  0.0929
  H  H435  1  0.549200  0.307100  0.684400  1.0  0.1137
  H  H436  1  0.527800  0.260600  0.634700  1.0  0.0597
  H  H437  1  0.462100  0.366300  0.575100  1.0  0.052
  H  H438  1  0.479800  0.416700  0.623000  1.0  0.092
  H  H439  1  0.521300  0.136100  0.178400  1.0  0.1863
  H  H440  1  0.466100  0.099600  0.202400  1.0  0.1495
  H  H441  1  0.627600  0.967600  0.374000  1.0  0.0586
  H  H442  1  0.754500  0.963300  0.405800  1.0  0.0931
  H  H443  1  0.879800  0.003600  0.315900  1.0  0.0862
  H  H444  1  0.748500  0.009700  0.287400  1.0  0.0485
  H  H445  1  0.629400  0.868700  0.214600  1.0  0.1026
  H  H446  1  0.640700  0.920000  0.262000  1.0  0.0402
  H  H447  1  0.436600  0.988100  0.230500  1.0  0.0593
  H  H448  1  0.420200  0.940000  0.181600  1.0  0.0929
  H  H449  1  0.549200  0.807100  0.184400  1.0  0.1137
  H  H450  1  0.527800  0.760600  0.134700  1.0  0.0597
  H  H451  1  0.462100  0.866300  0.075100  1.0  0.052
  H  H452  1  0.479800  0.916700  0.123000  1.0  0.092
  H  H453  1  0.021300  0.636100  0.178400  1.0  0.1863
  H  H454  1  0.966100  0.599600  0.202400  1.0  0.1495
  H  H455  1  0.127600  0.467600  0.374000  1.0  0.0586
  H  H456  1  0.254500  0.463300  0.405800  1.0  0.0931
  H  H457  1  0.379800  0.503600  0.315900  1.0  0.0862
  H  H458  1  0.248500  0.509700  0.287400  1.0  0.0485
  H  H459  1  0.129400  0.368700  0.214600  1.0  0.1026
  H  H460  1  0.140700  0.420000  0.262000  1.0  0.0402
  H  H461  1  0.936600  0.488100  0.230500  1.0  0.0593
  H  H462  1  0.920200  0.440000  0.181600  1.0  0.0929
  H  H463  1  0.049200  0.307100  0.184400  1.0  0.1137
  H  H464  1  0.027800  0.260600  0.134700  1.0  0.0597
  H  H465  1  0.962100  0.366300  0.075100  1.0  0.052
  H  H466  1  0.979800  0.416700  0.123000  1.0  0.092
  H  H467  1  0.021300  0.136100  0.678400  1.0  0.1863
  H  H468  1  0.966100  0.099600  0.702400  1.0  0.1495
  H  H469  1  0.127600  0.967600  0.874000  1.0  0.0586
  H  H470  1  0.254500  0.963300  0.905800  1.0  0.0931
  H  H471  1  0.379800  0.003600  0.815900  1.0  0.0862
  H  H472  1  0.248500  0.009700  0.787400  1.0  0.0485
  H  H473  1  0.129400  0.868700  0.714600  1.0  0.1026
  H  H474  1  0.140700  0.920000  0.762000  1.0  0.0402
  H  H475  1  0.936600  0.988100  0.730500  1.0  0.0593
  H  H476  1  0.920200  0.940000  0.681600  1.0  0.0929
  H  H477  1  0.049200  0.807100  0.684400  1.0  0.1137
  H  H478  1  0.027800  0.760600  0.634700  1.0  0.0597
  H  H479  1  0.962100  0.866300  0.575100  1.0  0.052
  H  H480  1  0.979800  0.916700  0.623000  1.0  0.092
  C  C481  1  0.433100  0.329480  0.502890  1.0  0.6658
  C  C482  1  0.418100  0.363340  0.471860  1.0  -0.0128
  C  C483  1  0.483400  0.366700  0.448600  1.0  -0.0377
  C  C484  1  0.321000  0.225620  0.612290  1.0  0.1586
  C  C485  1  0.244700  0.222740  0.631650  1.0  -0.239
  C  C486  1  0.166460  0.234030  0.614890  1.0  0.0739
  C  C487  1  0.170800  0.246910  0.578640  1.0  -0.1963
  C  C488  1  0.250200  0.249860  0.561470  1.0  0.1561
  C  C489  1  0.410200  0.143010  0.466990  1.0  -0.2617
  C  C490  1  0.404500  0.173880  0.495570  1.0  0.1796
  C  C491  1  0.523840  0.213960  0.477050  1.0  0.1507
  C  C492  1  0.534050  0.185190  0.447660  1.0  -0.2217
  C  C493  1  0.476100  0.148850  0.441850  1.0  0.0878
  C  C494  1  0.485080  0.117830  0.409840  1.0  0.0657
  C  C495  1  0.469500  0.070130  0.412620  1.0  -0.2325
  C  C496  1  0.482400  0.042500  0.382490  1.0  0.1557
  C  C497  1  0.521100  0.104320  0.347470  1.0  0.1754
  C  C498  1  0.510420  0.134900  0.376230  1.0  -0.2267
  C  C499  1  0.433100  0.829480  0.002890  1.0  0.6658
  C  C500  1  0.418100  0.863340  0.971860  1.0  -0.0128
  C  C501  1  0.483400  0.866700  0.948600  1.0  -0.0377
  C  C502  1  0.321000  0.725620  0.112290  1.0  0.1586
  C  C503  1  0.244700  0.722740  0.131650  1.0  -0.239
  C  C504  1  0.166460  0.734030  0.114890  1.0  0.0739
  C  C505  1  0.170800  0.746910  0.078640  1.0  -0.1963
  C  C506  1  0.250200  0.749860  0.061470  1.0  0.156
  C  C507  1  0.410200  0.643010  0.966990  1.0  -0.2617
  C  C508  1  0.404500  0.673880  0.995570  1.0  0.1796
  C  C509  1  0.523840  0.713960  0.977050  1.0  0.1507
  C  C510  1  0.534050  0.685190  0.947660  1.0  -0.2217
  C  C511  1  0.476100  0.648850  0.941850  1.0  0.0877
  C  C512  1  0.485080  0.617830  0.909840  1.0  0.0655
  C  C513  1  0.469500  0.570130  0.912620  1.0  -0.2332
  C  C514  1  0.482400  0.542500  0.882490  1.0  0.1557
  C  C515  1  0.521100  0.604320  0.847470  1.0  0.1754
  C  C516  1  0.510420  0.634900  0.876230  1.0  -0.2138
  C  C517  1  0.933100  0.329480  0.002890  1.0  0.6658
  C  C518  1  0.918100  0.363340  0.971860  1.0  -0.0128
  C  C519  1  0.983400  0.366700  0.948600  1.0  -0.0377
  C  C520  1  0.821000  0.225620  0.112290  1.0  0.1586
  C  C521  1  0.744700  0.222740  0.131650  1.0  -0.239
  C  C522  1  0.666460  0.234030  0.114890  1.0  0.0739
  C  C523  1  0.670800  0.246910  0.078640  1.0  -0.1963
  C  C524  1  0.750200  0.249860  0.061470  1.0  0.1561
  C  C525  1  0.910200  0.143010  0.966990  1.0  -0.2617
  C  C526  1  0.904500  0.173880  0.995570  1.0  0.1796
  C  C527  1  0.023840  0.213960  0.977050  1.0  0.1507
  C  C528  1  0.034050  0.185190  0.947660  1.0  -0.2217
  C  C529  1  0.976100  0.148850  0.941850  1.0  0.0878
  C  C530  1  0.985080  0.117830  0.909840  1.0  0.0657
  C  C531  1  0.969500  0.070130  0.912620  1.0  -0.2325
  C  C532  1  0.982400  0.042500  0.882490  1.0  0.1557
  C  C533  1  0.021100  0.104320  0.847470  1.0  0.1754
  C  C534  1  0.010420  0.134900  0.876230  1.0  -0.2267
  C  C535  1  0.933100  0.829480  0.502890  1.0  0.6658
  C  C536  1  0.918100  0.863340  0.471860  1.0  -0.0128
  C  C537  1  0.983400  0.866700  0.448600  1.0  -0.0377
  C  C538  1  0.821000  0.725620  0.612290  1.0  0.1586
  C  C539  1  0.744700  0.722740  0.631650  1.0  -0.239
  C  C540  1  0.666460  0.734030  0.614890  1.0  0.0739
  C  C541  1  0.670800  0.746910  0.578640  1.0  -0.1963
  C  C542  1  0.750200  0.749860  0.561470  1.0  0.156
  C  C543  1  0.910200  0.643010  0.466990  1.0  -0.2617
  C  C544  1  0.904500  0.673880  0.495570  1.0  0.1796
  C  C545  1  0.023840  0.713960  0.477050  1.0  0.1507
  C  C546  1  0.034050  0.685190  0.447660  1.0  -0.2217
  C  C547  1  0.976100  0.648850  0.441850  1.0  0.0877
  C  C548  1  0.985080  0.617830  0.409840  1.0  0.0655
  C  C549  1  0.969500  0.570130  0.412620  1.0  -0.2332
  C  C550  1  0.982400  0.542500  0.382490  1.0  0.1557
  C  C551  1  0.021100  0.604320  0.347470  1.0  0.1754
  C  C552  1  0.010420  0.634900  0.376230  1.0  -0.2138
  C  C553  1  0.316900  0.420520  0.502890  1.0  0.6648
  C  C554  1  0.331900  0.386660  0.471860  1.0  -0.0133
  C  C555  1  0.266600  0.383300  0.448600  1.0  -0.0433
  C  C556  1  0.429000  0.524380  0.612290  1.0  0.1557
  C  C557  1  0.505300  0.527260  0.631650  1.0  -0.238
  C  C558  1  0.583540  0.515970  0.614890  1.0  0.0734
  C  C559  1  0.579200  0.503090  0.578640  1.0  -0.1959
  C  C560  1  0.499800  0.500140  0.561470  1.0  0.156
  C  C561  1  0.339800  0.606990  0.466990  1.0  -0.2634
  C  C562  1  0.345500  0.576120  0.495570  1.0  0.1797
  C  C563  1  0.226160  0.536040  0.477050  1.0  0.1512
  C  C564  1  0.215950  0.564810  0.447660  1.0  -0.2223
  C  C565  1  0.273900  0.601150  0.441850  1.0  0.0865
  C  C566  1  0.264920  0.632170  0.409840  1.0  0.0654
  C  C567  1  0.280500  0.679870  0.412620  1.0  -0.2341
  C  C568  1  0.267600  0.707500  0.382490  1.0  0.1534
  C  C569  1  0.228900  0.645680  0.347470  1.0  0.1744
  C  C570  1  0.239580  0.615100  0.376230  1.0  -0.2267
  C  C571  1  0.316900  0.920520  0.002890  1.0  0.6648
  C  C572  1  0.331900  0.886660  0.971860  1.0  -0.0133
  C  C573  1  0.266600  0.883300  0.948600  1.0  -0.0433
  C  C574  1  0.429000  0.024380  0.112290  1.0  0.1557
  C  C575  1  0.505300  0.027260  0.131650  1.0  -0.238
  C  C576  1  0.583540  0.015970  0.114890  1.0  0.0734
  C  C577  1  0.579200  0.003090  0.078640  1.0  -0.1959
  C  C578  1  0.499800  0.000140  0.061470  1.0  0.156
  C  C579  1  0.339800  0.106990  0.966990  1.0  -0.2634
  C  C580  1  0.345500  0.076120  0.995570  1.0  0.1797
  C  C581  1  0.226160  0.036040  0.977050  1.0  0.1512
  C  C582  1  0.215950  0.064810  0.947660  1.0  -0.2223
  C  C583  1  0.273900  0.101150  0.941850  1.0  0.0865
  C  C584  1  0.264920  0.132170  0.909840  1.0  0.0654
  C  C585  1  0.280500  0.179870  0.912620  1.0  -0.2341
  C  C586  1  0.267600  0.207500  0.882490  1.0  0.1534
  C  C587  1  0.228900  0.145680  0.847470  1.0  0.1744
  C  C588  1  0.239580  0.115100  0.876230  1.0  -0.2267
  C  C589  1  0.816900  0.420520  0.002890  1.0  0.6648
  C  C590  1  0.831900  0.386660  0.971860  1.0  -0.0133
  C  C591  1  0.766600  0.383300  0.948600  1.0  -0.0433
  C  C592  1  0.929000  0.524380  0.112290  1.0  0.1557
  C  C593  1  0.005300  0.527260  0.131650  1.0  -0.238
  C  C594  1  0.083540  0.515970  0.114890  1.0  0.0734
  C  C595  1  0.079200  0.503090  0.078640  1.0  -0.1959
  C  C596  1  0.999800  0.500140  0.061470  1.0  0.156
  C  C597  1  0.839800  0.606990  0.966990  1.0  -0.2634
  C  C598  1  0.845500  0.576120  0.995570  1.0  0.1797
  C  C599  1  0.726160  0.536040  0.977050  1.0  0.1512
  C  C600  1  0.715950  0.564810  0.947660  1.0  -0.2223
  C  C601  1  0.773900  0.601150  0.941850  1.0  0.0865
  C  C602  1  0.764920  0.632170  0.909840  1.0  0.0654
  C  C603  1  0.780500  0.679870  0.912620  1.0  -0.2341
  C  C604  1  0.767600  0.707500  0.882490  1.0  0.1534
  C  C605  1  0.728900  0.645680  0.847470  1.0  0.1744
  C  C606  1  0.739580  0.615100  0.876230  1.0  -0.2267
  C  C607  1  0.816900  0.920520  0.502890  1.0  0.6648
  C  C608  1  0.831900  0.886660  0.471860  1.0  -0.0133
  C  C609  1  0.766600  0.883300  0.448600  1.0  -0.0433
  C  C610  1  0.929000  0.024380  0.612290  1.0  0.1557
  C  C611  1  0.005300  0.027260  0.631650  1.0  -0.238
  C  C612  1  0.083540  0.015970  0.614890  1.0  0.0734
  C  C613  1  0.079200  0.003090  0.578640  1.0  -0.1959
  C  C614  1  0.999800  0.000140  0.561470  1.0  0.156
  C  C615  1  0.839800  0.106990  0.466990  1.0  -0.2634
  C  C616  1  0.845500  0.076120  0.495570  1.0  0.1797
  C  C617  1  0.726160  0.036040  0.477050  1.0  0.1512
  C  C618  1  0.715950  0.064810  0.447660  1.0  -0.2223
  C  C619  1  0.773900  0.101150  0.441850  1.0  0.0865
  C  C620  1  0.764920  0.132170  0.409840  1.0  0.0654
  C  C621  1  0.780500  0.179870  0.412620  1.0  -0.2341
  C  C622  1  0.767600  0.207500  0.382490  1.0  0.1534
  C  C623  1  0.728900  0.145680  0.347470  1.0  0.1744
  C  C624  1  0.739580  0.115100  0.376230  1.0  -0.2267
  C  C625  1  0.316900  0.329480  0.247110  1.0  0.6653
  C  C626  1  0.331900  0.363340  0.278140  1.0  -0.0132
  C  C627  1  0.266600  0.366700  0.301400  1.0  -0.0392
  C  C628  1  0.429000  0.225620  0.137710  1.0  0.1555
  C  C629  1  0.505300  0.222740  0.118350  1.0  -0.2359
  C  C630  1  0.583540  0.234030  0.135110  1.0  0.074
  C  C631  1  0.579200  0.246910  0.171360  1.0  -0.1968
  C  C632  1  0.499800  0.249860  0.188530  1.0  0.1561
  C  C633  1  0.339800  0.143010  0.283010  1.0  -0.2647
  C  C634  1  0.345500  0.173880  0.254430  1.0  0.1799
  C  C635  1  0.226160  0.213960  0.272950  1.0  0.1504
  C  C636  1  0.215950  0.185190  0.302340  1.0  -0.2198
  C  C637  1  0.273900  0.148850  0.308150  1.0  0.085
  C  C638  1  0.264920  0.117830  0.340160  1.0  0.0668
  C  C639  1  0.280500  0.070130  0.337380  1.0  -0.2321
  C  C640  1  0.267600  0.042500  0.367510  1.0  0.155
  C  C641  1  0.228900  0.104320  0.402530  1.0  0.1739
  C  C642  1  0.239580  0.134900  0.373770  1.0  -0.2269
  C  C643  1  0.316900  0.829480  0.747110  1.0  0.6653
  C  C644  1  0.331900  0.863340  0.778140  1.0  -0.0132
  C  C645  1  0.266600  0.866700  0.801400  1.0  -0.0392
  C  C646  1  0.429000  0.725620  0.637710  1.0  0.1555
  C  C647  1  0.505300  0.722740  0.618350  1.0  -0.2359
  C  C648  1  0.583540  0.734030  0.635110  1.0  0.074
  C  C649  1  0.579200  0.746910  0.671360  1.0  -0.1967
  C  C650  1  0.499800  0.749860  0.688530  1.0  0.156
  C  C651  1  0.339800  0.643010  0.783010  1.0  -0.2647
  C  C652  1  0.345500  0.673880  0.754430  1.0  0.1799
  C  C653  1  0.226160  0.713960  0.772950  1.0  0.1504
  C  C654  1  0.215950  0.685190  0.802340  1.0  -0.2198
  C  C655  1  0.273900  0.648850  0.808150  1.0  0.085
  C  C656  1  0.264920  0.617830  0.840160  1.0  0.0666
  C  C657  1  0.280500  0.570130  0.837380  1.0  -0.2329
  C  C658  1  0.267600  0.542500  0.867510  1.0  0.155
  C  C659  1  0.228900  0.604320  0.902530  1.0  0.1739
  C  C660  1  0.239580  0.634900  0.873770  1.0  -0.214
  C  C661  1  0.816900  0.329480  0.747110  1.0  0.6653
  C  C662  1  0.831900  0.363340  0.778140  1.0  -0.0132
  C  C663  1  0.766600  0.366700  0.801400  1.0  -0.0392
  C  C664  1  0.929000  0.225620  0.637710  1.0  0.1555
  C  C665  1  0.005300  0.222740  0.618350  1.0  -0.2359
  C  C666  1  0.083540  0.234030  0.635110  1.0  0.074
  C  C667  1  0.079200  0.246910  0.671360  1.0  -0.1968
  C  C668  1  0.999800  0.249860  0.688530  1.0  0.1561
  C  C669  1  0.839800  0.143010  0.783010  1.0  -0.2647
  C  C670  1  0.845500  0.173880  0.754430  1.0  0.1799
  C  C671  1  0.726160  0.213960  0.772950  1.0  0.1504
  C  C672  1  0.715950  0.185190  0.802340  1.0  -0.2198
  C  C673  1  0.773900  0.148850  0.808150  1.0  0.085
  C  C674  1  0.764920  0.117830  0.840160  1.0  0.0668
  C  C675  1  0.780500  0.070130  0.837380  1.0  -0.2321
  C  C676  1  0.767600  0.042500  0.867510  1.0  0.155
  C  C677  1  0.728900  0.104320  0.902530  1.0  0.1739
  C  C678  1  0.739580  0.134900  0.873770  1.0  -0.2269
  C  C679  1  0.816900  0.829480  0.247110  1.0  0.6653
  C  C680  1  0.831900  0.863340  0.278140  1.0  -0.0132
  C  C681  1  0.766600  0.866700  0.301400  1.0  -0.0392
  C  C682  1  0.929000  0.725620  0.137710  1.0  0.1555
  C  C683  1  0.005300  0.722740  0.118350  1.0  -0.2359
  C  C684  1  0.083540  0.734030  0.135110  1.0  0.074
  C  C685  1  0.079200  0.746910  0.171360  1.0  -0.1967
  C  C686  1  0.999800  0.749860  0.188530  1.0  0.156
  C  C687  1  0.839800  0.643010  0.283010  1.0  -0.2647
  C  C688  1  0.845500  0.673880  0.254430  1.0  0.1799
  C  C689  1  0.726160  0.713960  0.272950  1.0  0.1504
  C  C690  1  0.715950  0.685190  0.302340  1.0  -0.2198
  C  C691  1  0.773900  0.648850  0.308150  1.0  0.085
  C  C692  1  0.764920  0.617830  0.340160  1.0  0.0666
  C  C693  1  0.780500  0.570130  0.337380  1.0  -0.2329
  C  C694  1  0.767600  0.542500  0.367510  1.0  0.155
  C  C695  1  0.728900  0.604320  0.402530  1.0  0.1739
  C  C696  1  0.739580  0.634900  0.373770  1.0  -0.214
  C  C697  1  0.433100  0.420520  0.247110  1.0  0.6654
  C  C698  1  0.418100  0.386660  0.278140  1.0  -0.0128
  C  C699  1  0.483400  0.383300  0.301400  1.0  -0.0435
  C  C700  1  0.321000  0.524380  0.137710  1.0  0.1575
  C  C701  1  0.244700  0.527260  0.118350  1.0  -0.2372
  C  C702  1  0.166460  0.515970  0.135110  1.0  0.0742
  C  C703  1  0.170800  0.503090  0.171360  1.0  -0.197
  C  C704  1  0.250200  0.500140  0.188530  1.0  0.1559
  C  C705  1  0.410200  0.606990  0.283010  1.0  -0.2624
  C  C706  1  0.404500  0.576120  0.254430  1.0  0.1804
  C  C707  1  0.523840  0.536040  0.272950  1.0  0.1499
  C  C708  1  0.534050  0.564810  0.302340  1.0  -0.2191
  C  C709  1  0.476100  0.601150  0.308150  1.0  0.0867
  C  C710  1  0.485080  0.632170  0.340160  1.0  0.067
  C  C711  1  0.469500  0.679870  0.337380  1.0  -0.2344
  C  C712  1  0.482400  0.707500  0.367510  1.0  0.1531
  C  C713  1  0.521100  0.645680  0.402530  1.0  0.1753
  C  C714  1  0.510420  0.615100  0.373770  1.0  -0.2267
  C  C715  1  0.433100  0.920520  0.747110  1.0  0.6654
  C  C716  1  0.418100  0.886660  0.778140  1.0  -0.0128
  C  C717  1  0.483400  0.883300  0.801400  1.0  -0.0435
  C  C718  1  0.321000  0.024380  0.637710  1.0  0.1575
  C  C719  1  0.244700  0.027260  0.618350  1.0  -0.2372
  C  C720  1  0.166460  0.015970  0.635110  1.0  0.0742
  C  C721  1  0.170800  0.003090  0.671360  1.0  -0.197
  C  C722  1  0.250200  0.000140  0.688530  1.0  0.1559
  C  C723  1  0.410200  0.106990  0.783010  1.0  -0.2624
  C  C724  1  0.404500  0.076120  0.754430  1.0  0.1804
  C  C725  1  0.523840  0.036040  0.772950  1.0  0.1499
  C  C726  1  0.534050  0.064810  0.802340  1.0  -0.2191
  C  C727  1  0.476100  0.101150  0.808150  1.0  0.0867
  C  C728  1  0.485080  0.132170  0.840160  1.0  0.067
  C  C729  1  0.469500  0.179870  0.837380  1.0  -0.2344
  C  C730  1  0.482400  0.207500  0.867510  1.0  0.1531
  C  C731  1  0.521100  0.145680  0.902530  1.0  0.1753
  C  C732  1  0.510420  0.115100  0.873770  1.0  -0.2267
  C  C733  1  0.933100  0.420520  0.747110  1.0  0.6654
  C  C734  1  0.918100  0.386660  0.778140  1.0  -0.0128
  C  C735  1  0.983400  0.383300  0.801400  1.0  -0.0435
  C  C736  1  0.821000  0.524380  0.637710  1.0  0.1575
  C  C737  1  0.744700  0.527260  0.618350  1.0  -0.2372
  C  C738  1  0.666460  0.515970  0.635110  1.0  0.0742
  C  C739  1  0.670800  0.503090  0.671360  1.0  -0.197
  C  C740  1  0.750200  0.500140  0.688530  1.0  0.1559
  C  C741  1  0.910200  0.606990  0.783010  1.0  -0.2624
  C  C742  1  0.904500  0.576120  0.754430  1.0  0.1804
  C  C743  1  0.023840  0.536040  0.772950  1.0  0.1499
  C  C744  1  0.034050  0.564810  0.802340  1.0  -0.2191
  C  C745  1  0.976100  0.601150  0.808150  1.0  0.0867
  C  C746  1  0.985080  0.632170  0.840160  1.0  0.067
  C  C747  1  0.969500  0.679870  0.837380  1.0  -0.2344
  C  C748  1  0.982400  0.707500  0.867510  1.0  0.1531
  C  C749  1  0.021100  0.645680  0.902530  1.0  0.1753
  C  C750  1  0.010420  0.615100  0.873770  1.0  -0.2267
  C  C751  1  0.933100  0.920520  0.247110  1.0  0.6654
  C  C752  1  0.918100  0.886660  0.278140  1.0  -0.0128
  C  C753  1  0.983400  0.883300  0.301400  1.0  -0.0435
  C  C754  1  0.821000  0.024380  0.137710  1.0  0.1575
  C  C755  1  0.744700  0.027260  0.118350  1.0  -0.2372
  C  C756  1  0.666460  0.015970  0.135110  1.0  0.0742
  C  C757  1  0.670800  0.003090  0.171360  1.0  -0.197
  C  C758  1  0.750200  0.000140  0.188530  1.0  0.1559
  C  C759  1  0.910200  0.106990  0.283010  1.0  -0.2624
  C  C760  1  0.904500  0.076120  0.254430  1.0  0.1804
  C  C761  1  0.023840  0.036040  0.272950  1.0  0.1499
  C  C762  1  0.034050  0.064810  0.302340  1.0  -0.2191
  C  C763  1  0.976100  0.101150  0.308150  1.0  0.0867
  C  C764  1  0.985080  0.132170  0.340160  1.0  0.067
  C  C765  1  0.969500  0.179870  0.337380  1.0  -0.2344
  C  C766  1  0.982400  0.207500  0.367510  1.0  0.1531
  C  C767  1  0.021100  0.145680  0.402530  1.0  0.1753
  C  C768  1  0.010420  0.115100  0.373770  1.0  -0.2267
  C  C769  1  0.566900  0.670520  0.497110  1.0  0.665
  C  C770  1  0.581900  0.636660  0.528140  1.0  -0.0132
  C  C771  1  0.516600  0.633300  0.551400  1.0  -0.0364
  C  C772  1  0.679000  0.774380  0.387710  1.0  0.1557
  C  C773  1  0.755300  0.777260  0.368350  1.0  -0.2359
  C  C774  1  0.833540  0.765970  0.385110  1.0  0.0738
  C  C775  1  0.829200  0.753090  0.421360  1.0  -0.1962
  C  C776  1  0.749800  0.750140  0.438530  1.0  0.1562
  C  C777  1  0.589800  0.856990  0.533010  1.0  -0.2634
  C  C778  1  0.595500  0.826120  0.504430  1.0  0.1799
  C  C779  1  0.476160  0.786040  0.522950  1.0  0.1507
  C  C780  1  0.465950  0.814810  0.552340  1.0  -0.22
  C  C781  1  0.523900  0.851150  0.558150  1.0  0.0857
  C  C782  1  0.514920  0.882170  0.590160  1.0  0.0665
  C  C783  1  0.530500  0.929870  0.587380  1.0  -0.2338
  C  C784  1  0.517600  0.957500  0.617510  1.0  0.1538
  C  C785  1  0.478900  0.895680  0.652530  1.0  0.1738
  C  C786  1  0.489580  0.865100  0.623770  1.0  -0.2268
  C  C787  1  0.566900  0.170520  0.997110  1.0  0.665
  C  C788  1  0.581900  0.136660  0.028140  1.0  -0.0132
  C  C789  1  0.516600  0.133300  0.051400  1.0  -0.0364
  C  C790  1  0.679000  0.274380  0.887710  1.0  0.1557
  C  C791  1  0.755300  0.277260  0.868350  1.0  -0.2359
  C  C792  1  0.833540  0.265970  0.885110  1.0  0.0737
  C  C793  1  0.829200  0.253090  0.921360  1.0  -0.1962
  C  C794  1  0.749800  0.250140  0.938530  1.0  0.156
  C  C795  1  0.589800  0.356990  0.033010  1.0  -0.2634
  C  C796  1  0.595500  0.326120  0.004430  1.0  0.1799
  C  C797  1  0.476160  0.286040  0.022950  1.0  0.1507
  C  C798  1  0.465950  0.314810  0.052340  1.0  -0.2201
  C  C799  1  0.523900  0.351150  0.058150  1.0  0.0857
  C  C800  1  0.514920  0.382170  0.090160  1.0  0.0663
  C  C801  1  0.530500  0.429870  0.087380  1.0  -0.2346
  C  C802  1  0.517600  0.457500  0.117510  1.0  0.1538
  C  C803  1  0.478900  0.395680  0.152530  1.0  0.1738
  C  C804  1  0.489580  0.365100  0.123770  1.0  -0.2141
  C  C805  1  0.066900  0.670520  0.997110  1.0  0.665
  C  C806  1  0.081900  0.636660  0.028140  1.0  -0.0132
  C  C807  1  0.016600  0.633300  0.051400  1.0  -0.0364
  C  C808  1  0.179000  0.774380  0.887710  1.0  0.1557
  C  C809  1  0.255300  0.777260  0.868350  1.0  -0.2359
  C  C810  1  0.333540  0.765970  0.885110  1.0  0.0738
  C  C811  1  0.329200  0.753090  0.921360  1.0  -0.1962
  C  C812  1  0.249800  0.750140  0.938530  1.0  0.1562
  C  C813  1  0.089800  0.856990  0.033010  1.0  -0.2634
  C  C814  1  0.095500  0.826120  0.004430  1.0  0.1799
  C  C815  1  0.976160  0.786040  0.022950  1.0  0.1507
  C  C816  1  0.965950  0.814810  0.052340  1.0  -0.22
  C  C817  1  0.023900  0.851150  0.058150  1.0  0.0857
  C  C818  1  0.014920  0.882170  0.090160  1.0  0.0665
  C  C819  1  0.030500  0.929870  0.087380  1.0  -0.2338
  C  C820  1  0.017600  0.957500  0.117510  1.0  0.1538
  C  C821  1  0.978900  0.895680  0.152530  1.0  0.1738
  C  C822  1  0.989580  0.865100  0.123770  1.0  -0.2268
  C  C823  1  0.066900  0.170520  0.497110  1.0  0.665
  C  C824  1  0.081900  0.136660  0.528140  1.0  -0.0132
  C  C825  1  0.016600  0.133300  0.551400  1.0  -0.0364
  C  C826  1  0.179000  0.274380  0.387710  1.0  0.1557
  C  C827  1  0.255300  0.277260  0.368350  1.0  -0.2359
  C  C828  1  0.333540  0.265970  0.385110  1.0  0.0737
  C  C829  1  0.329200  0.253090  0.421360  1.0  -0.1962
  C  C830  1  0.249800  0.250140  0.438530  1.0  0.156
  C  C831  1  0.089800  0.356990  0.533010  1.0  -0.2634
  C  C832  1  0.095500  0.326120  0.504430  1.0  0.1799
  C  C833  1  0.976160  0.286040  0.522950  1.0  0.1507
  C  C834  1  0.965950  0.314810  0.552340  1.0  -0.2201
  C  C835  1  0.023900  0.351150  0.558150  1.0  0.0857
  C  C836  1  0.014920  0.382170  0.590160  1.0  0.0663
  C  C837  1  0.030500  0.429870  0.587380  1.0  -0.2346
  C  C838  1  0.017600  0.457500  0.617510  1.0  0.1538
  C  C839  1  0.978900  0.395680  0.652530  1.0  0.1738
  C  C840  1  0.989580  0.365100  0.623770  1.0  -0.2141
  C  C841  1  0.683100  0.579480  0.497110  1.0  0.6658
  C  C842  1  0.668100  0.613340  0.528140  1.0  -0.0127
  C  C843  1  0.733400  0.616700  0.551400  1.0  -0.0403
  C  C844  1  0.571000  0.475620  0.387710  1.0  0.1582
  C  C845  1  0.494700  0.472740  0.368350  1.0  -0.2366
  C  C846  1  0.416460  0.484030  0.385110  1.0  0.0742
  C  C847  1  0.420800  0.496910  0.421360  1.0  -0.1965
  C  C848  1  0.500200  0.499860  0.438530  1.0  0.1561
  C  C849  1  0.660200  0.393010  0.533010  1.0  -0.2638
  C  C850  1  0.654500  0.423880  0.504430  1.0  0.1805
  C  C851  1  0.773840  0.463960  0.522950  1.0  0.1504
  C  C852  1  0.784050  0.435190  0.552340  1.0  -0.2191
  C  C853  1  0.726100  0.398850  0.558150  1.0  0.0865
  C  C854  1  0.735080  0.367830  0.590160  1.0  0.0673
  C  C855  1  0.719500  0.320130  0.587380  1.0  -0.232
  C  C856  1  0.732400  0.292500  0.617510  1.0  0.1555
  C  C857  1  0.771100  0.354320  0.652530  1.0  0.1755
  C  C858  1  0.760420  0.384900  0.623770  1.0  -0.2266
  C  C859  1  0.683100  0.079480  0.997110  1.0  0.6658
  C  C860  1  0.668100  0.113340  0.028140  1.0  -0.0127
  C  C861  1  0.733400  0.116700  0.051400  1.0  -0.0403
  C  C862  1  0.571000  0.975620  0.887710  1.0  0.1582
  C  C863  1  0.494700  0.972740  0.868350  1.0  -0.2366
  C  C864  1  0.416460  0.984030  0.885110  1.0  0.0742
  C  C865  1  0.420800  0.996910  0.921360  1.0  -0.1965
  C  C866  1  0.500200  0.999860  0.938530  1.0  0.1561
  C  C867  1  0.660200  0.893010  0.033010  1.0  -0.2638
  C  C868  1  0.654500  0.923880  0.004430  1.0  0.1805
  C  C869  1  0.773840  0.963960  0.022950  1.0  0.1504
  C  C870  1  0.784050  0.935190  0.052340  1.0  -0.2191
  C  C871  1  0.726100  0.898850  0.058150  1.0  0.0865
  C  C872  1  0.735080  0.867830  0.090160  1.0  0.0673
  C  C873  1  0.719500  0.820130  0.087380  1.0  -0.232
  C  C874  1  0.732400  0.792500  0.117510  1.0  0.1555
  C  C875  1  0.771100  0.854320  0.152530  1.0  0.1755
  C  C876  1  0.760420  0.884900  0.123770  1.0  -0.2266
  C  C877  1  0.183100  0.579480  0.997110  1.0  0.6658
  C  C878  1  0.168100  0.613340  0.028140  1.0  -0.0127
  C  C879  1  0.233400  0.616700  0.051400  1.0  -0.0403
  C  C880  1  0.071000  0.475620  0.887710  1.0  0.1582
  C  C881  1  0.994700  0.472740  0.868350  1.0  -0.2366
  C  C882  1  0.916460  0.484030  0.885110  1.0  0.0742
  C  C883  1  0.920800  0.496910  0.921360  1.0  -0.1965
  C  C884  1  0.000200  0.499860  0.938530  1.0  0.1561
  C  C885  1  0.160200  0.393010  0.033010  1.0  -0.2638
  C  C886  1  0.154500  0.423880  0.004430  1.0  0.1805
  C  C887  1  0.273840  0.463960  0.022950  1.0  0.1504
  C  C888  1  0.284050  0.435190  0.052340  1.0  -0.2191
  C  C889  1  0.226100  0.398850  0.058150  1.0  0.0865
  C  C890  1  0.235080  0.367830  0.090160  1.0  0.0673
  C  C891  1  0.219500  0.320130  0.087380  1.0  -0.232
  C  C892  1  0.232400  0.292500  0.117510  1.0  0.1555
  C  C893  1  0.271100  0.354320  0.152530  1.0  0.1755
  C  C894  1  0.260420  0.384900  0.123770  1.0  -0.2266
  C  C895  1  0.183100  0.079480  0.497110  1.0  0.6658
  C  C896  1  0.168100  0.113340  0.528140  1.0  -0.0127
  C  C897  1  0.233400  0.116700  0.551400  1.0  -0.0403
  C  C898  1  0.071000  0.975620  0.387710  1.0  0.1582
  C  C899  1  0.994700  0.972740  0.368350  1.0  -0.2366
  C  C900  1  0.916460  0.984030  0.385110  1.0  0.0742
  C  C901  1  0.920800  0.996910  0.421360  1.0  -0.1965
  C  C902  1  0.000200  0.999860  0.438530  1.0  0.1561
  C  C903  1  0.160200  0.893010  0.533010  1.0  -0.2638
  C  C904  1  0.154500  0.923880  0.504430  1.0  0.1805
  C  C905  1  0.273840  0.963960  0.522950  1.0  0.1504
  C  C906  1  0.284050  0.935190  0.552340  1.0  -0.2191
  C  C907  1  0.226100  0.898850  0.558150  1.0  0.0865
  C  C908  1  0.235080  0.867830  0.590160  1.0  0.0673
  C  C909  1  0.219500  0.820130  0.587380  1.0  -0.232
  C  C910  1  0.232400  0.792500  0.617510  1.0  0.1555
  C  C911  1  0.271100  0.854320  0.652530  1.0  0.1755
  C  C912  1  0.260420  0.884900  0.623770  1.0  -0.2266
  C  C913  1  0.683100  0.670520  0.752890  1.0  0.6653
  C  C914  1  0.668100  0.636660  0.721860  1.0  -0.0128
  C  C915  1  0.733400  0.633300  0.698600  1.0  -0.0353
  C  C916  1  0.571000  0.774380  0.862290  1.0  0.1575
  C  C917  1  0.494700  0.777260  0.881650  1.0  -0.239
  C  C918  1  0.416460  0.765970  0.864890  1.0  0.0739
  C  C919  1  0.420800  0.753090  0.828640  1.0  -0.1966
  C  C920  1  0.500200  0.750140  0.811470  1.0  0.1557
  C  C921  1  0.660200  0.856990  0.716990  1.0  -0.262
  C  C922  1  0.654500  0.826120  0.745570  1.0  0.1793
  C  C923  1  0.773840  0.786040  0.727050  1.0  0.1503
  C  C924  1  0.784050  0.814810  0.697660  1.0  -0.2215
  C  C925  1  0.726100  0.851150  0.691850  1.0  0.0875
  C  C926  1  0.735080  0.882170  0.659840  1.0  0.0659
  C  C927  1  0.719500  0.929870  0.662620  1.0  -0.2352
  C  C928  1  0.732400  0.957500  0.632490  1.0  0.1526
  C  C929  1  0.771100  0.895680  0.597470  1.0  0.1757
  C  C930  1  0.760420  0.865100  0.626230  1.0  -0.2266
  C  C931  1  0.683100  0.170520  0.252890  1.0  0.6653
  C  C932  1  0.668100  0.136660  0.221860  1.0  -0.0128
  C  C933  1  0.733400  0.133300  0.198600  1.0  -0.0353
  C  C934  1  0.571000  0.274380  0.362290  1.0  0.1575
  C  C935  1  0.494700  0.277260  0.381650  1.0  -0.239
  C  C936  1  0.416460  0.265970  0.364890  1.0  0.0739
  C  C937  1  0.420800  0.253090  0.328640  1.0  -0.1966
  C  C938  1  0.500200  0.250140  0.311470  1.0  0.1556
  C  C939  1  0.660200  0.356990  0.216990  1.0  -0.262
  C  C940  1  0.654500  0.326120  0.245570  1.0  0.1793
  C  C941  1  0.773840  0.286040  0.227050  1.0  0.1503
  C  C942  1  0.784050  0.314810  0.197660  1.0  -0.2216
  C  C943  1  0.726100  0.351150  0.191850  1.0  0.0875
  C  C944  1  0.735080  0.382170  0.159840  1.0  0.0657
  C  C945  1  0.719500  0.429870  0.162620  1.0  -0.2358
  C  C946  1  0.732400  0.457500  0.132490  1.0  0.1526
  C  C947  1  0.771100  0.395680  0.097470  1.0  0.1757
  C  C948  1  0.760420  0.365100  0.126230  1.0  -0.2139
  C  C949  1  0.183100  0.670520  0.252890  1.0  0.6653
  C  C950  1  0.168100  0.636660  0.221860  1.0  -0.0128
  C  C951  1  0.233400  0.633300  0.198600  1.0  -0.0353
  C  C952  1  0.071000  0.774380  0.362290  1.0  0.1575
  C  C953  1  0.994700  0.777260  0.381650  1.0  -0.239
  C  C954  1  0.916460  0.765970  0.364890  1.0  0.0739
  C  C955  1  0.920800  0.753090  0.328640  1.0  -0.1966
  C  C956  1  0.000200  0.750140  0.311470  1.0  0.1557
  C  C957  1  0.160200  0.856990  0.216990  1.0  -0.262
  C  C958  1  0.154500  0.826120  0.245570  1.0  0.1793
  C  C959  1  0.273840  0.786040  0.227050  1.0  0.1503
  C  C960  1  0.284050  0.814810  0.197660  1.0  -0.2215
  C  C961  1  0.226100  0.851150  0.191850  1.0  0.0875
  C  C962  1  0.235080  0.882170  0.159840  1.0  0.0659
  C  C963  1  0.219500  0.929870  0.162620  1.0  -0.2352
  C  C964  1  0.232400  0.957500  0.132490  1.0  0.1526
  C  C965  1  0.271100  0.895680  0.097470  1.0  0.1757
  C  C966  1  0.260420  0.865100  0.126230  1.0  -0.2266
  C  C967  1  0.183100  0.170520  0.752890  1.0  0.6653
  C  C968  1  0.168100  0.136660  0.721860  1.0  -0.0128
  C  C969  1  0.233400  0.133300  0.698600  1.0  -0.0353
  C  C970  1  0.071000  0.274380  0.862290  1.0  0.1575
  C  C971  1  0.994700  0.277260  0.881650  1.0  -0.239
  C  C972  1  0.916460  0.265970  0.864890  1.0  0.0739
  C  C973  1  0.920800  0.253090  0.828640  1.0  -0.1966
  C  C974  1  0.000200  0.250140  0.811470  1.0  0.1556
  C  C975  1  0.160200  0.356990  0.716990  1.0  -0.262
  C  C976  1  0.154500  0.326120  0.745570  1.0  0.1793
  C  C977  1  0.273840  0.286040  0.727050  1.0  0.1503
  C  C978  1  0.284050  0.314810  0.697660  1.0  -0.2216
  C  C979  1  0.226100  0.351150  0.691850  1.0  0.0875
  C  C980  1  0.235080  0.382170  0.659840  1.0  0.0657
  C  C981  1  0.219500  0.429870  0.662620  1.0  -0.2358
  C  C982  1  0.232400  0.457500  0.632490  1.0  0.1526
  C  C983  1  0.271100  0.395680  0.597470  1.0  0.1757
  C  C984  1  0.260420  0.365100  0.626230  1.0  -0.2139
  C  C985  1  0.566900  0.579480  0.752890  1.0  0.6654
  C  C986  1  0.581900  0.613340  0.721860  1.0  -0.0133
  C  C987  1  0.516600  0.616700  0.698600  1.0  -0.0406
  C  C988  1  0.679000  0.475620  0.862290  1.0  0.1559
  C  C989  1  0.755300  0.472740  0.881650  1.0  -0.2382
  C  C990  1  0.833540  0.484030  0.864890  1.0  0.0736
  C  C991  1  0.829200  0.496910  0.828640  1.0  -0.1967
  C  C992  1  0.749800  0.499860  0.811470  1.0  0.156
  C  C993  1  0.589800  0.393010  0.716990  1.0  -0.2627
  C  C994  1  0.595500  0.423880  0.745570  1.0  0.18
  C  C995  1  0.476160  0.463960  0.727050  1.0  0.1505
  C  C996  1  0.465950  0.435190  0.697660  1.0  -0.222
  C  C997  1  0.523900  0.398850  0.691850  1.0  0.0865
  C  C998  1  0.514920  0.367830  0.659840  1.0  0.0652
  C  C999  1  0.530500  0.320130  0.662620  1.0  -0.2324
  C  C1000  1  0.517600  0.292500  0.632490  1.0  0.1552
  C  C1001  1  0.478900  0.354320  0.597470  1.0  0.174
  C  C1002  1  0.489580  0.384900  0.626230  1.0  -0.227
  C  C1003  1  0.566900  0.079480  0.252890  1.0  0.6654
  C  C1004  1  0.581900  0.113340  0.221860  1.0  -0.0133
  C  C1005  1  0.516600  0.116700  0.198600  1.0  -0.0406
  C  C1006  1  0.679000  0.975620  0.362290  1.0  0.1559
  C  C1007  1  0.755300  0.972740  0.381650  1.0  -0.2382
  C  C1008  1  0.833540  0.984030  0.364890  1.0  0.0736
  C  C1009  1  0.829200  0.996910  0.328640  1.0  -0.1967
  C  C1010  1  0.749800  0.999860  0.311470  1.0  0.156
  C  C1011  1  0.589800  0.893010  0.216990  1.0  -0.2627
  C  C1012  1  0.595500  0.923880  0.245570  1.0  0.18
  C  C1013  1  0.476160  0.963960  0.227050  1.0  0.1505
  C  C1014  1  0.465950  0.935190  0.197660  1.0  -0.222
  C  C1015  1  0.523900  0.898850  0.191850  1.0  0.0865
  C  C1016  1  0.514920  0.867830  0.159840  1.0  0.0652
  C  C1017  1  0.530500  0.820130  0.162620  1.0  -0.2324
  C  C1018  1  0.517600  0.792500  0.132490  1.0  0.1552
  C  C1019  1  0.478900  0.854320  0.097470  1.0  0.174
  C  C1020  1  0.489580  0.884900  0.126230  1.0  -0.227
  C  C1021  1  0.066900  0.579480  0.252890  1.0  0.6654
  C  C1022  1  0.081900  0.613340  0.221860  1.0  -0.0133
  C  C1023  1  0.016600  0.616700  0.198600  1.0  -0.0406
  C  C1024  1  0.179000  0.475620  0.362290  1.0  0.1559
  C  C1025  1  0.255300  0.472740  0.381650  1.0  -0.2382
  C  C1026  1  0.333540  0.484030  0.364890  1.0  0.0736
  C  C1027  1  0.329200  0.496910  0.328640  1.0  -0.1967
  C  C1028  1  0.249800  0.499860  0.311470  1.0  0.156
  C  C1029  1  0.089800  0.393010  0.216990  1.0  -0.2627
  C  C1030  1  0.095500  0.423880  0.245570  1.0  0.18
  C  C1031  1  0.976160  0.463960  0.227050  1.0  0.1505
  C  C1032  1  0.965950  0.435190  0.197660  1.0  -0.222
  C  C1033  1  0.023900  0.398850  0.191850  1.0  0.0865
  C  C1034  1  0.014920  0.367830  0.159840  1.0  0.0652
  C  C1035  1  0.030500  0.320130  0.162620  1.0  -0.2324
  C  C1036  1  0.017600  0.292500  0.132490  1.0  0.1552
  C  C1037  1  0.978900  0.354320  0.097470  1.0  0.174
  C  C1038  1  0.989580  0.384900  0.126230  1.0  -0.227
  C  C1039  1  0.066900  0.079480  0.752890  1.0  0.6654
  C  C1040  1  0.081900  0.113340  0.721860  1.0  -0.0133
  C  C1041  1  0.016600  0.116700  0.698600  1.0  -0.0406
  C  C1042  1  0.179000  0.975620  0.862290  1.0  0.1559
  C  C1043  1  0.255300  0.972740  0.881650  1.0  -0.2382
  C  C1044  1  0.333540  0.984030  0.864890  1.0  0.0736
  C  C1045  1  0.329200  0.996910  0.828640  1.0  -0.1967
  C  C1046  1  0.249800  0.999860  0.811470  1.0  0.156
  C  C1047  1  0.089800  0.893010  0.716990  1.0  -0.2627
  C  C1048  1  0.095500  0.923880  0.745570  1.0  0.18
  C  C1049  1  0.976160  0.963960  0.727050  1.0  0.1505
  C  C1050  1  0.965950  0.935190  0.697660  1.0  -0.222
  C  C1051  1  0.023900  0.898850  0.691850  1.0  0.0865
  C  C1052  1  0.014920  0.867830  0.659840  1.0  0.0652
  C  C1053  1  0.030500  0.820130  0.662620  1.0  -0.2324
  C  C1054  1  0.017600  0.792500  0.632490  1.0  0.1552
  C  C1055  1  0.978900  0.854320  0.597470  1.0  0.174
  C  C1056  1  0.989580  0.884900  0.626230  1.0  -0.227
  N  N1057  1  0.325180  0.239340  0.577630  1.0  -0.4006
  N  N1058  1  0.459400  0.208900  0.501080  1.0  -0.3891
  N  N1059  1  0.508560  0.058650  0.350380  1.0  -0.389
  N  N1060  1  0.325180  0.739340  0.077630  1.0  -0.4006
  N  N1061  1  0.459400  0.708900  0.001080  1.0  -0.3891
  N  N1062  1  0.508560  0.558650  0.850380  1.0  -0.389
  N  N1063  1  0.825180  0.239340  0.077630  1.0  -0.4006
  N  N1064  1  0.959400  0.208900  0.001080  1.0  -0.3891
  N  N1065  1  0.008560  0.058650  0.850380  1.0  -0.389
  N  N1066  1  0.825180  0.739340  0.577630  1.0  -0.4006
  N  N1067  1  0.959400  0.708900  0.501080  1.0  -0.3891
  N  N1068  1  0.008560  0.558650  0.350380  1.0  -0.389
  N  N1069  1  0.424820  0.510660  0.577630  1.0  -0.3994
  N  N1070  1  0.290600  0.541100  0.501080  1.0  -0.3896
  N  N1071  1  0.241440  0.691350  0.350380  1.0  -0.3895
  N  N1072  1  0.424820  0.010660  0.077630  1.0  -0.3994
  N  N1073  1  0.290600  0.041100  0.001080  1.0  -0.3896
  N  N1074  1  0.241440  0.191350  0.850380  1.0  -0.3896
  N  N1075  1  0.924820  0.510660  0.077630  1.0  -0.3994
  N  N1076  1  0.790600  0.541100  0.001080  1.0  -0.3896
  N  N1077  1  0.741440  0.691350  0.850380  1.0  -0.3895
  N  N1078  1  0.924820  0.010660  0.577630  1.0  -0.3994
  N  N1079  1  0.790600  0.041100  0.501080  1.0  -0.3896
  N  N1080  1  0.741440  0.191350  0.350380  1.0  -0.3896
  N  N1081  1  0.424820  0.239340  0.172370  1.0  -0.4003
  N  N1082  1  0.290600  0.208900  0.248920  1.0  -0.3875
  N  N1083  1  0.241440  0.058650  0.399620  1.0  -0.3884
  N  N1084  1  0.424820  0.739340  0.672370  1.0  -0.4003
  N  N1085  1  0.290600  0.708900  0.748920  1.0  -0.3875
  N  N1086  1  0.241440  0.558650  0.899620  1.0  -0.3884
  N  N1087  1  0.924820  0.239340  0.672370  1.0  -0.4003
  N  N1088  1  0.790600  0.208900  0.748920  1.0  -0.3875
  N  N1089  1  0.741440  0.058650  0.899620  1.0  -0.3884
  N  N1090  1  0.924820  0.739340  0.172370  1.0  -0.4003
  N  N1091  1  0.790600  0.708900  0.248920  1.0  -0.3875
  N  N1092  1  0.741440  0.558650  0.399620  1.0  -0.3884
  N  N1093  1  0.325180  0.510660  0.172370  1.0  -0.3999
  N  N1094  1  0.459400  0.541100  0.248920  1.0  -0.3896
  N  N1095  1  0.508560  0.691350  0.399620  1.0  -0.3886
  N  N1096  1  0.325180  0.010660  0.672370  1.0  -0.3999
  N  N1097  1  0.459400  0.041100  0.748920  1.0  -0.3896
  N  N1098  1  0.508560  0.191350  0.899620  1.0  -0.3886
  N  N1099  1  0.825180  0.510660  0.672370  1.0  -0.3999
  N  N1100  1  0.959400  0.541100  0.748920  1.0  -0.3896
  N  N1101  1  0.008560  0.691350  0.899620  1.0  -0.3886
  N  N1102  1  0.825180  0.010660  0.172370  1.0  -0.3999
  N  N1103  1  0.959400  0.041100  0.248920  1.0  -0.3896
  N  N1104  1  0.008560  0.191350  0.399620  1.0  -0.3886
  N  N1105  1  0.674820  0.760660  0.422370  1.0  -0.4004
  N  N1106  1  0.540600  0.791100  0.498920  1.0  -0.3895
  N  N1107  1  0.491440  0.941350  0.649620  1.0  -0.3883
  N  N1108  1  0.674820  0.260660  0.922370  1.0  -0.4004
  N  N1109  1  0.540600  0.291100  0.998920  1.0  -0.3895
  N  N1110  1  0.491440  0.441350  0.149620  1.0  -0.3883
  N  N1111  1  0.174820  0.760660  0.922370  1.0  -0.4004
  N  N1112  1  0.040600  0.791100  0.998920  1.0  -0.3895
  N  N1113  1  0.991440  0.941350  0.149620  1.0  -0.3883
  N  N1114  1  0.174820  0.260660  0.422370  1.0  -0.4004
  N  N1115  1  0.040600  0.291100  0.498920  1.0  -0.3895
  N  N1116  1  0.991440  0.441350  0.649620  1.0  -0.3883
  N  N1117  1  0.575180  0.489340  0.422370  1.0  -0.4003
  N  N1118  1  0.709400  0.458900  0.498920  1.0  -0.3884
  N  N1119  1  0.758560  0.308650  0.649620  1.0  -0.388
  N  N1120  1  0.575180  0.989340  0.922370  1.0  -0.4003
  N  N1121  1  0.709400  0.958900  0.998920  1.0  -0.3884
  N  N1122  1  0.758560  0.808650  0.149620  1.0  -0.388
  N  N1123  1  0.075180  0.489340  0.922370  1.0  -0.4003
  N  N1124  1  0.209400  0.458900  0.998920  1.0  -0.3884
  N  N1125  1  0.258560  0.308650  0.149620  1.0  -0.388
  N  N1126  1  0.075180  0.989340  0.422370  1.0  -0.4003
  N  N1127  1  0.209400  0.958900  0.498920  1.0  -0.3884
  N  N1128  1  0.258560  0.808650  0.649620  1.0  -0.388
  N  N1129  1  0.575180  0.760660  0.827630  1.0  -0.3999
  N  N1130  1  0.709400  0.791100  0.751080  1.0  -0.3888
  N  N1131  1  0.758560  0.941350  0.600380  1.0  -0.39
  N  N1132  1  0.575180  0.260660  0.327630  1.0  -0.3999
  N  N1133  1  0.709400  0.291100  0.251080  1.0  -0.3888
  N  N1134  1  0.758560  0.441350  0.100380  1.0  -0.3899
  N  N1135  1  0.075180  0.760660  0.327630  1.0  -0.3999
  N  N1136  1  0.209400  0.791100  0.251080  1.0  -0.3888
  N  N1137  1  0.258560  0.941350  0.100380  1.0  -0.39
  N  N1138  1  0.075180  0.260660  0.827630  1.0  -0.3999
  N  N1139  1  0.209400  0.291100  0.751080  1.0  -0.3888
  N  N1140  1  0.258560  0.441350  0.600380  1.0  -0.3899
  N  N1141  1  0.674820  0.489340  0.827630  1.0  -0.3994
  N  N1142  1  0.540600  0.458900  0.751080  1.0  -0.3896
  N  N1143  1  0.491440  0.308650  0.600380  1.0  -0.3895
  N  N1144  1  0.674820  0.989340  0.327630  1.0  -0.3994
  N  N1145  1  0.540600  0.958900  0.251080  1.0  -0.3896
  N  N1146  1  0.491440  0.808650  0.100380  1.0  -0.3896
  N  N1147  1  0.174820  0.489340  0.327630  1.0  -0.3994
  N  N1148  1  0.040600  0.458900  0.251080  1.0  -0.3896
  N  N1149  1  0.991440  0.308650  0.100380  1.0  -0.3895
  N  N1150  1  0.174820  0.989340  0.827630  1.0  -0.3994
  N  N1151  1  0.040600  0.958900  0.751080  1.0  -0.3896
  N  N1152  1  0.991440  0.808650  0.600380  1.0  -0.3896
  O  O1153  1  0.370240  0.315620  0.520380  1.0  -0.6046
  O  O1154  1  0.509220  0.316000  0.509940  1.0  -0.6446
  O  O1155  1  0.370240  0.815620  0.020380  1.0  -0.6046
  O  O1156  1  0.509220  0.816000  0.009940  1.0  -0.6446
  O  O1157  1  0.870240  0.315620  0.020380  1.0  -0.6046
  O  O1158  1  0.009220  0.316000  0.009940  1.0  -0.6446
  O  O1159  1  0.870240  0.815620  0.520380  1.0  -0.6046
  O  O1160  1  0.009220  0.816000  0.509940  1.0  -0.6446
  O  O1161  1  0.379760  0.434380  0.520380  1.0  -0.6057
  O  O1162  1  0.240780  0.434000  0.509940  1.0  -0.6417
  O  O1163  1  0.379760  0.934380  0.020380  1.0  -0.6057
  O  O1164  1  0.240780  0.934000  0.009940  1.0  -0.6417
  O  O1165  1  0.879760  0.434380  0.020380  1.0  -0.6057
  O  O1166  1  0.740780  0.434000  0.009940  1.0  -0.6417
  O  O1167  1  0.879760  0.934380  0.520380  1.0  -0.6057
  O  O1168  1  0.740780  0.934000  0.509940  1.0  -0.6417
  O  O1169  1  0.379760  0.315620  0.229620  1.0  -0.6049
  O  O1170  1  0.240780  0.316000  0.240060  1.0  -0.6424
  O  O1171  1  0.379760  0.815620  0.729620  1.0  -0.6049
  O  O1172  1  0.240780  0.816000  0.740060  1.0  -0.6424
  O  O1173  1  0.879760  0.315620  0.729620  1.0  -0.6049
  O  O1174  1  0.740780  0.316000  0.740060  1.0  -0.6424
  O  O1175  1  0.879760  0.815620  0.229620  1.0  -0.6049
  O  O1176  1  0.740780  0.816000  0.240060  1.0  -0.6424
  O  O1177  1  0.370240  0.434380  0.229620  1.0  -0.6042
  O  O1178  1  0.509220  0.434000  0.240060  1.0  -0.6437
  O  O1179  1  0.370240  0.934380  0.729620  1.0  -0.6042
  O  O1180  1  0.509220  0.934000  0.740060  1.0  -0.6437
  O  O1181  1  0.870240  0.434380  0.729620  1.0  -0.6042
  O  O1182  1  0.009220  0.434000  0.740060  1.0  -0.6437
  O  O1183  1  0.870240  0.934380  0.229620  1.0  -0.6042
  O  O1184  1  0.009220  0.934000  0.240060  1.0  -0.6437
  O  O1185  1  0.629760  0.684380  0.479620  1.0  -0.6049
  O  O1186  1  0.490780  0.684000  0.490060  1.0  -0.6416
  O  O1187  1  0.629760  0.184380  0.979620  1.0  -0.6049
  O  O1188  1  0.490780  0.184000  0.990060  1.0  -0.6416
  O  O1189  1  0.129760  0.684380  0.979620  1.0  -0.6049
  O  O1190  1  0.990780  0.684000  0.990060  1.0  -0.6416
  O  O1191  1  0.129760  0.184380  0.479620  1.0  -0.6049
  O  O1192  1  0.990780  0.184000  0.490060  1.0  -0.6416
  O  O1193  1  0.620240  0.565620  0.479620  1.0  -0.6044
  O  O1194  1  0.759220  0.566000  0.490060  1.0  -0.6444
  O  O1195  1  0.620240  0.065620  0.979620  1.0  -0.6044
  O  O1196  1  0.759220  0.066000  0.990060  1.0  -0.6444
  O  O1197  1  0.120240  0.565620  0.979620  1.0  -0.6044
  O  O1198  1  0.259220  0.566000  0.990060  1.0  -0.6444
  O  O1199  1  0.120240  0.065620  0.479620  1.0  -0.6044
  O  O1200  1  0.259220  0.066000  0.490060  1.0  -0.6444
  O  O1201  1  0.620240  0.684380  0.770380  1.0  -0.605
  O  O1202  1  0.759220  0.684000  0.759940  1.0  -0.644
  O  O1203  1  0.620240  0.184380  0.270380  1.0  -0.605
  O  O1204  1  0.759220  0.184000  0.259940  1.0  -0.644
  O  O1205  1  0.120240  0.684380  0.270380  1.0  -0.605
  O  O1206  1  0.259220  0.684000  0.259940  1.0  -0.644
  O  O1207  1  0.120240  0.184380  0.770380  1.0  -0.605
  O  O1208  1  0.259220  0.184000  0.759940  1.0  -0.644
  O  O1209  1  0.629760  0.565620  0.770380  1.0  -0.605
  O  O1210  1  0.490780  0.566000  0.759940  1.0  -0.6425
  O  O1211  1  0.629760  0.065620  0.270380  1.0  -0.605
  O  O1212  1  0.490780  0.066000  0.259940  1.0  -0.6425
  O  O1213  1  0.129760  0.565620  0.270380  1.0  -0.605
  O  O1214  1  0.990780  0.566000  0.259940  1.0  -0.6425
  O  O1215  1  0.129760  0.065620  0.770380  1.0  -0.605
  O  O1216  1  0.990780  0.066000  0.759940  1.0  -0.6425
