# generated using pymatgen
data_Na2Zn19H192(C81O20)4
_symmetry_space_group_name_H-M   'P 1'
_cell_length_a   32.47290000
_cell_length_b   32.47290000
_cell_length_c   33.09400000
_cell_angle_alpha   60.61890000
_cell_angle_beta   60.61890000
_cell_angle_gamma   90.00000000
_symmetry_Int_Tables_number   1
_chemical_formula_structural   Na2Zn19H192(C81O20)4
_chemical_formula_sum   'Na4 Zn38 H384 C648 O160'
_cell_volume   25130.66543453
_cell_formula_units_Z   2
loop_
 _symmetry_equiv_pos_site_id
 _symmetry_equiv_pos_as_xyz
  1  'x, y, z'
loop_
 _atom_site_type_symbol
 _atom_site_label
 _atom_site_symmetry_multiplicity
 _atom_site_fract_x
 _atom_site_fract_y
 _atom_site_fract_z
 _atom_site_occupancy
 _atom_site_charge
  Na  Na1  1  0.875000  0.115560  0.750000  1.0  0.9508
  Na  Na2  1  0.375000  0.134440  0.750000  1.0  0.95
  Na  Na3  1  0.865560  0.625000  0.250000  1.0  0.9511
  Na  Na4  1  0.884440  0.125000  0.250000  1.0  0.9492
  Zn  Zn5  1  0.986050  0.117100  0.795280  1.0  1.0586
  Zn  Zn6  1  0.916450  0.998410  0.869240  1.0  1.0483
  Zn  Zn7  1  0.874840  0.073310  0.909300  1.0  1.0201
  Zn  Zn8  1  0.438060  0.544790  0.089740  1.0  0.9847
  Zn  Zn9  1  0.218670  0.087620  0.795280  1.0  1.054
  Zn  Zn10  1  0.214310  0.132350  0.869240  1.0  1.046
  Zn  Zn11  1  0.215860  0.017390  0.909300  1.0  1.018
  Zn  Zn12  1  0.472190  0.365470  0.089750  1.0  0.9877
  Zn  Zn13  1  0.867100  0.468670  0.295280  1.0  1.0566
  Zn  Zn14  1  0.748410  0.464310  0.369240  1.0  1.0505
  Zn  Zn15  1  0.823310  0.465860  0.409300  1.0  1.0217
  Zn  Zn16  1  0.294790  0.722200  0.589740  1.0  0.9845
  Zn  Zn17  1  0.837620  0.236050  0.295280  1.0  1.058
  Zn  Zn18  1  0.882350  0.166450  0.369240  1.0  1.0486
  Zn  Zn19  1  0.767390  0.124840  0.409300  1.0  1.0185
  Zn  Zn20  1  0.115470  0.688050  0.589750  1.0  0.9849
  Zn  Zn21  1  0.531330  0.132900  0.704720  1.0  1.0547
  Zn  Zn22  1  0.535690  0.251590  0.630760  1.0  1.0477
  Zn  Zn23  1  0.534140  0.176690  0.590700  1.0  1.0174
  Zn  Zn24  1  0.277800  0.705210  0.410260  1.0  0.9837
  Zn  Zn25  1  0.763950  0.162380  0.704720  1.0  1.0545
  Zn  Zn26  1  0.833550  0.117650  0.630760  1.0  1.0491
  Zn  Zn27  1  0.875160  0.232610  0.590700  1.0  1.0196
  Zn  Zn28  1  0.311950  0.884530  0.410250  1.0  0.9852
  Zn  Zn29  1  0.912380  0.781330  0.204720  1.0  1.0557
  Zn  Zn30  1  0.867650  0.785690  0.130760  1.0  1.0497
  Zn  Zn31  1  0.982610  0.784140  0.090700  1.0  1.0223
  Zn  Zn32  1  0.634530  0.527810  0.910250  1.0  0.9843
  Zn  Zn33  1  0.882900  0.013950  0.204720  1.0  1.0578
  Zn  Zn34  1  0.001590  0.083550  0.130760  1.0  1.0478
  Zn  Zn35  1  0.926690  0.125160  0.090700  1.0  1.0188
  Zn  Zn36  1  0.455210  0.561940  0.910260  1.0  0.9838
  Zn  Zn37  1  0.434680  0.434680  0.130640  1.0  1.0968
  Zn  Zn38  1  0.184680  0.684680  0.630640  1.0  1.0968
  Zn  Zn39  1  0.315320  0.815320  0.369360  1.0  1.0889
  Zn  Zn40  1  0.565320  0.565320  0.869360  1.0  1.0889
  Zn  Zn41  1  0.500000  0.500000  0.000000  1.0  0.865
  Zn  Zn42  1  0.250000  0.750000  0.500000  1.0  0.8651
  H  H43  1  0.501500  0.594200  0.991200  1.0  0.3768
  H  H44  1  0.906800  0.075900  0.828200  1.0  0.3928
  H  H45  1  0.520100  0.439800  0.064600  1.0  0.3512
  H  H46  1  0.972800  0.166500  0.631200  1.0  0.0968
  H  H47  1  0.005300  0.222400  0.539800  1.0  0.1062
  H  H48  1  0.112100  0.300100  0.527800  1.0  0.1246
  H  H49  1  0.079600  0.241000  0.618800  1.0  0.0994
  H  H50  1  0.006300  0.312400  0.487200  1.0  0.1221
  H  H51  1  0.113200  0.413800  0.324200  1.0  0.1096
  H  H52  1  0.150000  0.322500  0.427200  1.0  0.1095
  H  H53  1  0.193700  0.469400  0.287600  1.0  0.1312
  H  H54  1  0.275400  0.505900  0.217200  1.0  0.1036
  H  H55  1  0.296900  0.374000  0.266200  1.0  0.0893
  H  H56  1  0.213000  0.335600  0.331000  1.0  0.1232
  H  H57  1  0.967700  0.366900  0.468800  1.0  0.1048
  H  H58  1  0.904800  0.389200  0.457800  1.0  0.0951
  H  H59  1  0.985700  0.423200  0.303200  1.0  0.072
  H  H60  1  0.046800  0.396100  0.316200  1.0  0.0923
  H  H61  1  0.854900  0.899200  0.845000  1.0  0.1019
  H  H62  1  0.815600  0.863400  0.822000  1.0  0.1156
  H  H63  1  0.761500  0.977700  0.778800  1.0  0.1138
  H  H64  1  0.800900  0.013500  0.801800  1.0  0.0924
  H  H65  1  0.740000  0.826900  0.831800  1.0  0.1135
  H  H66  1  0.731200  0.864600  0.702400  1.0  0.0949
  H  H67  1  0.787600  0.968400  0.706400  1.0  0.1026
  H  H68  1  0.711700  0.933200  0.648800  1.0  0.0812
  H  H69  1  0.723900  0.997300  0.568600  1.0  0.0767
  H  H70  1  0.852000  0.069800  0.528000  1.0  0.1041
  H  H71  1  0.834200  0.004600  0.615200  1.0  0.106
  H  H72  1  0.754700  0.754800  0.816000  1.0  0.109
  H  H73  1  0.716800  0.672800  0.855600  1.0  0.0889
  H  H74  1  0.616500  0.709400  0.824200  1.0  0.0909
  H  H75  1  0.652500  0.790900  0.782600  1.0  0.1133
  H  H76  1  0.832000  0.194500  0.772600  1.0  0.1194
  H  H77  1  0.776400  0.238500  0.767600  1.0  0.1091
  H  H78  1  0.713700  0.199200  0.923400  1.0  0.1004
  H  H79  1  0.764800  0.153200  0.932600  1.0  0.1081
  H  H80  1  0.693800  0.222600  0.795200  1.0  0.1005
  H  H81  1  0.595200  0.292600  0.835000  1.0  0.1269
  H  H82  1  0.689600  0.273400  0.884000  1.0  0.1163
  H  H83  1  0.631000  0.378600  0.831400  1.0  0.1177
  H  H84  1  0.587900  0.407100  0.886200  1.0  0.0841
  H  H85  1  0.546600  0.281000  0.025400  1.0  0.0961
  H  H86  1  0.585600  0.246600  0.975200  1.0  0.1223
  H  H87  1  0.637900  0.180000  0.801600  1.0  0.0976
  H  H88  1  0.607300  0.161800  0.758800  1.0  0.1175
  H  H89  1  0.576600  0.291100  0.707800  1.0  0.1027
  H  H90  1  0.607600  0.307100  0.752400  1.0  0.1099
  H  H91  1  0.507300  0.414600  0.991200  1.0  0.3772
  H  H92  1  0.265000  0.095900  0.828200  1.0  0.3945
  H  H93  1  0.415300  0.495600  0.064600  1.0  0.3526
  H  H94  1  0.396000  0.202300  0.631200  1.0  0.0983
  H  H95  1  0.454900  0.237800  0.539800  1.0  0.1037
  H  H96  1  0.360100  0.172100  0.527800  1.0  0.1242
  H  H97  1  0.301600  0.140200  0.618800  1.0  0.098
  H  H98  1  0.506500  0.200400  0.487200  1.0  0.123
  H  H99  1  0.562600  0.262000  0.324200  1.0  0.1105
  H  H100  1  0.422800  0.250300  0.427200  1.0  0.111
  H  H101  1  0.518700  0.243000  0.287600  1.0  0.1306
  H  H102  1  0.507400  0.276900  0.217200  1.0  0.1064
  H  H103  1  0.436900  0.359800  0.266200  1.0  0.0899
  H  H104  1  0.456000  0.333400  0.331000  1.0  0.1256
  H  H105  1  0.563500  0.164300  0.468800  1.0  0.1035
  H  H106  1  0.637400  0.153000  0.457800  1.0  0.0961
  H  H107  1  0.711100  0.273600  0.303200  1.0  0.0706
  H  H108  1  0.637000  0.287700  0.316200  1.0  0.0916
  H  H109  1  0.300100  0.255800  0.845000  1.0  0.1043
  H  H110  1  0.362400  0.314600  0.822000  1.0  0.1165
  H  H111  1  0.459700  0.243500  0.778800  1.0  0.1156
  H  H112  1  0.397300  0.184700  0.801800  1.0  0.0918
  H  H113  1  0.428200  0.341300  0.831800  1.0  0.114
  H  H114  1  0.566400  0.433000  0.702400  1.0  0.0954
  H  H115  1  0.506000  0.325200  0.706400  1.0  0.1023
  H  H116  1  0.639500  0.418000  0.648800  1.0  0.0812
  H  H117  1  0.707500  0.434100  0.568600  1.0  0.0769
  H  H118  1  0.620000  0.402200  0.528000  1.0  0.1058
  H  H119  1  0.550600  0.380200  0.615200  1.0  0.1064
  H  H120  1  0.429300  0.429200  0.816000  1.0  0.109
  H  H121  1  0.427600  0.471600  0.855600  1.0  0.0891
  H  H122  1  0.559300  0.466400  0.824200  1.0  0.0918
  H  H123  1  0.564900  0.426500  0.782600  1.0  0.1141
  H  H124  1  0.395400  0.032900  0.772600  1.0  0.1197
  H  H125  1  0.456000  0.993900  0.767600  1.0  0.1101
  H  H126  1  0.362900  0.877400  0.923400  1.0  0.0981
  H  H127  1  0.302600  0.914200  0.932600  1.0  0.1096
  H  H128  1  0.511000  0.982200  0.795200  1.0  0.1003
  H  H129  1  0.569800  0.872400  0.835000  1.0  0.1271
  H  H130  1  0.426400  0.842600  0.884000  1.0  0.1158
  H  H131  1  0.537600  0.790000  0.831400  1.0  0.1176
  H  H132  1  0.525900  0.706700  0.886200  1.0  0.0835
  H  H133  1  0.428000  0.693600  0.025400  1.0  0.0959
  H  H134  1  0.439200  0.778200  0.975200  1.0  0.1219
  H  H135  1  0.560500  0.018400  0.801600  1.0  0.0994
  H  H136  1  0.633900  0.079400  0.758800  1.0  0.117
  H  H137  1  0.715600  0.001100  0.707800  1.0  0.104
  H  H138  1  0.640000  0.940500  0.752400  1.0  0.108
  H  H139  1  0.344200  0.757300  0.491200  1.0  0.3776
  H  H140  1  0.825900  0.515000  0.328200  1.0  0.3944
  H  H141  1  0.189800  0.665300  0.564600  1.0  0.3494
  H  H142  1  0.916500  0.646000  0.131200  1.0  0.0976
  H  H143  1  0.972400  0.704900  0.039800  1.0  0.1071
  H  H144  1  0.050100  0.610100  0.027800  1.0  0.1251
  H  H145  1  0.991000  0.551600  0.118800  1.0  0.1009
  H  H146  1  0.062400  0.756500  0.987200  1.0  0.1239
  H  H147  1  0.163800  0.812600  0.824200  1.0  0.1103
  H  H148  1  0.072500  0.672800  0.927200  1.0  0.1092
  H  H149  1  0.219400  0.768700  0.787600  1.0  0.1316
  H  H150  1  0.255900  0.757400  0.717200  1.0  0.1075
  H  H151  1  0.124000  0.686900  0.766200  1.0  0.0891
  H  H152  1  0.085600  0.706000  0.831000  1.0  0.1276
  H  H153  1  0.116900  0.813500  0.968800  1.0  0.1054
  H  H154  1  0.139200  0.887400  0.957800  1.0  0.0978
  H  H155  1  0.173200  0.961100  0.803200  1.0  0.0715
  H  H156  1  0.146100  0.887000  0.816200  1.0  0.0924
  H  H157  1  0.649200  0.550100  0.345000  1.0  0.1023
  H  H158  1  0.613400  0.612400  0.322000  1.0  0.1152
  H  H159  1  0.727700  0.709700  0.278800  1.0  0.114
  H  H160  1  0.763500  0.647300  0.301800  1.0  0.091
  H  H161  1  0.576900  0.678200  0.331800  1.0  0.1132
  H  H162  1  0.614600  0.816400  0.202400  1.0  0.0952
  H  H163  1  0.718400  0.756000  0.206400  1.0  0.1039
  H  H164  1  0.683200  0.889500  0.148800  1.0  0.0825
  H  H165  1  0.747300  0.957500  0.068600  1.0  0.0779
  H  H166  1  0.819800  0.870000  0.028000  1.0  0.1048
  H  H167  1  0.754600  0.800600  0.115200  1.0  0.1081
  H  H168  1  0.504800  0.679300  0.316000  1.0  0.1091
  H  H169  1  0.422800  0.677600  0.355600  1.0  0.0889
  H  H170  1  0.459400  0.809300  0.324200  1.0  0.0913
  H  H171  1  0.540900  0.814900  0.282600  1.0  0.1137
  H  H172  1  0.944500  0.645400  0.272600  1.0  0.1202
  H  H173  1  0.988500  0.706000  0.267600  1.0  0.1082
  H  H174  1  0.949200  0.612900  0.423400  1.0  0.0987
  H  H175  1  0.903200  0.552600  0.432600  1.0  0.1081
  H  H176  1  0.972600  0.761000  0.295200  1.0  0.1006
  H  H177  1  0.042600  0.819800  0.335000  1.0  0.1259
  H  H178  1  0.023400  0.676400  0.384000  1.0  0.1162
  H  H179  1  0.128600  0.787600  0.331400  1.0  0.1173
  H  H180  1  0.157100  0.775900  0.386200  1.0  0.0832
  H  H181  1  0.031000  0.678000  0.525400  1.0  0.0949
  H  H182  1  0.996600  0.689200  0.475200  1.0  0.1203
  H  H183  1  0.930000  0.810500  0.301600  1.0  0.0979
  H  H184  1  0.911800  0.883900  0.258800  1.0  0.1169
  H  H185  1  0.041100  0.965600  0.207800  1.0  0.1038
  H  H186  1  0.057100  0.890000  0.252400  1.0  0.1107
  H  H187  1  0.164600  0.751500  0.491200  1.0  0.3744
  H  H188  1  0.845900  0.156800  0.328200  1.0  0.3928
  H  H189  1  0.245600  0.770100  0.564600  1.0  0.3506
  H  H190  1  0.952300  0.222800  0.131200  1.0  0.0981
  H  H191  1  0.987800  0.255300  0.039800  1.0  0.1069
  H  H192  1  0.922100  0.362100  0.027800  1.0  0.1252
  H  H193  1  0.890200  0.329600  0.118800  1.0  0.0993
  H  H194  1  0.950400  0.256300  0.987200  1.0  0.1225
  H  H195  1  0.012000  0.363200  0.824200  1.0  0.1105
  H  H196  1  0.000300  0.400000  0.927200  1.0  0.1097
  H  H197  1  0.993000  0.443700  0.787600  1.0  0.1314
  H  H198  1  0.026900  0.525400  0.717200  1.0  0.107
  H  H199  1  0.109800  0.546900  0.766200  1.0  0.0903
  H  H200  1  0.083400  0.463000  0.831000  1.0  0.1254
  H  H201  1  0.914300  0.217700  0.968800  1.0  0.1032
  H  H202  1  0.903000  0.154800  0.957800  1.0  0.0947
  H  H203  1  0.023600  0.235700  0.803200  1.0  0.0708
  H  H204  1  0.037700  0.296800  0.816200  1.0  0.0911
  H  H205  1  0.005800  0.104900  0.345000  1.0  0.1003
  H  H206  1  0.064600  0.065600  0.322000  1.0  0.1163
  H  H207  1  0.993500  0.011500  0.278800  1.0  0.1143
  H  H208  1  0.934700  0.050900  0.301800  1.0  0.0915
  H  H209  1  0.091300  0.990000  0.331800  1.0  0.1153
  H  H210  1  0.183000  0.981200  0.202400  1.0  0.0959
  H  H211  1  0.075200  0.037600  0.206400  1.0  0.1017
  H  H212  1  0.168000  0.961700  0.148800  1.0  0.0823
  H  H213  1  0.184100  0.973900  0.068600  1.0  0.0775
  H  H214  1  0.152200  0.102000  0.028000  1.0  0.1056
  H  H215  1  0.130200  0.084200  0.115200  1.0  0.1081
  H  H216  1  0.179200  0.004700  0.316000  1.0  0.1092
  H  H217  1  0.221600  0.966800  0.355600  1.0  0.0878
  H  H218  1  0.216400  0.866500  0.324200  1.0  0.092
  H  H219  1  0.176500  0.902500  0.282600  1.0  0.1129
  H  H220  1  0.782900  0.082000  0.272600  1.0  0.1199
  H  H221  1  0.743900  0.026400  0.267600  1.0  0.1107
  H  H222  1  0.627400  0.963700  0.423400  1.0  0.099
  H  H223  1  0.664200  0.014800  0.432600  1.0  0.1101
  H  H224  1  0.732200  0.943800  0.295200  1.0  0.0994
  H  H225  1  0.622400  0.845200  0.335000  1.0  0.1273
  H  H226  1  0.592600  0.939600  0.384000  1.0  0.1155
  H  H227  1  0.540000  0.881000  0.331400  1.0  0.1181
  H  H228  1  0.456700  0.837900  0.386200  1.0  0.0843
  H  H229  1  0.443600  0.796600  0.525400  1.0  0.0955
  H  H230  1  0.528200  0.835600  0.475200  1.0  0.1195
  H  H231  1  0.768400  0.887900  0.301600  1.0  0.0987
  H  H232  1  0.829400  0.857300  0.258800  1.0  0.1173
  H  H233  1  0.751100  0.826600  0.207800  1.0  0.104
  H  H234  1  0.690500  0.857600  0.252400  1.0  0.108
  H  H235  1  0.242700  0.655800  0.508800  1.0  0.3767
  H  H236  1  0.485000  0.174100  0.671800  1.0  0.3973
  H  H237  1  0.334700  0.810200  0.435400  1.0  0.3516
  H  H238  1  0.354000  0.083500  0.868800  1.0  0.0979
  H  H239  1  0.295100  0.027600  0.960200  1.0  0.108
  H  H240  1  0.389900  0.949900  0.972200  1.0  0.1252
  H  H241  1  0.448400  0.009000  0.881200  1.0  0.0997
  H  H242  1  0.243500  0.937600  0.012800  1.0  0.123
  H  H243  1  0.187400  0.836200  0.175800  1.0  0.1101
  H  H244  1  0.327200  0.927500  0.072800  1.0  0.1094
  H  H245  1  0.231300  0.780600  0.212400  1.0  0.1307
  H  H246  1  0.242600  0.744100  0.282800  1.0  0.1051
  H  H247  1  0.313100  0.876000  0.233800  1.0  0.0887
  H  H248  1  0.294000  0.914400  0.169000  1.0  0.1233
  H  H249  1  0.186500  0.883100  0.031200  1.0  0.1035
  H  H250  1  0.112600  0.860800  0.042200  1.0  0.0993
  H  H251  1  0.038900  0.826800  0.196800  1.0  0.0708
  H  H252  1  0.113000  0.853900  0.183800  1.0  0.0927
  H  H253  1  0.449900  0.350800  0.655000  1.0  0.103
  H  H254  1  0.387600  0.386600  0.678000  1.0  0.115
  H  H255  1  0.290300  0.272300  0.721200  1.0  0.1147
  H  H256  1  0.352700  0.236500  0.698200  1.0  0.0912
  H  H257  1  0.321800  0.423100  0.668200  1.0  0.1134
  H  H258  1  0.183600  0.385400  0.797600  1.0  0.096
  H  H259  1  0.244000  0.281600  0.793600  1.0  0.1028
  H  H260  1  0.110500  0.316800  0.851200  1.0  0.0816
  H  H261  1  0.042500  0.252700  0.931400  1.0  0.0781
  H  H262  1  0.130000  0.180200  0.972000  1.0  0.1049
  H  H263  1  0.199400  0.245400  0.884800  1.0  0.1093
  H  H264  1  0.320700  0.495200  0.684000  1.0  0.1094
  H  H265  1  0.322400  0.577200  0.644400  1.0  0.0892
  H  H266  1  0.190700  0.540600  0.675800  1.0  0.0915
  H  H267  1  0.185100  0.459100  0.717400  1.0  0.1138
  H  H268  1  0.354600  0.055500  0.727400  1.0  0.1187
  H  H269  1  0.294000  0.011500  0.732400  1.0  0.1077
  H  H270  1  0.387100  0.050800  0.576600  1.0  0.1002
  H  H271  1  0.447400  0.096800  0.567400  1.0  0.1096
  H  H272  1  0.239000  0.027400  0.704800  1.0  0.101
  H  H273  1  0.180200  0.957400  0.665000  1.0  0.1262
  H  H274  1  0.323600  0.976600  0.616000  1.0  0.1154
  H  H275  1  0.212400  0.871400  0.668600  1.0  0.1178
  H  H276  1  0.224100  0.842900  0.613800  1.0  0.0839
  H  H277  1  0.322000  0.969000  0.474600  1.0  0.0959
  H  H278  1  0.310800  0.003400  0.524800  1.0  0.121
  H  H279  1  0.189500  0.070000  0.698400  1.0  0.0972
  H  H280  1  0.116100  0.088200  0.741200  1.0  0.1177
  H  H281  1  0.034400  0.958900  0.792200  1.0  0.1035
  H  H282  1  0.110000  0.942900  0.747600  1.0  0.1087
  H  H283  1  0.248500  0.835400  0.508800  1.0  0.3768
  H  H284  1  0.843200  0.154100  0.671800  1.0  0.3947
  H  H285  1  0.229900  0.754400  0.435400  1.0  0.352
  H  H286  1  0.777200  0.047700  0.868800  1.0  0.0974
  H  H287  1  0.744700  0.012200  0.960200  1.0  0.1054
  H  H288  1  0.637900  0.077900  0.972200  1.0  0.1252
  H  H289  1  0.670400  0.109800  0.881200  1.0  0.0979
  H  H290  1  0.743700  0.049600  0.012800  1.0  0.1227
  H  H291  1  0.636800  0.988000  0.175800  1.0  0.1107
  H  H292  1  0.600000  0.999700  0.072800  1.0  0.1092
  H  H293  1  0.556300  0.007000  0.212400  1.0  0.1309
  H  H294  1  0.474600  0.973100  0.282800  1.0  0.1066
  H  H295  1  0.453100  0.890200  0.233800  1.0  0.0903
  H  H296  1  0.537000  0.916600  0.169000  1.0  0.1265
  H  H297  1  0.782300  0.085700  0.031200  1.0  0.1044
  H  H298  1  0.845200  0.097000  0.042200  1.0  0.096
  H  H299  1  0.764300  0.976400  0.196800  1.0  0.0717
  H  H300  1  0.703200  0.962300  0.183800  1.0  0.0921
  H  H301  1  0.895100  0.994200  0.655000  1.0  0.1029
  H  H302  1  0.934400  0.935400  0.678000  1.0  0.1152
  H  H303  1  0.988500  0.006500  0.721200  1.0  0.1131
  H  H304  1  0.949100  0.065300  0.698200  1.0  0.0902
  H  H305  1  0.010000  0.908700  0.668200  1.0  0.1142
  H  H306  1  0.018800  0.817000  0.797600  1.0  0.0961
  H  H307  1  0.962400  0.924800  0.793600  1.0  0.1011
  H  H308  1  0.038300  0.832000  0.851200  1.0  0.0831
  H  H309  1  0.026100  0.815900  0.931400  1.0  0.0768
  H  H310  1  0.898000  0.847800  0.972000  1.0  0.1051
  H  H311  1  0.915800  0.869800  0.884800  1.0  0.1077
  H  H312  1  0.995300  0.820800  0.684000  1.0  0.1101
  H  H313  1  0.033200  0.778400  0.644400  1.0  0.0883
  H  H314  1  0.133500  0.783600  0.675800  1.0  0.0923
  H  H315  1  0.097500  0.823500  0.717400  1.0  0.1124
  H  H316  1  0.918000  0.217100  0.727400  1.0  0.1198
  H  H317  1  0.973600  0.256100  0.732400  1.0  0.1096
  H  H318  1  0.036300  0.372600  0.576600  1.0  0.0987
  H  H319  1  0.985200  0.335800  0.567400  1.0  0.1104
  H  H320  1  0.056200  0.267800  0.704800  1.0  0.0999
  H  H321  1  0.154800  0.377600  0.665000  1.0  0.1248
  H  H322  1  0.060400  0.407400  0.616000  1.0  0.1153
  H  H323  1  0.119000  0.460000  0.668600  1.0  0.1183
  H  H324  1  0.162100  0.543300  0.613800  1.0  0.0835
  H  H325  1  0.203400  0.556400  0.474600  1.0  0.0961
  H  H326  1  0.164400  0.471800  0.524800  1.0  0.1185
  H  H327  1  0.112100  0.231600  0.698400  1.0  0.0982
  H  H328  1  0.142700  0.170600  0.741200  1.0  0.117
  H  H329  1  0.173400  0.248900  0.792200  1.0  0.1038
  H  H330  1  0.142400  0.309500  0.747600  1.0  0.109
  H  H331  1  0.585400  0.492700  0.008800  1.0  0.3749
  H  H332  1  0.904100  0.735000  0.171800  1.0  0.3955
  H  H333  1  0.504400  0.584700  0.935400  1.0  0.3522
  H  H334  1  0.797700  0.604000  0.368800  1.0  0.1002
  H  H335  1  0.762200  0.545100  0.460200  1.0  0.1061
  H  H336  1  0.827900  0.639900  0.472200  1.0  0.1246
  H  H337  1  0.859800  0.698400  0.381200  1.0  0.0984
  H  H338  1  0.799600  0.493500  0.512800  1.0  0.1225
  H  H339  1  0.738000  0.437400  0.675800  1.0  0.11
  H  H340  1  0.749700  0.577200  0.572800  1.0  0.1103
  H  H341  1  0.757000  0.481300  0.712400  1.0  0.1314
  H  H342  1  0.723100  0.492600  0.782800  1.0  0.1064
  H  H343  1  0.640200  0.563100  0.733800  1.0  0.0909
  H  H344  1  0.666667  0.544000  0.669000  1.0  0.124
  H  H345  1  0.835700  0.436500  0.531200  1.0  0.1041
  H  H346  1  0.847000  0.362600  0.542200  1.0  0.0951
  H  H347  1  0.726400  0.288900  0.696800  1.0  0.0708
  H  H348  1  0.712300  0.363000  0.683800  1.0  0.0912
  H  H349  1  0.744200  0.699900  0.155000  1.0  0.1034
  H  H350  1  0.685400  0.637600  0.178000  1.0  0.1153
  H  H351  1  0.756500  0.540300  0.221200  1.0  0.115
  H  H352  1  0.815300  0.602700  0.198200  1.0  0.0915
  H  H353  1  0.658700  0.571800  0.168200  1.0  0.1127
  H  H354  1  0.567000  0.433600  0.297600  1.0  0.0946
  H  H355  1  0.674800  0.494000  0.293600  1.0  0.1031
  H  H356  1  0.582000  0.360500  0.351200  1.0  0.0825
  H  H357  1  0.565900  0.292500  0.431400  1.0  0.0778
  H  H358  1  0.597800  0.380000  0.472000  1.0  0.1064
  H  H359  1  0.619800  0.449400  0.384800  1.0  0.107
  H  H360  1  0.570800  0.570700  0.184000  1.0  0.1071
  H  H361  1  0.528400  0.572400  0.144400  1.0  0.0892
  H  H362  1  0.533600  0.440700  0.175800  1.0  0.0916
  H  H363  1  0.573500  0.435100  0.217400  1.0  0.114
  H  H364  1  0.967100  0.604600  0.227400  1.0  0.1183
  H  H365  1  0.006100  0.544000  0.232400  1.0  0.11
  H  H366  1  0.122600  0.637100  0.076600  1.0  0.0999
  H  H367  1  0.085800  0.697400  0.067400  1.0  0.1095
  H  H368  1  0.017800  0.489000  0.204800  1.0  0.1
  H  H369  1  0.127600  0.430200  0.165000  1.0  0.1263
  H  H370  1  0.157400  0.573600  0.116000  1.0  0.1153
  H  H371  1  0.210000  0.462400  0.168600  1.0  0.1175
  H  H372  1  0.293300  0.474100  0.113800  1.0  0.0839
  H  H373  1  0.306400  0.572000  0.974600  1.0  0.0963
  H  H374  1  0.221800  0.560800  0.024800  1.0  0.1212
  H  H375  1  0.981600  0.439500  0.198400  1.0  0.0991
  H  H376  1  0.920600  0.366100  0.241200  1.0  0.1171
  H  H377  1  0.998900  0.284400  0.292200  1.0  0.1041
  H  H378  1  0.059500  0.360000  0.247600  1.0  0.1093
  H  H379  1  0.405800  0.498500  0.008800  1.0  0.3811
  H  H380  1  0.924100  0.093200  0.171800  1.0  0.3949
  H  H381  1  0.560200  0.479900  0.935400  1.0  0.3485
  H  H382  1  0.833500  0.027200  0.368800  1.0  0.0974
  H  H383  1  0.777600  0.994700  0.460200  1.0  0.1066
  H  H384  1  0.699900  0.887900  0.472200  1.0  0.125
  H  H385  1  0.759000  0.920400  0.381200  1.0  0.0997
  H  H386  1  0.687600  0.993700  0.512800  1.0  0.1223
  H  H387  1  0.586200  0.886800  0.675800  1.0  0.1103
  H  H388  1  0.677500  0.850000  0.572800  1.0  0.1094
  H  H389  1  0.530600  0.806300  0.712400  1.0  0.1313
  H  H390  1  0.494100  0.724600  0.782800  1.0  0.1065
  H  H391  1  0.626000  0.703100  0.733800  1.0  0.0897
  H  H392  1  0.664400  0.787000  0.669000  1.0  0.1249
  H  H393  1  0.633100  0.032300  0.531200  1.0  0.1054
  H  H394  1  0.610800  0.095200  0.542200  1.0  0.0967
  H  H395  1  0.576800  0.014300  0.696800  1.0  0.0716
  H  H396  1  0.603900  0.953200  0.683800  1.0  0.0918
  H  H397  1  0.100800  0.145100  0.155000  1.0  0.1017
  H  H398  1  0.136600  0.184400  0.178000  1.0  0.1149
  H  H399  1  0.022300  0.238500  0.221200  1.0  0.1139
  H  H400  1  0.986500  0.199100  0.198200  1.0  0.0925
  H  H401  1  0.173100  0.260000  0.168200  1.0  0.1136
  H  H402  1  0.135400  0.268800  0.297600  1.0  0.0949
  H  H403  1  0.031600  0.212400  0.293600  1.0  0.1017
  H  H404  1  0.066800  0.288300  0.351200  1.0  0.0814
  H  H405  1  0.002700  0.276100  0.431400  1.0  0.0772
  H  H406  1  0.930200  0.148000  0.472000  1.0  0.1056
  H  H407  1  0.995400  0.165800  0.384800  1.0  0.1072
  H  H408  1  0.245200  0.245300  0.184000  1.0  0.1077
  H  H409  1  0.327200  0.283200  0.144400  1.0  0.0896
  H  H410  1  0.290600  0.383500  0.175800  1.0  0.0918
  H  H411  1  0.209100  0.347500  0.217400  1.0  0.1133
  H  H412  1  0.805500  0.168000  0.227400  1.0  0.119
  H  H413  1  0.761500  0.223600  0.232400  1.0  0.1089
  H  H414  1  0.800800  0.286300  0.076600  1.0  0.1
  H  H415  1  0.846800  0.235200  0.067400  1.0  0.1089
  H  H416  1  0.777400  0.306200  0.204800  1.0  0.1004
  H  H417  1  0.707400  0.404800  0.165000  1.0  0.1274
  H  H418  1  0.726600  0.310400  0.116000  1.0  0.1164
  H  H419  1  0.621400  0.369000  0.168600  1.0  0.1174
  H  H420  1  0.592900  0.412100  0.113800  1.0  0.0835
  H  H421  1  0.719000  0.453400  0.974600  1.0  0.0965
  H  H422  1  0.753400  0.414400  0.024800  1.0  0.1214
  H  H423  1  0.820000  0.362100  0.198400  1.0  0.097
  H  H424  1  0.838200  0.392700  0.241200  1.0  0.1167
  H  H425  1  0.708900  0.423400  0.292200  1.0  0.1027
  H  H426  1  0.692900  0.392400  0.247600  1.0  0.1094
  C  C427  1  0.999790  0.159490  0.696820  1.0  0.6448
  C  C428  1  0.023000  0.196800  0.634260  1.0  -0.1661
  C  C429  1  0.001280  0.193210  0.609980  1.0  -0.1038
  C  C430  1  0.019900  0.227470  0.555860  1.0  -0.1144
  C  C431  1  0.060210  0.270140  0.522520  1.0  0.0954
  C  C432  1  0.083850  0.273550  0.548300  1.0  -0.1608
  C  C433  1  0.064620  0.238020  0.602160  1.0  -0.0181
  C  C434  1  0.076770  0.312590  0.464660  1.0  0.0283
  C  C435  1  0.039620  0.327320  0.456960  1.0  -0.2178
  C  C436  1  0.052790  0.364320  0.403760  1.0  0.0549
  C  C437  1  0.104330  0.387430  0.359340  1.0  -0.1005
  C  C438  1  0.141550  0.372550  0.366300  1.0  0.015
  C  C439  1  0.126200  0.333620  0.420560  1.0  -0.1104
  C  C440  1  0.195460  0.399160  0.318680  1.0  0.0611
  C  C441  1  0.213880  0.449580  0.283240  1.0  -0.1526
  C  C442  1  0.263390  0.471490  0.242020  1.0  -0.0442
  C  C443  1  0.296400  0.443200  0.234600  1.0  -0.1323
  C  C444  1  0.275920  0.393320  0.269360  1.0  -0.0233
  C  C445  1  0.226290  0.370090  0.309620  1.0  -0.1883
  C  C446  1  0.351160  0.468560  0.189680  1.0  0.6927
  C  C447  1  0.015660  0.379660  0.393880  1.0  0.1082
  C  C448  1  0.971760  0.377960  0.434880  1.0  -0.1437
  C  C449  1  0.933070  0.390570  0.428860  1.0  -0.0647
  C  C450  1  0.936670  0.408270  0.379260  1.0  -0.1191
  C  C451  1  0.981300  0.410400  0.337600  1.0  -0.0436
  C  C452  1  0.018580  0.395280  0.345040  1.0  -0.1377
  C  C453  1  0.956160  0.148560  0.870480  1.0  0.6831
  C  C454  1  0.860830  0.985830  0.835140  1.0  0.6469
  C  C455  1  0.831760  0.959880  0.825740  1.0  -0.134
  C  C456  1  0.836190  0.914940  0.831780  1.0  -0.006
  C  C457  1  0.812660  0.893510  0.817960  1.0  -0.1247
  C  C458  1  0.784690  0.917010  0.798120  1.0  0.0497
  C  C459  1  0.780260  0.961950  0.792080  1.0  -0.0947
  C  C460  1  0.803790  0.983380  0.805900  1.0  -0.0046
  C  C461  1  0.766510  0.899430  0.773120  1.0  0.0262
  C  C462  1  0.745560  0.850780  0.797240  1.0  -0.0983
  C  C463  1  0.731020  0.835820  0.771560  1.0  0.0341
  C  C464  1  0.740670  0.873870  0.719860  1.0  -0.1224
  C  C465  1  0.762230  0.923610  0.693580  1.0  0.122
  C  C466  1  0.774600  0.934990  0.721420  1.0  -0.1334
  C  C467  1  0.769940  0.961550  0.641720  1.0  0.1109
  C  C468  1  0.739540  0.961140  0.625520  1.0  -0.149
  C  C469  1  0.747560  0.999160  0.576280  1.0  -0.0497
  C  C470  1  0.790310  0.041010  0.537180  1.0  -0.1395
  C  C471  1  0.823140  0.042840  0.552120  1.0  -0.0428
  C  C472  1  0.812020  0.003320  0.605360  1.0  -0.1758
  C  C473  1  0.707670  0.782470  0.796860  1.0  0.0962
  C  C474  1  0.725880  0.746480  0.818240  1.0  -0.1319
  C  C475  1  0.703760  0.696860  0.840680  1.0  -0.0427
  C  C476  1  0.663850  0.681800  0.843160  1.0  -0.1521
  C  C477  1  0.645220  0.719070  0.821520  1.0  -0.0729
  C  C478  1  0.666020  0.767620  0.797960  1.0  -0.1387
  C  C479  1  0.495690  0.508790  0.133420  1.0  0.7176
  C  C480  1  0.837580  0.137210  0.858980  1.0  0.6428
  C  C481  1  0.803710  0.168860  0.852740  1.0  -0.1228
  C  C482  1  0.807580  0.194210  0.803400  1.0  -0.1719
  C  C483  1  0.773770  0.220290  0.801460  1.0  -0.1346
  C  C484  1  0.735840  0.220690  0.846920  1.0  0.0807
  C  C485  1  0.735470  0.196570  0.893860  1.0  -0.1264
  C  C486  1  0.767340  0.170640  0.898920  1.0  -0.0772
  C  C487  1  0.697190  0.242590  0.842020  1.0  0.0658
  C  C488  1  0.678800  0.237300  0.814600  1.0  -0.1926
  C  C489  1  0.640830  0.253630  0.813940  1.0  0.0362
  C  C490  1  0.619470  0.279070  0.838460  1.0  -0.1148
  C  C491  1  0.636350  0.284350  0.866900  1.0  0.0206
  C  C492  1  0.676700  0.267510  0.867000  1.0  -0.0801
  C  C493  1  0.612790  0.309030  0.898220  1.0  0.0189
  C  C494  1  0.614980  0.358350  0.870040  1.0  -0.1975
  C  C495  1  0.586180  0.373780  0.904440  1.0  -0.0292
  C  C496  1  0.559600  0.347890  0.962000  1.0  -0.0504
  C  C497  1  0.562360  0.300310  0.986680  1.0  -0.0632
  C  C498  1  0.586430  0.279630  0.956340  1.0  -0.1132
  C  C499  1  0.475440  0.638940  0.993320  1.0  0.6669
  C  C500  1  0.622250  0.242650  0.786100  1.0  0.0902
  C  C501  1  0.624590  0.201890  0.784220  1.0  -0.1278
  C  C502  1  0.606350  0.190950  0.757700  1.0  -0.0833
  C  C503  1  0.588380  0.224980  0.730040  1.0  -0.0976
  C  C504  1  0.588690  0.268290  0.726220  1.0  -0.0793
  C  C505  1  0.606350  0.277150  0.755300  1.0  -0.1129
  C  C506  1  0.024800  0.037900  0.794000  1.0  0.7276
  C  C507  1  0.799540  0.081840  0.483920  1.0  0.7182
  C  C508  1  0.303390  0.143690  0.696820  1.0  0.6415
  C  C509  1  0.342740  0.168940  0.634260  1.0  -0.164
  C  C510  1  0.388740  0.196810  0.609980  1.0  -0.107
  C  C511  1  0.424240  0.216670  0.555860  1.0  -0.1169
  C  C512  1  0.417270  0.207340  0.522520  1.0  0.095
  C  C513  1  0.367850  0.178150  0.548300  1.0  -0.1594
  C  C514  1  0.333220  0.159820  0.602160  1.0  -0.0141
  C  C515  1  0.458570  0.222750  0.464660  1.0  0.028
  C  C516  1  0.503420  0.215720  0.456960  1.0  -0.2159
  C  C517  1  0.543450  0.231920  0.403760  1.0  0.0524
  C  C518  1  0.536330  0.253230  0.359340  1.0  -0.1001
  C  C519  1  0.492150  0.261150  0.366300  1.0  0.0154
  C  C520  1  0.453240  0.245820  0.420560  1.0  -0.112
  C  C521  1  0.485860  0.282160  0.318680  1.0  0.0581
  C  C522  1  0.502880  0.267180  0.283240  1.0  -0.1546
  C  C523  1  0.494590  0.286490  0.242020  1.0  -0.0478
  C  C524  1  0.469000  0.322200  0.234600  1.0  -0.1377
  C  C525  1  0.454720  0.337320  0.269360  1.0  -0.0207
  C  C526  1  0.464090  0.320290  0.309620  1.0  -0.1899
  C  C527  1  0.459160  0.341760  0.189680  1.0  0.6932
  C  C528  1  0.590460  0.226460  0.393880  1.0  0.1058
  C  C529  1  0.593360  0.187160  0.434880  1.0  -0.1457
  C  C530  1  0.638070  0.180570  0.428860  1.0  -0.0655
  C  C531  1  0.684070  0.212470  0.379260  1.0  -0.117
  C  C532  1  0.681100  0.252000  0.337600  1.0  -0.0443
  C  C533  1  0.636380  0.259680  0.345040  1.0  -0.1386
  C  C534  1  0.173360  0.980960  0.870480  1.0  0.6851
  C  C535  1  0.304030  0.179030  0.835140  1.0  0.6477
  C  C536  1  0.342500  0.214380  0.825740  1.0  -0.1341
  C  C537  1  0.332030  0.253280  0.831780  1.0  -0.0048
  C  C538  1  0.369380  0.288530  0.817960  1.0  -0.1268
  C  C539  1  0.417190  0.284870  0.798120  1.0  0.0511
  C  C540  1  0.427660  0.245970  0.792080  1.0  -0.0984
  C  C541  1  0.390310  0.210720  0.805900  1.0  -0.0047
  C  C542  1  0.460370  0.327450  0.773120  1.0  0.0254
  C  C543  1  0.457200  0.351980  0.797240  1.0  -0.0993
  C  C544  1  0.497420  0.392620  0.771560  1.0  0.0337
  C  C545  1  0.539470  0.406270  0.719860  1.0  -0.1259
  C  C546  1  0.544190  0.382810  0.693580  1.0  0.1224
  C  C547  1  0.503980  0.343590  0.721420  1.0  -0.1334
  C  C548  1  0.588340  0.396730  0.641720  1.0  0.111
  C  C549  1  0.634940  0.413340  0.625520  1.0  -0.1467
  C  C550  1  0.676160  0.424560  0.576280  1.0  -0.0509
  C  C551  1  0.672510  0.421810  0.537180  1.0  -0.1321
  C  C552  1  0.624740  0.405040  0.552120  1.0  -0.0453
  C  C553  1  0.582620  0.391320  0.605360  1.0  -0.1786
  C  C554  1  0.495470  0.420670  0.796860  1.0  0.0968
  C  C555  1  0.455880  0.435280  0.818240  1.0  -0.1345
  C  C556  1  0.455560  0.462460  0.840680  1.0  -0.0415
  C  C557  1  0.492990  0.475040  0.843160  1.0  -0.1529
  C  C558  1  0.533260  0.459410  0.821520  1.0  -0.0736
  C  C559  1  0.536020  0.434420  0.797960  1.0  -0.1373
  C  C560  1  0.370890  0.357790  0.133420  1.0  0.7152
  C  C561  1  0.303440  0.003810  0.858980  1.0  0.6414
  C  C562  1  0.343550  0.978400  0.852740  1.0  -0.1229
  C  C563  1  0.389020  0.002390  0.803400  1.0  -0.1704
  C  C564  1  0.424770  0.978250  0.801460  1.0  -0.13
  C  C565  1  0.417240  0.932390  0.846920  1.0  0.0786
  C  C566  1  0.370670  0.909570  0.893860  1.0  -0.1266
  C  C567  1  0.333740  0.930440  0.898920  1.0  -0.0766
  C  C568  1  0.460790  0.915390  0.842020  1.0  0.0648
  C  C569  1  0.506600  0.948100  0.814600  1.0  -0.1929
  C  C570  1  0.545230  0.932430  0.813940  1.0  0.0374
  C  C571  1  0.542070  0.882470  0.838460  1.0  -0.1168
  C  C572  1  0.496750  0.848750  0.866900  1.0  0.0207
  C  C573  1  0.456300  0.865490  0.867000  1.0  -0.0866
  C  C574  1  0.488990  0.792750  0.898220  1.0  0.0185
  C  C575  1  0.514980  0.771610  0.870040  1.0  -0.1964
  C  C576  1  0.509380  0.721780  0.904440  1.0  -0.028
  C  C577  1  0.478400  0.690110  0.962000  1.0  -0.0485
  C  C578  1  0.450960  0.713010  0.986680  1.0  -0.0612
  C  C579  1  0.457230  0.764030  0.956340  1.0  -0.1149
  C  C580  1  0.531240  0.367740  0.993320  1.0  0.6677
  C  C581  1  0.591650  0.971250  0.786100  1.0  0.0943
  C  C582  1  0.591190  0.013890  0.784220  1.0  -0.1265
  C  C583  1  0.635950  0.051350  0.757700  1.0  -0.081
  C  C584  1  0.681580  0.044980  0.730040  1.0  -0.0967
  C  C585  1  0.685090  0.005490  0.726220  1.0  -0.0808
  C  C586  1  0.638350  0.967550  0.755300  1.0  -0.1085
  C  C587  1  0.181200  0.168100  0.794000  1.0  0.7287
  C  C588  1  0.716540  0.434240  0.483920  1.0  0.7177
  C  C589  1  0.909490  0.553390  0.196820  1.0  0.6398
  C  C590  1  0.946800  0.592740  0.134260  1.0  -0.1676
  C  C591  1  0.943210  0.638740  0.109980  1.0  -0.1082
  C  C592  1  0.977470  0.674240  0.055860  1.0  -0.1166
  C  C593  1  0.020140  0.667270  0.022520  1.0  0.0997
  C  C594  1  0.023550  0.617850  0.048300  1.0  -0.1648
  C  C595  1  0.988020  0.583220  0.102160  1.0  -0.0199
  C  C596  1  0.062590  0.708570  0.964660  1.0  0.0294
  C  C597  1  0.077320  0.753420  0.956960  1.0  -0.2159
  C  C598  1  0.114320  0.793450  0.903760  1.0  0.0517
  C  C599  1  0.137430  0.786330  0.859340  1.0  -0.1015
  C  C600  1  0.122550  0.742150  0.866300  1.0  0.015
  C  C601  1  0.083620  0.703240  0.920560  1.0  -0.1139
  C  C602  1  0.149160  0.735860  0.818680  1.0  0.059
  C  C603  1  0.199580  0.752880  0.783240  1.0  -0.1506
  C  C604  1  0.221490  0.744590  0.742020  1.0  -0.0356
  C  C605  1  0.193200  0.719000  0.734600  1.0  -0.1375
  C  C606  1  0.143320  0.704720  0.769360  1.0  -0.0256
  C  C607  1  0.120090  0.714090  0.809620  1.0  -0.1927
  C  C608  1  0.218560  0.709160  0.689680  1.0  0.6955
  C  C609  1  0.129660  0.840460  0.893880  1.0  0.1065
  C  C610  1  0.127960  0.843360  0.934880  1.0  -0.1454
  C  C611  1  0.140570  0.888070  0.928860  1.0  -0.0637
  C  C612  1  0.158270  0.934070  0.879260  1.0  -0.1173
  C  C613  1  0.160400  0.931100  0.837600  1.0  -0.0444
  C  C614  1  0.145280  0.886380  0.845040  1.0  -0.1385
  C  C615  1  0.898560  0.423360  0.370480  1.0  0.6851
  C  C616  1  0.735830  0.554030  0.335140  1.0  0.6465
  C  C617  1  0.709880  0.592500  0.325740  1.0  -0.1355
  C  C618  1  0.664940  0.582030  0.331780  1.0  -0.0057
  C  C619  1  0.643510  0.619380  0.317960  1.0  -0.1161
  C  C620  1  0.667010  0.667190  0.298120  1.0  0.0517
  C  C621  1  0.711950  0.677660  0.292080  1.0  -0.0976
  C  C622  1  0.733380  0.640310  0.305900  1.0  -0.002
  C  C623  1  0.649430  0.710370  0.273120  1.0  0.0253
  C  C624  1  0.600780  0.707200  0.297240  1.0  -0.0993
  C  C625  1  0.585820  0.747420  0.271560  1.0  0.0322
  C  C626  1  0.623870  0.789470  0.219860  1.0  -0.1259
  C  C627  1  0.673610  0.794190  0.193580  1.0  0.1215
  C  C628  1  0.684990  0.753980  0.221420  1.0  -0.1349
  C  C629  1  0.711550  0.838340  0.141720  1.0  0.1104
  C  C630  1  0.711140  0.884940  0.125520  1.0  -0.1498
  C  C631  1  0.749160  0.926160  0.076280  1.0  -0.0481
  C  C632  1  0.791010  0.922510  0.037180  1.0  -0.1358
  C  C633  1  0.792840  0.874740  0.052120  1.0  -0.0452
  C  C634  1  0.753320  0.832620  0.105360  1.0  -0.1807
  C  C635  1  0.532470  0.745470  0.296860  1.0  0.0974
  C  C636  1  0.496480  0.705880  0.318240  1.0  -0.1362
  C  C637  1  0.446860  0.705560  0.340680  1.0  -0.0441
  C  C638  1  0.431800  0.742990  0.343160  1.0  -0.1533
  C  C639  1  0.469070  0.783260  0.321520  1.0  -0.0749
  C  C640  1  0.517620  0.786020  0.297960  1.0  -0.1401
  C  C641  1  0.258790  0.620890  0.633420  1.0  0.7206
  C  C642  1  0.887210  0.553440  0.358980  1.0  0.6426
  C  C643  1  0.918860  0.593550  0.352740  1.0  -0.1212
  C  C644  1  0.944210  0.639020  0.303400  1.0  -0.1708
  C  C645  1  0.970290  0.674770  0.301460  1.0  -0.1317
  C  C646  1  0.970690  0.667240  0.346920  1.0  0.0768
  C  C647  1  0.946570  0.620670  0.393860  1.0  -0.1205
  C  C648  1  0.920640  0.583740  0.398920  1.0  -0.0763
  C  C649  1  0.992590  0.710790  0.342020  1.0  0.0629
  C  C650  1  0.987300  0.756600  0.314600  1.0  -0.1909
  C  C651  1  0.003630  0.795230  0.313940  1.0  0.035
  C  C652  1  0.029070  0.792070  0.338460  1.0  -0.1133
  C  C653  1  0.034350  0.746750  0.366900  1.0  0.0221
  C  C654  1  0.017510  0.706300  0.367000  1.0  -0.0839
  C  C655  1  0.059030  0.738990  0.398220  1.0  0.0193
  C  C656  1  0.108350  0.764980  0.370040  1.0  -0.1941
  C  C657  1  0.123780  0.759380  0.404440  1.0  -0.0271
  C  C658  1  0.097890  0.728400  0.462000  1.0  -0.0509
  C  C659  1  0.050310  0.700960  0.486680  1.0  -0.0619
  C  C660  1  0.029630  0.707230  0.456340  1.0  -0.1154
  C  C661  1  0.388940  0.781240  0.493320  1.0  0.6693
  C  C662  1  0.992650  0.841650  0.286100  1.0  0.0926
  C  C663  1  0.951890  0.841190  0.284220  1.0  -0.1272
  C  C664  1  0.940950  0.885950  0.257700  1.0  -0.0784
  C  C665  1  0.974980  0.931580  0.230040  1.0  -0.0969
  C  C666  1  0.018290  0.935090  0.226220  1.0  -0.0847
  C  C667  1  0.027150  0.888350  0.255300  1.0  -0.1095
  C  C668  1  0.787900  0.431200  0.294000  1.0  0.7275
  C  C669  1  0.831840  0.966540  0.983920  1.0  0.7204
  C  C670  1  0.893690  0.249790  0.196820  1.0  0.6442
  C  C671  1  0.918940  0.273000  0.134260  1.0  -0.1585
  C  C672  1  0.946810  0.251280  0.109980  1.0  -0.106
  C  C673  1  0.966670  0.269900  0.055860  1.0  -0.1144
  C  C674  1  0.957340  0.310210  0.022520  1.0  0.0956
  C  C675  1  0.928150  0.333850  0.048300  1.0  -0.1624
  C  C676  1  0.909820  0.314620  0.102160  1.0  -0.0191
  C  C677  1  0.972750  0.326770  0.964660  1.0  0.0306
  C  C678  1  0.965720  0.289620  0.956960  1.0  -0.2198
  C  C679  1  0.981920  0.302790  0.903760  1.0  0.0514
  C  C680  1  0.003230  0.354330  0.859340  1.0  -0.1007
  C  C681  1  0.011150  0.391550  0.866300  1.0  0.0151
  C  C682  1  0.995820  0.376200  0.920560  1.0  -0.1133
  C  C683  1  0.032160  0.445460  0.818680  1.0  0.0591
  C  C684  1  0.017180  0.463880  0.783240  1.0  -0.1506
  C  C685  1  0.036490  0.513390  0.742020  1.0  -0.0448
  C  C686  1  0.072200  0.546400  0.734600  1.0  -0.1368
  C  C687  1  0.087320  0.525920  0.769360  1.0  -0.0242
  C  C688  1  0.070290  0.476290  0.809620  1.0  -0.1921
  C  C689  1  0.091760  0.601160  0.689680  1.0  0.6961
  C  C690  1  0.976460  0.265660  0.893880  1.0  0.1081
  C  C691  1  0.937160  0.221760  0.934880  1.0  -0.1432
  C  C692  1  0.930570  0.183070  0.928860  1.0  -0.0636
  C  C693  1  0.962470  0.186670  0.879260  1.0  -0.1193
  C  C694  1  0.002000  0.231300  0.837600  1.0  -0.0443
  C  C695  1  0.009680  0.268580  0.845040  1.0  -0.1404
  C  C696  1  0.730960  0.206160  0.370480  1.0  0.6833
  C  C697  1  0.929030  0.110830  0.335140  1.0  0.6448
  C  C698  1  0.964380  0.081760  0.325740  1.0  -0.135
  C  C699  1  0.003280  0.086190  0.331780  1.0  -0.0052
  C  C700  1  0.038530  0.062660  0.317960  1.0  -0.1272
  C  C701  1  0.034870  0.034690  0.298120  1.0  0.0531
  C  C702  1  0.995970  0.030260  0.292080  1.0  -0.0986
  C  C703  1  0.960720  0.053790  0.305900  1.0  -0.0037
  C  C704  1  0.077450  0.016510  0.273120  1.0  0.0272
  C  C705  1  0.101980  0.995560  0.297240  1.0  -0.0954
  C  C706  1  0.142620  0.981020  0.271560  1.0  0.0355
  C  C707  1  0.156270  0.990670  0.219860  1.0  -0.125
  C  C708  1  0.132810  0.012230  0.193580  1.0  0.1219
  C  C709  1  0.093590  0.024600  0.221420  1.0  -0.1326
  C  C710  1  0.146730  0.019940  0.141720  1.0  0.1107
  C  C711  1  0.163340  0.989540  0.125520  1.0  -0.1519
  C  C712  1  0.174560  0.997560  0.076280  1.0  -0.0497
  C  C713  1  0.171810  0.040310  0.037180  1.0  -0.136
  C  C714  1  0.155040  0.073140  0.052120  1.0  -0.0455
  C  C715  1  0.141320  0.062020  0.105360  1.0  -0.1788
  C  C716  1  0.170670  0.957670  0.296860  1.0  0.0978
  C  C717  1  0.185280  0.975880  0.318240  1.0  -0.1385
  C  C718  1  0.212460  0.953760  0.340680  1.0  -0.0459
  C  C719  1  0.225040  0.913850  0.343160  1.0  -0.1523
  C  C720  1  0.209410  0.895220  0.321520  1.0  -0.0752
  C  C721  1  0.184420  0.916020  0.297960  1.0  -0.1344
  C  C722  1  0.107790  0.745690  0.633420  1.0  0.7216
  C  C723  1  0.753810  0.087580  0.358980  1.0  0.6428
  C  C724  1  0.728400  0.053710  0.352740  1.0  -0.1223
  C  C725  1  0.752390  0.057580  0.303400  1.0  -0.1732
  C  C726  1  0.728250  0.023770  0.301460  1.0  -0.1318
  C  C727  1  0.682390  0.985840  0.346920  1.0  0.0756
  C  C728  1  0.659570  0.985470  0.393860  1.0  -0.123
  C  C729  1  0.680440  0.017340  0.398920  1.0  -0.0777
  C  C730  1  0.665390  0.947190  0.342020  1.0  0.0633
  C  C731  1  0.698100  0.928800  0.314600  1.0  -0.1935
  C  C732  1  0.682430  0.890830  0.313940  1.0  0.0366
  C  C733  1  0.632470  0.869470  0.338460  1.0  -0.1148
  C  C734  1  0.598750  0.886350  0.366900  1.0  0.0198
  C  C735  1  0.615490  0.926700  0.367000  1.0  -0.0824
  C  C736  1  0.542750  0.862790  0.398220  1.0  0.0183
  C  C737  1  0.521610  0.864980  0.370040  1.0  -0.1959
  C  C738  1  0.471780  0.836180  0.404440  1.0  -0.0269
  C  C739  1  0.440110  0.809600  0.462000  1.0  -0.047
  C  C740  1  0.463010  0.812360  0.486680  1.0  -0.0593
  C  C741  1  0.514030  0.836430  0.456340  1.0  -0.1153
  C  C742  1  0.117740  0.725440  0.493320  1.0  0.6702
  C  C743  1  0.721250  0.872250  0.286100  1.0  0.0931
  C  C744  1  0.763890  0.874590  0.284220  1.0  -0.1275
  C  C745  1  0.801350  0.856350  0.257700  1.0  -0.0794
  C  C746  1  0.794980  0.838380  0.230040  1.0  -0.0971
  C  C747  1  0.755490  0.838690  0.226220  1.0  -0.0836
  C  C748  1  0.717550  0.856350  0.255300  1.0  -0.1108
  C  C749  1  0.918100  0.274800  0.294000  1.0  0.7287
  C  C750  1  0.184240  0.049540  0.983920  1.0  0.7231
  C  C751  1  0.446610  0.090510  0.803180  1.0  0.6402
  C  C752  1  0.407260  0.053200  0.865740  1.0  -0.1615
  C  C753  1  0.361260  0.056790  0.890020  1.0  -0.1067
  C  C754  1  0.325760  0.022530  0.944140  1.0  -0.1198
  C  C755  1  0.332730  0.979860  0.977480  1.0  0.0988
  C  C756  1  0.382150  0.976450  0.951700  1.0  -0.1641
  C  C757  1  0.416780  0.011980  0.897840  1.0  -0.0134
  C  C758  1  0.291430  0.937410  0.035340  1.0  0.0286
  C  C759  1  0.246580  0.922680  0.043040  1.0  -0.216
  C  C760  1  0.206550  0.885680  0.096240  1.0  0.0515
  C  C761  1  0.213670  0.862570  0.140660  1.0  -0.1034
  C  C762  1  0.257850  0.877450  0.133700  1.0  0.0141
  C  C763  1  0.296760  0.916380  0.079440  1.0  -0.1102
  C  C764  1  0.264140  0.850840  0.181320  1.0  0.059
  C  C765  1  0.247120  0.800420  0.216760  1.0  -0.1535
  C  C766  1  0.255410  0.778510  0.257980  1.0  -0.0407
  C  C767  1  0.281000  0.806800  0.265400  1.0  -0.1383
  C  C768  1  0.295280  0.856680  0.230640  1.0  -0.0212
  C  C769  1  0.285910  0.879910  0.190380  1.0  -0.1892
  C  C770  1  0.290840  0.781440  0.310320  1.0  0.6957
  C  C771  1  0.159540  0.870340  0.106120  1.0  0.106
  C  C772  1  0.156640  0.872040  0.065120  1.0  -0.1452
  C  C773  1  0.111930  0.859430  0.071140  1.0  -0.0659
  C  C774  1  0.065930  0.841730  0.120740  1.0  -0.1177
  C  C775  1  0.068900  0.839600  0.162400  1.0  -0.0434
  C  C776  1  0.113620  0.854720  0.154960  1.0  -0.1376
  C  C777  1  0.576640  0.101440  0.629520  1.0  0.6864
  C  C778  1  0.445970  0.264170  0.664860  1.0  0.6468
  C  C779  1  0.407500  0.290120  0.674260  1.0  -0.1339
  C  C780  1  0.417970  0.335060  0.668220  1.0  -0.0046
  C  C781  1  0.380620  0.356490  0.682040  1.0  -0.1225
  C  C782  1  0.332810  0.332990  0.701880  1.0  0.0509
  C  C783  1  0.322340  0.288050  0.707920  1.0  -0.0975
  C  C784  1  0.359690  0.266620  0.694100  1.0  -0.0015
  C  C785  1  0.289630  0.350570  0.726880  1.0  0.0265
  C  C786  1  0.292800  0.399220  0.702760  1.0  -0.0984
  C  C787  1  0.252580  0.414180  0.728440  1.0  0.0344
  C  C788  1  0.210530  0.376130  0.780140  1.0  -0.1259
  C  C789  1  0.205810  0.326390  0.806420  1.0  0.1216
  C  C790  1  0.246020  0.315010  0.778580  1.0  -0.1349
  C  C791  1  0.161660  0.288450  0.858280  1.0  0.1124
  C  C792  1  0.115060  0.288860  0.874480  1.0  -0.1487
  C  C793  1  0.073840  0.250840  0.923720  1.0  -0.0506
  C  C794  1  0.077490  0.208990  0.962820  1.0  -0.1372
  C  C795  1  0.125260  0.207160  0.947880  1.0  -0.0442
  C  C796  1  0.167380  0.246680  0.894640  1.0  -0.177
  C  C797  1  0.254530  0.467530  0.703140  1.0  0.0962
  C  C798  1  0.294120  0.503520  0.681760  1.0  -0.1311
  C  C799  1  0.294440  0.553140  0.659320  1.0  -0.0402
  C  C800  1  0.257010  0.568200  0.656840  1.0  -0.1517
  C  C801  1  0.216740  0.530930  0.678480  1.0  -0.0701
  C  C802  1  0.213980  0.482380  0.702040  1.0  -0.1378
  C  C803  1  0.379110  0.741210  0.366580  1.0  0.7173
  C  C804  1  0.446560  0.112790  0.641020  1.0  0.6419
  C  C805  1  0.406450  0.081140  0.647260  1.0  -0.1246
  C  C806  1  0.360980  0.055790  0.696600  1.0  -0.1731
  C  C807  1  0.325230  0.029710  0.698540  1.0  -0.1352
  C  C808  1  0.332760  0.029310  0.653080  1.0  0.0767
  C  C809  1  0.379330  0.053430  0.606140  1.0  -0.1198
  C  C810  1  0.416260  0.079360  0.601080  1.0  -0.0745
  C  C811  1  0.289210  0.007410  0.657980  1.0  0.0638
  C  C812  1  0.243400  0.012700  0.685400  1.0  -0.1926
  C  C813  1  0.204770  0.996370  0.686060  1.0  0.0378
  C  C814  1  0.207930  0.970930  0.661540  1.0  -0.1129
  C  C815  1  0.253250  0.965650  0.633100  1.0  0.0203
  C  C816  1  0.293700  0.982490  0.633000  1.0  -0.083
  C  C817  1  0.261010  0.940970  0.601780  1.0  0.0195
  C  C818  1  0.235020  0.891650  0.629960  1.0  -0.1958
  C  C819  1  0.240620  0.876220  0.595560  1.0  -0.0305
  C  C820  1  0.271600  0.902110  0.538000  1.0  -0.0517
  C  C821  1  0.299040  0.949690  0.513320  1.0  -0.0621
  C  C822  1  0.292770  0.970370  0.543660  1.0  -0.1148
  C  C823  1  0.218760  0.611060  0.506680  1.0  0.6683
  C  C824  1  0.158350  0.007350  0.713900  1.0  0.0942
  C  C825  1  0.158810  0.048110  0.715780  1.0  -0.1276
  C  C826  1  0.114050  0.059050  0.742300  1.0  -0.0854
  C  C827  1  0.068420  0.025020  0.769960  1.0  -0.0964
  C  C828  1  0.064910  0.981710  0.773780  1.0  -0.0794
  C  C829  1  0.111650  0.972850  0.744700  1.0  -0.1088
  C  C830  1  0.568800  0.212100  0.706000  1.0  0.7291
  C  C831  1  0.033460  0.168160  0.016080  1.0  0.7182
  C  C832  1  0.750210  0.106310  0.803180  1.0  0.646
  C  C833  1  0.727000  0.081060  0.865740  1.0  -0.1609
  C  C834  1  0.748720  0.053190  0.890020  1.0  -0.1103
  C  C835  1  0.730100  0.033330  0.944140  1.0  -0.117
  C  C836  1  0.689790  0.042660  0.977480  1.0  0.0943
  C  C837  1  0.666150  0.071850  0.951700  1.0  -0.1606
  C  C838  1  0.685380  0.090180  0.897840  1.0  -0.0161
  C  C839  1  0.673230  0.027250  0.035340  1.0  0.0282
  C  C840  1  0.710380  0.034280  0.043040  1.0  -0.2179
  C  C841  1  0.697210  0.018080  0.096240  1.0  0.0512
  C  C842  1  0.645670  0.996770  0.140660  1.0  -0.1013
  C  C843  1  0.608450  0.988850  0.133700  1.0  0.0161
  C  C844  1  0.623800  0.004180  0.079440  1.0  -0.1088
  C  C845  1  0.554540  0.967840  0.181320  1.0  0.0582
  C  C846  1  0.536120  0.982820  0.216760  1.0  -0.1535
  C  C847  1  0.486610  0.963510  0.257980  1.0  -0.0472
  C  C848  1  0.453600  0.927800  0.265400  1.0  -0.1391
  C  C849  1  0.474080  0.912680  0.230640  1.0  -0.0233
  C  C850  1  0.523710  0.929710  0.190380  1.0  -0.1905
  C  C851  1  0.398840  0.908240  0.310320  1.0  0.6924
  C  C852  1  0.734340  0.023540  0.106120  1.0  0.1064
  C  C853  1  0.778240  0.062840  0.065120  1.0  -0.1465
  C  C854  1  0.816930  0.069430  0.071140  1.0  -0.0649
  C  C855  1  0.813330  0.037530  0.120740  1.0  -0.1196
  C  C856  1  0.768700  0.998000  0.162400  1.0  -0.0442
  C  C857  1  0.731420  0.990320  0.154960  1.0  -0.1409
  C  C858  1  0.793840  0.269040  0.629520  1.0  0.6838
  C  C859  1  0.889170  0.070970  0.664860  1.0  0.6465
  C  C860  1  0.918240  0.035620  0.674260  1.0  -0.1358
  C  C861  1  0.913810  0.996720  0.668220  1.0  0.0039
  C  C862  1  0.937340  0.961470  0.682040  1.0  -0.1267
  C  C863  1  0.965310  0.965130  0.701880  1.0  0.0489
  C  C864  1  0.969740  0.004030  0.707920  1.0  -0.0987
  C  C865  1  0.946210  0.039280  0.694100  1.0  -0.004
  C  C866  1  0.983490  0.922550  0.726880  1.0  0.025
  C  C867  1  0.004440  0.898020  0.702760  1.0  -0.0955
  C  C868  1  0.018980  0.857380  0.728440  1.0  0.0367
  C  C869  1  0.009330  0.843730  0.780140  1.0  -0.1267
  C  C870  1  0.987770  0.867190  0.806420  1.0  0.1218
  C  C871  1  0.975400  0.906410  0.778580  1.0  -0.1317
  C  C872  1  0.980060  0.853270  0.858280  1.0  0.1114
  C  C873  1  0.010460  0.836660  0.874480  1.0  -0.1519
  C  C874  1  0.002440  0.825440  0.923720  1.0  -0.0493
  C  C875  1  0.959690  0.828190  0.962820  1.0  -0.1401
  C  C876  1  0.926860  0.844960  0.947880  1.0  -0.0429
  C  C877  1  0.937980  0.858680  0.894640  1.0  -0.179
  C  C878  1  0.042330  0.829330  0.703140  1.0  0.0965
  C  C879  1  0.024120  0.814720  0.681760  1.0  -0.1365
  C  C880  1  0.046240  0.787540  0.659320  1.0  -0.0437
  C  C881  1  0.086150  0.774960  0.656840  1.0  -0.1519
  C  C882  1  0.104780  0.790590  0.678480  1.0  -0.0723
  C  C883  1  0.083980  0.815580  0.702040  1.0  -0.1359
  C  C884  1  0.254310  0.892210  0.366580  1.0  0.716
  C  C885  1  0.912420  0.246190  0.641020  1.0  0.6423
  C  C886  1  0.946290  0.271600  0.647260  1.0  -0.1255
  C  C887  1  0.942420  0.247610  0.696600  1.0  -0.1731
  C  C888  1  0.976230  0.271750  0.698540  1.0  -0.1323
  C  C889  1  0.014160  0.317610  0.653080  1.0  0.0764
  C  C890  1  0.014530  0.340430  0.606140  1.0  -0.1238
  C  C891  1  0.982660  0.319560  0.601080  1.0  -0.0763
  C  C892  1  0.052810  0.334610  0.657980  1.0  0.0639
  C  C893  1  0.071200  0.301900  0.685400  1.0  -0.195
  C  C894  1  0.109170  0.317570  0.686060  1.0  0.0357
  C  C895  1  0.130530  0.367530  0.661540  1.0  -0.1157
  C  C896  1  0.113650  0.401250  0.633100  1.0  0.0209
  C  C897  1  0.073300  0.384510  0.633000  1.0  -0.0863
  C  C898  1  0.137210  0.457250  0.601780  1.0  0.0194
  C  C899  1  0.135020  0.478390  0.629960  1.0  -0.1979
  C  C900  1  0.163820  0.528220  0.595560  1.0  -0.0292
  C  C901  1  0.190400  0.559890  0.538000  1.0  -0.0476
  C  C902  1  0.187640  0.536990  0.513320  1.0  -0.0598
  C  C903  1  0.163570  0.485970  0.543660  1.0  -0.1152
  C  C904  1  0.274560  0.882260  0.506680  1.0  0.6678
  C  C905  1  0.127750  0.278750  0.713900  1.0  0.0927
  C  C906  1  0.125410  0.236110  0.715780  1.0  -0.1255
  C  C907  1  0.143650  0.198650  0.742300  1.0  -0.0832
  C  C908  1  0.161620  0.205020  0.769960  1.0  -0.0977
  C  C909  1  0.161310  0.244510  0.773780  1.0  -0.0825
  C  C910  1  0.143650  0.282450  0.744700  1.0  -0.1103
  C  C911  1  0.725200  0.081900  0.706000  1.0  0.7265
  C  C912  1  0.950460  0.815760  0.016080  1.0  0.7193
  C  C913  1  0.856310  0.696610  0.303180  1.0  0.6431
  C  C914  1  0.831060  0.657260  0.365740  1.0  -0.1646
  C  C915  1  0.803190  0.611260  0.390020  1.0  -0.1059
  C  C916  1  0.783330  0.575760  0.444140  1.0  -0.1135
  C  C917  1  0.792660  0.582730  0.477480  1.0  0.0953
  C  C918  1  0.821850  0.632150  0.451700  1.0  -0.16
  C  C919  1  0.840180  0.666780  0.397840  1.0  -0.0208
  C  C920  1  0.777250  0.541430  0.535340  1.0  0.0283
  C  C921  1  0.784280  0.496580  0.543040  1.0  -0.2183
  C  C922  1  0.768080  0.456550  0.596240  1.0  0.0508
  C  C923  1  0.746770  0.463670  0.640660  1.0  -0.1005
  C  C924  1  0.738850  0.507850  0.633700  1.0  0.0172
  C  C925  1  0.754180  0.546760  0.579440  1.0  -0.1142
  C  C926  1  0.717840  0.514140  0.681320  1.0  0.0587
  C  C927  1  0.732820  0.497120  0.716760  1.0  -0.1484
  C  C928  1  0.713510  0.505410  0.757980  1.0  -0.0436
  C  C929  1  0.677800  0.531000  0.765400  1.0  -0.1394
  C  C930  1  0.662680  0.545280  0.730640  1.0  -0.025
  C  C931  1  0.679710  0.535910  0.690380  1.0  -0.1897
  C  C932  1  0.658240  0.540840  0.810320  1.0  0.6978
  C  C933  1  0.773540  0.409540  0.606120  1.0  0.1056
  C  C934  1  0.812840  0.406640  0.565120  1.0  -0.1435
  C  C935  1  0.819430  0.361930  0.571140  1.0  -0.0648
  C  C936  1  0.787530  0.315930  0.620740  1.0  -0.1175
  C  C937  1  0.748000  0.318900  0.662400  1.0  -0.046
  C  C938  1  0.740320  0.363620  0.654960  1.0  -0.137
  C  C939  1  0.019040  0.826640  0.129520  1.0  0.6848
  C  C940  1  0.820970  0.695970  0.164860  1.0  0.6481
  C  C941  1  0.785620  0.657500  0.174260  1.0  -0.1339
  C  C942  1  0.746720  0.667970  0.168220  1.0  -0.0085
  C  C943  1  0.711470  0.630620  0.182040  1.0  -0.129
  C  C944  1  0.715130  0.582810  0.201880  1.0  0.0502
  C  C945  1  0.754030  0.572340  0.207920  1.0  -0.0985
  C  C946  1  0.789280  0.609690  0.194100  1.0  -0.0056
  C  C947  1  0.672550  0.539630  0.226880  1.0  0.0276
  C  C948  1  0.648020  0.542800  0.202760  1.0  -0.0972
  C  C949  1  0.607380  0.502580  0.228440  1.0  0.0332
  C  C950  1  0.593730  0.460530  0.280140  1.0  -0.1239
  C  C951  1  0.617190  0.455810  0.306420  1.0  0.1233
  C  C952  1  0.656410  0.496020  0.278580  1.0  -0.1322
  C  C953  1  0.603270  0.411660  0.358280  1.0  0.1098
  C  C954  1  0.586660  0.365060  0.374480  1.0  -0.1488
  C  C955  1  0.575440  0.323840  0.423720  1.0  -0.0495
  C  C956  1  0.578190  0.327490  0.462820  1.0  -0.1307
  C  C957  1  0.594960  0.375260  0.447880  1.0  -0.0434
  C  C958  1  0.608680  0.417380  0.394640  1.0  -0.1791
  C  C959  1  0.579330  0.504530  0.203140  1.0  0.0976
  C  C960  1  0.564720  0.544120  0.181760  1.0  -0.1382
  C  C961  1  0.537540  0.544440  0.159320  1.0  -0.0428
  C  C962  1  0.524960  0.507010  0.156840  1.0  -0.1566
  C  C963  1  0.540590  0.466740  0.178480  1.0  -0.0705
  C  C964  1  0.565580  0.463980  0.202040  1.0  -0.1377
  C  C965  1  0.642210  0.629110  0.866580  1.0  0.7224
  C  C966  1  0.996190  0.696560  0.141020  1.0  0.6418
  C  C967  1  0.021600  0.656450  0.147260  1.0  -0.1209
  C  C968  1  0.997610  0.610980  0.196600  1.0  -0.1721
  C  C969  1  0.021750  0.575230  0.198540  1.0  -0.1324
  C  C970  1  0.067610  0.582760  0.153080  1.0  0.0761
  C  C971  1  0.090430  0.629330  0.106140  1.0  -0.1203
  C  C972  1  0.069560  0.666260  0.101080  1.0  -0.0779
  C  C973  1  0.084610  0.539210  0.157980  1.0  0.0638
  C  C974  1  0.051900  0.493400  0.185400  1.0  -0.1939
  C  C975  1  0.067570  0.454770  0.186060  1.0  0.0351
  C  C976  1  0.117530  0.457930  0.161540  1.0  -0.1154
  C  C977  1  0.151250  0.503250  0.133100  1.0  0.019
  C  C978  1  0.134510  0.543700  0.133000  1.0  -0.0872
  C  C979  1  0.207250  0.511010  0.101780  1.0  0.0189
  C  C980  1  0.228390  0.485020  0.129960  1.0  -0.1974
  C  C981  1  0.278220  0.490620  0.095560  1.0  -0.0282
  C  C982  1  0.309890  0.521600  0.038000  1.0  -0.0463
  C  C983  1  0.286990  0.549040  0.013320  1.0  -0.0661
  C  C984  1  0.235970  0.542770  0.043660  1.0  -0.1154
  C  C985  1  0.632260  0.468760  0.006680  1.0  0.6694
  C  C986  1  0.028750  0.408350  0.213900  1.0  0.0905
  C  C987  1  0.986110  0.408810  0.215780  1.0  -0.1287
  C  C988  1  0.948650  0.364050  0.242300  1.0  -0.0806
  C  C989  1  0.955020  0.318420  0.269960  1.0  -0.0976
  C  C990  1  0.994510  0.314910  0.273780  1.0  -0.0826
  C  C991  1  0.032450  0.361650  0.244700  1.0  -0.1087
  C  C992  1  0.831900  0.818800  0.206000  1.0  0.7265
  C  C993  1  0.565760  0.283460  0.516080  1.0  0.7196
  C  C994  1  0.840510  0.000210  0.303180  1.0  0.6404
  C  C995  1  0.803200  0.977000  0.365740  1.0  -0.1653
  C  C996  1  0.806790  0.998720  0.390020  1.0  -0.1054
  C  C997  1  0.772530  0.980100  0.444140  1.0  -0.1147
  C  C998  1  0.729860  0.939790  0.477480  1.0  0.0951
  C  C999  1  0.726450  0.916150  0.451700  1.0  -0.1678
  C  C1000  1  0.761980  0.935380  0.397840  1.0  -0.0217
  C  C1001  1  0.687410  0.923230  0.535340  1.0  0.0306
  C  C1002  1  0.672680  0.960380  0.543040  1.0  -0.2172
  C  C1003  1  0.635680  0.947210  0.596240  1.0  0.0517
  C  C1004  1  0.612570  0.895670  0.640660  1.0  -0.1035
  C  C1005  1  0.627450  0.858450  0.633700  1.0  0.015
  C  C1006  1  0.666380  0.873800  0.579440  1.0  -0.1151
  C  C1007  1  0.600840  0.804540  0.681320  1.0  0.0616
  C  C1008  1  0.550420  0.786120  0.716760  1.0  -0.1498
  C  C1009  1  0.528510  0.736610  0.757980  1.0  -0.0384
  C  C1010  1  0.556800  0.703600  0.765400  1.0  -0.1356
  C  C1011  1  0.606680  0.724080  0.730640  1.0  -0.0186
  C  C1012  1  0.629910  0.773710  0.690380  1.0  -0.1908
  C  C1013  1  0.531440  0.648840  0.810320  1.0  0.692
  C  C1014  1  0.620340  0.984340  0.606120  1.0  0.108
  C  C1015  1  0.622040  0.028240  0.565120  1.0  -0.1429
  C  C1016  1  0.609430  0.066930  0.571140  1.0  -0.0659
  C  C1017  1  0.591730  0.063330  0.620740  1.0  -0.117
  C  C1018  1  0.589600  0.018700  0.662400  1.0  -0.0461
  C  C1019  1  0.604720  0.981420  0.654960  1.0  -0.1389
  C  C1020  1  0.851440  0.043840  0.129520  1.0  0.6856
  C  C1021  1  0.014170  0.139170  0.164860  1.0  0.6489
  C  C1022  1  0.040120  0.168240  0.174260  1.0  -0.1325
  C  C1023  1  0.085060  0.163810  0.168220  1.0  -0.0016
  C  C1024  1  0.106490  0.187340  0.182040  1.0  -0.1124
  C  C1025  1  0.082990  0.215310  0.201880  1.0  0.048
  C  C1026  1  0.038050  0.219740  0.207920  1.0  -0.0985
  C  C1027  1  0.016620  0.196210  0.194100  1.0  -0.0048
  C  C1028  1  0.100570  0.233490  0.226880  1.0  0.0271
  C  C1029  1  0.149220  0.254440  0.202760  1.0  -0.0967
  C  C1030  1  0.164180  0.268980  0.228440  1.0  0.035
  C  C1031  1  0.126130  0.259330  0.280140  1.0  -0.127
  C  C1032  1  0.076390  0.237770  0.306420  1.0  0.1211
  C  C1033  1  0.065010  0.225400  0.278580  1.0  -0.1331
  C  C1034  1  0.038450  0.230060  0.358280  1.0  0.1116
  C  C1035  1  0.038860  0.260460  0.374480  1.0  -0.1521
  C  C1036  1  0.000840  0.252440  0.423720  1.0  -0.0518
  C  C1037  1  0.958990  0.209690  0.462820  1.0  -0.1392
  C  C1038  1  0.957160  0.176860  0.447880  1.0  -0.0447
  C  C1039  1  0.996680  0.187980  0.394640  1.0  -0.1794
  C  C1040  1  0.217530  0.292330  0.203140  1.0  0.097
  C  C1041  1  0.253520  0.274120  0.181760  1.0  -0.1358
  C  C1042  1  0.303140  0.296240  0.159320  1.0  -0.0421
  C  C1043  1  0.318200  0.336150  0.156840  1.0  -0.1534
  C  C1044  1  0.280930  0.354780  0.178480  1.0  -0.072
  C  C1045  1  0.232380  0.333980  0.202040  1.0  -0.1377
  C  C1046  1  0.491210  0.504310  0.866580  1.0  0.7209
  C  C1047  1  0.862790  0.162420  0.141020  1.0  0.6419
  C  C1048  1  0.831140  0.196290  0.147260  1.0  -0.1254
  C  C1049  1  0.805790  0.192420  0.196600  1.0  -0.1702
  C  C1050  1  0.779710  0.226230  0.198540  1.0  -0.1323
  C  C1051  1  0.779310  0.264160  0.153080  1.0  0.0753
  C  C1052  1  0.803430  0.264530  0.106140  1.0  -0.1237
  C  C1053  1  0.829360  0.232660  0.101080  1.0  -0.0721
  C  C1054  1  0.757410  0.302810  0.157980  1.0  0.0623
  C  C1055  1  0.762700  0.321200  0.185400  1.0  -0.1908
  C  C1056  1  0.746370  0.359170  0.186060  1.0  0.0386
  C  C1057  1  0.720930  0.380530  0.161540  1.0  -0.1169
  C  C1058  1  0.715650  0.363650  0.133100  1.0  0.0219
  C  C1059  1  0.732490  0.323300  0.133000  1.0  -0.0784
  C  C1060  1  0.690970  0.387210  0.101780  1.0  0.0186
  C  C1061  1  0.641650  0.385020  0.129960  1.0  -0.1957
  C  C1062  1  0.626220  0.413820  0.095560  1.0  -0.0294
  C  C1063  1  0.652110  0.440400  0.038000  1.0  -0.0519
  C  C1064  1  0.699690  0.437640  0.013320  1.0  -0.0585
  C  C1065  1  0.720370  0.413570  0.043660  1.0  -0.111
  C  C1066  1  0.361060  0.524560  0.006680  1.0  0.6662
  C  C1067  1  0.757350  0.377750  0.213900  1.0  0.0909
  C  C1068  1  0.798110  0.375410  0.215780  1.0  -0.1263
  C  C1069  1  0.809050  0.393650  0.242300  1.0  -0.0814
  C  C1070  1  0.775020  0.411620  0.269960  1.0  -0.0998
  C  C1071  1  0.731710  0.411310  0.273780  1.0  -0.0796
  C  C1072  1  0.722850  0.393650  0.244700  1.0  -0.1117
  C  C1073  1  0.962100  0.975200  0.206000  1.0  0.7289
  C  C1074  1  0.918160  0.200460  0.516080  1.0  0.7185
  O  O1075  1  0.024180  0.168410  0.715560  1.0  -0.578
  O  O1076  1  0.960310  0.129300  0.725320  1.0  -0.6195
  O  O1077  1  0.377450  0.440570  0.191040  1.0  -0.6209
  O  O1078  1  0.366780  0.515230  0.154240  1.0  -0.5975
  O  O1079  1  0.920800  0.108520  0.912960  1.0  -0.6046
  O  O1080  1  0.984510  0.158670  0.821820  1.0  -0.595
  O  O1081  1  0.884430  0.962770  0.854280  1.0  -0.5902
  O  O1082  1  0.860750  0.028790  0.823720  1.0  -0.6105
  O  O1083  1  0.480210  0.543870  0.117660  1.0  -0.5811
  O  O1084  1  0.486220  0.469590  0.133980  1.0  -0.627
  O  O1085  1  0.831740  0.114710  0.905420  1.0  -0.5828
  O  O1086  1  0.885170  0.201520  0.680920  1.0  -0.6058
  O  O1087  1  0.443270  0.613990  0.046720  1.0  -0.6006
  O  O1088  1  0.506860  0.624910  0.968560  1.0  -0.4835
  O  O1089  1  0.984680  0.004590  0.820620  1.0  -0.5957
  O  O1090  1  0.028210  0.074330  0.797440  1.0  -0.6174
  O  O1091  1  0.919290  0.066970  0.847360  1.0  -0.9646
  O  O1092  1  0.494340  0.435130  0.064640  1.0  -0.9242
  O  O1093  1  0.829230  0.007050  0.975620  1.0  -0.5844
  O  O1094  1  0.868180  0.959170  0.951000  1.0  -0.6385
  O  O1095  1  0.260260  0.116030  0.715560  1.0  -0.5778
  O  O1096  1  0.314370  0.145380  0.725320  1.0  -0.6178
  O  O1097  1  0.431510  0.368390  0.191040  1.0  -0.6207
  O  O1098  1  0.478980  0.330530  0.154240  1.0  -0.5937
  O  O1099  1  0.166240  0.978520  0.912960  1.0  -0.6052
  O  O1100  1  0.193670  0.019510  0.821820  1.0  -0.5973
  O  O1101  1  0.261290  0.182950  0.854280  1.0  -0.5897
  O  O1102  1  0.315530  0.147490  0.823720  1.0  -0.6105
  O  O1103  1  0.402130  0.338470  0.117660  1.0  -0.5786
  O  O1104  1  0.379800  0.396430  0.133980  1.0  -0.6281
  O  O1105  1  0.262840  0.979870  0.905420  1.0  -0.5833
  O  O1106  1  0.433910  0.117560  0.680920  1.0  -0.6064
  O  O1107  1  0.510010  0.339290  0.046720  1.0  -0.6012
  O  O1108  1  0.524580  0.406530  0.968560  1.0  -0.4816
  O  O1109  1  0.194700  0.174790  0.820620  1.0  -0.5963
  O  O1110  1  0.174350  0.128230  0.797440  1.0  -0.6156
  O  O1111  1  0.233350  0.085670  0.847360  1.0  -0.9623
  O  O1112  1  0.441020  0.500230  0.064640  1.0  -0.9248
  O  O1113  1  0.195150  0.017330  0.975620  1.0  -0.5866
  O  O1114  1  0.180820  0.089830  0.951000  1.0  -0.6413
  O  O1115  1  0.918410  0.510260  0.215560  1.0  -0.5779
  O  O1116  1  0.879300  0.564370  0.225320  1.0  -0.6164
  O  O1117  1  0.190570  0.681510  0.691040  1.0  -0.6174
  O  O1118  1  0.265230  0.728980  0.654240  1.0  -0.5912
  O  O1119  1  0.858520  0.416240  0.412960  1.0  -0.6061
  O  O1120  1  0.908670  0.443670  0.321820  1.0  -0.596
  O  O1121  1  0.712770  0.511290  0.354280  1.0  -0.5909
  O  O1122  1  0.778790  0.565530  0.323720  1.0  -0.6101
  O  O1123  1  0.293870  0.652130  0.617660  1.0  -0.5791
  O  O1124  1  0.219590  0.629800  0.633980  1.0  -0.6263
  O  O1125  1  0.864710  0.512840  0.405420  1.0  -0.5838
  O  O1126  1  0.951520  0.683910  0.180920  1.0  -0.6037
  O  O1127  1  0.363990  0.760010  0.546720  1.0  -0.5985
  O  O1128  1  0.374910  0.774580  0.468560  1.0  -0.481
  O  O1129  1  0.754590  0.444700  0.320620  1.0  -0.5954
  O  O1130  1  0.824330  0.424350  0.297440  1.0  -0.6146
  O  O1131  1  0.816970  0.483350  0.347360  1.0  -0.9619
  O  O1132  1  0.185130  0.691020  0.564640  1.0  -0.9247
  O  O1133  1  0.757050  0.445150  0.475620  1.0  -0.5861
  O  O1134  1  0.709170  0.430820  0.451000  1.0  -0.6379
  O  O1135  1  0.866030  0.274180  0.215560  1.0  -0.5787
  O  O1136  1  0.895380  0.210310  0.225320  1.0  -0.6155
  O  O1137  1  0.118390  0.627450  0.691040  1.0  -0.6232
  O  O1138  1  0.080530  0.616780  0.654240  1.0  -0.5907
  O  O1139  1  0.728520  0.170800  0.412960  1.0  -0.6035
  O  O1140  1  0.769510  0.234510  0.321820  1.0  -0.5932
  O  O1141  1  0.932950  0.134430  0.354280  1.0  -0.5923
  O  O1142  1  0.897490  0.110750  0.323720  1.0  -0.6094
  O  O1143  1  0.088470  0.730210  0.617660  1.0  -0.5778
  O  O1144  1  0.146430  0.736220  0.633980  1.0  -0.6272
  O  O1145  1  0.729870  0.081740  0.405420  1.0  -0.5825
  O  O1146  1  0.867560  0.135170  0.180920  1.0  -0.6054
  O  O1147  1  0.089290  0.693270  0.546720  1.0  -0.5979
  O  O1148  1  0.156530  0.756860  0.468560  1.0  -0.482
  O  O1149  1  0.924790  0.234680  0.320620  1.0  -0.5977
  O  O1150  1  0.878230  0.278210  0.297440  1.0  -0.6139
  O  O1151  1  0.835670  0.169290  0.347360  1.0  -0.964
  O  O1152  1  0.250230  0.744340  0.564640  1.0  -0.9226
  O  O1153  1  0.767330  0.079230  0.475620  1.0  -0.5834
  O  O1154  1  0.839830  0.118180  0.451000  1.0  -0.639
  O  O1155  1  0.489740  0.081590  0.784440  1.0  -0.577
  O  O1156  1  0.435630  0.120700  0.774680  1.0  -0.617
  O  O1157  1  0.318490  0.809430  0.308960  1.0  -0.62
  O  O1158  1  0.271020  0.734770  0.345760  1.0  -0.596
  O  O1159  1  0.583760  0.141480  0.587040  1.0  -0.6044
  O  O1160  1  0.556330  0.091330  0.678180  1.0  -0.5968
  O  O1161  1  0.488710  0.287230  0.645720  1.0  -0.5908
  O  O1162  1  0.434470  0.221210  0.676280  1.0  -0.6089
  O  O1163  1  0.347870  0.706130  0.382340  1.0  -0.5798
  O  O1164  1  0.370200  0.780410  0.366020  1.0  -0.6284
  O  O1165  1  0.487160  0.135290  0.594580  1.0  -0.58
  O  O1166  1  0.316090  0.048480  0.819080  1.0  -0.6054
  O  O1167  1  0.239990  0.636010  0.453280  1.0  -0.5988
  O  O1168  1  0.225420  0.625090  0.531440  1.0  -0.4826
  O  O1169  1  0.555300  0.245410  0.679380  1.0  -0.5961
  O  O1170  1  0.575650  0.175670  0.702560  1.0  -0.6168
  O  O1171  1  0.516650  0.183030  0.652640  1.0  -0.9638
  O  O1172  1  0.308980  0.814870  0.435360  1.0  -0.9206
  O  O1173  1  0.554850  0.242950  0.524380  1.0  -0.5855
  O  O1174  1  0.569180  0.290830  0.549000  1.0  -0.6388
  O  O1175  1  0.725820  0.133970  0.784440  1.0  -0.5759
  O  O1176  1  0.789690  0.104620  0.774680  1.0  -0.6203
  O  O1177  1  0.372550  0.881610  0.308960  1.0  -0.6205
  O  O1178  1  0.383220  0.919470  0.345760  1.0  -0.5973
  O  O1179  1  0.829200  0.271480  0.587040  1.0  -0.6026
  O  O1180  1  0.765490  0.230490  0.678180  1.0  -0.5954
  O  O1181  1  0.865570  0.067050  0.645720  1.0  -0.5914
  O  O1182  1  0.889250  0.102510  0.676280  1.0  -0.6114
  O  O1183  1  0.269790  0.911530  0.382340  1.0  -0.5792
  O  O1184  1  0.263780  0.853570  0.366020  1.0  -0.6279
  O  O1185  1  0.918260  0.270130  0.594580  1.0  -0.5811
  O  O1186  1  0.864830  0.132440  0.819080  1.0  -0.6041
  O  O1187  1  0.306730  0.910710  0.453280  1.0  -0.6001
  O  O1188  1  0.243140  0.843470  0.531440  1.0  -0.4838
  O  O1189  1  0.765320  0.075210  0.679380  1.0  -0.5956
  O  O1190  1  0.721790  0.121770  0.702560  1.0  -0.6143
  O  O1191  1  0.830710  0.164330  0.652640  1.0  -0.964
  O  O1192  1  0.255660  0.749770  0.435360  1.0  -0.9223
  O  O1193  1  0.920770  0.232670  0.524380  1.0  -0.5852
  O  O1194  1  0.881820  0.160170  0.549000  1.0  -0.6385
  O  O1195  1  0.883970  0.739740  0.284440  1.0  -0.5797
  O  O1196  1  0.854620  0.685630  0.274680  1.0  -0.619
  O  O1197  1  0.631610  0.568490  0.808960  1.0  -0.6183
  O  O1198  1  0.669470  0.521020  0.845760  1.0  -0.59
  O  O1199  1  0.021480  0.833760  0.087040  1.0  -0.6051
  O  O1200  1  0.980490  0.806330  0.178180  1.0  -0.5971
  O  O1201  1  0.817050  0.738710  0.145720  1.0  -0.5908
  O  O1202  1  0.852510  0.684470  0.176280  1.0  -0.6097
  O  O1203  1  0.661530  0.597870  0.882340  1.0  -0.5773
  O  O1204  1  0.603570  0.620200  0.866020  1.0  -0.626
  O  O1205  1  0.020130  0.737160  0.094580  1.0  -0.5803
  O  O1206  1  0.882440  0.566090  0.319080  1.0  -0.6045
  O  O1207  1  0.660710  0.489990  0.953280  1.0  -0.5973
  O  O1208  1  0.593470  0.475420  0.031440  1.0  -0.4781
  O  O1209  1  0.825210  0.805300  0.179380  1.0  -0.5952
  O  O1210  1  0.871770  0.825650  0.202560  1.0  -0.614
  O  O1211  1  0.914330  0.766650  0.152640  1.0  -0.9554
  O  O1212  1  0.499770  0.558980  0.935360  1.0  -0.9253
  O  O1213  1  0.982670  0.804850  0.024380  1.0  -0.5854
  O  O1214  1  0.910170  0.819180  0.049000  1.0  -0.6419
  O  O1215  1  0.831590  0.975820  0.284440  1.0  -0.581
  O  O1216  1  0.870700  0.039690  0.274680  1.0  -0.6172
  O  O1217  1  0.559430  0.622550  0.808960  1.0  -0.622
  O  O1218  1  0.484770  0.633220  0.845760  1.0  -0.5911
  O  O1219  1  0.891480  0.079200  0.087040  1.0  -0.6045
  O  O1220  1  0.841330  0.015490  0.178180  1.0  -0.5976
  O  O1221  1  0.037230  0.115570  0.145720  1.0  -0.5889
  O  O1222  1  0.971210  0.139250  0.176280  1.0  -0.6113
  O  O1223  1  0.456130  0.519790  0.882340  1.0  -0.5797
  O  O1224  1  0.530410  0.513780  0.866020  1.0  -0.6281
  O  O1225  1  0.885290  0.168260  0.094580  1.0  -0.5806
  O  O1226  1  0.798480  0.114830  0.319080  1.0  -0.6049
  O  O1227  1  0.386010  0.556730  0.953280  1.0  -0.6024
  O  O1228  1  0.375090  0.493140  0.031440  1.0  -0.481
  O  O1229  1  0.995410  0.015320  0.179380  1.0  -0.5954
  O  O1230  1  0.925670  0.971790  0.202560  1.0  -0.616
  O  O1231  1  0.933030  0.080710  0.152640  1.0  -0.9645
  O  O1232  1  0.564870  0.505660  0.935360  1.0  -0.9245
  O  O1233  1  0.992950  0.170770  0.024380  1.0  -0.5843
  O  O1234  1  0.040830  0.131820  0.049000  1.0  -0.6398
