# generated using pymatgen
data_K2Zn19H192(C81O20)4
_symmetry_space_group_name_H-M   'P 1'
_cell_length_a   32.44100000
_cell_length_b   32.44100000
_cell_length_c   33.13240000
_cell_angle_alpha   60.68790000
_cell_angle_beta   60.68790000
_cell_angle_gamma   90.00000000
_symmetry_Int_Tables_number   1
_chemical_formula_structural   K2Zn19H192(C81O20)4
_chemical_formula_sum   'K4 Zn38 H384 C648 O160'
_cell_volume   25160.18967749
_cell_formula_units_Z   2
loop_
 _symmetry_equiv_pos_site_id
 _symmetry_equiv_pos_as_xyz
  1  'x, y, z'
loop_
 _atom_site_type_symbol
 _atom_site_label
 _atom_site_symmetry_multiplicity
 _atom_site_fract_x
 _atom_site_fract_y
 _atom_site_fract_z
 _atom_site_occupancy
 _atom_site_charge
  K  K1  1  0.875000  0.633620  0.750000  1.0  0.9022
  K  K2  1  0.375000  0.616380  0.750000  1.0  0.902
  K  K3  1  0.383620  0.625000  0.250000  1.0  0.9008
  K  K4  1  0.366380  0.125000  0.250000  1.0  0.9021
  Zn  Zn5  1  0.030310  0.631960  0.704920  1.0  1.0101
  Zn  Zn6  1  0.035600  0.751360  0.630300  1.0  1.0678
  Zn  Zn7  1  0.035560  0.676520  0.588860  1.0  1.0511
  Zn  Zn8  1  0.777840  0.205510  0.410140  1.0  0.9863
  Zn  Zn9  1  0.264770  0.663120  0.704920  1.0  1.0093
  Zn  Zn10  1  0.334100  0.618340  0.630300  1.0  1.0711
  Zn  Zn11  1  0.375580  0.734620  0.588860  1.0  1.0546
  Zn  Zn12  1  0.812020  0.384350  0.410140  1.0  0.9911
  Zn  Zn13  1  0.381960  0.514770  0.204920  1.0  1.0123
  Zn  Zn14  1  0.501360  0.584100  0.130300  1.0  1.07
  Zn  Zn15  1  0.426520  0.625580  0.088860  1.0  1.0566
  Zn  Zn16  1  0.955510  0.062020  0.910140  1.0  0.9876
  Zn  Zn17  1  0.413120  0.280310  0.204920  1.0  1.0089
  Zn  Zn18  1  0.368340  0.285600  0.130300  1.0  1.0707
  Zn  Zn19  1  0.484620  0.285560  0.088860  1.0  1.0544
  Zn  Zn20  1  0.134350  0.027840  0.910140  1.0  0.9895
  Zn  Zn21  1  0.485230  0.618040  0.795080  1.0  1.0123
  Zn  Zn22  1  0.415900  0.498640  0.869700  1.0  1.0709
  Zn  Zn23  1  0.374420  0.573480  0.911140  1.0  1.0555
  Zn  Zn24  1  0.937980  0.044490  0.089860  1.0  0.9877
  Zn  Zn25  1  0.719690  0.586880  0.795080  1.0  1.0094
  Zn  Zn26  1  0.714400  0.631660  0.869700  1.0  1.069
  Zn  Zn27  1  0.714440  0.515380  0.911140  1.0  1.0515
  Zn  Zn28  1  0.972160  0.865650  0.089860  1.0  0.9904
  Zn  Zn29  1  0.336880  0.735230  0.295080  1.0  1.013
  Zn  Zn30  1  0.381660  0.665900  0.369700  1.0  1.0697
  Zn  Zn31  1  0.265380  0.624420  0.411140  1.0  1.0546
  Zn  Zn32  1  0.615650  0.187980  0.589860  1.0  0.9883
  Zn  Zn33  1  0.368040  0.969690  0.295080  1.0  1.011
  Zn  Zn34  1  0.248640  0.964400  0.369700  1.0  1.0708
  Zn  Zn35  1  0.323480  0.964440  0.411140  1.0  1.0553
  Zn  Zn36  1  0.794490  0.222160  0.589860  1.0  0.9877
  Zn  Zn37  1  0.815460  0.315460  0.369080  1.0  1.0912
  Zn  Zn38  1  0.065460  0.065460  0.869080  1.0  1.0912
  Zn  Zn39  1  0.934540  0.934540  0.130920  1.0  1.0984
  Zn  Zn40  1  0.684540  0.184540  0.630920  1.0  1.0984
  Zn  Zn41  1  0.750000  0.250000  0.500000  1.0  0.9055
  Zn  Zn42  1  0.000000  0.000000  0.000000  1.0  0.9056
  H  H43  1  0.747200  0.156100  0.505800  1.0  0.3827
  H  H44  1  0.985800  0.673200  0.669800  1.0  0.413
  H  H45  1  0.729400  0.253800  0.435400  1.0  0.3782
  H  H46  1  0.954000  0.506800  0.883000  1.0  0.1167
  H  H47  1  0.888900  0.446300  0.974400  1.0  0.1034
  H  H48  1  0.798200  0.525900  0.956400  1.0  0.1128
  H  H49  1  0.860200  0.583000  0.867000  1.0  0.0706
  H  H50  1  0.828200  0.427600  0.073600  1.0  0.1233
  H  H51  1  0.686500  0.336300  0.175800  1.0  0.1243
  H  H52  1  0.743500  0.438600  0.015400  1.0  0.103
  H  H53  1  0.808500  0.413500  0.158600  1.0  0.109
  H  H54  1  0.821400  0.377100  0.227800  1.0  0.1263
  H  H55  1  0.737900  0.245500  0.286600  1.0  0.0954
  H  H56  1  0.729200  0.279900  0.215000  1.0  0.1316
  H  H57  1  0.616300  0.350400  0.184400  1.0  0.1088
  H  H58  1  0.540000  0.325900  0.197400  1.0  0.0787
  H  H59  1  0.614400  0.360600  0.041600  1.0  0.105
  H  H60  1  0.687900  0.384400  0.030000  1.0  0.108
  H  H61  1  0.951100  0.854300  0.652400  1.0  0.1262
  H  H62  1  0.888400  0.887300  0.675600  1.0  0.1006
  H  H63  1  0.792700  0.770900  0.725000  1.0  0.1084
  H  H64  1  0.855500  0.739900  0.694600  1.0  0.1063
  H  H65  1  0.821200  0.923000  0.671000  1.0  0.1015
  H  H66  1  0.680800  0.885600  0.796400  1.0  0.1085
  H  H67  1  0.746300  0.782000  0.793600  1.0  0.1002
  H  H68  1  0.822400  0.996500  0.678600  1.0  0.1039
  H  H69  1  0.824300  0.077700  0.638600  1.0  0.0973
  H  H70  1  0.685000  0.039400  0.686400  1.0  0.0877
  H  H71  1  0.681200  0.958200  0.724400  1.0  0.1134
  H  H72  1  0.608600  0.816600  0.853600  1.0  0.1055
  H  H73  1  0.540900  0.752100  0.933600  1.0  0.0921
  H  H74  1  0.627700  0.677000  0.971200  1.0  0.1243
  H  H75  1  0.697900  0.744200  0.886600  1.0  0.1041
  H  H76  1  0.798900  0.410000  0.936600  1.0  0.1172
  H  H77  1  0.861700  0.374500  0.927600  1.0  0.109
  H  H78  1  0.954500  0.492200  0.770200  1.0  0.1073
  H  H79  1  0.890100  0.526500  0.777000  1.0  0.0918
  H  H80  1  0.925300  0.340100  0.889600  1.0  0.1211
  H  H81  1  0.068400  0.372200  0.836400  1.0  0.1178
  H  H82  1  0.007400  0.480400  0.798800  1.0  0.0977
  H  H83  1  0.929000  0.274700  0.975200  1.0  0.1169
  H  H84  1  0.921500  0.191000  0.025400  1.0  0.1111
  H  H85  1  0.042300  0.211500  0.887600  1.0  0.0956
  H  H86  1  0.049800  0.295200  0.837400  1.0  0.1057
  H  H87  1  0.140900  0.438200  0.755400  1.0  0.1172
  H  H88  1  0.214300  0.500500  0.712000  1.0  0.0849
  H  H89  1  0.135300  0.581600  0.755800  1.0  0.118
  H  H90  1  0.061600  0.521800  0.797800  1.0  0.107
  H  H91  1  0.747000  0.338100  0.505800  1.0  0.3824
  H  H92  1  0.344400  0.657000  0.669800  1.0  0.4128
  H  H93  1  0.835200  0.310800  0.435400  1.0  0.3779
  H  H94  1  0.163000  0.610200  0.883000  1.0  0.1154
  H  H95  1  0.136700  0.579300  0.974400  1.0  0.1025
  H  H96  1  0.245400  0.517700  0.956400  1.0  0.1123
  H  H97  1  0.272800  0.550000  0.867000  1.0  0.07
  H  H98  1  0.098200  0.498800  0.073600  1.0  0.1229
  H  H99  1  0.137700  0.487900  0.175800  1.0  0.1253
  H  H100  1  0.241100  0.546000  0.015400  1.0  0.1023
  H  H101  1  0.032900  0.427900  0.158600  1.0  0.1105
  H  H102  1  0.950800  0.395100  0.227800  1.0  0.1256
  H  H103  1  0.975500  0.467900  0.286600  1.0  0.0944
  H  H104  1  0.055800  0.505100  0.215000  1.0  0.1324
  H  H105  1  0.199300  0.465200  0.184400  1.0  0.1078
  H  H106  1  0.262600  0.476700  0.197400  1.0  0.08
  H  H107  1  0.344000  0.597800  0.041600  1.0  0.1026
  H  H108  1  0.282100  0.585600  0.030000  1.0  0.1089
  H  H109  1  0.396500  0.493300  0.652400  1.0  0.1267
  H  H110  1  0.436000  0.437100  0.675600  1.0  0.102
  H  H111  1  0.482300  0.504100  0.725000  1.0  0.1073
  H  H112  1  0.449900  0.565500  0.694600  1.0  0.106
  H  H113  1  0.507800  0.406000  0.671000  1.0  0.1017
  H  H114  1  0.522800  0.318000  0.796400  1.0  0.1087
  H  H115  1  0.460100  0.424400  0.793600  1.0  0.0996
  H  H116  1  0.499000  0.324900  0.678600  1.0  0.1044
  H  H117  1  0.537100  0.283700  0.638600  1.0  0.0957
  H  H118  1  0.628600  0.274200  0.686400  1.0  0.0876
  H  H119  1  0.594400  0.317400  0.724400  1.0  0.114
  H  H120  1  0.537800  0.329800  0.853600  1.0  0.1055
  H  H121  1  0.525500  0.314300  0.933600  1.0  0.0901
  H  H122  1  0.401100  0.351800  0.971200  1.0  0.124
  H  H123  1  0.415500  0.369200  0.886600  1.0  0.1015
  H  H124  1  0.264500  0.653400  0.936600  1.0  0.1175
  H  H125  1  0.210700  0.697900  0.927600  1.0  0.1105
  H  H126  1  0.275300  0.737600  0.770200  1.0  0.1078
  H  H127  1  0.332900  0.696500  0.777000  1.0  0.0916
  H  H128  1  0.185100  0.770300  0.889600  1.0  0.1218
  H  H129  1  0.095200  0.791400  0.836400  1.0  0.118
  H  H130  1  0.193800  0.720800  0.798800  1.0  0.097
  H  H131  1  0.095800  0.750100  0.975200  1.0  0.1182
  H  H132  1  0.053100  0.783600  0.025400  1.0  0.1113
  H  H133  1  0.070100  0.900900  0.887600  1.0  0.0948
  H  H134  1  0.112800  0.867400  0.837400  1.0  0.1063
  H  H135  1  0.103700  0.806400  0.755400  1.0  0.1179
  H  H136  1  0.073700  0.787500  0.712000  1.0  0.0849
  H  H137  1  0.108900  0.662600  0.755800  1.0  0.1177
  H  H138  1  0.140600  0.680400  0.797800  1.0  0.1046
  H  H139  1  0.906100  0.997000  0.005800  1.0  0.3864
  H  H140  1  0.423200  0.594400  0.169800  1.0  0.4113
  H  H141  1  0.003800  0.085200  0.935400  1.0  0.3769
  H  H142  1  0.256800  0.413000  0.383000  1.0  0.1179
  H  H143  1  0.196300  0.386700  0.474400  1.0  0.1025
  H  H144  1  0.275900  0.495400  0.456400  1.0  0.1127
  H  H145  1  0.333000  0.522800  0.367000  1.0  0.0697
  H  H146  1  0.177600  0.348200  0.573600  1.0  0.1228
  H  H147  1  0.086300  0.387700  0.675800  1.0  0.125
  H  H148  1  0.188600  0.491100  0.515400  1.0  0.1025
  H  H149  1  0.163500  0.282900  0.658600  1.0  0.1106
  H  H150  1  0.127100  0.200800  0.727800  1.0  0.1261
  H  H151  1  0.995500  0.225500  0.786600  1.0  0.0952
  H  H152  1  0.029900  0.305800  0.715000  1.0  0.1345
  H  H153  1  0.100400  0.449300  0.684400  1.0  0.1081
  H  H154  1  0.075900  0.512600  0.697400  1.0  0.0802
  H  H155  1  0.110600  0.594000  0.541600  1.0  0.1025
  H  H156  1  0.134400  0.532100  0.530000  1.0  0.1097
  H  H157  1  0.604300  0.646500  0.152400  1.0  0.1245
  H  H158  1  0.637300  0.686000  0.175600  1.0  0.101
  H  H159  1  0.520900  0.732300  0.225000  1.0  0.1068
  H  H160  1  0.489900  0.699900  0.194600  1.0  0.1075
  H  H161  1  0.673000  0.757800  0.171000  1.0  0.1021
  H  H162  1  0.635600  0.772800  0.296400  1.0  0.1084
  H  H163  1  0.532000  0.710100  0.293600  1.0  0.0999
  H  H164  1  0.746500  0.749000  0.178600  1.0  0.1032
  H  H165  1  0.827700  0.787100  0.138600  1.0  0.0962
  H  H166  1  0.789400  0.878600  0.186400  1.0  0.0867
  H  H167  1  0.708200  0.844400  0.224400  1.0  0.1129
  H  H168  1  0.566600  0.787800  0.353600  1.0  0.1048
  H  H169  1  0.502100  0.775500  0.433600  1.0  0.0913
  H  H170  1  0.427000  0.651100  0.471200  1.0  0.1237
  H  H171  1  0.494200  0.665500  0.386600  1.0  0.1016
  H  H172  1  0.160000  0.514500  0.436600  1.0  0.1174
  H  H173  1  0.124500  0.460700  0.427600  1.0  0.1089
  H  H174  1  0.242200  0.525300  0.270200  1.0  0.1095
  H  H175  1  0.276500  0.582900  0.277000  1.0  0.0915
  H  H176  1  0.090100  0.435100  0.389600  1.0  0.1217
  H  H177  1  0.122200  0.345200  0.336400  1.0  0.1156
  H  H178  1  0.230400  0.443800  0.298800  1.0  0.0966
  H  H179  1  0.024700  0.345800  0.475200  1.0  0.1162
  H  H180  1  0.941000  0.303100  0.525400  1.0  0.1111
  H  H181  1  0.961500  0.320100  0.387600  1.0  0.0959
  H  H182  1  0.045200  0.362800  0.337400  1.0  0.1067
  H  H183  1  0.188200  0.353700  0.255400  1.0  0.1174
  H  H184  1  0.250500  0.323700  0.212000  1.0  0.0862
  H  H185  1  0.331600  0.358900  0.255800  1.0  0.1177
  H  H186  1  0.271800  0.390600  0.297800  1.0  0.1051
  H  H187  1  0.088100  0.997200  0.005800  1.0  0.3809
  H  H188  1  0.407000  0.235800  0.169800  1.0  0.4116
  H  H189  1  0.060800  0.979400  0.935400  1.0  0.375
  H  H190  1  0.360200  0.204000  0.383000  1.0  0.1152
  H  H191  1  0.329300  0.138900  0.474400  1.0  0.1029
  H  H192  1  0.267700  0.048200  0.456400  1.0  0.1115
  H  H193  1  0.300000  0.110200  0.367000  1.0  0.0707
  H  H194  1  0.248800  0.078200  0.573600  1.0  0.1234
  H  H195  1  0.237900  0.936500  0.675800  1.0  0.124
  H  H196  1  0.296000  0.993500  0.515400  1.0  0.1031
  H  H197  1  0.177900  0.058500  0.658600  1.0  0.1103
  H  H198  1  0.145100  0.071400  0.727800  1.0  0.1276
  H  H199  1  0.217900  0.987900  0.786600  1.0  0.0944
  H  H200  1  0.255100  0.979200  0.715000  1.0  0.1331
  H  H201  1  0.215200  0.866300  0.684400  1.0  0.1079
  H  H202  1  0.226700  0.790000  0.697400  1.0  0.0792
  H  H203  1  0.347800  0.864400  0.541600  1.0  0.1009
  H  H204  1  0.335600  0.937900  0.530000  1.0  0.1092
  H  H205  1  0.243300  0.201100  0.152400  1.0  0.1269
  H  H206  1  0.187100  0.138400  0.175600  1.0  0.1009
  H  H207  1  0.254100  0.042700  0.225000  1.0  0.1079
  H  H208  1  0.315500  0.105500  0.194600  1.0  0.1083
  H  H209  1  0.156000  0.071200  0.171000  1.0  0.1008
  H  H210  1  0.068000  0.930800  0.296400  1.0  0.1079
  H  H211  1  0.174400  0.996300  0.293600  1.0  0.1006
  H  H212  1  0.074900  0.072400  0.178600  1.0  0.1017
  H  H213  1  0.033700  0.074300  0.138600  1.0  0.0967
  H  H214  1  0.024200  0.935000  0.186400  1.0  0.0873
  H  H215  1  0.067400  0.931200  0.224400  1.0  0.1144
  H  H216  1  0.079800  0.858600  0.353600  1.0  0.1057
  H  H217  1  0.064300  0.790900  0.433600  1.0  0.0918
  H  H218  1  0.101800  0.877700  0.471200  1.0  0.1241
  H  H219  1  0.119200  0.947900  0.386600  1.0  0.102
  H  H220  1  0.403400  0.048900  0.436600  1.0  0.1157
  H  H221  1  0.447900  0.111700  0.427600  1.0  0.1088
  H  H222  1  0.487600  0.204500  0.270200  1.0  0.1068
  H  H223  1  0.446500  0.140100  0.277000  1.0  0.093
  H  H224  1  0.520300  0.175300  0.389600  1.0  0.1209
  H  H225  1  0.541400  0.318400  0.336400  1.0  0.1157
  H  H226  1  0.470800  0.257400  0.298800  1.0  0.0974
  H  H227  1  0.500100  0.179000  0.475200  1.0  0.1171
  H  H228  1  0.533600  0.171500  0.525400  1.0  0.1105
  H  H229  1  0.650900  0.292300  0.387600  1.0  0.0946
  H  H230  1  0.617400  0.299800  0.337400  1.0  0.1048
  H  H231  1  0.556400  0.390900  0.255400  1.0  0.1183
  H  H232  1  0.537500  0.464300  0.212000  1.0  0.0845
  H  H233  1  0.412600  0.385300  0.255800  1.0  0.1173
  H  H234  1  0.430400  0.311600  0.297800  1.0  0.1042
  H  H235  1  0.003000  0.093900  0.994200  1.0  0.3839
  H  H236  1  0.405600  0.576800  0.830200  1.0  0.4102
  H  H237  1  0.914800  0.996200  0.064600  1.0  0.3797
  H  H238  1  0.587000  0.743200  0.617000  1.0  0.1163
  H  H239  1  0.613300  0.803700  0.525600  1.0  0.1025
  H  H240  1  0.504600  0.724100  0.543600  1.0  0.1129
  H  H241  1  0.477200  0.667000  0.633000  1.0  0.069
  H  H242  1  0.651800  0.822400  0.426400  1.0  0.1238
  H  H243  1  0.612300  0.913700  0.324200  1.0  0.1239
  H  H244  1  0.508900  0.811400  0.484600  1.0  0.1019
  H  H245  1  0.717100  0.836500  0.341400  1.0  0.1099
  H  H246  1  0.799200  0.872900  0.272200  1.0  0.1267
  H  H247  1  0.774500  0.004500  0.213400  1.0  0.0945
  H  H248  1  0.694200  0.970100  0.285000  1.0  0.1332
  H  H249  1  0.550700  0.899600  0.315600  1.0  0.1086
  H  H250  1  0.487400  0.924100  0.302600  1.0  0.0798
  H  H251  1  0.406000  0.889400  0.458400  1.0  0.1028
  H  H252  1  0.467900  0.865600  0.470000  1.0  0.1089
  H  H253  1  0.353500  0.395700  0.847600  1.0  0.1245
  H  H254  1  0.314000  0.362700  0.824400  1.0  0.1007
  H  H255  1  0.267700  0.479100  0.775000  1.0  0.1068
  H  H256  1  0.300100  0.510100  0.805400  1.0  0.1072
  H  H257  1  0.242200  0.327000  0.829000  1.0  0.1016
  H  H258  1  0.227200  0.364400  0.703600  1.0  0.1086
  H  H259  1  0.289900  0.468000  0.706400  1.0  0.1006
  H  H260  1  0.251000  0.253500  0.821400  1.0  0.1041
  H  H261  1  0.212900  0.172300  0.861400  1.0  0.0967
  H  H262  1  0.121400  0.210600  0.813600  1.0  0.0855
  H  H263  1  0.155600  0.291800  0.775600  1.0  0.1138
  H  H264  1  0.212200  0.433400  0.646400  1.0  0.1047
  H  H265  1  0.224500  0.497900  0.566400  1.0  0.0908
  H  H266  1  0.348900  0.573000  0.528800  1.0  0.1234
  H  H267  1  0.334500  0.505800  0.613400  1.0  0.102
  H  H268  1  0.485500  0.840000  0.563400  1.0  0.118
  H  H269  1  0.539300  0.875500  0.572400  1.0  0.1101
  H  H270  1  0.474700  0.757800  0.729800  1.0  0.1086
  H  H271  1  0.417100  0.723500  0.723000  1.0  0.0925
  H  H272  1  0.564900  0.909900  0.610400  1.0  0.1216
  H  H273  1  0.654800  0.877800  0.663600  1.0  0.1148
  H  H274  1  0.556200  0.769600  0.701200  1.0  0.097
  H  H275  1  0.654200  0.975300  0.524800  1.0  0.1154
  H  H276  1  0.696900  0.059000  0.474600  1.0  0.1105
  H  H277  1  0.679900  0.038500  0.612400  1.0  0.0959
  H  H278  1  0.637200  0.954800  0.662600  1.0  0.1069
  H  H279  1  0.646300  0.811800  0.744600  1.0  0.1173
  H  H280  1  0.676300  0.749500  0.788000  1.0  0.0855
  H  H281  1  0.641100  0.668400  0.744200  1.0  0.1175
  H  H282  1  0.609400  0.728200  0.702200  1.0  0.106
  H  H283  1  0.002800  0.911900  0.994200  1.0  0.3832
  H  H284  1  0.764200  0.593000  0.830200  1.0  0.4113
  H  H285  1  0.020600  0.939200  0.064600  1.0  0.3773
  H  H286  1  0.796000  0.639800  0.617000  1.0  0.1155
  H  H287  1  0.861100  0.670700  0.525600  1.0  0.1024
  H  H288  1  0.951800  0.732300  0.543600  1.0  0.1096
  H  H289  1  0.889800  0.700000  0.633000  1.0  0.0674
  H  H290  1  0.921800  0.751200  0.426400  1.0  0.1257
  H  H291  1  0.063500  0.762100  0.324200  1.0  0.125
  H  H292  1  0.006500  0.704000  0.484600  1.0  0.1036
  H  H293  1  0.941500  0.822100  0.341400  1.0  0.1108
  H  H294  1  0.928600  0.854900  0.272200  1.0  0.1259
  H  H295  1  0.012100  0.782100  0.213400  1.0  0.0944
  H  H296  1  0.020800  0.744900  0.285000  1.0  0.1323
  H  H297  1  0.133700  0.784800  0.315600  1.0  0.1084
  H  H298  1  0.210000  0.773300  0.302600  1.0  0.0793
  H  H299  1  0.135600  0.652200  0.458400  1.0  0.1036
  H  H300  1  0.062100  0.664400  0.470000  1.0  0.1079
  H  H301  1  0.798900  0.756700  0.847600  1.0  0.128
  H  H302  1  0.861600  0.812900  0.824400  1.0  0.1018
  H  H303  1  0.957300  0.745900  0.775000  1.0  0.1088
  H  H304  1  0.894500  0.684500  0.805400  1.0  0.1074
  H  H305  1  0.928800  0.844000  0.829000  1.0  0.1021
  H  H306  1  0.069200  0.932000  0.703600  1.0  0.109
  H  H307  1  0.003700  0.825600  0.706400  1.0  0.1001
  H  H308  1  0.927600  0.925100  0.821400  1.0  0.1041
  H  H309  1  0.925700  0.966300  0.861400  1.0  0.0968
  H  H310  1  0.065000  0.975800  0.813600  1.0  0.0872
  H  H311  1  0.068800  0.932600  0.775600  1.0  0.1145
  H  H312  1  0.141400  0.920200  0.646400  1.0  0.1048
  H  H313  1  0.209100  0.935700  0.566400  1.0  0.0905
  H  H314  1  0.122300  0.898200  0.528800  1.0  0.125
  H  H315  1  0.052100  0.880800  0.613400  1.0  0.1026
  H  H316  1  0.951100  0.596600  0.563400  1.0  0.1183
  H  H317  1  0.888300  0.552100  0.572400  1.0  0.1098
  H  H318  1  0.795500  0.512400  0.729800  1.0  0.106
  H  H319  1  0.859900  0.553500  0.723000  1.0  0.0926
  H  H320  1  0.824700  0.479700  0.610400  1.0  0.1214
  H  H321  1  0.681600  0.458600  0.663600  1.0  0.1164
  H  H322  1  0.742600  0.529200  0.701200  1.0  0.0985
  H  H323  1  0.821000  0.499900  0.524800  1.0  0.1164
  H  H324  1  0.828500  0.466400  0.474600  1.0  0.1115
  H  H325  1  0.707700  0.349100  0.612400  1.0  0.0952
  H  H326  1  0.700200  0.382600  0.662600  1.0  0.1057
  H  H327  1  0.609100  0.443600  0.744600  1.0  0.1171
  H  H328  1  0.535700  0.462500  0.788000  1.0  0.085
  H  H329  1  0.614700  0.587400  0.744200  1.0  0.1184
  H  H330  1  0.688400  0.569600  0.702200  1.0  0.1042
  H  H331  1  0.661900  0.253000  0.494200  1.0  0.3806
  H  H332  1  0.343000  0.655600  0.330200  1.0  0.4102
  H  H333  1  0.689200  0.164800  0.564600  1.0  0.3747
  H  H334  1  0.389800  0.837000  0.117000  1.0  0.1178
  H  H335  1  0.420700  0.863300  0.025600  1.0  0.1034
  H  H336  1  0.482300  0.754600  0.043600  1.0  0.1125
  H  H337  1  0.450000  0.727200  0.133000  1.0  0.0709
  H  H338  1  0.501200  0.901800  0.926400  1.0  0.1232
  H  H339  1  0.512100  0.862300  0.824200  1.0  0.1246
  H  H340  1  0.454000  0.758900  0.984600  1.0  0.1034
  H  H341  1  0.572100  0.967100  0.841400  1.0  0.1101
  H  H342  1  0.604900  0.049200  0.772200  1.0  0.1268
  H  H343  1  0.532100  0.024500  0.713400  1.0  0.0945
  H  H344  1  0.494900  0.944200  0.785000  1.0  0.1336
  H  H345  1  0.534800  0.800700  0.815600  1.0  0.1083
  H  H346  1  0.523300  0.737400  0.802600  1.0  0.0795
  H  H347  1  0.402200  0.656000  0.958400  1.0  0.1033
  H  H348  1  0.414400  0.717900  0.970000  1.0  0.108
  H  H349  1  0.506700  0.603500  0.347600  1.0  0.1234
  H  H350  1  0.562900  0.564000  0.324400  1.0  0.1015
  H  H351  1  0.495900  0.517700  0.275000  1.0  0.1081
  H  H352  1  0.434500  0.550100  0.305400  1.0  0.107
  H  H353  1  0.594000  0.492200  0.329000  1.0  0.103
  H  H354  1  0.682000  0.477200  0.203600  1.0  0.1077
  H  H355  1  0.575600  0.539900  0.206400  1.0  0.1
  H  H356  1  0.675100  0.501000  0.321400  1.0  0.104
  H  H357  1  0.716300  0.462900  0.361400  1.0  0.0962
  H  H358  1  0.725800  0.371400  0.313600  1.0  0.0875
  H  H359  1  0.682600  0.405600  0.275600  1.0  0.1135
  H  H360  1  0.670200  0.462200  0.146400  1.0  0.1057
  H  H361  1  0.685700  0.474500  0.066400  1.0  0.0915
  H  H362  1  0.648200  0.598900  0.028800  1.0  0.1239
  H  H363  1  0.630800  0.584500  0.113400  1.0  0.1038
  H  H364  1  0.346600  0.735500  0.063400  1.0  0.1163
  H  H365  1  0.302100  0.789300  0.072400  1.0  0.1106
  H  H366  1  0.262400  0.724700  0.229800  1.0  0.1076
  H  H367  1  0.303500  0.667100  0.223000  1.0  0.0919
  H  H368  1  0.229700  0.814900  0.110400  1.0  0.1215
  H  H369  1  0.208600  0.904800  0.163600  1.0  0.1171
  H  H370  1  0.279200  0.806200  0.201200  1.0  0.0973
  H  H371  1  0.249900  0.904200  0.024800  1.0  0.117
  H  H372  1  0.216400  0.946900  0.974600  1.0  0.1112
  H  H373  1  0.099100  0.929900  0.112400  1.0  0.0957
  H  H374  1  0.132600  0.887200  0.162600  1.0  0.1061
  H  H375  1  0.193600  0.896300  0.244600  1.0  0.1192
  H  H376  1  0.212500  0.926300  0.288000  1.0  0.0842
  H  H377  1  0.337400  0.891100  0.244200  1.0  0.1174
  H  H378  1  0.319600  0.859400  0.202200  1.0  0.1037
  H  H379  1  0.843900  0.252800  0.494200  1.0  0.3816
  H  H380  1  0.326800  0.014200  0.330200  1.0  0.4104
  H  H381  1  0.746200  0.270600  0.564600  1.0  0.3752
  H  H382  1  0.493200  0.046000  0.117000  1.0  0.1183
  H  H383  1  0.553700  0.111100  0.025600  1.0  0.1039
  H  H384  1  0.474100  0.201800  0.043600  1.0  0.1128
  H  H385  1  0.417000  0.139800  0.133000  1.0  0.0711
  H  H386  1  0.572400  0.171800  0.926400  1.0  0.1237
  H  H387  1  0.663700  0.313500  0.824200  1.0  0.1249
  H  H388  1  0.561400  0.256500  0.984600  1.0  0.1035
  H  H389  1  0.586500  0.191500  0.841400  1.0  0.1105
  H  H390  1  0.622900  0.178600  0.772200  1.0  0.1264
  H  H391  1  0.754500  0.262100  0.713400  1.0  0.0954
  H  H392  1  0.720100  0.270800  0.785000  1.0  0.1331
  H  H393  1  0.649600  0.383700  0.815600  1.0  0.1093
  H  H394  1  0.674100  0.460000  0.802600  1.0  0.079
  H  H395  1  0.639400  0.385600  0.958400  1.0  0.1056
  H  H396  1  0.615600  0.312100  0.970000  1.0  0.1088
  H  H397  1  0.145700  0.048900  0.347600  1.0  0.1262
  H  H398  1  0.112700  0.111600  0.324400  1.0  0.1008
  H  H399  1  0.229100  0.207300  0.275000  1.0  0.1086
  H  H400  1  0.260100  0.144500  0.305400  1.0  0.1063
  H  H401  1  0.077000  0.178800  0.329000  1.0  0.1013
  H  H402  1  0.114400  0.319200  0.203600  1.0  0.1082
  H  H403  1  0.218000  0.253700  0.206400  1.0  0.1017
  H  H404  1  0.003500  0.177600  0.321400  1.0  0.1041
  H  H405  1  0.922300  0.175700  0.361400  1.0  0.0964
  H  H406  1  0.960600  0.315000  0.313600  1.0  0.0873
  H  H407  1  0.041800  0.318800  0.275600  1.0  0.1145
  H  H408  1  0.183400  0.391400  0.146400  1.0  0.1055
  H  H409  1  0.247900  0.459100  0.066400  1.0  0.0918
  H  H410  1  0.323000  0.372300  0.028800  1.0  0.1233
  H  H411  1  0.255800  0.302100  0.113400  1.0  0.1051
  H  H412  1  0.590000  0.201100  0.063400  1.0  0.1174
  H  H413  1  0.625500  0.138300  0.072400  1.0  0.1102
  H  H414  1  0.507800  0.045500  0.229800  1.0  0.1082
  H  H415  1  0.473500  0.109900  0.223000  1.0  0.0921
  H  H416  1  0.659900  0.074700  0.110400  1.0  0.1207
  H  H417  1  0.627800  0.931600  0.163600  1.0  0.1165
  H  H418  1  0.519600  0.992600  0.201200  1.0  0.0966
  H  H419  1  0.725300  0.071000  0.024800  1.0  0.1173
  H  H420  1  0.809000  0.078500  0.974600  1.0  0.1109
  H  H421  1  0.788500  0.957700  0.112400  1.0  0.0953
  H  H422  1  0.704800  0.950200  0.162600  1.0  0.1052
  H  H423  1  0.561800  0.859100  0.244600  1.0  0.1181
  H  H424  1  0.499500  0.785700  0.288000  1.0  0.0848
  H  H425  1  0.418400  0.864700  0.244200  1.0  0.1179
  H  H426  1  0.478200  0.938400  0.202200  1.0  0.1058
  C  C427  1  0.952690  0.586290  0.803820  1.0  0.6548
  C  C428  1  0.912910  0.551610  0.863980  1.0  -0.1338
  C  C429  1  0.922330  0.510130  0.897540  1.0  -0.0932
  C  C430  1  0.882980  0.474280  0.953040  1.0  -0.1268
  C  C431  1  0.836150  0.478750  0.977100  1.0  0.0439
  C  C432  1  0.829270  0.521270  0.942060  1.0  -0.1621
  C  C433  1  0.866600  0.555500  0.888400  1.0  -0.0302
  C  C434  1  0.793030  0.438130  0.034140  1.0  0.0656
  C  C435  1  0.798360  0.416460  0.079080  1.0  -0.0848
  C  C436  1  0.757950  0.377850  0.132500  1.0  0.0157
  C  C437  1  0.713160  0.362160  0.140680  1.0  -0.1924
  C  C438  1  0.708560  0.385360  0.096480  1.0  0.0329
  C  C439  1  0.747830  0.422920  0.044560  1.0  -0.1053
  C  C440  1  0.766470  0.350870  0.179260  1.0  0.0374
  C  C441  1  0.794760  0.379160  0.184480  1.0  -0.124
  C  C442  1  0.802390  0.357790  0.225620  1.0  -0.0328
  C  C443  1  0.781620  0.306620  0.264760  1.0  -0.1812
  C  C444  1  0.753120  0.279520  0.259560  1.0  -0.0254
  C  C445  1  0.746700  0.299800  0.218000  1.0  -0.1839
  C  C446  1  0.791550  0.281850  0.309700  1.0  0.7285
  C  C447  1  0.660220  0.369720  0.105560  1.0  0.0209
  C  C448  1  0.616090  0.352590  0.155420  1.0  -0.1309
  C  C449  1  0.569770  0.337970  0.163260  1.0  -0.0187
  C  C450  1  0.569410  0.341710  0.120180  1.0  -0.1597
  C  C451  1  0.613850  0.358550  0.070900  1.0  -0.0531
  C  C452  1  0.658200  0.372500  0.064200  1.0  -0.1225
  C  C453  1  0.075700  0.599800  0.629600  1.0  0.7073
  C  C454  1  0.950540  0.769740  0.660520  1.0  0.6695
  C  C455  1  0.909490  0.793190  0.672620  1.0  -0.149
  C  C456  1  0.919200  0.837500  0.666400  1.0  -0.0992
  C  C457  1  0.881420  0.856520  0.680960  1.0  -0.1061
  C  C458  1  0.833340  0.832840  0.703120  1.0  0.0968
  C  C459  1  0.825010  0.788510  0.708980  1.0  -0.1504
  C  C460  1  0.861940  0.769040  0.692520  1.0  -0.1215
  C  C461  1  0.790060  0.850880  0.727680  1.0  0.0322
  C  C462  1  0.792110  0.898910  0.704580  1.0  -0.0874
  C  C463  1  0.752330  0.913830  0.728940  1.0  0.0608
  C  C464  1  0.708570  0.876770  0.779660  1.0  -0.0835
  C  C465  1  0.706440  0.826160  0.805420  1.0  0.0741
  C  C466  1  0.747390  0.815190  0.777820  1.0  -0.1084
  C  C467  1  0.754520  0.967720  0.703160  1.0  0.0336
  C  C468  1  0.794560  0.004360  0.679480  1.0  -0.1279
  C  C469  1  0.795170  0.053270  0.656460  1.0  -0.0349
  C  C470  1  0.755500  0.067130  0.658600  1.0  -0.1439
  C  C471  1  0.712910  0.030510  0.684380  1.0  -0.0291
  C  C472  1  0.710510  0.982210  0.706780  1.0  -0.1482
  C  C473  1  0.879150  0.243750  0.365500  1.0  0.7144
  C  C474  1  0.660880  0.787350  0.859840  1.0  0.0635
  C  C475  1  0.613100  0.788500  0.876600  1.0  -0.1014
  C  C476  1  0.572570  0.750470  0.924860  1.0  -0.0488
  C  C477  1  0.577590  0.709790  0.960820  1.0  -0.1435
  C  C478  1  0.623970  0.705370  0.947460  1.0  -0.0523
  C  C479  1  0.666060  0.745760  0.896080  1.0  -0.1589
  C  C480  1  0.065910  0.781810  0.516380  1.0  0.6765
  C  C481  1  0.800430  0.497630  0.865140  1.0  0.6631
  C  C482  1  0.839700  0.473030  0.857680  1.0  -0.1291
  C  C483  1  0.830270  0.426570  0.903260  1.0  -0.0428
  C  C484  1  0.868160  0.405760  0.897880  1.0  -0.1277
  C  C485  1  0.916760  0.430960  0.848280  1.0  0.075
  C  C486  1  0.923390  0.475530  0.804020  1.0  -0.1139
  C  C487  1  0.884730  0.496800  0.807940  1.0  -0.1388
  C  C488  1  0.960120  0.413320  0.844760  1.0  0.0366
  C  C489  1  0.955640  0.363640  0.870520  1.0  -0.1179
  C  C490  1  0.996200  0.348500  0.868200  1.0  0.0294
  C  C491  1  0.040870  0.382370  0.839260  1.0  -0.1138
  C  C492  1  0.044670  0.433070  0.813660  1.0  0.0205
  C  C493  1  0.004340  0.446740  0.816720  1.0  -0.1017
  C  C494  1  0.990170  0.293290  0.901300  1.0  0.0728
  C  C495  1  0.951730  0.262090  0.957600  1.0  -0.1068
  C  C496  1  0.947230  0.211930  0.987660  1.0  -0.0491
  C  C497  1  0.981170  0.192970  0.961420  1.0  -0.1821
  C  C498  1  0.019600  0.224170  0.905140  1.0  -0.0144
  C  C499  1  0.024100  0.274330  0.875080  1.0  -0.14
  C  C500  1  0.721900  0.110200  0.506000  1.0  0.6627
  C  C501  1  0.092660  0.472360  0.784280  1.0  0.0282
  C  C502  1  0.138990  0.466290  0.756420  1.0  -0.1122
  C  C503  1  0.183310  0.504510  0.729580  1.0  -0.062
  C  C504  1  0.180710  0.546310  0.729580  1.0  -0.0813
  C  C505  1  0.136520  0.553220  0.755360  1.0  -0.0795
  C  C506  1  0.092030  0.516430  0.781740  1.0  -0.1101
  C  C507  1  0.070740  0.711540  0.703520  1.0  0.7152
  C  C508  1  0.243490  0.609890  0.803820  1.0  0.6559
  C  C509  1  0.223110  0.584410  0.863980  1.0  -0.1365
  C  C510  1  0.180130  0.592330  0.897540  1.0  -0.0935
  C  C511  1  0.163980  0.572680  0.953040  1.0  -0.126
  C  C512  1  0.186750  0.544150  0.977100  1.0  0.0402
  C  C513  1  0.228670  0.536670  0.942060  1.0  -0.1582
  C  C514  1  0.245000  0.556100  0.888400  1.0  -0.0332
  C  C515  1  0.172830  0.527730  0.034140  1.0  0.0655
  C  C516  1  0.122560  0.504460  0.079080  1.0  -0.0839
  C  C517  1  0.109550  0.489650  0.132500  1.0  0.0165
  C  C518  1  0.146160  0.497160  0.140680  1.0  -0.1904
  C  C519  1  0.194960  0.518160  0.096480  1.0  0.0317
  C  C520  1  0.207610  0.532520  0.044560  1.0  -0.1069
  C  C521  1  0.054270  0.469870  0.179260  1.0  0.0377
  C  C522  1  0.020760  0.436360  0.184480  1.0  -0.1239
  C  C523  1  0.971990  0.416590  0.225620  1.0  -0.035
  C  C524  1  0.953620  0.428620  0.264760  1.0  -0.1781
  C  C525  1  0.987320  0.460920  0.259560  1.0  -0.0322
  C  C526  1  0.035300  0.482200  0.218000  1.0  -0.1868
  C  C527  1  0.898750  0.408450  0.309700  1.0  0.7249
  C  C528  1  0.234220  0.524720  0.105560  1.0  0.0204
  C  C529  1  0.228490  0.491990  0.155420  1.0  -0.1318
  C  C530  1  0.266970  0.498770  0.163260  1.0  -0.0194
  C  C531  1  0.310410  0.538110  0.120180  1.0  -0.1651
  C  C532  1  0.315250  0.570550  0.070900  1.0  -0.0514
  C  C533  1  0.277600  0.563300  0.064200  1.0  -0.1237
  C  C534  1  0.294700  0.770600  0.629600  1.0  0.7065
  C  C535  1  0.388940  0.569740  0.660520  1.0  0.6706
  C  C536  1  0.417890  0.534190  0.672620  1.0  -0.1472
  C  C537  1  0.414400  0.496100  0.666400  1.0  -0.0936
  C  C538  1  0.437620  0.462520  0.680960  1.0  -0.107
  C  C539  1  0.463540  0.464040  0.703120  1.0  0.0945
  C  C540  1  0.466010  0.502510  0.708980  1.0  -0.1547
  C  C541  1  0.445540  0.538440  0.692520  1.0  -0.121
  C  C542  1  0.482260  0.421440  0.727680  1.0  0.0315
  C  C543  1  0.503310  0.396510  0.704580  1.0  -0.0848
  C  C544  1  0.518730  0.357230  0.728940  1.0  0.0625
  C  C545  1  0.511770  0.343570  0.779660  1.0  -0.0816
  C  C546  1  0.488140  0.368420  0.805420  1.0  0.0766
  C  C547  1  0.474790  0.406990  0.777820  1.0  -0.1083
  C  C548  1  0.542320  0.329120  0.703160  1.0  0.0345
  C  C549  1  0.525960  0.316160  0.679480  1.0  -0.1327
  C  C550  1  0.548370  0.290270  0.656460  1.0  -0.0341
  C  C551  1  0.585900  0.274270  0.658600  1.0  -0.1468
  C  C552  1  0.602710  0.285110  0.684380  1.0  -0.0296
  C  C553  1  0.582710  0.311010  0.706780  1.0  -0.1492
  C  C554  1  0.755350  0.390750  0.365500  1.0  0.7155
  C  C555  1  0.479280  0.352810  0.859840  1.0  0.0625
  C  C556  1  0.510300  0.334900  0.876600  1.0  -0.1059
  C  C557  1  0.502570  0.324670  0.924860  1.0  -0.0476
  C  C558  1  0.461590  0.329390  0.960820  1.0  -0.1437
  C  C559  1  0.428570  0.347170  0.947460  1.0  -0.0519
  C  C560  1  0.437860  0.358160  0.896080  1.0  -0.1629
  C  C561  1  0.417710  0.701810  0.516380  1.0  0.6739
  C  C562  1  0.334430  0.637230  0.865140  1.0  0.6649
  C  C563  1  0.302620  0.669290  0.857680  1.0  -0.1288
  C  C564  1  0.266470  0.670170  0.903260  1.0  -0.0389
  C  C565  1  0.233960  0.696360  0.897880  1.0  -0.1257
  C  C566  1  0.234960  0.720760  0.848280  1.0  0.0765
  C  C567  1  0.272590  0.720450  0.804020  1.0  -0.1179
  C  C568  1  0.307330  0.695260  0.807940  1.0  -0.1429
  C  C569  1  0.195120  0.741920  0.844760  1.0  0.0379
  C  C570  1  0.173840  0.765840  0.870520  1.0  -0.1135
  C  C571  1  0.135600  0.783300  0.868200  1.0  0.0283
  C  C572  1  0.119870  0.778370  0.839260  1.0  -0.1147
  C  C573  1  0.141670  0.753270  0.813660  1.0  0.0193
  C  C574  1  0.178940  0.736540  0.816720  1.0  -0.101
  C  C575  1  0.108530  0.805410  0.901300  1.0  0.0741
  C  C576  1  0.090670  0.780310  0.957600  1.0  -0.1058
  C  C577  1  0.065110  0.800410  0.987660  1.0  -0.052
  C  C578  1  0.057410  0.845610  0.961420  1.0  -0.1834
  C  C579  1  0.075260  0.870690  0.905140  1.0  -0.0164
  C  C580  1  0.100820  0.850590  0.875080  1.0  -0.1426
  C  C581  1  0.772100  0.383800  0.506000  1.0  0.6633
  C  C582  1  0.123060  0.743360  0.784280  1.0  0.0267
  C  C583  1  0.104590  0.777290  0.756420  1.0  -0.1167
  C  C584  1  0.087110  0.765910  0.729580  1.0  -0.0616
  C  C585  1  0.089710  0.724110  0.729580  1.0  -0.0821
  C  C586  1  0.108120  0.691420  0.755360  1.0  -0.0795
  C  C587  1  0.126230  0.701830  0.781740  1.0  -0.112
  C  C588  1  0.225740  0.584940  0.703520  1.0  0.7087
  C  C589  1  0.336290  0.493490  0.303820  1.0  0.6554
  C  C590  1  0.301610  0.473110  0.363980  1.0  -0.1393
  C  C591  1  0.260130  0.430130  0.397540  1.0  -0.0975
  C  C592  1  0.224280  0.413980  0.453040  1.0  -0.1274
  C  C593  1  0.228750  0.436750  0.477100  1.0  0.0419
  C  C594  1  0.271270  0.478670  0.442060  1.0  -0.1561
  C  C595  1  0.305500  0.495000  0.388400  1.0  -0.0302
  C  C596  1  0.188130  0.422830  0.534140  1.0  0.0668
  C  C597  1  0.166460  0.372560  0.579080  1.0  -0.0889
  C  C598  1  0.127850  0.359550  0.632500  1.0  0.0146
  C  C599  1  0.112160  0.396160  0.640680  1.0  -0.1925
  C  C600  1  0.135360  0.444960  0.596480  1.0  0.033
  C  C601  1  0.172920  0.457610  0.544560  1.0  -0.106
  C  C602  1  0.100870  0.304270  0.679260  1.0  0.0408
  C  C603  1  0.129160  0.270760  0.684480  1.0  -0.1235
  C  C604  1  0.107790  0.221990  0.725620  1.0  -0.0299
  C  C605  1  0.056620  0.203620  0.764760  1.0  -0.1767
  C  C606  1  0.029520  0.237320  0.759560  1.0  -0.0214
  C  C607  1  0.049800  0.285300  0.718000  1.0  -0.1782
  C  C608  1  0.031850  0.148750  0.809700  1.0  0.7265
  C  C609  1  0.119720  0.484220  0.605560  1.0  0.021
  C  C610  1  0.102590  0.478490  0.655420  1.0  -0.131
  C  C611  1  0.087970  0.516970  0.663260  1.0  -0.0211
  C  C612  1  0.091710  0.560410  0.620180  1.0  -0.1614
  C  C613  1  0.108550  0.565250  0.570900  1.0  -0.0533
  C  C614  1  0.122500  0.527600  0.564200  1.0  -0.1211
  C  C615  1  0.349800  0.544700  0.129600  1.0  0.7081
  C  C616  1  0.519740  0.638940  0.160520  1.0  0.6728
  C  C617  1  0.543190  0.667890  0.172620  1.0  -0.1467
  C  C618  1  0.587500  0.664400  0.166400  1.0  -0.0981
  C  C619  1  0.606520  0.687620  0.180960  1.0  -0.0987
  C  C620  1  0.582840  0.713540  0.203120  1.0  0.0957
  C  C621  1  0.538510  0.716010  0.208980  1.0  -0.1528
  C  C622  1  0.519040  0.695540  0.192520  1.0  -0.1235
  C  C623  1  0.600880  0.732260  0.227680  1.0  0.0316
  C  C624  1  0.648910  0.753310  0.204580  1.0  -0.0855
  C  C625  1  0.663830  0.768730  0.228940  1.0  0.0601
  C  C626  1  0.626770  0.761770  0.279660  1.0  -0.0804
  C  C627  1  0.576160  0.738140  0.305420  1.0  0.0737
  C  C628  1  0.565190  0.724790  0.277820  1.0  -0.1096
  C  C629  1  0.717720  0.792320  0.203160  1.0  0.0336
  C  C630  1  0.754360  0.775960  0.179480  1.0  -0.1313
  C  C631  1  0.803270  0.798370  0.156460  1.0  -0.0347
  C  C632  1  0.817130  0.835900  0.158600  1.0  -0.1474
  C  C633  1  0.780510  0.852710  0.184380  1.0  -0.0285
  C  C634  1  0.732210  0.832710  0.206780  1.0  -0.1495
  C  C635  1  0.993750  0.005350  0.865500  1.0  0.7163
  C  C636  1  0.537350  0.729280  0.359840  1.0  0.0613
  C  C637  1  0.538500  0.760300  0.376600  1.0  -0.1079
  C  C638  1  0.500470  0.752570  0.424860  1.0  -0.0471
  C  C639  1  0.459790  0.711590  0.460820  1.0  -0.1471
  C  C640  1  0.455370  0.678570  0.447460  1.0  -0.0526
  C  C641  1  0.495760  0.687860  0.396080  1.0  -0.163
  C  C642  1  0.531810  0.667710  0.016380  1.0  0.6747
  C  C643  1  0.247630  0.584430  0.365140  1.0  0.667
  C  C644  1  0.223030  0.552620  0.357680  1.0  -0.1268
  C  C645  1  0.176570  0.516470  0.403260  1.0  -0.0422
  C  C646  1  0.155760  0.483960  0.397880  1.0  -0.1206
  C  C647  1  0.180960  0.484960  0.348280  1.0  0.0739
  C  C648  1  0.225530  0.522590  0.304020  1.0  -0.1157
  C  C649  1  0.246800  0.557330  0.307940  1.0  -0.141
  C  C650  1  0.163320  0.445120  0.344760  1.0  0.0355
  C  C651  1  0.113640  0.423840  0.370520  1.0  -0.1154
  C  C652  1  0.098500  0.385600  0.368200  1.0  0.0281
  C  C653  1  0.132370  0.369870  0.339260  1.0  -0.1135
  C  C654  1  0.183070  0.391670  0.313660  1.0  0.0223
  C  C655  1  0.196740  0.428940  0.316720  1.0  -0.1011
  C  C656  1  0.043290  0.358530  0.401300  1.0  0.0729
  C  C657  1  0.012090  0.340670  0.457600  1.0  -0.1042
  C  C658  1  0.961930  0.315110  0.487660  1.0  -0.0524
  C  C659  1  0.942970  0.307410  0.461420  1.0  -0.1781
  C  C660  1  0.974170  0.325260  0.405140  1.0  -0.0171
  C  C661  1  0.024330  0.350820  0.375080  1.0  -0.1448
  C  C662  1  0.860200  0.022100  0.006000  1.0  0.6616
  C  C663  1  0.222360  0.373060  0.284280  1.0  0.0296
  C  C664  1  0.216290  0.354590  0.256420  1.0  -0.1146
  C  C665  1  0.254510  0.337110  0.229580  1.0  -0.0617
  C  C666  1  0.296310  0.339710  0.229580  1.0  -0.082
  C  C667  1  0.303220  0.358120  0.255360  1.0  -0.0765
  C  C668  1  0.266430  0.376230  0.281740  1.0  -0.1119
  C  C669  1  0.461540  0.475740  0.203520  1.0  0.711
  C  C670  1  0.359890  0.202690  0.303820  1.0  0.6552
  C  C671  1  0.334410  0.162910  0.363980  1.0  -0.1362
  C  C672  1  0.342330  0.172330  0.397540  1.0  -0.096
  C  C673  1  0.322680  0.132980  0.453040  1.0  -0.1229
  C  C674  1  0.294150  0.086150  0.477100  1.0  0.0413
  C  C675  1  0.286670  0.079270  0.442060  1.0  -0.1572
  C  C676  1  0.306100  0.116600  0.388400  1.0  -0.033
  C  C677  1  0.277730  0.043030  0.534140  1.0  0.0659
  C  C678  1  0.254460  0.048360  0.579080  1.0  -0.0905
  C  C679  1  0.239650  0.007950  0.632500  1.0  0.0178
  C  C680  1  0.247160  0.963160  0.640680  1.0  -0.1889
  C  C681  1  0.268160  0.958560  0.596480  1.0  0.0316
  C  C682  1  0.282520  0.997830  0.544560  1.0  -0.1058
  C  C683  1  0.219870  0.016470  0.679260  1.0  0.0374
  C  C684  1  0.186360  0.044760  0.684480  1.0  -0.1246
  C  C685  1  0.166590  0.052390  0.725620  1.0  -0.0337
  C  C686  1  0.178620  0.031620  0.764760  1.0  -0.1814
  C  C687  1  0.210920  0.003120  0.759560  1.0  -0.0281
  C  C688  1  0.232200  0.996700  0.718000  1.0  -0.1825
  C  C689  1  0.158450  0.041550  0.809700  1.0  0.7298
  C  C690  1  0.274720  0.910220  0.605560  1.0  0.02
  C  C691  1  0.241990  0.866090  0.655420  1.0  -0.1298
  C  C692  1  0.248770  0.819770  0.663260  1.0  -0.0211
  C  C693  1  0.288110  0.819410  0.620180  1.0  -0.1626
  C  C694  1  0.320550  0.863850  0.570900  1.0  -0.0516
  C  C695  1  0.313300  0.908200  0.564200  1.0  -0.1192
  C  C696  1  0.520600  0.325700  0.129600  1.0  0.7053
  C  C697  1  0.319740  0.200540  0.160520  1.0  0.6724
  C  C698  1  0.284190  0.159490  0.172620  1.0  -0.1506
  C  C699  1  0.246100  0.169200  0.166400  1.0  -0.1049
  C  C700  1  0.212520  0.131420  0.180960  1.0  -0.105
  C  C701  1  0.214040  0.083340  0.203120  1.0  0.0961
  C  C702  1  0.252510  0.075010  0.208980  1.0  -0.1526
  C  C703  1  0.288440  0.111940  0.192520  1.0  -0.1231
  C  C704  1  0.171440  0.040060  0.227680  1.0  0.0322
  C  C705  1  0.146510  0.042110  0.204580  1.0  -0.0869
  C  C706  1  0.107230  0.002330  0.228940  1.0  0.0608
  C  C707  1  0.093570  0.958570  0.279660  1.0  -0.0783
  C  C708  1  0.118420  0.956440  0.305420  1.0  0.0747
  C  C709  1  0.156990  0.997390  0.277820  1.0  -0.1072
  C  C710  1  0.079120  0.004520  0.203160  1.0  0.0343
  C  C711  1  0.066160  0.044560  0.179480  1.0  -0.1333
  C  C712  1  0.040270  0.045170  0.156460  1.0  -0.0351
  C  C713  1  0.024270  0.005500  0.158600  1.0  -0.1479
  C  C714  1  0.035110  0.962910  0.184380  1.0  -0.0286
  C  C715  1  0.061010  0.960510  0.206780  1.0  -0.1513
  C  C716  1  0.140750  0.129150  0.865500  1.0  0.7174
  C  C717  1  0.102810  0.910880  0.359840  1.0  0.0624
  C  C718  1  0.084900  0.863100  0.376600  1.0  -0.1041
  C  C719  1  0.074670  0.822570  0.424860  1.0  -0.0474
  C  C720  1  0.079390  0.827590  0.460820  1.0  -0.1406
  C  C721  1  0.097170  0.873970  0.447460  1.0  -0.0539
  C  C722  1  0.108160  0.916060  0.396080  1.0  -0.1613
  C  C723  1  0.451810  0.315910  0.016380  1.0  0.6768
  C  C724  1  0.387230  0.050430  0.365140  1.0  0.6683
  C  C725  1  0.419290  0.089700  0.357680  1.0  -0.1268
  C  C726  1  0.420170  0.080270  0.403260  1.0  -0.0421
  C  C727  1  0.446360  0.118160  0.397880  1.0  -0.1208
  C  C728  1  0.470760  0.166760  0.348280  1.0  0.0733
  C  C729  1  0.470450  0.173390  0.304020  1.0  -0.1138
  C  C730  1  0.445260  0.134730  0.307940  1.0  -0.1378
  C  C731  1  0.491920  0.210120  0.344760  1.0  0.0357
  C  C732  1  0.515840  0.205640  0.370520  1.0  -0.1167
  C  C733  1  0.533300  0.246200  0.368200  1.0  0.0313
  C  C734  1  0.528370  0.290870  0.339260  1.0  -0.1134
  C  C735  1  0.503270  0.294670  0.313660  1.0  0.0208
  C  C736  1  0.486540  0.254340  0.316720  1.0  -0.1004
  C  C737  1  0.555410  0.240170  0.401300  1.0  0.0713
  C  C738  1  0.530310  0.201730  0.457600  1.0  -0.1029
  C  C739  1  0.550410  0.197230  0.487660  1.0  -0.0486
  C  C740  1  0.595610  0.231170  0.461420  1.0  -0.1867
  C  C741  1  0.620690  0.269600  0.405140  1.0  -0.0146
  C  C742  1  0.600590  0.274100  0.375080  1.0  -0.143
  C  C743  1  0.133800  0.971900  0.006000  1.0  0.6617
  C  C744  1  0.493360  0.342660  0.284280  1.0  0.026
  C  C745  1  0.527290  0.388990  0.256420  1.0  -0.1135
  C  C746  1  0.515910  0.433310  0.229580  1.0  -0.0646
  C  C747  1  0.474110  0.430710  0.229580  1.0  -0.0812
  C  C748  1  0.441420  0.386520  0.255360  1.0  -0.0759
  C  C749  1  0.451830  0.342030  0.281740  1.0  -0.1118
  C  C750  1  0.334940  0.320740  0.203520  1.0  0.7084
  C  C751  1  0.506510  0.663710  0.696180  1.0  0.6572
  C  C752  1  0.526890  0.698390  0.636020  1.0  -0.1383
  C  C753  1  0.569870  0.739870  0.602460  1.0  -0.0942
  C  C754  1  0.586020  0.775720  0.546960  1.0  -0.1273
  C  C755  1  0.563250  0.771250  0.522900  1.0  0.041
  C  C756  1  0.521330  0.728730  0.557940  1.0  -0.1556
  C  C757  1  0.505000  0.694500  0.611600  1.0  -0.0305
  C  C758  1  0.577170  0.811870  0.465860  1.0  0.0661
  C  C759  1  0.627440  0.833540  0.420920  1.0  -0.0846
  C  C760  1  0.640450  0.872150  0.367500  1.0  0.0152
  C  C761  1  0.603840  0.887840  0.359320  1.0  -0.1919
  C  C762  1  0.555040  0.864640  0.403520  1.0  0.034
  C  C763  1  0.542390  0.827080  0.455440  1.0  -0.1054
  C  C764  1  0.695730  0.899130  0.320740  1.0  0.0415
  C  C765  1  0.729240  0.870840  0.315520  1.0  -0.124
  C  C766  1  0.778010  0.892210  0.274380  1.0  -0.033
  C  C767  1  0.796380  0.943380  0.235240  1.0  -0.1761
  C  C768  1  0.762680  0.970480  0.240440  1.0  -0.0275
  C  C769  1  0.714700  0.950200  0.282000  1.0  -0.1831
  C  C770  1  0.851250  0.968150  0.190300  1.0  0.7244
  C  C771  1  0.515780  0.880280  0.394440  1.0  0.0232
  C  C772  1  0.521510  0.897410  0.344580  1.0  -0.1303
  C  C773  1  0.483030  0.912030  0.336740  1.0  -0.0206
  C  C774  1  0.439590  0.908290  0.379820  1.0  -0.1641
  C  C775  1  0.434750  0.891450  0.429100  1.0  -0.0527
  C  C776  1  0.472400  0.877500  0.435800  1.0  -0.1213
  C  C777  1  0.455300  0.650200  0.870400  1.0  0.7049
  C  C778  1  0.361060  0.480260  0.839480  1.0  0.6707
  C  C779  1  0.332110  0.456810  0.827380  1.0  -0.1454
  C  C780  1  0.335600  0.412500  0.833600  1.0  -0.1054
  C  C781  1  0.312380  0.393480  0.819040  1.0  -0.1119
  C  C782  1  0.286460  0.417160  0.796880  1.0  0.0964
  C  C783  1  0.283990  0.461490  0.791020  1.0  -0.1487
  C  C784  1  0.304460  0.480960  0.807480  1.0  -0.1224
  C  C785  1  0.267740  0.399120  0.772320  1.0  0.0302
  C  C786  1  0.246690  0.351090  0.795420  1.0  -0.0871
  C  C787  1  0.231270  0.336170  0.771060  1.0  0.0601
  C  C788  1  0.238230  0.373230  0.720340  1.0  -0.0787
  C  C789  1  0.261860  0.423840  0.694580  1.0  0.0736
  C  C790  1  0.275210  0.434810  0.722180  1.0  -0.1069
  C  C791  1  0.207680  0.282280  0.796840  1.0  0.0349
  C  C792  1  0.224040  0.245640  0.820520  1.0  -0.1285
  C  C793  1  0.201630  0.196730  0.843540  1.0  -0.0346
  C  C794  1  0.164100  0.182870  0.841400  1.0  -0.1443
  C  C795  1  0.147290  0.219490  0.815620  1.0  -0.0283
  C  C796  1  0.167290  0.267790  0.793220  1.0  -0.1491
  C  C797  1  0.994650  0.006250  0.134500  1.0  0.715
  C  C798  1  0.270720  0.462650  0.640160  1.0  0.0622
  C  C799  1  0.239700  0.461500  0.623400  1.0  -0.1033
  C  C800  1  0.247430  0.499530  0.575140  1.0  -0.0463
  C  C801  1  0.288410  0.540210  0.539180  1.0  -0.145
  C  C802  1  0.321430  0.544630  0.552540  1.0  -0.051
  C  C803  1  0.312140  0.504240  0.603920  1.0  -0.1585
  C  C804  1  0.332290  0.468190  0.983620  1.0  0.6776
  C  C805  1  0.415570  0.752370  0.634860  1.0  0.6655
  C  C806  1  0.447380  0.776970  0.642320  1.0  -0.129
  C  C807  1  0.483530  0.823430  0.596740  1.0  -0.0426
  C  C808  1  0.516040  0.844240  0.602120  1.0  -0.1265
  C  C809  1  0.515040  0.819040  0.651720  1.0  0.0729
  C  C810  1  0.477410  0.774470  0.695980  1.0  -0.1137
  C  C811  1  0.442670  0.753200  0.692060  1.0  -0.1439
  C  C812  1  0.554880  0.836680  0.655240  1.0  0.0364
  C  C813  1  0.576160  0.886360  0.629480  1.0  -0.1168
  C  C814  1  0.614400  0.901500  0.631800  1.0  0.0295
  C  C815  1  0.630130  0.867630  0.660740  1.0  -0.1124
  C  C816  1  0.608330  0.816930  0.686340  1.0  0.0212
  C  C817  1  0.571060  0.803260  0.683280  1.0  -0.101
  C  C818  1  0.641470  0.956710  0.598700  1.0  0.074
  C  C819  1  0.659330  0.987910  0.542400  1.0  -0.1073
  C  C820  1  0.684890  0.038070  0.512340  1.0  -0.0509
  C  C821  1  0.692590  0.057030  0.538580  1.0  -0.1819
  C  C822  1  0.674740  0.025830  0.594860  1.0  -0.0169
  C  C823  1  0.649180  0.975670  0.624920  1.0  -0.1435
  C  C824  1  0.977900  0.139800  0.994000  1.0  0.6602
  C  C825  1  0.626940  0.777640  0.715720  1.0  0.0274
  C  C826  1  0.645410  0.783710  0.743580  1.0  -0.1148
  C  C827  1  0.662890  0.745490  0.770420  1.0  -0.0635
  C  C828  1  0.660290  0.703690  0.770420  1.0  -0.0814
  C  C829  1  0.641880  0.696780  0.744640  1.0  -0.0797
  C  C830  1  0.623770  0.733570  0.718260  1.0  -0.1056
  C  C831  1  0.524260  0.538460  0.796480  1.0  0.7098
  C  C832  1  0.797310  0.640110  0.696180  1.0  0.6539
  C  C833  1  0.837090  0.665590  0.636020  1.0  -0.1389
  C  C834  1  0.827670  0.657670  0.602460  1.0  -0.0932
  C  C835  1  0.867020  0.677320  0.546960  1.0  -0.1219
  C  C836  1  0.913850  0.705850  0.522900  1.0  0.0423
  C  C837  1  0.920730  0.713330  0.557940  1.0  -0.1615
  C  C838  1  0.883400  0.693900  0.611600  1.0  -0.0335
  C  C839  1  0.956970  0.722270  0.465860  1.0  0.0655
  C  C840  1  0.951640  0.745540  0.420920  1.0  -0.0891
  C  C841  1  0.992050  0.760350  0.367500  1.0  0.0169
  C  C842  1  0.036840  0.752840  0.359320  1.0  -0.1921
  C  C843  1  0.041440  0.731840  0.403520  1.0  0.0333
  C  C844  1  0.002170  0.717480  0.455440  1.0  -0.1038
  C  C845  1  0.983530  0.780130  0.320740  1.0  0.0369
  C  C846  1  0.955240  0.813640  0.315520  1.0  -0.121
  C  C847  1  0.947610  0.833410  0.274380  1.0  -0.0343
  C  C848  1  0.968380  0.821380  0.235240  1.0  -0.1795
  C  C849  1  0.996880  0.789080  0.240440  1.0  -0.0326
  C  C850  1  0.003300  0.767800  0.282000  1.0  -0.1833
  C  C851  1  0.958450  0.841550  0.190300  1.0  0.7265
  C  C852  1  0.089780  0.725280  0.394440  1.0  0.0186
  C  C853  1  0.133910  0.758010  0.344580  1.0  -0.1306
  C  C854  1  0.180230  0.751230  0.336740  1.0  -0.0197
  C  C855  1  0.180590  0.711890  0.379820  1.0  -0.1627
  C  C856  1  0.136150  0.679450  0.429100  1.0  -0.0524
  C  C857  1  0.091800  0.686700  0.435800  1.0  -0.1239
  C  C858  1  0.674300  0.479400  0.870400  1.0  0.7074
  C  C859  1  0.799460  0.680260  0.839480  1.0  0.6705
  C  C860  1  0.840510  0.715810  0.827380  1.0  -0.1456
  C  C861  1  0.830800  0.753900  0.833600  1.0  -0.1039
  C  C862  1  0.868580  0.787480  0.819040  1.0  -0.1041
  C  C863  1  0.916660  0.785960  0.796880  1.0  0.0983
  C  C864  1  0.924990  0.747490  0.791020  1.0  -0.1518
  C  C865  1  0.888060  0.711560  0.807480  1.0  -0.1197
  C  C866  1  0.959940  0.828560  0.772320  1.0  0.0311
  C  C867  1  0.957890  0.853490  0.795420  1.0  -0.0885
  C  C868  1  0.997670  0.892770  0.771060  1.0  0.0614
  C  C869  1  0.041430  0.906430  0.720340  1.0  -0.0819
  C  C870  1  0.043560  0.881580  0.694580  1.0  0.076
  C  C871  1  0.002610  0.843010  0.722180  1.0  -0.1084
  C  C872  1  0.995480  0.920880  0.796840  1.0  0.0339
  C  C873  1  0.955440  0.933840  0.820520  1.0  -0.1289
  C  C874  1  0.954830  0.959730  0.843540  1.0  -0.0344
  C  C875  1  0.994500  0.975730  0.841400  1.0  -0.1445
  C  C876  1  0.037090  0.964890  0.815620  1.0  -0.0289
  C  C877  1  0.039490  0.938990  0.793220  1.0  -0.1502
  C  C878  1  0.870850  0.859250  0.134500  1.0  0.7137
  C  C879  1  0.089120  0.897190  0.640160  1.0  0.063
  C  C880  1  0.136900  0.915100  0.623400  1.0  -0.1042
  C  C881  1  0.177430  0.925330  0.575140  1.0  -0.0472
  C  C882  1  0.172410  0.920610  0.539180  1.0  -0.1413
  C  C883  1  0.126030  0.902830  0.552540  1.0  -0.054
  C  C884  1  0.083940  0.891840  0.603920  1.0  -0.1647
  C  C885  1  0.684090  0.548190  0.983620  1.0  0.6774
  C  C886  1  0.949570  0.612770  0.634860  1.0  0.6664
  C  C887  1  0.910300  0.580710  0.642320  1.0  -0.1282
  C  C888  1  0.919730  0.579830  0.596740  1.0  -0.0393
  C  C889  1  0.881840  0.553640  0.602120  1.0  -0.1207
  C  C890  1  0.833240  0.529240  0.651720  1.0  0.0735
  C  C891  1  0.826610  0.529550  0.695980  1.0  -0.1142
  C  C892  1  0.865270  0.554740  0.692060  1.0  -0.1448
  C  C893  1  0.789880  0.508080  0.655240  1.0  0.0367
  C  C894  1  0.794360  0.484160  0.629480  1.0  -0.1147
  C  C895  1  0.753800  0.466700  0.631800  1.0  0.0291
  C  C896  1  0.709130  0.471630  0.660740  1.0  -0.115
  C  C897  1  0.705330  0.496730  0.686340  1.0  0.0208
  C  C898  1  0.745660  0.513460  0.683280  1.0  -0.0999
  C  C899  1  0.759830  0.444590  0.598700  1.0  0.073
  C  C900  1  0.798270  0.469690  0.542400  1.0  -0.105
  C  C901  1  0.802770  0.449590  0.512340  1.0  -0.0491
  C  C902  1  0.768830  0.404390  0.538580  1.0  -0.1847
  C  C903  1  0.730400  0.379310  0.594860  1.0  -0.0163
  C  C904  1  0.725900  0.399410  0.624920  1.0  -0.1399
  C  C905  1  0.028100  0.866200  0.994000  1.0  0.66
  C  C906  1  0.657340  0.506640  0.715720  1.0  0.0259
  C  C907  1  0.611010  0.472710  0.743580  1.0  -0.1125
  C  C908  1  0.566690  0.484090  0.770420  1.0  -0.0622
  C  C909  1  0.569290  0.525890  0.770420  1.0  -0.0818
  C  C910  1  0.613480  0.558580  0.744640  1.0  -0.0793
  C  C911  1  0.657970  0.548170  0.718260  1.0  -0.1111
  C  C912  1  0.679260  0.665060  0.796480  1.0  0.7093
  C  C913  1  0.390110  0.756510  0.196180  1.0  0.6562
  C  C914  1  0.415590  0.776890  0.136020  1.0  -0.1346
  C  C915  1  0.407670  0.819870  0.102460  1.0  -0.0958
  C  C916  1  0.427320  0.836020  0.046960  1.0  -0.1265
  C  C917  1  0.455850  0.813250  0.022900  1.0  0.0416
  C  C918  1  0.463330  0.771330  0.057940  1.0  -0.1555
  C  C919  1  0.443900  0.755000  0.111600  1.0  -0.0314
  C  C920  1  0.472270  0.827170  0.965860  1.0  0.0679
  C  C921  1  0.495540  0.877440  0.920920  1.0  -0.0868
  C  C922  1  0.510350  0.890450  0.867500  1.0  0.0152
  C  C923  1  0.502840  0.853840  0.859320  1.0  -0.1901
  C  C924  1  0.481840  0.805040  0.903520  1.0  0.0322
  C  C925  1  0.467480  0.792390  0.955440  1.0  -0.1066
  C  C926  1  0.530130  0.945730  0.820740  1.0  0.0391
  C  C927  1  0.563640  0.979240  0.815520  1.0  -0.123
  C  C928  1  0.583410  0.028010  0.774380  1.0  -0.0343
  C  C929  1  0.571380  0.046380  0.735240  1.0  -0.1757
  C  C930  1  0.539080  0.012680  0.740440  1.0  -0.03
  C  C931  1  0.517800  0.964700  0.782000  1.0  -0.1833
  C  C932  1  0.591550  0.101250  0.690300  1.0  0.7256
  C  C933  1  0.475280  0.765780  0.894440  1.0  0.0198
  C  C934  1  0.508010  0.771510  0.844580  1.0  -0.1325
  C  C935  1  0.501230  0.733030  0.836740  1.0  -0.0208
  C  C936  1  0.461890  0.689590  0.879820  1.0  -0.1638
  C  C937  1  0.429450  0.684750  0.929100  1.0  -0.0502
  C  C938  1  0.436700  0.722400  0.935800  1.0  -0.1197
  C  C939  1  0.229400  0.705300  0.370400  1.0  0.705
  C  C940  1  0.430260  0.611060  0.339480  1.0  0.6689
  C  C941  1  0.465810  0.582110  0.327380  1.0  -0.1487
  C  C942  1  0.503900  0.585600  0.333600  1.0  -0.1039
  C  C943  1  0.537480  0.562380  0.319040  1.0  -0.1039
  C  C944  1  0.535960  0.536460  0.296880  1.0  0.0971
  C  C945  1  0.497490  0.533990  0.291020  1.0  -0.1519
  C  C946  1  0.461560  0.554460  0.307480  1.0  -0.1234
  C  C947  1  0.578560  0.517740  0.272320  1.0  0.0319
  C  C948  1  0.603490  0.496690  0.295420  1.0  -0.0855
  C  C949  1  0.642770  0.481270  0.271060  1.0  0.0616
  C  C950  1  0.656430  0.488230  0.220340  1.0  -0.0795
  C  C951  1  0.631580  0.511860  0.194580  1.0  0.0737
  C  C952  1  0.593010  0.525210  0.222180  1.0  -0.1098
  C  C953  1  0.670880  0.457680  0.296840  1.0  0.0337
  C  C954  1  0.683840  0.474040  0.320520  1.0  -0.1357
  C  C955  1  0.709730  0.451630  0.343540  1.0  -0.0385
  C  C956  1  0.725730  0.414100  0.341400  1.0  -0.1446
  C  C957  1  0.714890  0.397290  0.315620  1.0  -0.0291
  C  C958  1  0.688990  0.417290  0.293220  1.0  -0.1481
  C  C959  1  0.609250  0.244650  0.634500  1.0  0.7193
  C  C960  1  0.647190  0.520720  0.140160  1.0  0.0602
  C  C961  1  0.665100  0.489700  0.123400  1.0  -0.1057
  C  C962  1  0.675330  0.497430  0.075140  1.0  -0.0464
  C  C963  1  0.670610  0.538410  0.039180  1.0  -0.1415
  C  C964  1  0.652830  0.571430  0.052540  1.0  -0.0532
  C  C965  1  0.641840  0.562140  0.103920  1.0  -0.1624
  C  C966  1  0.298190  0.582290  0.483620  1.0  0.6763
  C  C967  1  0.362770  0.665570  0.134860  1.0  0.664
  C  C968  1  0.330710  0.697380  0.142320  1.0  -0.1263
  C  C969  1  0.329830  0.733530  0.096740  1.0  -0.0343
  C  C970  1  0.303640  0.766040  0.102120  1.0  -0.1258
  C  C971  1  0.279240  0.765040  0.151720  1.0  0.0721
  C  C972  1  0.279550  0.727410  0.195980  1.0  -0.1145
  C  C973  1  0.304740  0.692670  0.192060  1.0  -0.1408
  C  C974  1  0.258080  0.804880  0.155240  1.0  0.0364
  C  C975  1  0.234160  0.826160  0.129480  1.0  -0.1126
  C  C976  1  0.216700  0.864400  0.131800  1.0  0.0317
  C  C977  1  0.221630  0.880130  0.160740  1.0  -0.1135
  C  C978  1  0.246730  0.858330  0.186340  1.0  0.0221
  C  C979  1  0.263460  0.821060  0.183280  1.0  -0.0996
  C  C980  1  0.194590  0.891470  0.098700  1.0  0.0724
  C  C981  1  0.219690  0.909330  0.042400  1.0  -0.1033
  C  C982  1  0.199590  0.934890  0.012340  1.0  -0.0503
  C  C983  1  0.154390  0.942590  0.038580  1.0  -0.1862
  C  C984  1  0.129310  0.924740  0.094860  1.0  -0.0153
  C  C985  1  0.149410  0.899180  0.124920  1.0  -0.1408
  C  C986  1  0.616200  0.227900  0.494000  1.0  0.6637
  C  C987  1  0.256640  0.876940  0.215720  1.0  0.0291
  C  C988  1  0.222710  0.895410  0.243580  1.0  -0.1142
  C  C989  1  0.234090  0.912890  0.270420  1.0  -0.0613
  C  C990  1  0.275890  0.910290  0.270420  1.0  -0.0834
  C  C991  1  0.308580  0.891880  0.244640  1.0  -0.0777
  C  C992  1  0.298170  0.873770  0.218260  1.0  -0.1099
  C  C993  1  0.415060  0.774260  0.296480  1.0  0.7092
  C  C994  1  0.413710  0.047310  0.196180  1.0  0.6549
  C  C995  1  0.448390  0.087090  0.136020  1.0  -0.1413
  C  C996  1  0.489870  0.077670  0.102460  1.0  -0.0959
  C  C997  1  0.525720  0.117020  0.046960  1.0  -0.1272
  C  C998  1  0.521250  0.163850  0.022900  1.0  0.0439
  C  C999  1  0.478730  0.170730  0.057940  1.0  -0.1579
  C  C1000  1  0.444500  0.133400  0.111600  1.0  -0.0328
  C  C1001  1  0.561870  0.206970  0.965860  1.0  0.0671
  C  C1002  1  0.583540  0.201640  0.920920  1.0  -0.0869
  C  C1003  1  0.622150  0.242050  0.867500  1.0  0.0157
  C  C1004  1  0.637840  0.286840  0.859320  1.0  -0.1899
  C  C1005  1  0.614640  0.291440  0.903520  1.0  0.0329
  C  C1006  1  0.577080  0.252170  0.955440  1.0  -0.1042
  C  C1007  1  0.649130  0.233530  0.820740  1.0  0.0378
  C  C1008  1  0.620840  0.205240  0.815520  1.0  -0.1257
  C  C1009  1  0.642210  0.197610  0.774380  1.0  -0.0349
  C  C1010  1  0.693380  0.218380  0.735240  1.0  -0.1785
  C  C1011  1  0.720480  0.246880  0.740440  1.0  -0.0213
  C  C1012  1  0.700200  0.253300  0.782000  1.0  -0.1813
  C  C1013  1  0.718150  0.208450  0.690300  1.0  0.7281
  C  C1014  1  0.630280  0.339780  0.894440  1.0  0.02
  C  C1015  1  0.647410  0.383910  0.844580  1.0  -0.1314
  C  C1016  1  0.662030  0.430230  0.836740  1.0  -0.0181
  C  C1017  1  0.658290  0.430590  0.879820  1.0  -0.159
  C  C1018  1  0.641450  0.386150  0.929100  1.0  -0.0531
  C  C1019  1  0.627500  0.341800  0.935800  1.0  -0.1225
  C  C1020  1  0.400200  0.924300  0.370400  1.0  0.7055
  C  C1021  1  0.230260  0.049460  0.339480  1.0  0.6698
  C  C1022  1  0.206810  0.090510  0.327380  1.0  -0.1456
  C  C1023  1  0.162500  0.080800  0.333600  1.0  -0.0996
  C  C1024  1  0.143480  0.118580  0.319040  1.0  -0.0987
  C  C1025  1  0.167160  0.166660  0.296880  1.0  0.0943
  C  C1026  1  0.211490  0.174990  0.291020  1.0  -0.1509
  C  C1027  1  0.230960  0.138060  0.307480  1.0  -0.1268
  C  C1028  1  0.149120  0.209940  0.272320  1.0  0.0306
  C  C1029  1  0.101090  0.207890  0.295420  1.0  -0.0884
  C  C1030  1  0.086170  0.247670  0.271060  1.0  0.0599
  C  C1031  1  0.123230  0.291430  0.220340  1.0  -0.0825
  C  C1032  1  0.173840  0.293560  0.194580  1.0  0.0751
  C  C1033  1  0.184810  0.252610  0.222180  1.0  -0.1106
  C  C1034  1  0.032280  0.245480  0.296840  1.0  0.0346
  C  C1035  1  0.995640  0.205440  0.320520  1.0  -0.1312
  C  C1036  1  0.946730  0.204830  0.343540  1.0  -0.0371
  C  C1037  1  0.932870  0.244500  0.341400  1.0  -0.145
  C  C1038  1  0.969490  0.287090  0.315620  1.0  -0.0296
  C  C1039  1  0.017790  0.289490  0.293220  1.0  -0.1509
  C  C1040  1  0.756250  0.120850  0.634500  1.0  0.718
  C  C1041  1  0.212650  0.339120  0.140160  1.0  0.06
  C  C1042  1  0.211500  0.386900  0.123400  1.0  -0.1048
  C  C1043  1  0.249530  0.427430  0.075140  1.0  -0.0481
  C  C1044  1  0.290210  0.422410  0.039180  1.0  -0.1444
  C  C1045  1  0.294630  0.376030  0.052540  1.0  -0.0533
  C  C1046  1  0.254240  0.333940  0.103920  1.0  -0.162
  C  C1047  1  0.218190  0.934090  0.483620  1.0  0.6748
  C  C1048  1  0.502370  0.199570  0.134860  1.0  0.6649
  C  C1049  1  0.526970  0.160300  0.142320  1.0  -0.1287
  C  C1050  1  0.573430  0.169730  0.096740  1.0  -0.0419
  C  C1051  1  0.594240  0.131840  0.102120  1.0  -0.1193
  C  C1052  1  0.569040  0.083240  0.151720  1.0  0.0737
  C  C1053  1  0.524470  0.076610  0.195980  1.0  -0.1132
  C  C1054  1  0.503200  0.115270  0.192060  1.0  -0.1411
  C  C1055  1  0.586680  0.039880  0.155240  1.0  0.0358
  C  C1056  1  0.636360  0.044360  0.129480  1.0  -0.1185
  C  C1057  1  0.651500  0.003800  0.131800  1.0  0.0279
  C  C1058  1  0.617630  0.959130  0.160740  1.0  -0.1131
  C  C1059  1  0.566930  0.955330  0.186340  1.0  0.0215
  C  C1060  1  0.553260  0.995660  0.183280  1.0  -0.1007
  C  C1061  1  0.706710  0.009830  0.098700  1.0  0.0736
  C  C1062  1  0.737910  0.048270  0.042400  1.0  -0.1069
  C  C1063  1  0.788070  0.052770  0.012340  1.0  -0.0514
  C  C1064  1  0.807030  0.018830  0.038580  1.0  -0.1797
  C  C1065  1  0.775830  0.980400  0.094860  1.0  -0.0127
  C  C1066  1  0.725670  0.975900  0.124920  1.0  -0.141
  C  C1067  1  0.889800  0.278100  0.494000  1.0  0.6605
  C  C1068  1  0.527640  0.907340  0.215720  1.0  0.0264
  C  C1069  1  0.533710  0.861010  0.243580  1.0  -0.1132
  C  C1070  1  0.495490  0.816690  0.270420  1.0  -0.0644
  C  C1071  1  0.453690  0.819290  0.270420  1.0  -0.0812
  C  C1072  1  0.446780  0.863480  0.244640  1.0  -0.0776
  C  C1073  1  0.483570  0.907970  0.218260  1.0  -0.1082
  C  C1074  1  0.288460  0.929260  0.296480  1.0  0.7132
  O  O1075  1  0.943840  0.620250  0.774660  1.0  -0.629
  O  O1076  1  0.993640  0.577400  0.785740  1.0  -0.5799
  O  O1077  1  0.819240  0.309080  0.308140  1.0  -0.619
  O  O1078  1  0.770380  0.235560  0.345440  1.0  -0.5889
  O  O1079  1  0.055570  0.589980  0.677860  1.0  -0.6081
  O  O1080  1  0.083600  0.640630  0.587780  1.0  -0.633
  O  O1081  1  0.940500  0.728400  0.667760  1.0  -0.6483
  O  O1082  1  0.992940  0.792410  0.641560  1.0  -0.5803
  O  O1083  1  0.847390  0.206910  0.382820  1.0  -0.5895
  O  O1084  1  0.871210  0.281450  0.364620  1.0  -0.5962
  O  O1085  1  0.053130  0.741080  0.525480  1.0  -0.5987
  O  O1086  1  0.070210  0.789500  0.548640  1.0  -0.6462
  O  O1087  1  0.810040  0.539990  0.824460  1.0  -0.6166
  O  O1088  1  0.990640  0.635870  0.588860  1.0  -0.5776
  O  O1089  1  0.738730  0.135990  0.454080  1.0  -0.5787
  O  O1090  1  0.730390  0.125330  0.529020  1.0  -0.4932
  O  O1091  1  0.053430  0.742980  0.680700  1.0  -0.5935
  O  O1092  1  0.076020  0.674050  0.702860  1.0  -0.586
  O  O1093  1  0.017450  0.682080  0.651200  1.0  -0.9814
  O  O1094  1  0.755230  0.249280  0.435380  1.0  -0.9224
  O  O1095  1  0.281500  0.605090  0.774660  1.0  -0.6317
  O  O1096  1  0.220620  0.636860  0.785740  1.0  -0.5773
  O  O1097  1  0.872620  0.382780  0.308140  1.0  -0.6188
  O  O1098  1  0.884180  0.419000  0.345440  1.0  -0.5923
  O  O1099  1  0.266570  0.732160  0.677860  1.0  -0.6052
  O  O1100  1  0.328620  0.771590  0.587780  1.0  -0.6332
  O  O1101  1  0.391740  0.603840  0.667760  1.0  -0.6511
  O  O1102  1  0.365500  0.566030  0.641560  1.0  -0.5802
  O  O1103  1  0.769790  0.410270  0.382820  1.0  -0.5884
  O  O1104  1  0.764170  0.353930  0.364620  1.0  -0.5965
  O  O1105  1  0.421390  0.733440  0.525480  1.0  -0.5987
  O  O1106  1  0.381150  0.661860  0.548640  1.0  -0.6458
  O  O1107  1  0.365500  0.635550  0.824460  1.0  -0.6163
  O  O1108  1  0.420500  0.775270  0.588860  1.0  -0.5793
  O  O1109  1  0.807190  0.409930  0.454080  1.0  -0.5838
  O  O1110  1  0.740590  0.345650  0.529020  1.0  -0.4924
  O  O1111  1  0.265870  0.576320  0.680700  1.0  -0.5922
  O  O1112  1  0.221120  0.623090  0.702860  1.0  -0.5845
  O  O1113  1  0.331350  0.666667  0.651200  1.0  -0.9812
  O  O1114  1  0.809390  0.315340  0.435380  1.0  -0.9202
  O  O1115  1  0.370250  0.531500  0.274660  1.0  -0.6296
  O  O1116  1  0.327400  0.470620  0.285740  1.0  -0.5793
  O  O1117  1  0.059080  0.122620  0.808140  1.0  -0.6193
  O  O1118  1  0.985560  0.134180  0.845440  1.0  -0.5863
  O  O1119  1  0.339980  0.516570  0.177860  1.0  -0.6067
  O  O1120  1  0.390630  0.578620  0.087780  1.0  -0.6332
  O  O1121  1  0.478400  0.641740  0.167760  1.0  -0.6492
  O  O1122  1  0.542410  0.615500  0.141560  1.0  -0.5787
  O  O1123  1  0.956910  0.019790  0.882820  1.0  -0.5891
  O  O1124  1  0.031450  0.014170  0.864620  1.0  -0.5965
  O  O1125  1  0.491080  0.671390  0.025480  1.0  -0.5971
  O  O1126  1  0.539500  0.631150  0.048640  1.0  -0.6466
  O  O1127  1  0.289990  0.615500  0.324460  1.0  -0.6168
  O  O1128  1  0.385870  0.670500  0.088860  1.0  -0.5811
  O  O1129  1  0.885990  0.057190  0.954080  1.0  -0.5843
  O  O1130  1  0.875330  0.990590  0.029020  1.0  -0.4891
  O  O1131  1  0.492980  0.515870  0.180700  1.0  -0.5907
  O  O1132  1  0.424050  0.471120  0.202860  1.0  -0.5859
  O  O1133  1  0.432080  0.581350  0.151200  1.0  -0.9826
  O  O1134  1  0.999280  0.059390  0.935380  1.0  -0.9244
  O  O1135  1  0.355090  0.193840  0.274660  1.0  -0.6319
  O  O1136  1  0.386860  0.243640  0.285740  1.0  -0.5796
  O  O1137  1  0.132780  0.069240  0.808140  1.0  -0.6183
  O  O1138  1  0.169000  0.020380  0.845440  1.0  -0.5857
  O  O1139  1  0.482160  0.305570  0.177860  1.0  -0.6044
  O  O1140  1  0.521590  0.333600  0.087780  1.0  -0.6339
  O  O1141  1  0.353840  0.190500  0.167760  1.0  -0.6499
  O  O1142  1  0.316030  0.242940  0.141560  1.0  -0.5804
  O  O1143  1  0.160270  0.097390  0.882820  1.0  -0.586
  O  O1144  1  0.103930  0.121210  0.864620  1.0  -0.5943
  O  O1145  1  0.483440  0.303130  0.025480  1.0  -0.5997
  O  O1146  1  0.411860  0.320210  0.048640  1.0  -0.6484
  O  O1147  1  0.385550  0.060040  0.324460  1.0  -0.6163
  O  O1148  1  0.525270  0.240640  0.088860  1.0  -0.579
  O  O1149  1  0.159930  0.988730  0.954080  1.0  -0.5807
  O  O1150  1  0.095650  0.980390  0.029020  1.0  -0.4894
  O  O1151  1  0.326320  0.303430  0.180700  1.0  -0.5919
  O  O1152  1  0.373090  0.326020  0.202860  1.0  -0.5849
  O  O1153  1  0.416720  0.267450  0.151200  1.0  -0.9777
  O  O1154  1  0.065340  0.005230  0.935380  1.0  -0.9252
  O  O1155  1  0.468500  0.629750  0.725340  1.0  -0.6312
  O  O1156  1  0.529380  0.672600  0.714260  1.0  -0.5793
  O  O1157  1  0.877380  0.940920  0.191860  1.0  -0.6194
  O  O1158  1  0.865820  0.014440  0.154560  1.0  -0.593
  O  O1159  1  0.483430  0.660020  0.822140  1.0  -0.6065
  O  O1160  1  0.421380  0.609370  0.912220  1.0  -0.6326
  O  O1161  1  0.358260  0.521600  0.832240  1.0  -0.6496
  O  O1162  1  0.384500  0.457590  0.858440  1.0  -0.5796
  O  O1163  1  0.980210  0.043090  0.117180  1.0  -0.5896
  O  O1164  1  0.985830  0.968550  0.135380  1.0  -0.5954
  O  O1165  1  0.328610  0.508920  0.974520  1.0  -0.5977
  O  O1166  1  0.368850  0.460500  0.951360  1.0  -0.6445
  O  O1167  1  0.384500  0.710010  0.675540  1.0  -0.6165
  O  O1168  1  0.329500  0.614130  0.911140  1.0  -0.5793
  O  O1169  1  0.942810  0.114010  0.045920  1.0  -0.5809
  O  O1170  1  0.009410  0.124670  0.970980  1.0  -0.4904
  O  O1171  1  0.484130  0.507020  0.819300  1.0  -0.5939
  O  O1172  1  0.528880  0.575950  0.797140  1.0  -0.5876
  O  O1173  1  0.418650  0.567920  0.848800  1.0  -0.9813
  O  O1174  1  0.940610  0.000720  0.064620  1.0  -0.9242
  O  O1175  1  0.806160  0.644910  0.725340  1.0  -0.6327
  O  O1176  1  0.756360  0.613140  0.714260  1.0  -0.578
  O  O1177  1  0.930760  0.867220  0.191860  1.0  -0.6179
  O  O1178  1  0.979620  0.831000  0.154560  1.0  -0.5884
  O  O1179  1  0.694430  0.517840  0.822140  1.0  -0.6079
  O  O1180  1  0.666400  0.478410  0.912220  1.0  -0.6332
  O  O1181  1  0.809500  0.646160  0.832240  1.0  -0.65
  O  O1182  1  0.757060  0.683970  0.858440  1.0  -0.5801
  O  O1183  1  0.902610  0.839730  0.117180  1.0  -0.586
  O  O1184  1  0.878790  0.896070  0.135380  1.0  -0.5961
  O  O1185  1  0.696870  0.516560  0.974520  1.0  -0.5999
  O  O1186  1  0.679790  0.588140  0.951360  1.0  -0.6487
  O  O1187  1  0.939960  0.614450  0.675540  1.0  -0.6162
  O  O1188  1  0.759360  0.474730  0.911140  1.0  -0.5803
  O  O1189  1  0.011270  0.840070  0.045920  1.0  -0.5852
  O  O1190  1  0.019610  0.904350  0.970980  1.0  -0.4918
  O  O1191  1  0.696570  0.673680  0.819300  1.0  -0.5932
  O  O1192  1  0.673980  0.626910  0.797140  1.0  -0.5851
  O  O1193  1  0.732550  0.583280  0.848800  1.0  -0.9805
  O  O1194  1  0.994770  0.934660  0.064620  1.0  -0.9236
  O  O1195  1  0.394910  0.718500  0.225340  1.0  -0.631
  O  O1196  1  0.363140  0.779380  0.214260  1.0  -0.5784
  O  O1197  1  0.617220  0.127380  0.691860  1.0  -0.6199
  O  O1198  1  0.581000  0.115820  0.654560  1.0  -0.5842
  O  O1199  1  0.267840  0.733430  0.322140  1.0  -0.6052
  O  O1200  1  0.228410  0.671380  0.412220  1.0  -0.633
  O  O1201  1  0.396160  0.608260  0.332240  1.0  -0.6494
  O  O1202  1  0.433970  0.634500  0.358440  1.0  -0.5793
  O  O1203  1  0.589730  0.230210  0.617180  1.0  -0.5876
  O  O1204  1  0.646070  0.235830  0.635380  1.0  -0.5964
  O  O1205  1  0.266560  0.578610  0.474520  1.0  -0.5974
  O  O1206  1  0.338140  0.618850  0.451360  1.0  -0.6483
  O  O1207  1  0.364450  0.634500  0.175540  1.0  -0.617
  O  O1208  1  0.224730  0.579500  0.411140  1.0  -0.5788
  O  O1209  1  0.590070  0.192810  0.545920  1.0  -0.5807
  O  O1210  1  0.654350  0.259410  0.470980  1.0  -0.4907
  O  O1211  1  0.423680  0.734130  0.319300  1.0  -0.5941
  O  O1212  1  0.376910  0.778880  0.297140  1.0  -0.5859
  O  O1213  1  0.333280  0.668650  0.348800  1.0  -0.9813
  O  O1214  1  0.684660  0.190610  0.564620  1.0  -0.9243
  O  O1215  1  0.379750  0.056160  0.225340  1.0  -0.6304
  O  O1216  1  0.422600  0.006360  0.214260  1.0  -0.5765
  O  O1217  1  0.690920  0.180760  0.691860  1.0  -0.617
  O  O1218  1  0.764440  0.229620  0.654560  1.0  -0.587
  O  O1219  1  0.410020  0.944430  0.322140  1.0  -0.6054
  O  O1220  1  0.359370  0.916400  0.412220  1.0  -0.6347
  O  O1221  1  0.271600  0.059500  0.332240  1.0  -0.6498
  O  O1222  1  0.207590  0.007060  0.358440  1.0  -0.5818
  O  O1223  1  0.793090  0.152610  0.617180  1.0  -0.5883
  O  O1224  1  0.718550  0.128790  0.635380  1.0  -0.5948
  O  O1225  1  0.258920  0.946870  0.474520  1.0  -0.598
  O  O1226  1  0.210500  0.929790  0.451360  1.0  -0.6483
  O  O1227  1  0.460010  0.189960  0.175540  1.0  -0.6138
  O  O1228  1  0.364130  0.009360  0.411140  1.0  -0.5809
  O  O1229  1  0.864010  0.261270  0.545920  1.0  -0.5796
  O  O1230  1  0.874670  0.269610  0.470980  1.0  -0.4904
  O  O1231  1  0.257020  0.946570  0.319300  1.0  -0.5924
  O  O1232  1  0.325950  0.923980  0.297140  1.0  -0.5851
  O  O1233  1  0.317920  0.982550  0.348800  1.0  -0.9817
  O  O1234  1  0.750720  0.244770  0.564620  1.0  -0.9226
