# generated using pymatgen
data_Cu17H108(C79N25)2
_symmetry_space_group_name_H-M   'P 1'
_cell_length_a   15.58040000
_cell_length_b   25.57210000
_cell_length_c   40.85700000
_cell_angle_alpha   90.00000000
_cell_angle_beta   96.39700000
_cell_angle_gamma   90.00000000
_symmetry_Int_Tables_number   1
_chemical_formula_structural   Cu17H108(C79N25)2
_chemical_formula_sum   'Cu68 H432 C632 N200'
_cell_volume   16177.03759216
_cell_formula_units_Z   4
loop_
 _symmetry_equiv_pos_site_id
 _symmetry_equiv_pos_as_xyz
  1  'x, y, z'
loop_
 _atom_site_type_symbol
 _atom_site_label
 _atom_site_symmetry_multiplicity
 _atom_site_fract_x
 _atom_site_fract_y
 _atom_site_fract_z
 _atom_site_occupancy
 _atom_site_charge
  Cu  Cu1  1  0.245770  0.118130  0.171090  1.0  0.4358
  Cu  Cu2  1  0.563960  0.635940  0.089110  1.0  0.4293
  Cu  Cu3  1  0.062490  0.094740  0.156680  1.0  0.369
  Cu  Cu4  1  0.175420  0.214280  0.130840  1.0  0.5084
  Cu  Cu5  1  0.251510  0.088210  0.096730  1.0  0.2994
  Cu  Cu6  1  0.706870  0.988310  0.169480  1.0  0.365
  Cu  Cu7  1  0.376830  0.877710  0.993950  1.0  0.4163
  Cu  Cu8  1  0.665800  0.528510  0.931310  1.0  0.4175
  Cu  Cu9  1  0.745770  0.618130  0.171090  1.0  0.4358
  Cu  Cu10  1  0.063960  0.135940  0.089110  1.0  0.4293
  Cu  Cu11  1  0.562490  0.594740  0.156680  1.0  0.369
  Cu  Cu12  1  0.675420  0.714280  0.130840  1.0  0.5084
  Cu  Cu13  1  0.751510  0.588210  0.096730  1.0  0.2994
  Cu  Cu14  1  0.206870  0.488310  0.169480  1.0  0.365
  Cu  Cu15  1  0.876830  0.377710  0.993950  1.0  0.4163
  Cu  Cu16  1  0.165800  0.028510  0.931310  1.0  0.4175
  Cu  Cu17  1  0.754230  0.118130  0.328910  1.0  0.4356
  Cu  Cu18  1  0.436040  0.635940  0.410890  1.0  0.4291
  Cu  Cu19  1  0.937510  0.094740  0.343320  1.0  0.3692
  Cu  Cu20  1  0.824580  0.214280  0.369160  1.0  0.5092
  Cu  Cu21  1  0.748490  0.088210  0.403270  1.0  0.3004
  Cu  Cu22  1  0.293130  0.988310  0.330520  1.0  0.3658
  Cu  Cu23  1  0.623170  0.877710  0.506050  1.0  0.4162
  Cu  Cu24  1  0.334200  0.528510  0.568690  1.0  0.4171
  Cu  Cu25  1  0.254230  0.618130  0.328910  1.0  0.4356
  Cu  Cu26  1  0.936040  0.135940  0.410890  1.0  0.4291
  Cu  Cu27  1  0.437510  0.594740  0.343320  1.0  0.3692
  Cu  Cu28  1  0.324580  0.714280  0.369160  1.0  0.5092
  Cu  Cu29  1  0.248490  0.588210  0.403270  1.0  0.3004
  Cu  Cu30  1  0.793130  0.488310  0.330520  1.0  0.3658
  Cu  Cu31  1  0.123170  0.377710  0.506050  1.0  0.4162
  Cu  Cu32  1  0.834200  0.028510  0.568690  1.0  0.4171
  Cu  Cu33  1  0.754230  0.881870  0.828910  1.0  0.4357
  Cu  Cu34  1  0.436040  0.364060  0.910890  1.0  0.4291
  Cu  Cu35  1  0.937510  0.905260  0.843320  1.0  0.3691
  Cu  Cu36  1  0.824580  0.785720  0.869160  1.0  0.5094
  Cu  Cu37  1  0.748490  0.911790  0.903270  1.0  0.3003
  Cu  Cu38  1  0.293130  0.011690  0.830520  1.0  0.3662
  Cu  Cu39  1  0.623170  0.122290  0.006050  1.0  0.4157
  Cu  Cu40  1  0.334200  0.471490  0.068690  1.0  0.4148
  Cu  Cu41  1  0.254230  0.381870  0.828910  1.0  0.4357
  Cu  Cu42  1  0.936040  0.864060  0.910890  1.0  0.4291
  Cu  Cu43  1  0.437510  0.405260  0.843320  1.0  0.3691
  Cu  Cu44  1  0.324580  0.285720  0.869160  1.0  0.5094
  Cu  Cu45  1  0.248490  0.411790  0.903270  1.0  0.3003
  Cu  Cu46  1  0.793130  0.511690  0.830520  1.0  0.3662
  Cu  Cu47  1  0.123170  0.622290  0.006050  1.0  0.4157
  Cu  Cu48  1  0.834200  0.971490  0.068690  1.0  0.4148
  Cu  Cu49  1  0.245770  0.881870  0.671090  1.0  0.4359
  Cu  Cu50  1  0.563960  0.364060  0.589110  1.0  0.4293
  Cu  Cu51  1  0.062490  0.905260  0.656680  1.0  0.3691
  Cu  Cu52  1  0.175420  0.785720  0.630840  1.0  0.5082
  Cu  Cu53  1  0.251510  0.911790  0.596730  1.0  0.2993
  Cu  Cu54  1  0.706870  0.011690  0.669480  1.0  0.3651
  Cu  Cu55  1  0.376830  0.122290  0.493950  1.0  0.4156
  Cu  Cu56  1  0.665800  0.471490  0.431310  1.0  0.4149
  Cu  Cu57  1  0.745770  0.381870  0.671090  1.0  0.4359
  Cu  Cu58  1  0.063960  0.864060  0.589110  1.0  0.4293
  Cu  Cu59  1  0.562490  0.405260  0.656680  1.0  0.3691
  Cu  Cu60  1  0.675420  0.285720  0.630840  1.0  0.5082
  Cu  Cu61  1  0.751510  0.411790  0.596730  1.0  0.2993
  Cu  Cu62  1  0.206870  0.511690  0.669480  1.0  0.3651
  Cu  Cu63  1  0.876830  0.622290  0.493950  1.0  0.4156
  Cu  Cu64  1  0.165800  0.971490  0.431310  1.0  0.4149
  Cu  Cu65  1  0.500000  0.351060  0.250000  1.0  0.3414
  Cu  Cu66  1  0.000000  0.851060  0.250000  1.0  0.3414
  Cu  Cu67  1  0.500000  0.648940  0.750000  1.0  0.3411
  Cu  Cu68  1  0.000000  0.148940  0.750000  1.0  0.3411
  H  H69  1  0.341600  0.188800  0.209100  1.0  0.0946
  H  H70  1  0.456900  0.243300  0.221400  1.0  0.0543
  H  H71  1  0.309100  0.350500  0.251500  1.0  0.0487
  H  H72  1  0.189200  0.300200  0.238300  1.0  0.0997
  H  H73  1  0.070300  0.252300  0.225700  1.0  0.117
  H  H74  1  0.923800  0.259400  0.200300  1.0  0.0934
  H  H75  1  0.778300  0.260600  0.190000  1.0  0.0845
  H  H76  1  0.774000  0.110300  0.179000  1.0  0.0526
  H  H77  1  0.923700  0.107600  0.186600  1.0  0.0737
  H  H78  1  0.418600  0.078800  0.183400  1.0  0.0985
  H  H79  1  0.526400  0.017400  0.193700  1.0  0.0619
  H  H80  1  0.664000  0.082900  0.131900  1.0  0.0611
  H  H81  1  0.565600  0.149900  0.122700  1.0  0.0993
  H  H82  1  0.488300  0.223900  0.125800  1.0  0.1265
  H  H83  1  0.451400  0.318700  0.128700  1.0  0.0963
  H  H84  1  0.434400  0.397200  0.102300  1.0  0.048
  H  H85  1  0.213400  0.365500  0.066700  1.0  0.0536
  H  H86  1  0.224300  0.279800  0.087500  1.0  0.0769
  H  H87  1  0.179300  0.051500  0.218300  1.0  0.0946
  H  H88  1  0.184300  0.044200  0.273800  1.0  0.0571
  H  H89  1  0.342700  0.927200  0.274800  1.0  0.0661
  H  H90  1  0.342500  0.932200  0.219600  1.0  0.0984
  H  H91  1  0.305300  0.925800  0.161400  1.0  0.1144
  H  H92  1  0.265000  0.889500  0.102400  1.0  0.1035
  H  H93  1  0.294400  0.852600  0.053300  1.0  0.0698
  H  H94  1  0.400300  0.981900  0.027400  1.0  0.0623
  H  H95  1  0.370400  0.021800  0.075300  1.0  0.0948
  H  H96  1  0.535600  0.590900  0.028000  1.0  0.1174
  H  H97  1  0.574500  0.592100  0.975400  1.0  0.0526
  H  H98  1  0.681300  0.456500  0.986900  1.0  0.0501
  H  H99  1  0.649400  0.450700  0.038800  1.0  0.0948
  H  H100  1  0.579400  0.438600  0.088300  1.0  0.1267
  H  H101  1  0.614900  0.397600  0.144400  1.0  0.1118
  H  H102  1  0.593400  0.349500  0.190000  1.0  0.0615
  H  H103  1  0.446600  0.456800  0.220700  1.0  0.0566
  H  H104  1  0.466100  0.509100  0.176900  1.0  0.0875
  H  H105  1  0.362100  0.615700  0.099600  1.0  0.0909
  H  H106  1  0.246300  0.582900  0.066100  1.0  0.0563
  H  H107  1  0.204500  0.716000  0.024100  1.0  0.0554
  H  H108  1  0.315400  0.753400  0.056300  1.0  0.0968
  H  H109  1  0.381200  0.789600  0.113500  1.0  0.118
  H  H110  1  0.459100  0.872200  0.123500  1.0  0.0867
  H  H111  1  0.525300  0.946700  0.140500  1.0  0.0601
  H  H112  1  0.728900  0.871800  0.175400  1.0  0.0594
  H  H113  1  0.663500  0.794700  0.162700  1.0  0.0584
  H  H114  1  0.573900  0.761300  0.068200  1.0  0.0828
  H  H115  1  0.471500  0.822700  0.053900  1.0  0.0582
  H  H116  1  0.457600  0.781400  0.962300  1.0  0.0641
  H  H117  1  0.563000  0.718700  0.974800  1.0  0.1021
  H  H118  1  0.730700  0.692500  0.994900  1.0  0.1164
  H  H119  1  0.819700  0.594400  0.984000  1.0  0.0986
  H  H120  1  0.953900  0.564200  0.976500  1.0  0.0632
  H  H121  1  0.040400  0.596400  0.066100  1.0  0.0504
  H  H122  1  0.910900  0.630700  0.076700  1.0  0.0934
  H  H123  1  0.841600  0.688800  0.209100  1.0  0.0946
  H  H124  1  0.956900  0.743300  0.221400  1.0  0.0543
  H  H125  1  0.809100  0.850500  0.251500  1.0  0.0487
  H  H126  1  0.689200  0.800200  0.238300  1.0  0.0997
  H  H127  1  0.570300  0.752300  0.225700  1.0  0.117
  H  H128  1  0.423800  0.759400  0.200300  1.0  0.0934
  H  H129  1  0.278300  0.760600  0.190000  1.0  0.0845
  H  H130  1  0.274000  0.610300  0.179000  1.0  0.0526
  H  H131  1  0.423700  0.607600  0.186600  1.0  0.0738
  H  H132  1  0.918600  0.578800  0.183400  1.0  0.0985
  H  H133  1  0.026400  0.517400  0.193700  1.0  0.0619
  H  H134  1  0.164000  0.582900  0.131900  1.0  0.0611
  H  H135  1  0.065600  0.649900  0.122700  1.0  0.0993
  H  H136  1  0.988300  0.723900  0.125800  1.0  0.1265
  H  H137  1  0.951400  0.818700  0.128700  1.0  0.0963
  H  H138  1  0.934400  0.897200  0.102300  1.0  0.048
  H  H139  1  0.713400  0.865500  0.066700  1.0  0.0536
  H  H140  1  0.724300  0.779800  0.087500  1.0  0.0769
  H  H141  1  0.679300  0.551500  0.218300  1.0  0.0946
  H  H142  1  0.684300  0.544200  0.273800  1.0  0.0571
  H  H143  1  0.842700  0.427200  0.274800  1.0  0.0661
  H  H144  1  0.842500  0.432200  0.219600  1.0  0.0984
  H  H145  1  0.805300  0.425800  0.161400  1.0  0.1144
  H  H146  1  0.765000  0.389500  0.102400  1.0  0.1035
  H  H147  1  0.794400  0.352600  0.053300  1.0  0.0698
  H  H148  1  0.900300  0.481900  0.027400  1.0  0.0625
  H  H149  1  0.870400  0.521800  0.075300  1.0  0.0949
  H  H150  1  0.035600  0.090900  0.028000  1.0  0.1174
  H  H151  1  0.074500  0.092100  0.975400  1.0  0.0526
  H  H152  1  0.181300  0.956500  0.986900  1.0  0.0501
  H  H153  1  0.149400  0.950700  0.038800  1.0  0.0948
  H  H154  1  0.079400  0.938600  0.088300  1.0  0.1267
  H  H155  1  0.114900  0.897600  0.144400  1.0  0.1118
  H  H156  1  0.093400  0.849500  0.190000  1.0  0.0615
  H  H157  1  0.946600  0.956800  0.220700  1.0  0.0566
  H  H158  1  0.966100  0.009100  0.176900  1.0  0.0875
  H  H159  1  0.862100  0.115700  0.099600  1.0  0.0909
  H  H160  1  0.746300  0.082900  0.066100  1.0  0.0563
  H  H161  1  0.704500  0.216000  0.024100  1.0  0.0554
  H  H162  1  0.815400  0.253400  0.056300  1.0  0.0968
  H  H163  1  0.881200  0.289600  0.113500  1.0  0.118
  H  H164  1  0.959100  0.372200  0.123500  1.0  0.0867
  H  H165  1  0.025300  0.446700  0.140500  1.0  0.0601
  H  H166  1  0.228900  0.371800  0.175400  1.0  0.0594
  H  H167  1  0.163500  0.294700  0.162700  1.0  0.0584
  H  H168  1  0.073900  0.261300  0.068200  1.0  0.0828
  H  H169  1  0.971500  0.322700  0.053900  1.0  0.0582
  H  H170  1  0.957600  0.281400  0.962300  1.0  0.0641
  H  H171  1  0.063000  0.218700  0.974800  1.0  0.1021
  H  H172  1  0.230700  0.192500  0.994900  1.0  0.1164
  H  H173  1  0.319700  0.094400  0.984000  1.0  0.0986
  H  H174  1  0.453900  0.064200  0.976500  1.0  0.0632
  H  H175  1  0.540400  0.096400  0.066100  1.0  0.0513
  H  H176  1  0.410900  0.130700  0.076700  1.0  0.0934
  H  H177  1  0.658400  0.188800  0.290900  1.0  0.0949
  H  H178  1  0.543100  0.243300  0.278600  1.0  0.0539
  H  H179  1  0.690900  0.350500  0.248500  1.0  0.0499
  H  H180  1  0.810800  0.300200  0.261700  1.0  0.0996
  H  H181  1  0.929700  0.252300  0.274300  1.0  0.1175
  H  H182  1  0.076200  0.259400  0.299700  1.0  0.0938
  H  H183  1  0.221700  0.260600  0.310000  1.0  0.0853
  H  H184  1  0.226000  0.110300  0.321000  1.0  0.0536
  H  H185  1  0.076300  0.107600  0.313400  1.0  0.074
  H  H186  1  0.581400  0.078800  0.316600  1.0  0.0976
  H  H187  1  0.473600  0.017400  0.306300  1.0  0.0613
  H  H188  1  0.336000  0.082900  0.368100  1.0  0.0613
  H  H189  1  0.434400  0.149900  0.377300  1.0  0.0994
  H  H190  1  0.511700  0.223900  0.374200  1.0  0.1259
  H  H191  1  0.548600  0.318700  0.371300  1.0  0.0961
  H  H192  1  0.565600  0.397200  0.397700  1.0  0.0476
  H  H193  1  0.786600  0.365500  0.433300  1.0  0.0542
  H  H194  1  0.775700  0.279800  0.412500  1.0  0.0769
  H  H195  1  0.820700  0.051500  0.281700  1.0  0.0941
  H  H196  1  0.815700  0.044200  0.226200  1.0  0.0576
  H  H197  1  0.657300  0.927200  0.225200  1.0  0.0661
  H  H198  1  0.657500  0.932200  0.280400  1.0  0.0977
  H  H199  1  0.694700  0.925800  0.338600  1.0  0.1142
  H  H200  1  0.735000  0.889500  0.397600  1.0  0.1032
  H  H201  1  0.705600  0.852600  0.446700  1.0  0.0696
  H  H202  1  0.599700  0.981900  0.472600  1.0  0.0632
  H  H203  1  0.629600  0.021800  0.424700  1.0  0.0952
  H  H204  1  0.464400  0.590900  0.472000  1.0  0.1168
  H  H205  1  0.425500  0.592100  0.524600  1.0  0.0528
  H  H206  1  0.318700  0.456500  0.513100  1.0  0.0498
  H  H207  1  0.350600  0.450700  0.461200  1.0  0.0951
  H  H208  1  0.420600  0.438600  0.411700  1.0  0.1268
  H  H209  1  0.385100  0.397600  0.355600  1.0  0.1117
  H  H210  1  0.406600  0.349500  0.310000  1.0  0.0626
  H  H211  1  0.553400  0.456800  0.279300  1.0  0.0567
  H  H212  1  0.533900  0.509100  0.323100  1.0  0.0874
  H  H213  1  0.637900  0.615700  0.400400  1.0  0.0905
  H  H214  1  0.753700  0.582900  0.433900  1.0  0.0563
  H  H215  1  0.795500  0.716000  0.475900  1.0  0.0549
  H  H216  1  0.684600  0.753400  0.443700  1.0  0.0968
  H  H217  1  0.618800  0.789600  0.386500  1.0  0.1183
  H  H218  1  0.540900  0.872200  0.376500  1.0  0.0863
  H  H219  1  0.474700  0.946700  0.359500  1.0  0.0595
  H  H220  1  0.271100  0.871800  0.324600  1.0  0.0594
  H  H221  1  0.336500  0.794700  0.337300  1.0  0.058
  H  H222  1  0.426100  0.761300  0.431800  1.0  0.0827
  H  H223  1  0.528500  0.822700  0.446100  1.0  0.0587
  H  H224  1  0.542400  0.781400  0.537700  1.0  0.0637
  H  H225  1  0.437000  0.718700  0.525200  1.0  0.1013
  H  H226  1  0.269300  0.692500  0.505100  1.0  0.117
  H  H227  1  0.180300  0.594400  0.516000  1.0  0.0991
  H  H228  1  0.046100  0.564200  0.523500  1.0  0.0624
  H  H229  1  0.959600  0.596400  0.433900  1.0  0.0502
  H  H230  1  0.089100  0.630700  0.423300  1.0  0.0938
  H  H231  1  0.158400  0.688800  0.290900  1.0  0.0949
  H  H232  1  0.043100  0.743300  0.278600  1.0  0.0539
  H  H233  1  0.190900  0.850500  0.248500  1.0  0.0499
  H  H234  1  0.310800  0.800200  0.261700  1.0  0.0996
  H  H235  1  0.429700  0.752300  0.274300  1.0  0.1175
  H  H236  1  0.576200  0.759400  0.299700  1.0  0.0938
  H  H237  1  0.721700  0.760600  0.310000  1.0  0.0853
  H  H238  1  0.726000  0.610300  0.321000  1.0  0.0536
  H  H239  1  0.576300  0.607600  0.313400  1.0  0.0741
  H  H240  1  0.081400  0.578800  0.316600  1.0  0.0976
  H  H241  1  0.973600  0.517400  0.306300  1.0  0.0613
  H  H242  1  0.836000  0.582900  0.368100  1.0  0.0613
  H  H243  1  0.934400  0.649900  0.377300  1.0  0.0994
  H  H244  1  0.011700  0.723900  0.374200  1.0  0.1259
  H  H245  1  0.048600  0.818700  0.371300  1.0  0.0961
  H  H246  1  0.065600  0.897200  0.397700  1.0  0.0476
  H  H247  1  0.286600  0.865500  0.433300  1.0  0.0542
  H  H248  1  0.275700  0.779800  0.412500  1.0  0.0769
  H  H249  1  0.320700  0.551500  0.281700  1.0  0.0941
  H  H250  1  0.315700  0.544200  0.226200  1.0  0.0576
  H  H251  1  0.157300  0.427200  0.225200  1.0  0.0661
  H  H252  1  0.157500  0.432200  0.280400  1.0  0.0977
  H  H253  1  0.194700  0.425800  0.338600  1.0  0.1142
  H  H254  1  0.235000  0.389500  0.397600  1.0  0.1032
  H  H255  1  0.205600  0.352600  0.446700  1.0  0.0696
  H  H256  1  0.099700  0.481900  0.472600  1.0  0.0633
  H  H257  1  0.129600  0.521800  0.424700  1.0  0.0953
  H  H258  1  0.964400  0.090900  0.472000  1.0  0.1168
  H  H259  1  0.925500  0.092100  0.524600  1.0  0.0528
  H  H260  1  0.818700  0.956500  0.513100  1.0  0.0498
  H  H261  1  0.850600  0.950700  0.461200  1.0  0.0951
  H  H262  1  0.920600  0.938600  0.411700  1.0  0.1268
  H  H263  1  0.885100  0.897600  0.355600  1.0  0.1117
  H  H264  1  0.906600  0.849500  0.310000  1.0  0.0626
  H  H265  1  0.053400  0.956800  0.279300  1.0  0.0567
  H  H266  1  0.033900  0.009100  0.323100  1.0  0.0874
  H  H267  1  0.137900  0.115700  0.400400  1.0  0.0905
  H  H268  1  0.253700  0.082900  0.433900  1.0  0.0563
  H  H269  1  0.295500  0.216000  0.475900  1.0  0.0549
  H  H270  1  0.184600  0.253400  0.443700  1.0  0.0968
  H  H271  1  0.118800  0.289600  0.386500  1.0  0.1183
  H  H272  1  0.040900  0.372200  0.376500  1.0  0.0863
  H  H273  1  0.974700  0.446700  0.359500  1.0  0.0595
  H  H274  1  0.771100  0.371800  0.324600  1.0  0.0594
  H  H275  1  0.836500  0.294700  0.337300  1.0  0.058
  H  H276  1  0.926100  0.261300  0.431800  1.0  0.0827
  H  H277  1  0.028500  0.322700  0.446100  1.0  0.0587
  H  H278  1  0.042400  0.281400  0.537700  1.0  0.0637
  H  H279  1  0.937000  0.218700  0.525200  1.0  0.1013
  H  H280  1  0.769300  0.192500  0.505100  1.0  0.117
  H  H281  1  0.680300  0.094400  0.516000  1.0  0.0991
  H  H282  1  0.546100  0.064200  0.523500  1.0  0.0624
  H  H283  1  0.459600  0.096400  0.433900  1.0  0.051
  H  H284  1  0.589100  0.130700  0.423300  1.0  0.0938
  H  H285  1  0.658400  0.811200  0.790900  1.0  0.0954
  H  H286  1  0.543100  0.756700  0.778600  1.0  0.0539
  H  H287  1  0.690900  0.649500  0.748500  1.0  0.0486
  H  H288  1  0.810800  0.699800  0.761700  1.0  0.0994
  H  H289  1  0.929700  0.747700  0.774300  1.0  0.1174
  H  H290  1  0.076200  0.740600  0.799700  1.0  0.0937
  H  H291  1  0.221700  0.739400  0.810000  1.0  0.0845
  H  H292  1  0.226000  0.889700  0.821000  1.0  0.0532
  H  H293  1  0.076300  0.892400  0.813400  1.0  0.0741
  H  H294  1  0.581400  0.921200  0.816600  1.0  0.0977
  H  H295  1  0.473600  0.982600  0.806300  1.0  0.0617
  H  H296  1  0.336000  0.917100  0.868100  1.0  0.0613
  H  H297  1  0.434400  0.850100  0.877300  1.0  0.0993
  H  H298  1  0.511700  0.776100  0.874200  1.0  0.1261
  H  H299  1  0.548600  0.681300  0.871300  1.0  0.0962
  H  H300  1  0.565600  0.602800  0.897700  1.0  0.0477
  H  H301  1  0.786600  0.634500  0.933300  1.0  0.0542
  H  H302  1  0.775700  0.720200  0.912500  1.0  0.0759
  H  H303  1  0.820700  0.948500  0.781700  1.0  0.0943
  H  H304  1  0.815700  0.955800  0.726200  1.0  0.0575
  H  H305  1  0.657300  0.072800  0.725200  1.0  0.0668
  H  H306  1  0.657500  0.067800  0.780400  1.0  0.0979
  H  H307  1  0.694700  0.074200  0.838600  1.0  0.1145
  H  H308  1  0.735000  0.110500  0.897600  1.0  0.1031
  H  H309  1  0.705600  0.147400  0.946700  1.0  0.0694
  H  H310  1  0.599700  0.018100  0.972600  1.0  0.0634
  H  H311  1  0.629600  0.978200  0.924700  1.0  0.095
  H  H312  1  0.464400  0.409100  0.972000  1.0  0.1166
  H  H313  1  0.425500  0.407900  0.024600  1.0  0.0531
  H  H314  1  0.318700  0.543500  0.013100  1.0  0.05
  H  H315  1  0.350600  0.549300  0.961200  1.0  0.0955
  H  H316  1  0.420600  0.561400  0.911700  1.0  0.1273
  H  H317  1  0.385100  0.602400  0.855600  1.0  0.1117
  H  H318  1  0.406600  0.650500  0.810000  1.0  0.0608
  H  H319  1  0.553400  0.543200  0.779300  1.0  0.0565
  H  H320  1  0.533900  0.490900  0.823100  1.0  0.0875
  H  H321  1  0.637900  0.384300  0.900400  1.0  0.091
  H  H322  1  0.753700  0.417100  0.933900  1.0  0.0552
  H  H323  1  0.795500  0.284000  0.975900  1.0  0.0561
  H  H324  1  0.684600  0.246600  0.943700  1.0  0.097
  H  H325  1  0.618800  0.210400  0.886500  1.0  0.1178
  H  H326  1  0.540900  0.127800  0.876500  1.0  0.0865
  H  H327  1  0.474700  0.053300  0.859500  1.0  0.0601
  H  H328  1  0.271100  0.128200  0.824600  1.0  0.0592
  H  H329  1  0.336500  0.205300  0.837300  1.0  0.058
  H  H330  1  0.426100  0.238700  0.931800  1.0  0.0828
  H  H331  1  0.528500  0.177300  0.946100  1.0  0.0586
  H  H332  1  0.542400  0.218600  0.037700  1.0  0.064
  H  H333  1  0.437000  0.281300  0.025200  1.0  0.1014
  H  H334  1  0.269300  0.307500  0.005100  1.0  0.117
  H  H335  1  0.180300  0.405600  0.016000  1.0  0.0991
  H  H336  1  0.046100  0.435800  0.023500  1.0  0.0625
  H  H337  1  0.959600  0.403600  0.933900  1.0  0.0506
  H  H338  1  0.089100  0.369300  0.923300  1.0  0.0934
  H  H339  1  0.158400  0.311200  0.790900  1.0  0.0954
  H  H340  1  0.043100  0.256700  0.778600  1.0  0.0539
  H  H341  1  0.190900  0.149500  0.748500  1.0  0.0486
  H  H342  1  0.310800  0.199800  0.761700  1.0  0.0994
  H  H343  1  0.429700  0.247700  0.774300  1.0  0.1174
  H  H344  1  0.576200  0.240600  0.799700  1.0  0.0937
  H  H345  1  0.721700  0.239400  0.810000  1.0  0.0845
  H  H346  1  0.726000  0.389700  0.821000  1.0  0.0532
  H  H347  1  0.576300  0.392400  0.813400  1.0  0.0742
  H  H348  1  0.081400  0.421200  0.816600  1.0  0.0977
  H  H349  1  0.973600  0.482600  0.806300  1.0  0.0617
  H  H350  1  0.836000  0.417100  0.868100  1.0  0.0613
  H  H351  1  0.934400  0.350100  0.877300  1.0  0.0993
  H  H352  1  0.011700  0.276100  0.874200  1.0  0.1261
  H  H353  1  0.048600  0.181300  0.871300  1.0  0.0962
  H  H354  1  0.065600  0.102800  0.897700  1.0  0.0477
  H  H355  1  0.286600  0.134500  0.933300  1.0  0.0542
  H  H356  1  0.275700  0.220200  0.912500  1.0  0.0759
  H  H357  1  0.320700  0.448500  0.781700  1.0  0.0943
  H  H358  1  0.315700  0.455800  0.726200  1.0  0.0575
  H  H359  1  0.157300  0.572800  0.725200  1.0  0.0668
  H  H360  1  0.157500  0.567800  0.780400  1.0  0.0979
  H  H361  1  0.194700  0.574200  0.838600  1.0  0.1145
  H  H362  1  0.235000  0.610500  0.897600  1.0  0.1031
  H  H363  1  0.205600  0.647400  0.946700  1.0  0.0694
  H  H364  1  0.099700  0.518100  0.972600  1.0  0.0634
  H  H365  1  0.129600  0.478200  0.924700  1.0  0.095
  H  H366  1  0.964400  0.909100  0.972000  1.0  0.1166
  H  H367  1  0.925500  0.907900  0.024600  1.0  0.0531
  H  H368  1  0.818700  0.043500  0.013100  1.0  0.05
  H  H369  1  0.850600  0.049300  0.961200  1.0  0.0955
  H  H370  1  0.920600  0.061400  0.911700  1.0  0.1273
  H  H371  1  0.885100  0.102400  0.855600  1.0  0.1117
  H  H372  1  0.906600  0.150500  0.810000  1.0  0.0608
  H  H373  1  0.053400  0.043200  0.779300  1.0  0.0565
  H  H374  1  0.033900  0.990900  0.823100  1.0  0.0875
  H  H375  1  0.137900  0.884300  0.900400  1.0  0.091
  H  H376  1  0.253700  0.917100  0.933900  1.0  0.0552
  H  H377  1  0.295500  0.784000  0.975900  1.0  0.0561
  H  H378  1  0.184600  0.746600  0.943700  1.0  0.097
  H  H379  1  0.118800  0.710400  0.886500  1.0  0.1178
  H  H380  1  0.040900  0.627800  0.876500  1.0  0.0865
  H  H381  1  0.974700  0.553300  0.859500  1.0  0.0601
  H  H382  1  0.771100  0.628200  0.824600  1.0  0.0592
  H  H383  1  0.836500  0.705300  0.837300  1.0  0.058
  H  H384  1  0.926100  0.738700  0.931800  1.0  0.0828
  H  H385  1  0.028500  0.677300  0.946100  1.0  0.0586
  H  H386  1  0.042400  0.718600  0.037700  1.0  0.064
  H  H387  1  0.937000  0.781300  0.025200  1.0  0.1014
  H  H388  1  0.769300  0.807500  0.005100  1.0  0.117
  H  H389  1  0.680300  0.905600  0.016000  1.0  0.0991
  H  H390  1  0.546100  0.935800  0.023500  1.0  0.0625
  H  H391  1  0.459600  0.903600  0.933900  1.0  0.0515
  H  H392  1  0.589100  0.869300  0.923300  1.0  0.0934
  H  H393  1  0.341600  0.811200  0.709100  1.0  0.0946
  H  H394  1  0.456900  0.756700  0.721400  1.0  0.0547
  H  H395  1  0.309100  0.649500  0.751500  1.0  0.0499
  H  H396  1  0.189200  0.699800  0.738300  1.0  0.0993
  H  H397  1  0.070300  0.747700  0.725700  1.0  0.1176
  H  H398  1  0.923800  0.740600  0.700300  1.0  0.0937
  H  H399  1  0.778300  0.739400  0.690000  1.0  0.0848
  H  H400  1  0.774000  0.889700  0.679000  1.0  0.0532
  H  H401  1  0.923700  0.892400  0.686600  1.0  0.0735
  H  H402  1  0.418600  0.921200  0.683400  1.0  0.0986
  H  H403  1  0.526400  0.982600  0.693700  1.0  0.0618
  H  H404  1  0.664000  0.917100  0.631900  1.0  0.0611
  H  H405  1  0.565600  0.850100  0.622700  1.0  0.099
  H  H406  1  0.488300  0.776100  0.625800  1.0  0.1261
  H  H407  1  0.451400  0.681300  0.628700  1.0  0.0963
  H  H408  1  0.434400  0.602800  0.602300  1.0  0.0482
  H  H409  1  0.213400  0.634500  0.566700  1.0  0.0536
  H  H410  1  0.224300  0.720200  0.587500  1.0  0.0765
  H  H411  1  0.179300  0.948500  0.718300  1.0  0.0948
  H  H412  1  0.184300  0.955800  0.773800  1.0  0.0573
  H  H413  1  0.342700  0.072800  0.774800  1.0  0.0662
  H  H414  1  0.342500  0.067800  0.719600  1.0  0.0983
  H  H415  1  0.305300  0.074200  0.661400  1.0  0.1142
  H  H416  1  0.265000  0.110500  0.602400  1.0  0.103
  H  H417  1  0.294400  0.147400  0.553300  1.0  0.0699
  H  H418  1  0.400300  0.018100  0.527400  1.0  0.0625
  H  H419  1  0.370400  0.978200  0.575300  1.0  0.095
  H  H420  1  0.535600  0.409100  0.528000  1.0  0.117
  H  H421  1  0.574500  0.407900  0.475400  1.0  0.0529
  H  H422  1  0.681300  0.543500  0.486900  1.0  0.0502
  H  H423  1  0.649400  0.549300  0.538800  1.0  0.0951
  H  H424  1  0.579400  0.561400  0.588300  1.0  0.1276
  H  H425  1  0.614900  0.602400  0.644400  1.0  0.112
  H  H426  1  0.593400  0.650500  0.690000  1.0  0.0607
  H  H427  1  0.446600  0.543200  0.720700  1.0  0.0567
  H  H428  1  0.466100  0.490900  0.676900  1.0  0.0875
  H  H429  1  0.362100  0.384300  0.599600  1.0  0.0909
  H  H430  1  0.246300  0.417100  0.566100  1.0  0.0551
  H  H431  1  0.204500  0.284000  0.524100  1.0  0.0561
  H  H432  1  0.315400  0.246600  0.556300  1.0  0.0968
  H  H433  1  0.381200  0.210400  0.613500  1.0  0.1181
  H  H434  1  0.459100  0.127800  0.623500  1.0  0.0865
  H  H435  1  0.525300  0.053300  0.640500  1.0  0.0602
  H  H436  1  0.728900  0.128200  0.675400  1.0  0.0597
  H  H437  1  0.663500  0.205300  0.662700  1.0  0.0583
  H  H438  1  0.573900  0.238700  0.568200  1.0  0.0829
  H  H439  1  0.471500  0.177300  0.553900  1.0  0.0584
  H  H440  1  0.457600  0.218600  0.462300  1.0  0.0643
  H  H441  1  0.563000  0.281300  0.474800  1.0  0.1021
  H  H442  1  0.730700  0.307500  0.494900  1.0  0.1164
  H  H443  1  0.819700  0.405600  0.484000  1.0  0.0991
  H  H444  1  0.953900  0.435800  0.476500  1.0  0.0634
  H  H445  1  0.040400  0.403600  0.566100  1.0  0.0504
  H  H446  1  0.910900  0.369300  0.576700  1.0  0.0932
  H  H447  1  0.841600  0.311200  0.709100  1.0  0.0946
  H  H448  1  0.956900  0.256700  0.721400  1.0  0.0547
  H  H449  1  0.809100  0.149500  0.751500  1.0  0.0499
  H  H450  1  0.689200  0.199800  0.738300  1.0  0.0993
  H  H451  1  0.570300  0.247700  0.725700  1.0  0.1176
  H  H452  1  0.423800  0.240600  0.700300  1.0  0.0937
  H  H453  1  0.278300  0.239400  0.690000  1.0  0.0848
  H  H454  1  0.274000  0.389700  0.679000  1.0  0.0532
  H  H455  1  0.423700  0.392400  0.686600  1.0  0.0735
  H  H456  1  0.918600  0.421200  0.683400  1.0  0.0986
  H  H457  1  0.026400  0.482600  0.693700  1.0  0.0618
  H  H458  1  0.164000  0.417100  0.631900  1.0  0.0611
  H  H459  1  0.065600  0.350100  0.622700  1.0  0.099
  H  H460  1  0.988300  0.276100  0.625800  1.0  0.1261
  H  H461  1  0.951400  0.181300  0.628700  1.0  0.0963
  H  H462  1  0.934400  0.102800  0.602300  1.0  0.0482
  H  H463  1  0.713400  0.134500  0.566700  1.0  0.0536
  H  H464  1  0.724300  0.220200  0.587500  1.0  0.0765
  H  H465  1  0.679300  0.448500  0.718300  1.0  0.0948
  H  H466  1  0.684300  0.455800  0.773800  1.0  0.0573
  H  H467  1  0.842700  0.572800  0.774800  1.0  0.0662
  H  H468  1  0.842500  0.567800  0.719600  1.0  0.0983
  H  H469  1  0.805300  0.574200  0.661400  1.0  0.1142
  H  H470  1  0.765000  0.610500  0.602400  1.0  0.103
  H  H471  1  0.794400  0.647400  0.553300  1.0  0.0699
  H  H472  1  0.900300  0.518100  0.527400  1.0  0.0625
  H  H473  1  0.870400  0.478200  0.575300  1.0  0.0951
  H  H474  1  0.035600  0.909100  0.528000  1.0  0.117
  H  H475  1  0.074500  0.907900  0.475400  1.0  0.0529
  H  H476  1  0.181300  0.043500  0.486900  1.0  0.0502
  H  H477  1  0.149400  0.049300  0.538800  1.0  0.0951
  H  H478  1  0.079400  0.061400  0.588300  1.0  0.1276
  H  H479  1  0.114900  0.102400  0.644400  1.0  0.112
  H  H480  1  0.093400  0.150500  0.690000  1.0  0.0607
  H  H481  1  0.946600  0.043200  0.720700  1.0  0.0567
  H  H482  1  0.966100  0.990900  0.676900  1.0  0.0875
  H  H483  1  0.862100  0.884300  0.599600  1.0  0.0909
  H  H484  1  0.746300  0.917100  0.566100  1.0  0.0551
  H  H485  1  0.704500  0.784000  0.524100  1.0  0.0561
  H  H486  1  0.815400  0.746600  0.556300  1.0  0.0968
  H  H487  1  0.881200  0.710400  0.613500  1.0  0.1181
  H  H488  1  0.959100  0.627800  0.623500  1.0  0.0865
  H  H489  1  0.025300  0.553300  0.640500  1.0  0.0602
  H  H490  1  0.228900  0.628200  0.675400  1.0  0.0597
  H  H491  1  0.163500  0.705300  0.662700  1.0  0.0583
  H  H492  1  0.073900  0.738700  0.568200  1.0  0.0829
  H  H493  1  0.971500  0.677300  0.553900  1.0  0.0584
  H  H494  1  0.957600  0.718600  0.462300  1.0  0.0643
  H  H495  1  0.063000  0.781300  0.474800  1.0  0.1021
  H  H496  1  0.230700  0.807500  0.494900  1.0  0.1164
  H  H497  1  0.319700  0.905600  0.484000  1.0  0.0991
  H  H498  1  0.453900  0.935800  0.476500  1.0  0.0634
  H  H499  1  0.540400  0.903600  0.566100  1.0  0.0513
  H  H500  1  0.410900  0.869300  0.576700  1.0  0.0932
  C  C501  1  0.332800  0.222200  0.217100  1.0  -0.1615
  C  C502  1  0.402300  0.255200  0.224900  1.0  0.1694
  C  C503  1  0.316100  0.317800  0.242200  1.0  0.1586
  C  C504  1  0.243200  0.287600  0.234500  1.0  -0.2199
  C  C505  1  0.251200  0.238600  0.221040  1.0  0.0285
  C  C506  1  0.172000  0.207900  0.211200  1.0  0.0615
  C  C507  1  0.087700  0.222600  0.215100  1.0  -0.1046
  C  C508  1  0.035100  0.184000  0.199940  1.0  0.1036
  C  C509  1  0.941000  0.182100  0.195000  1.0  0.0887
  C  C510  1  0.894400  0.228100  0.195800  1.0  -0.1502
  C  C511  1  0.807000  0.228700  0.190300  1.0  0.1232
  C  C512  1  0.804100  0.141300  0.183600  1.0  0.152
  C  C513  1  0.895600  0.139400  0.188300  1.0  -0.1272
  C  C514  1  0.468400  0.081300  0.172900  1.0  -0.1813
  C  C515  1  0.533700  0.043900  0.178600  1.0  0.16
  C  C516  1  0.614900  0.082700  0.142900  1.0  0.1253
  C  C517  1  0.554800  0.122600  0.136700  1.0  -0.2138
  C  C518  1  0.478700  0.121900  0.151300  1.0  0.0638
  C  C519  1  0.416900  0.163900  0.143400  1.0  0.1207
  C  C520  1  0.434600  0.211300  0.130000  1.0  -0.1209
  C  C521  1  0.356700  0.236500  0.124100  1.0  0.1412
  C  C522  1  0.341400  0.289000  0.109700  1.0  0.2906
  C  C523  1  0.401200  0.325200  0.114800  1.0  -0.2255
  C  C524  1  0.388600  0.373700  0.099000  1.0  0.0795
  C  C525  1  0.265200  0.355500  0.078500  1.0  0.1138
  C  C526  1  0.270200  0.303000  0.091700  1.0  -0.211
  C  C527  1  0.215300  0.026700  0.229300  1.0  -0.1788
  C  C528  1  0.217800  0.021500  0.262800  1.0  0.1546
  C  C529  1  0.310300  0.953400  0.263500  1.0  0.1553
  C  C530  1  0.311000  0.956500  0.230300  1.0  -0.1999
  C  C531  1  0.265700  0.995400  0.212010  1.0  0.0689
  C  C532  1  0.271400  0.999800  0.176890  1.0  0.1339
  C  C533  1  0.293700  0.960700  0.156090  1.0  -0.1504
  C  C534  1  0.295100  0.984400  0.125580  1.0  0.1123
  C  C535  1  0.314000  0.960100  0.094120  1.0  -0.0111
  C  C536  1  0.292000  0.909200  0.087350  1.0  -0.1827
  C  C537  1  0.310500  0.887100  0.057700  1.0  0.1639
  C  C538  1  0.372200  0.963000  0.042500  1.0  0.1489
  C  C539  1  0.354600  0.987100  0.071300  1.0  -0.1091
  C  C540  1  0.566500  0.563100  0.020460  1.0  -0.1892
  C  C541  1  0.590300  0.563300  0.988600  1.0  0.1603
  C  C542  1  0.652700  0.484500  0.995300  1.0  0.1782
  C  C543  1  0.633500  0.480500  0.026600  1.0  -0.2117
  C  C544  1  0.589800  0.520700  0.040740  1.0  0.0331
  C  C545  1  0.570400  0.517600  0.075080  1.0  0.1189
  C  C546  1  0.570100  0.472900  0.094570  1.0  -0.0804
  C  C547  1  0.553200  0.490400  0.125250  1.0  0.068
  C  C548  1  0.542100  0.460200  0.155190  1.0  0.0687
  C  C549  1  0.580900  0.410900  0.159780  1.0  -0.227
  C  C550  1  0.567800  0.382300  0.187500  1.0  0.1671
  C  C551  1  0.482400  0.445200  0.205500  1.0  0.1639
  C  C552  1  0.492800  0.476600  0.178800  1.0  -0.1484
  C  C553  1  0.331200  0.637500  0.084300  1.0  -0.1727
  C  C554  1  0.261700  0.617700  0.063500  1.0  0.162
  C  C555  1  0.237400  0.695000  0.039300  1.0  0.1722
  C  C556  1  0.303700  0.718000  0.058800  1.0  -0.2085
  C  C557  1  0.354000  0.688600  0.082500  1.0  0.0495
  C  C558  1  0.425300  0.715200  0.102560  1.0  0.1248
  C  C559  1  0.426900  0.766000  0.114500  1.0  -0.1082
  C  C560  1  0.511400  0.774300  0.128450  1.0  0.0964
  C  C561  1  0.552400  0.823000  0.140720  1.0  0.0833
  C  C562  1  0.514400  0.870600  0.134700  1.0  -0.2238
  C  C563  1  0.555000  0.915400  0.144700  1.0  0.1806
  C  C564  1  0.672300  0.872200  0.165300  1.0  0.1619
  C  C565  1  0.633800  0.825500  0.157100  1.0  -0.2248
  C  C566  1  0.551400  0.764500  0.046300  1.0  -0.2025
  C  C567  1  0.490300  0.801800  0.037500  1.0  0.1613
  C  C568  1  0.482100  0.778000  0.984000  1.0  0.1584
  C  C569  1  0.545000  0.739300  0.991600  1.0  -0.1641
  C  C570  1  0.579900  0.731700  0.023320  1.0  0.0621
  C  C571  1  0.649200  0.692700  0.032100  1.0  0.0838
  C  C572  1  0.718900  0.679900  0.015250  1.0  -0.1193
  C  C573  1  0.766700  0.644700  0.035200  1.0  0.1238
  C  C574  1  0.850600  0.621100  0.030740  1.0  0.0542
  C  C575  1  0.864600  0.597400  0.000900  1.0  -0.1851
  C  C576  1  0.945200  0.578500  0.996700  1.0  0.15
  C  C577  1  0.995900  0.597700  0.048900  1.0  0.1662
  C  C578  1  0.917900  0.618600  0.055700  1.0  -0.2285
  C  C579  1  0.277500  0.499100  0.134000  1.0  -0.0538
  C  C580  1  0.695800  0.501900  0.890900  1.0  -0.0527
  C  C581  1  0.832800  0.722200  0.217100  1.0  -0.1615
  C  C582  1  0.902300  0.755200  0.224900  1.0  0.1694
  C  C583  1  0.816100  0.817800  0.242200  1.0  0.1586
  C  C584  1  0.743200  0.787600  0.234500  1.0  -0.2199
  C  C585  1  0.751200  0.738600  0.221040  1.0  0.0285
  C  C586  1  0.672000  0.707900  0.211200  1.0  0.0615
  C  C587  1  0.587700  0.722600  0.215100  1.0  -0.1046
  C  C588  1  0.535100  0.684000  0.199940  1.0  0.1036
  C  C589  1  0.441000  0.682100  0.195000  1.0  0.0887
  C  C590  1  0.394400  0.728100  0.195800  1.0  -0.1502
  C  C591  1  0.307000  0.728700  0.190300  1.0  0.1232
  C  C592  1  0.304100  0.641300  0.183600  1.0  0.152
  C  C593  1  0.395600  0.639400  0.188300  1.0  -0.1272
  C  C594  1  0.968400  0.581300  0.172900  1.0  -0.1813
  C  C595  1  0.033700  0.543900  0.178600  1.0  0.16
  C  C596  1  0.114900  0.582700  0.142900  1.0  0.1253
  C  C597  1  0.054800  0.622600  0.136700  1.0  -0.2138
  C  C598  1  0.978700  0.621900  0.151300  1.0  0.0638
  C  C599  1  0.916900  0.663900  0.143400  1.0  0.1207
  C  C600  1  0.934600  0.711300  0.130000  1.0  -0.1209
  C  C601  1  0.856700  0.736500  0.124100  1.0  0.1412
  C  C602  1  0.841400  0.789000  0.109700  1.0  0.2906
  C  C603  1  0.901200  0.825200  0.114800  1.0  -0.2255
  C  C604  1  0.888600  0.873700  0.099000  1.0  0.0795
  C  C605  1  0.765200  0.855500  0.078500  1.0  0.1138
  C  C606  1  0.770200  0.803000  0.091700  1.0  -0.211
  C  C607  1  0.715300  0.526700  0.229300  1.0  -0.1788
  C  C608  1  0.717800  0.521500  0.262800  1.0  0.1546
  C  C609  1  0.810300  0.453400  0.263500  1.0  0.1553
  C  C610  1  0.811000  0.456500  0.230300  1.0  -0.1999
  C  C611  1  0.765700  0.495400  0.212010  1.0  0.0689
  C  C612  1  0.771400  0.499800  0.176890  1.0  0.1339
  C  C613  1  0.793700  0.460700  0.156090  1.0  -0.1504
  C  C614  1  0.795100  0.484400  0.125580  1.0  0.1123
  C  C615  1  0.814000  0.460100  0.094120  1.0  -0.0111
  C  C616  1  0.792000  0.409200  0.087350  1.0  -0.1827
  C  C617  1  0.810500  0.387100  0.057700  1.0  0.1639
  C  C618  1  0.872200  0.463000  0.042500  1.0  0.1489
  C  C619  1  0.854600  0.487100  0.071300  1.0  -0.1091
  C  C620  1  0.066500  0.063100  0.020460  1.0  -0.1892
  C  C621  1  0.090300  0.063300  0.988600  1.0  0.1603
  C  C622  1  0.152700  0.984500  0.995300  1.0  0.1782
  C  C623  1  0.133500  0.980500  0.026600  1.0  -0.2117
  C  C624  1  0.089800  0.020700  0.040740  1.0  0.0331
  C  C625  1  0.070400  0.017600  0.075080  1.0  0.1189
  C  C626  1  0.070100  0.972900  0.094570  1.0  -0.0804
  C  C627  1  0.053200  0.990400  0.125250  1.0  0.068
  C  C628  1  0.042100  0.960200  0.155190  1.0  0.0687
  C  C629  1  0.080900  0.910900  0.159780  1.0  -0.227
  C  C630  1  0.067800  0.882300  0.187500  1.0  0.1671
  C  C631  1  0.982400  0.945200  0.205500  1.0  0.1639
  C  C632  1  0.992800  0.976600  0.178800  1.0  -0.1484
  C  C633  1  0.831200  0.137500  0.084300  1.0  -0.1727
  C  C634  1  0.761700  0.117700  0.063500  1.0  0.162
  C  C635  1  0.737400  0.195000  0.039300  1.0  0.1722
  C  C636  1  0.803700  0.218000  0.058800  1.0  -0.2085
  C  C637  1  0.854000  0.188600  0.082500  1.0  0.0495
  C  C638  1  0.925300  0.215200  0.102560  1.0  0.1248
  C  C639  1  0.926900  0.266000  0.114500  1.0  -0.1082
  C  C640  1  0.011400  0.274300  0.128450  1.0  0.0964
  C  C641  1  0.052400  0.323000  0.140720  1.0  0.0833
  C  C642  1  0.014400  0.370600  0.134700  1.0  -0.2238
  C  C643  1  0.055000  0.415400  0.144700  1.0  0.1806
  C  C644  1  0.172300  0.372200  0.165300  1.0  0.1619
  C  C645  1  0.133800  0.325500  0.157100  1.0  -0.2248
  C  C646  1  0.051400  0.264500  0.046300  1.0  -0.2025
  C  C647  1  0.990300  0.301800  0.037500  1.0  0.1613
  C  C648  1  0.982100  0.278000  0.984000  1.0  0.1584
  C  C649  1  0.045000  0.239300  0.991600  1.0  -0.1641
  C  C650  1  0.079900  0.231700  0.023320  1.0  0.0621
  C  C651  1  0.149200  0.192700  0.032100  1.0  0.0838
  C  C652  1  0.218900  0.179900  0.015250  1.0  -0.1193
  C  C653  1  0.266700  0.144700  0.035200  1.0  0.1238
  C  C654  1  0.350600  0.121100  0.030740  1.0  0.0542
  C  C655  1  0.364600  0.097400  0.000900  1.0  -0.1851
  C  C656  1  0.445200  0.078500  0.996700  1.0  0.15
  C  C657  1  0.495900  0.097700  0.048900  1.0  0.1662
  C  C658  1  0.417900  0.118600  0.055700  1.0  -0.2285
  C  C659  1  0.777500  0.999100  0.134000  1.0  -0.0538
  C  C660  1  0.195800  0.001900  0.890900  1.0  -0.0527
  C  C661  1  0.667200  0.222200  0.282900  1.0  -0.1612
  C  C662  1  0.597700  0.255200  0.275100  1.0  0.1693
  C  C663  1  0.683900  0.317800  0.257800  1.0  0.1578
  C  C664  1  0.756800  0.287600  0.265500  1.0  -0.2213
  C  C665  1  0.748800  0.238600  0.278960  1.0  0.0294
  C  C666  1  0.828000  0.207900  0.288800  1.0  0.0582
  C  C667  1  0.912300  0.222600  0.284900  1.0  -0.103
  C  C668  1  0.964900  0.184000  0.300060  1.0  0.1042
  C  C669  1  0.059000  0.182100  0.305000  1.0  0.088
  C  C670  1  0.105600  0.228100  0.304200  1.0  -0.1505
  C  C671  1  0.193000  0.228700  0.309700  1.0  0.1241
  C  C672  1  0.195900  0.141300  0.316400  1.0  0.1533
  C  C673  1  0.104400  0.139400  0.311700  1.0  -0.1268
  C  C674  1  0.531600  0.081300  0.327100  1.0  -0.1834
  C  C675  1  0.466300  0.043900  0.321400  1.0  0.1604
  C  C676  1  0.385100  0.082700  0.357100  1.0  0.1262
  C  C677  1  0.445200  0.122600  0.363300  1.0  -0.2144
  C  C678  1  0.521300  0.121900  0.348700  1.0  0.065
  C  C679  1  0.583100  0.163900  0.356600  1.0  0.1202
  C  C680  1  0.565400  0.211300  0.370000  1.0  -0.1221
  C  C681  1  0.643300  0.236500  0.375900  1.0  0.1398
  C  C682  1  0.658600  0.289000  0.390300  1.0  0.2898
  C  C683  1  0.598800  0.325200  0.385200  1.0  -0.2265
  C  C684  1  0.611400  0.373700  0.401000  1.0  0.0797
  C  C685  1  0.734800  0.355500  0.421500  1.0  0.1147
  C  C686  1  0.729800  0.303000  0.408300  1.0  -0.2109
  C  C687  1  0.784700  0.026700  0.270700  1.0  -0.1794
  C  C688  1  0.782200  0.021500  0.237200  1.0  0.1548
  C  C689  1  0.689700  0.953400  0.236500  1.0  0.1548
  C  C690  1  0.689000  0.956500  0.269700  1.0  -0.1992
  C  C691  1  0.734300  0.995400  0.287990  1.0  0.0671
  C  C692  1  0.728600  0.999800  0.323110  1.0  0.1321
  C  C693  1  0.706300  0.960700  0.343910  1.0  -0.1511
  C  C694  1  0.704900  0.984400  0.374420  1.0  0.1126
  C  C695  1  0.686000  0.960100  0.405880  1.0  -0.0128
  C  C696  1  0.708000  0.909200  0.412650  1.0  -0.1849
  C  C697  1  0.689500  0.887100  0.442300  1.0  0.1631
  C  C698  1  0.627800  0.963000  0.457500  1.0  0.148
  C  C699  1  0.645400  0.987100  0.428700  1.0  -0.1077
  C  C700  1  0.433500  0.563100  0.479540  1.0  -0.19
  C  C701  1  0.409700  0.563300  0.511400  1.0  0.1606
  C  C702  1  0.347300  0.484500  0.504700  1.0  0.1774
  C  C703  1  0.366500  0.480500  0.473400  1.0  -0.2114
  C  C704  1  0.410200  0.520700  0.459260  1.0  0.035
  C  C705  1  0.429600  0.517600  0.424920  1.0  0.119
  C  C706  1  0.429900  0.472900  0.405430  1.0  -0.0803
  C  C707  1  0.446800  0.490400  0.374750  1.0  0.068
  C  C708  1  0.457900  0.460200  0.344810  1.0  0.0691
  C  C709  1  0.419100  0.410900  0.340220  1.0  -0.2254
  C  C710  1  0.432200  0.382300  0.312500  1.0  0.1677
  C  C711  1  0.517600  0.445200  0.294500  1.0  0.1635
  C  C712  1  0.507200  0.476600  0.321200  1.0  -0.1502
  C  C713  1  0.668800  0.637500  0.415700  1.0  -0.1736
  C  C714  1  0.738300  0.617700  0.436500  1.0  0.1628
  C  C715  1  0.762600  0.695000  0.460700  1.0  0.1725
  C  C716  1  0.696300  0.718000  0.441200  1.0  -0.2089
  C  C717  1  0.646000  0.688600  0.417500  1.0  0.0497
  C  C718  1  0.574700  0.715200  0.397440  1.0  0.1255
  C  C719  1  0.573100  0.766000  0.385500  1.0  -0.1087
  C  C720  1  0.488600  0.774300  0.371550  1.0  0.0975
  C  C721  1  0.447600  0.823000  0.359280  1.0  0.0833
  C  C722  1  0.485600  0.870600  0.365300  1.0  -0.2232
  C  C723  1  0.445000  0.915400  0.355300  1.0  0.1808
  C  C724  1  0.327700  0.872200  0.334700  1.0  0.1617
  C  C725  1  0.366200  0.825500  0.342900  1.0  -0.2244
  C  C726  1  0.448600  0.764500  0.453700  1.0  -0.2018
  C  C727  1  0.509700  0.801800  0.462500  1.0  0.1617
  C  C728  1  0.517900  0.778000  0.516000  1.0  0.1573
  C  C729  1  0.455000  0.739300  0.508400  1.0  -0.1632
  C  C730  1  0.420100  0.731700  0.476680  1.0  0.0638
  C  C731  1  0.350800  0.692700  0.467900  1.0  0.0848
  C  C732  1  0.281100  0.679900  0.484750  1.0  -0.1197
  C  C733  1  0.233300  0.644700  0.464800  1.0  0.1239
  C  C734  1  0.149400  0.621100  0.469260  1.0  0.0542
  C  C735  1  0.135400  0.597400  0.499100  1.0  -0.185
  C  C736  1  0.054800  0.578500  0.503300  1.0  0.149
  C  C737  1  0.004100  0.597700  0.451100  1.0  0.1657
  C  C738  1  0.082100  0.618600  0.444300  1.0  -0.2283
  C  C739  1  0.722500  0.499100  0.366000  1.0  -0.0548
  C  C740  1  0.304200  0.501900  0.609100  1.0  -0.0513
  C  C741  1  0.167200  0.722200  0.282900  1.0  -0.1612
  C  C742  1  0.097700  0.755200  0.275100  1.0  0.1693
  C  C743  1  0.183900  0.817800  0.257800  1.0  0.1578
  C  C744  1  0.256800  0.787600  0.265500  1.0  -0.2213
  C  C745  1  0.248800  0.738600  0.278960  1.0  0.0294
  C  C746  1  0.328000  0.707900  0.288800  1.0  0.0582
  C  C747  1  0.412300  0.722600  0.284900  1.0  -0.103
  C  C748  1  0.464900  0.684000  0.300060  1.0  0.1042
  C  C749  1  0.559000  0.682100  0.305000  1.0  0.088
  C  C750  1  0.605600  0.728100  0.304200  1.0  -0.1505
  C  C751  1  0.693000  0.728700  0.309700  1.0  0.1241
  C  C752  1  0.695900  0.641300  0.316400  1.0  0.1533
  C  C753  1  0.604400  0.639400  0.311700  1.0  -0.1268
  C  C754  1  0.031600  0.581300  0.327100  1.0  -0.1834
  C  C755  1  0.966300  0.543900  0.321400  1.0  0.1604
  C  C756  1  0.885100  0.582700  0.357100  1.0  0.1262
  C  C757  1  0.945200  0.622600  0.363300  1.0  -0.2144
  C  C758  1  0.021300  0.621900  0.348700  1.0  0.065
  C  C759  1  0.083100  0.663900  0.356600  1.0  0.1202
  C  C760  1  0.065400  0.711300  0.370000  1.0  -0.1221
  C  C761  1  0.143300  0.736500  0.375900  1.0  0.1398
  C  C762  1  0.158600  0.789000  0.390300  1.0  0.2898
  C  C763  1  0.098800  0.825200  0.385200  1.0  -0.2265
  C  C764  1  0.111400  0.873700  0.401000  1.0  0.0797
  C  C765  1  0.234800  0.855500  0.421500  1.0  0.1147
  C  C766  1  0.229800  0.803000  0.408300  1.0  -0.2109
  C  C767  1  0.284700  0.526700  0.270700  1.0  -0.1794
  C  C768  1  0.282200  0.521500  0.237200  1.0  0.1548
  C  C769  1  0.189700  0.453400  0.236500  1.0  0.1548
  C  C770  1  0.189000  0.456500  0.269700  1.0  -0.1992
  C  C771  1  0.234300  0.495400  0.287990  1.0  0.0671
  C  C772  1  0.228600  0.499800  0.323110  1.0  0.1321
  C  C773  1  0.206300  0.460700  0.343910  1.0  -0.1511
  C  C774  1  0.204900  0.484400  0.374420  1.0  0.1126
  C  C775  1  0.186000  0.460100  0.405880  1.0  -0.0128
  C  C776  1  0.208000  0.409200  0.412650  1.0  -0.1849
  C  C777  1  0.189500  0.387100  0.442300  1.0  0.1631
  C  C778  1  0.127800  0.463000  0.457500  1.0  0.148
  C  C779  1  0.145400  0.487100  0.428700  1.0  -0.1077
  C  C780  1  0.933500  0.063100  0.479540  1.0  -0.19
  C  C781  1  0.909700  0.063300  0.511400  1.0  0.1606
  C  C782  1  0.847300  0.984500  0.504700  1.0  0.1774
  C  C783  1  0.866500  0.980500  0.473400  1.0  -0.2114
  C  C784  1  0.910200  0.020700  0.459260  1.0  0.035
  C  C785  1  0.929600  0.017600  0.424920  1.0  0.119
  C  C786  1  0.929900  0.972900  0.405430  1.0  -0.0803
  C  C787  1  0.946800  0.990400  0.374750  1.0  0.068
  C  C788  1  0.957900  0.960200  0.344810  1.0  0.0691
  C  C789  1  0.919100  0.910900  0.340220  1.0  -0.2254
  C  C790  1  0.932200  0.882300  0.312500  1.0  0.1677
  C  C791  1  0.017600  0.945200  0.294500  1.0  0.1635
  C  C792  1  0.007200  0.976600  0.321200  1.0  -0.1502
  C  C793  1  0.168800  0.137500  0.415700  1.0  -0.1736
  C  C794  1  0.238300  0.117700  0.436500  1.0  0.1628
  C  C795  1  0.262600  0.195000  0.460700  1.0  0.1725
  C  C796  1  0.196300  0.218000  0.441200  1.0  -0.2089
  C  C797  1  0.146000  0.188600  0.417500  1.0  0.0497
  C  C798  1  0.074700  0.215200  0.397440  1.0  0.1255
  C  C799  1  0.073100  0.266000  0.385500  1.0  -0.1087
  C  C800  1  0.988600  0.274300  0.371550  1.0  0.0975
  C  C801  1  0.947600  0.323000  0.359280  1.0  0.0833
  C  C802  1  0.985600  0.370600  0.365300  1.0  -0.2232
  C  C803  1  0.945000  0.415400  0.355300  1.0  0.1808
  C  C804  1  0.827700  0.372200  0.334700  1.0  0.1617
  C  C805  1  0.866200  0.325500  0.342900  1.0  -0.2244
  C  C806  1  0.948600  0.264500  0.453700  1.0  -0.2018
  C  C807  1  0.009700  0.301800  0.462500  1.0  0.1617
  C  C808  1  0.017900  0.278000  0.516000  1.0  0.1573
  C  C809  1  0.955000  0.239300  0.508400  1.0  -0.1632
  C  C810  1  0.920100  0.231700  0.476680  1.0  0.0638
  C  C811  1  0.850800  0.192700  0.467900  1.0  0.0848
  C  C812  1  0.781100  0.179900  0.484750  1.0  -0.1197
  C  C813  1  0.733300  0.144700  0.464800  1.0  0.1239
  C  C814  1  0.649400  0.121100  0.469260  1.0  0.0542
  C  C815  1  0.635400  0.097400  0.499100  1.0  -0.185
  C  C816  1  0.554800  0.078500  0.503300  1.0  0.149
  C  C817  1  0.504100  0.097700  0.451100  1.0  0.1657
  C  C818  1  0.582100  0.118600  0.444300  1.0  -0.2283
  C  C819  1  0.222500  0.999100  0.366000  1.0  -0.0548
  C  C820  1  0.804200  0.001900  0.609100  1.0  -0.0513
  C  C821  1  0.667200  0.777800  0.782900  1.0  -0.1623
  C  C822  1  0.597700  0.744800  0.775100  1.0  0.1692
  C  C823  1  0.683900  0.682200  0.757800  1.0  0.1578
  C  C824  1  0.756800  0.712400  0.765500  1.0  -0.2209
  C  C825  1  0.748800  0.761400  0.778960  1.0  0.0297
  C  C826  1  0.828000  0.792100  0.788800  1.0  0.0595
  C  C827  1  0.912300  0.777400  0.784900  1.0  -0.1026
  C  C828  1  0.964900  0.816000  0.800060  1.0  0.1041
  C  C829  1  0.059000  0.817900  0.805000  1.0  0.0883
  C  C830  1  0.105600  0.771900  0.804200  1.0  -0.1482
  C  C831  1  0.193000  0.771300  0.809700  1.0  0.1243
  C  C832  1  0.195900  0.858700  0.816400  1.0  0.153
  C  C833  1  0.104400  0.860600  0.811700  1.0  -0.1289
  C  C834  1  0.531600  0.918700  0.827100  1.0  -0.1835
  C  C835  1  0.466300  0.956100  0.821400  1.0  0.1608
  C  C836  1  0.385100  0.917300  0.857100  1.0  0.126
  C  C837  1  0.445200  0.877400  0.863300  1.0  -0.215
  C  C838  1  0.521300  0.878100  0.848700  1.0  0.0639
  C  C839  1  0.583100  0.836100  0.856600  1.0  0.1206
  C  C840  1  0.565400  0.788700  0.870000  1.0  -0.1218
  C  C841  1  0.643300  0.763500  0.875900  1.0  0.1401
  C  C842  1  0.658600  0.711000  0.890300  1.0  0.2893
  C  C843  1  0.598800  0.674800  0.885200  1.0  -0.2266
  C  C844  1  0.611400  0.626300  0.901000  1.0  0.0795
  C  C845  1  0.734800  0.644500  0.921500  1.0  0.1149
  C  C846  1  0.729800  0.697000  0.908300  1.0  -0.2106
  C  C847  1  0.784700  0.973300  0.770700  1.0  -0.1785
  C  C848  1  0.782200  0.978500  0.737200  1.0  0.1545
  C  C849  1  0.689700  0.046600  0.736500  1.0  0.1545
  C  C850  1  0.689000  0.043500  0.769700  1.0  -0.2
  C  C851  1  0.734300  0.004600  0.787990  1.0  0.067
  C  C852  1  0.728600  0.000200  0.823110  1.0  0.1323
  C  C853  1  0.706300  0.039300  0.843910  1.0  -0.1505
  C  C854  1  0.704900  0.015600  0.874420  1.0  0.1123
  C  C855  1  0.686000  0.039900  0.905880  1.0  -0.0135
  C  C856  1  0.708000  0.090800  0.912650  1.0  -0.1853
  C  C857  1  0.689500  0.112900  0.942300  1.0  0.1627
  C  C858  1  0.627800  0.037000  0.957500  1.0  0.1481
  C  C859  1  0.645400  0.012900  0.928700  1.0  -0.1086
  C  C860  1  0.433500  0.436900  0.979540  1.0  -0.1894
  C  C861  1  0.409700  0.436700  0.011400  1.0  0.1614
  C  C862  1  0.347300  0.515500  0.004700  1.0  0.1776
  C  C863  1  0.366500  0.519500  0.973400  1.0  -0.2109
  C  C864  1  0.410200  0.479300  0.959260  1.0  0.0349
  C  C865  1  0.429600  0.482400  0.924920  1.0  0.1189
  C  C866  1  0.429900  0.527100  0.905430  1.0  -0.0819
  C  C867  1  0.446800  0.509600  0.874750  1.0  0.0681
  C  C868  1  0.457900  0.539800  0.844810  1.0  0.0689
  C  C869  1  0.419100  0.589100  0.840220  1.0  -0.2266
  C  C870  1  0.432200  0.617700  0.812500  1.0  0.1683
  C  C871  1  0.517600  0.554800  0.794500  1.0  0.1636
  C  C872  1  0.507200  0.523400  0.821200  1.0  -0.15
  C  C873  1  0.668800  0.362500  0.915700  1.0  -0.1735
  C  C874  1  0.738300  0.382300  0.936500  1.0  0.1616
  C  C875  1  0.762600  0.305000  0.960700  1.0  0.1728
  C  C876  1  0.696300  0.282000  0.941200  1.0  -0.2093
  C  C877  1  0.646000  0.311400  0.917500  1.0  0.05
  C  C878  1  0.574700  0.284800  0.897440  1.0  0.125
  C  C879  1  0.573100  0.234000  0.885500  1.0  -0.1089
  C  C880  1  0.488600  0.225700  0.871550  1.0  0.0968
  C  C881  1  0.447600  0.177000  0.859280  1.0  0.0836
  C  C882  1  0.485600  0.129400  0.865300  1.0  -0.223
  C  C883  1  0.445000  0.084600  0.855300  1.0  0.1808
  C  C884  1  0.327700  0.127800  0.834700  1.0  0.1614
  C  C885  1  0.366200  0.174500  0.842900  1.0  -0.2244
  C  C886  1  0.448600  0.235500  0.953700  1.0  -0.2018
  C  C887  1  0.509700  0.198200  0.962500  1.0  0.162
  C  C888  1  0.517900  0.222000  0.016000  1.0  0.1571
  C  C889  1  0.455000  0.260700  0.008400  1.0  -0.1635
  C  C890  1  0.420100  0.268300  0.976680  1.0  0.0645
  C  C891  1  0.350800  0.307300  0.967900  1.0  0.0849
  C  C892  1  0.281100  0.320100  0.984750  1.0  -0.1194
  C  C893  1  0.233300  0.355300  0.964800  1.0  0.124
  C  C894  1  0.149400  0.378900  0.969260  1.0  0.0544
  C  C895  1  0.135400  0.402600  0.999100  1.0  -0.1854
  C  C896  1  0.054800  0.421500  0.003300  1.0  0.1485
  C  C897  1  0.004100  0.402300  0.951100  1.0  0.1656
  C  C898  1  0.082100  0.381400  0.944300  1.0  -0.2283
  C  C899  1  0.167200  0.277800  0.782900  1.0  -0.1623
  C  C900  1  0.097700  0.244800  0.775100  1.0  0.1692
  C  C901  1  0.183900  0.182200  0.757800  1.0  0.1578
  C  C902  1  0.256800  0.212400  0.765500  1.0  -0.2209
  C  C903  1  0.248800  0.261400  0.778960  1.0  0.0297
  C  C904  1  0.328000  0.292100  0.788800  1.0  0.0595
  C  C905  1  0.412300  0.277400  0.784900  1.0  -0.1026
  C  C906  1  0.464900  0.316000  0.800060  1.0  0.1041
  C  C907  1  0.559000  0.317900  0.805000  1.0  0.0883
  C  C908  1  0.605600  0.271900  0.804200  1.0  -0.1482
  C  C909  1  0.693000  0.271300  0.809700  1.0  0.1243
  C  C910  1  0.695900  0.358700  0.816400  1.0  0.153
  C  C911  1  0.604400  0.360600  0.811700  1.0  -0.1289
  C  C912  1  0.031600  0.418700  0.827100  1.0  -0.1835
  C  C913  1  0.966300  0.456100  0.821400  1.0  0.1608
  C  C914  1  0.885100  0.417300  0.857100  1.0  0.126
  C  C915  1  0.945200  0.377400  0.863300  1.0  -0.215
  C  C916  1  0.021300  0.378100  0.848700  1.0  0.0639
  C  C917  1  0.083100  0.336100  0.856600  1.0  0.1206
  C  C918  1  0.065400  0.288700  0.870000  1.0  -0.1218
  C  C919  1  0.143300  0.263500  0.875900  1.0  0.1401
  C  C920  1  0.158600  0.211000  0.890300  1.0  0.2893
  C  C921  1  0.098800  0.174800  0.885200  1.0  -0.2266
  C  C922  1  0.111400  0.126300  0.901000  1.0  0.0795
  C  C923  1  0.234800  0.144500  0.921500  1.0  0.1149
  C  C924  1  0.229800  0.197000  0.908300  1.0  -0.2106
  C  C925  1  0.284700  0.473300  0.770700  1.0  -0.1785
  C  C926  1  0.282200  0.478500  0.737200  1.0  0.1545
  C  C927  1  0.189700  0.546600  0.736500  1.0  0.1545
  C  C928  1  0.189000  0.543500  0.769700  1.0  -0.2
  C  C929  1  0.234300  0.504600  0.787990  1.0  0.067
  C  C930  1  0.228600  0.500200  0.823110  1.0  0.1323
  C  C931  1  0.206300  0.539300  0.843910  1.0  -0.1505
  C  C932  1  0.204900  0.515600  0.874420  1.0  0.1123
  C  C933  1  0.186000  0.539900  0.905880  1.0  -0.0135
  C  C934  1  0.208000  0.590800  0.912650  1.0  -0.1853
  C  C935  1  0.189500  0.612900  0.942300  1.0  0.1627
  C  C936  1  0.127800  0.537000  0.957500  1.0  0.1481
  C  C937  1  0.145400  0.512900  0.928700  1.0  -0.1086
  C  C938  1  0.933500  0.936900  0.979540  1.0  -0.1894
  C  C939  1  0.909700  0.936700  0.011400  1.0  0.1614
  C  C940  1  0.847300  0.015500  0.004700  1.0  0.1776
  C  C941  1  0.866500  0.019500  0.973400  1.0  -0.2109
  C  C942  1  0.910200  0.979300  0.959260  1.0  0.0349
  C  C943  1  0.929600  0.982400  0.924920  1.0  0.1189
  C  C944  1  0.929900  0.027100  0.905430  1.0  -0.0819
  C  C945  1  0.946800  0.009600  0.874750  1.0  0.0681
  C  C946  1  0.957900  0.039800  0.844810  1.0  0.0689
  C  C947  1  0.919100  0.089100  0.840220  1.0  -0.2266
  C  C948  1  0.932200  0.117700  0.812500  1.0  0.1683
  C  C949  1  0.017600  0.054800  0.794500  1.0  0.1636
  C  C950  1  0.007200  0.023400  0.821200  1.0  -0.15
  C  C951  1  0.168800  0.862500  0.915700  1.0  -0.1735
  C  C952  1  0.238300  0.882300  0.936500  1.0  0.1616
  C  C953  1  0.262600  0.805000  0.960700  1.0  0.1728
  C  C954  1  0.196300  0.782000  0.941200  1.0  -0.2093
  C  C955  1  0.146000  0.811400  0.917500  1.0  0.05
  C  C956  1  0.074700  0.784800  0.897440  1.0  0.125
  C  C957  1  0.073100  0.734000  0.885500  1.0  -0.1089
  C  C958  1  0.988600  0.725700  0.871550  1.0  0.0968
  C  C959  1  0.947600  0.677000  0.859280  1.0  0.0836
  C  C960  1  0.985600  0.629400  0.865300  1.0  -0.223
  C  C961  1  0.945000  0.584600  0.855300  1.0  0.1808
  C  C962  1  0.827700  0.627800  0.834700  1.0  0.1614
  C  C963  1  0.866200  0.674500  0.842900  1.0  -0.2244
  C  C964  1  0.948600  0.735500  0.953700  1.0  -0.2018
  C  C965  1  0.009700  0.698200  0.962500  1.0  0.162
  C  C966  1  0.017900  0.722000  0.016000  1.0  0.1571
  C  C967  1  0.955000  0.760700  0.008400  1.0  -0.1635
  C  C968  1  0.920100  0.768300  0.976680  1.0  0.0645
  C  C969  1  0.850800  0.807300  0.967900  1.0  0.0849
  C  C970  1  0.781100  0.820100  0.984750  1.0  -0.1194
  C  C971  1  0.733300  0.855300  0.964800  1.0  0.124
  C  C972  1  0.649400  0.878900  0.969260  1.0  0.0544
  C  C973  1  0.635400  0.902600  0.999100  1.0  -0.1854
  C  C974  1  0.554800  0.921500  0.003300  1.0  0.1485
  C  C975  1  0.504100  0.902300  0.951100  1.0  0.1656
  C  C976  1  0.582100  0.881400  0.944300  1.0  -0.2283
  C  C977  1  0.332800  0.777800  0.717100  1.0  -0.1618
  C  C978  1  0.402300  0.744800  0.724900  1.0  0.1691
  C  C979  1  0.316100  0.682200  0.742200  1.0  0.1585
  C  C980  1  0.243200  0.712400  0.734500  1.0  -0.2187
  C  C981  1  0.251200  0.761400  0.721040  1.0  0.0292
  C  C982  1  0.172000  0.792100  0.711200  1.0  0.0619
  C  C983  1  0.087700  0.777400  0.715100  1.0  -0.1045
  C  C984  1  0.035100  0.816000  0.699940  1.0  0.1041
  C  C985  1  0.941000  0.817900  0.695000  1.0  0.0886
  C  C986  1  0.894400  0.771900  0.695800  1.0  -0.1478
  C  C987  1  0.807000  0.771300  0.690300  1.0  0.1235
  C  C988  1  0.804100  0.858700  0.683600  1.0  0.152
  C  C989  1  0.895600  0.860600  0.688300  1.0  -0.1293
  C  C990  1  0.468400  0.918700  0.672900  1.0  -0.1812
  C  C991  1  0.533700  0.956100  0.678600  1.0  0.1605
  C  C992  1  0.614900  0.917300  0.642900  1.0  0.1257
  C  C993  1  0.554800  0.877400  0.636700  1.0  -0.2138
  C  C994  1  0.478700  0.878100  0.651300  1.0  0.0636
  C  C995  1  0.416900  0.836100  0.643400  1.0  0.1206
  C  C996  1  0.434600  0.788700  0.630000  1.0  -0.1209
  C  C997  1  0.356700  0.763500  0.624100  1.0  0.141
  C  C998  1  0.341400  0.711000  0.609700  1.0  0.2903
  C  C999  1  0.401200  0.674800  0.614800  1.0  -0.2258
  C  C1000  1  0.388600  0.626300  0.599000  1.0  0.0791
  C  C1001  1  0.265200  0.644500  0.578500  1.0  0.114
  C  C1002  1  0.270200  0.697000  0.591700  1.0  -0.2108
  C  C1003  1  0.215300  0.973300  0.729300  1.0  -0.1784
  C  C1004  1  0.217800  0.978500  0.762800  1.0  0.1551
  C  C1005  1  0.310300  0.046600  0.763500  1.0  0.1551
  C  C1006  1  0.311000  0.043500  0.730300  1.0  -0.2011
  C  C1007  1  0.265700  0.004600  0.712010  1.0  0.0689
  C  C1008  1  0.271400  0.000200  0.676890  1.0  0.1338
  C  C1009  1  0.293700  0.039300  0.656090  1.0  -0.1496
  C  C1010  1  0.295100  0.015600  0.625580  1.0  0.1121
  C  C1011  1  0.314000  0.039900  0.594120  1.0  -0.0109
  C  C1012  1  0.292000  0.090800  0.587350  1.0  -0.1839
  C  C1013  1  0.310500  0.112900  0.557700  1.0  0.1639
  C  C1014  1  0.372200  0.037000  0.542500  1.0  0.149
  C  C1015  1  0.354600  0.012900  0.571300  1.0  -0.1099
  C  C1016  1  0.566500  0.436900  0.520460  1.0  -0.1887
  C  C1017  1  0.590300  0.436700  0.488600  1.0  0.1612
  C  C1018  1  0.652700  0.515500  0.495300  1.0  0.1786
  C  C1019  1  0.633500  0.519500  0.526600  1.0  -0.2112
  C  C1020  1  0.589800  0.479300  0.540740  1.0  0.0331
  C  C1021  1  0.570400  0.482400  0.575080  1.0  0.1188
  C  C1022  1  0.570100  0.527100  0.594570  1.0  -0.082
  C  C1023  1  0.553200  0.509600  0.625250  1.0  0.0682
  C  C1024  1  0.542100  0.539800  0.655190  1.0  0.0685
  C  C1025  1  0.580900  0.589100  0.659780  1.0  -0.2279
  C  C1026  1  0.567800  0.617700  0.687500  1.0  0.1686
  C  C1027  1  0.482400  0.554800  0.705500  1.0  0.1641
  C  C1028  1  0.492800  0.523400  0.678800  1.0  -0.1485
  C  C1029  1  0.331200  0.362500  0.584300  1.0  -0.1733
  C  C1030  1  0.261700  0.382300  0.563500  1.0  0.1605
  C  C1031  1  0.237400  0.305000  0.539300  1.0  0.1722
  C  C1032  1  0.303700  0.282000  0.558800  1.0  -0.209
  C  C1033  1  0.354000  0.311400  0.582500  1.0  0.0495
  C  C1034  1  0.425300  0.284800  0.602560  1.0  0.1246
  C  C1035  1  0.426900  0.234000  0.614500  1.0  -0.1079
  C  C1036  1  0.511400  0.225700  0.628450  1.0  0.0967
  C  C1037  1  0.552400  0.177000  0.640720  1.0  0.0839
  C  C1038  1  0.514400  0.129400  0.634700  1.0  -0.2233
  C  C1039  1  0.555000  0.084600  0.644700  1.0  0.1811
  C  C1040  1  0.672300  0.127800  0.665300  1.0  0.1616
  C  C1041  1  0.633800  0.174500  0.657100  1.0  -0.2248
  C  C1042  1  0.551400  0.235500  0.546300  1.0  -0.2025
  C  C1043  1  0.490300  0.198200  0.537500  1.0  0.1618
  C  C1044  1  0.482100  0.222000  0.484000  1.0  0.1577
  C  C1045  1  0.545000  0.260700  0.491600  1.0  -0.1642
  C  C1046  1  0.579900  0.268300  0.523320  1.0  0.0627
  C  C1047  1  0.649200  0.307300  0.532100  1.0  0.0839
  C  C1048  1  0.718900  0.320100  0.515250  1.0  -0.1191
  C  C1049  1  0.766700  0.355300  0.535200  1.0  0.124
  C  C1050  1  0.850600  0.378900  0.530740  1.0  0.054
  C  C1051  1  0.864600  0.402600  0.500900  1.0  -0.1855
  C  C1052  1  0.945200  0.421500  0.496700  1.0  0.1496
  C  C1053  1  0.995900  0.402300  0.548900  1.0  0.1657
  C  C1054  1  0.917900  0.381400  0.555700  1.0  -0.2284
  C  C1055  1  0.832800  0.277800  0.717100  1.0  -0.1618
  C  C1056  1  0.902300  0.244800  0.724900  1.0  0.1691
  C  C1057  1  0.816100  0.182200  0.742200  1.0  0.1585
  C  C1058  1  0.743200  0.212400  0.734500  1.0  -0.2187
  C  C1059  1  0.751200  0.261400  0.721040  1.0  0.0292
  C  C1060  1  0.672000  0.292100  0.711200  1.0  0.0619
  C  C1061  1  0.587700  0.277400  0.715100  1.0  -0.1045
  C  C1062  1  0.535100  0.316000  0.699940  1.0  0.1041
  C  C1063  1  0.441000  0.317900  0.695000  1.0  0.0886
  C  C1064  1  0.394400  0.271900  0.695800  1.0  -0.1478
  C  C1065  1  0.307000  0.271300  0.690300  1.0  0.1235
  C  C1066  1  0.304100  0.358700  0.683600  1.0  0.152
  C  C1067  1  0.395600  0.360600  0.688300  1.0  -0.1293
  C  C1068  1  0.968400  0.418700  0.672900  1.0  -0.1812
  C  C1069  1  0.033700  0.456100  0.678600  1.0  0.1605
  C  C1070  1  0.114900  0.417300  0.642900  1.0  0.1257
  C  C1071  1  0.054800  0.377400  0.636700  1.0  -0.2138
  C  C1072  1  0.978700  0.378100  0.651300  1.0  0.0636
  C  C1073  1  0.916900  0.336100  0.643400  1.0  0.1206
  C  C1074  1  0.934600  0.288700  0.630000  1.0  -0.1209
  C  C1075  1  0.856700  0.263500  0.624100  1.0  0.141
  C  C1076  1  0.841400  0.211000  0.609700  1.0  0.2903
  C  C1077  1  0.901200  0.174800  0.614800  1.0  -0.2258
  C  C1078  1  0.888600  0.126300  0.599000  1.0  0.0791
  C  C1079  1  0.765200  0.144500  0.578500  1.0  0.114
  C  C1080  1  0.770200  0.197000  0.591700  1.0  -0.2108
  C  C1081  1  0.715300  0.473300  0.729300  1.0  -0.1784
  C  C1082  1  0.717800  0.478500  0.762800  1.0  0.1551
  C  C1083  1  0.810300  0.546600  0.763500  1.0  0.1551
  C  C1084  1  0.811000  0.543500  0.730300  1.0  -0.2011
  C  C1085  1  0.765700  0.504600  0.712010  1.0  0.0689
  C  C1086  1  0.771400  0.500200  0.676890  1.0  0.1338
  C  C1087  1  0.793700  0.539300  0.656090  1.0  -0.1496
  C  C1088  1  0.795100  0.515600  0.625580  1.0  0.1121
  C  C1089  1  0.814000  0.539900  0.594120  1.0  -0.0109
  C  C1090  1  0.792000  0.590800  0.587350  1.0  -0.1839
  C  C1091  1  0.810500  0.612900  0.557700  1.0  0.1639
  C  C1092  1  0.872200  0.537000  0.542500  1.0  0.149
  C  C1093  1  0.854600  0.512900  0.571300  1.0  -0.1099
  C  C1094  1  0.066500  0.936900  0.520460  1.0  -0.1887
  C  C1095  1  0.090300  0.936700  0.488600  1.0  0.1612
  C  C1096  1  0.152700  0.015500  0.495300  1.0  0.1786
  C  C1097  1  0.133500  0.019500  0.526600  1.0  -0.2112
  C  C1098  1  0.089800  0.979300  0.540740  1.0  0.0331
  C  C1099  1  0.070400  0.982400  0.575080  1.0  0.1188
  C  C1100  1  0.070100  0.027100  0.594570  1.0  -0.082
  C  C1101  1  0.053200  0.009600  0.625250  1.0  0.0682
  C  C1102  1  0.042100  0.039800  0.655190  1.0  0.0685
  C  C1103  1  0.080900  0.089100  0.659780  1.0  -0.2279
  C  C1104  1  0.067800  0.117700  0.687500  1.0  0.1686
  C  C1105  1  0.982400  0.054800  0.705500  1.0  0.1641
  C  C1106  1  0.992800  0.023400  0.678800  1.0  -0.1485
  C  C1107  1  0.831200  0.862500  0.584300  1.0  -0.1733
  C  C1108  1  0.761700  0.882300  0.563500  1.0  0.1605
  C  C1109  1  0.737400  0.805000  0.539300  1.0  0.1722
  C  C1110  1  0.803700  0.782000  0.558800  1.0  -0.209
  C  C1111  1  0.854000  0.811400  0.582500  1.0  0.0495
  C  C1112  1  0.925300  0.784800  0.602560  1.0  0.1246
  C  C1113  1  0.926900  0.734000  0.614500  1.0  -0.1079
  C  C1114  1  0.011400  0.725700  0.628450  1.0  0.0967
  C  C1115  1  0.052400  0.677000  0.640720  1.0  0.0839
  C  C1116  1  0.014400  0.629400  0.634700  1.0  -0.2233
  C  C1117  1  0.055000  0.584600  0.644700  1.0  0.1811
  C  C1118  1  0.172300  0.627800  0.665300  1.0  0.1616
  C  C1119  1  0.133800  0.674500  0.657100  1.0  -0.2248
  C  C1120  1  0.051400  0.735500  0.546300  1.0  -0.2025
  C  C1121  1  0.990300  0.698200  0.537500  1.0  0.1618
  C  C1122  1  0.982100  0.722000  0.484000  1.0  0.1577
  C  C1123  1  0.045000  0.760700  0.491600  1.0  -0.1642
  C  C1124  1  0.079900  0.768300  0.523320  1.0  0.0627
  C  C1125  1  0.149200  0.807300  0.532100  1.0  0.0839
  C  C1126  1  0.218900  0.820100  0.515250  1.0  -0.1191
  C  C1127  1  0.266700  0.855300  0.535200  1.0  0.124
  C  C1128  1  0.350600  0.878900  0.530740  1.0  0.054
  C  C1129  1  0.364600  0.902600  0.500900  1.0  -0.1855
  C  C1130  1  0.445200  0.921500  0.496700  1.0  0.1496
  C  C1131  1  0.495900  0.902300  0.548900  1.0  0.1657
  C  C1132  1  0.417900  0.881400  0.555700  1.0  -0.2284
  N  N1133  1  0.395800  0.303300  0.237350  1.0  -0.3389
  N  N1134  1  0.170300  0.161800  0.194730  1.0  -0.351
  N  N1135  1  0.085700  0.146900  0.188320  1.0  -0.3316
  N  N1136  1  0.760300  0.184300  0.185200  1.0  -0.4081
  N  N1137  1  0.604700  0.043900  0.164160  1.0  -0.3413
  N  N1138  1  0.331500  0.160300  0.146050  1.0  -0.285
  N  N1139  1  0.294600  0.205900  0.133640  1.0  -0.3124
  N  N1140  1  0.325500  0.388900  0.081800  1.0  -0.1951
  N  N1141  1  0.264900  0.986200  0.280730  1.0  -0.3568
  N  N1142  1  0.259700  0.044800  0.159880  1.0  -0.2816
  N  N1143  1  0.274500  0.035000  0.128030  1.0  -0.3668
  N  N1144  1  0.350000  0.913100  0.035680  1.0  -0.3361
  N  N1145  1  0.634300  0.524900  0.975720  1.0  -0.3317
  N  N1146  1  0.557200  0.560400  0.093220  1.0  -0.3662
  N  N1147  1  0.545700  0.543400  0.124190  1.0  -0.3385
  N  N1148  1  0.521500  0.398500  0.210630  1.0  -0.3362
  N  N1149  1  0.217000  0.645100  0.040620  1.0  -0.3276
  N  N1150  1  0.503900  0.693500  0.108670  1.0  -0.3004
  N  N1151  1  0.558200  0.729900  0.124840  1.0  -0.3478
  N  N1152  1  0.634400  0.917600  0.159890  1.0  -0.3413
  N  N1153  1  0.456300  0.809800  0.006340  1.0  -0.3448
  N  N1154  1  0.654100  0.665600  0.060720  1.0  -0.3024
  N  N1155  1  0.727600  0.636000  0.062350  1.0  -0.3275
  N  N1156  1  0.011700  0.579700  0.020300  1.0  -0.3804
  N  N1157  1  0.304200  0.498100  0.109100  1.0  -0.4095
  N  N1158  1  0.722500  0.500900  0.866000  1.0  -0.4025
  N  N1159  1  0.895800  0.803300  0.237350  1.0  -0.3389
  N  N1160  1  0.670300  0.661800  0.194730  1.0  -0.351
  N  N1161  1  0.585700  0.646900  0.188320  1.0  -0.3316
  N  N1162  1  0.260300  0.684300  0.185200  1.0  -0.4081
  N  N1163  1  0.104700  0.543900  0.164160  1.0  -0.3413
  N  N1164  1  0.831500  0.660300  0.146050  1.0  -0.285
  N  N1165  1  0.794600  0.705900  0.133640  1.0  -0.3124
  N  N1166  1  0.825500  0.888900  0.081800  1.0  -0.1951
  N  N1167  1  0.764900  0.486200  0.280730  1.0  -0.3568
  N  N1168  1  0.759700  0.544800  0.159880  1.0  -0.2816
  N  N1169  1  0.774500  0.535000  0.128030  1.0  -0.3668
  N  N1170  1  0.850000  0.413100  0.035680  1.0  -0.3361
  N  N1171  1  0.134300  0.024900  0.975720  1.0  -0.3317
  N  N1172  1  0.057200  0.060400  0.093220  1.0  -0.3661
  N  N1173  1  0.045700  0.043400  0.124190  1.0  -0.3385
  N  N1174  1  0.021500  0.898500  0.210630  1.0  -0.3362
  N  N1175  1  0.717000  0.145100  0.040620  1.0  -0.3276
  N  N1176  1  0.003900  0.193500  0.108670  1.0  -0.3004
  N  N1177  1  0.058200  0.229900  0.124840  1.0  -0.3478
  N  N1178  1  0.134400  0.417600  0.159890  1.0  -0.3413
  N  N1179  1  0.956300  0.309800  0.006340  1.0  -0.3448
  N  N1180  1  0.154100  0.165600  0.060720  1.0  -0.3024
  N  N1181  1  0.227600  0.136000  0.062350  1.0  -0.3273
  N  N1182  1  0.511700  0.079700  0.020300  1.0  -0.3804
  N  N1183  1  0.804200  0.998100  0.109100  1.0  -0.4095
  N  N1184  1  0.222500  0.000900  0.866000  1.0  -0.4025
  N  N1185  1  0.604200  0.303300  0.262650  1.0  -0.3393
  N  N1186  1  0.829700  0.161800  0.305270  1.0  -0.3529
  N  N1187  1  0.914300  0.146900  0.311680  1.0  -0.3319
  N  N1188  1  0.239700  0.184300  0.314800  1.0  -0.4101
  N  N1189  1  0.395300  0.043900  0.335840  1.0  -0.3416
  N  N1190  1  0.668500  0.160300  0.353950  1.0  -0.2849
  N  N1191  1  0.705400  0.205900  0.366360  1.0  -0.3112
  N  N1192  1  0.674500  0.388900  0.418200  1.0  -0.195
  N  N1193  1  0.735100  0.986200  0.219270  1.0  -0.357
  N  N1194  1  0.740300  0.044800  0.340120  1.0  -0.2808
  N  N1195  1  0.725500  0.035000  0.371970  1.0  -0.3659
  N  N1196  1  0.650000  0.913100  0.464320  1.0  -0.3347
  N  N1197  1  0.365700  0.524900  0.524280  1.0  -0.3294
  N  N1198  1  0.442800  0.560400  0.406780  1.0  -0.366
  N  N1199  1  0.454300  0.543400  0.375810  1.0  -0.3378
  N  N1200  1  0.478500  0.398500  0.289370  1.0  -0.3377
  N  N1201  1  0.783000  0.645100  0.459380  1.0  -0.3253
  N  N1202  1  0.496100  0.693500  0.391330  1.0  -0.3007
  N  N1203  1  0.441800  0.729900  0.375160  1.0  -0.3488
  N  N1204  1  0.365600  0.917600  0.340110  1.0  -0.3416
  N  N1205  1  0.543700  0.809800  0.493660  1.0  -0.3428
  N  N1206  1  0.345900  0.665600  0.439280  1.0  -0.3006
  N  N1207  1  0.272400  0.636000  0.437650  1.0  -0.3268
  N  N1208  1  0.988300  0.579700  0.479700  1.0  -0.3813
  N  N1209  1  0.695800  0.498100  0.390900  1.0  -0.411
  N  N1210  1  0.277500  0.500900  0.634000  1.0  -0.4021
  N  N1211  1  0.104200  0.803300  0.262650  1.0  -0.3393
  N  N1212  1  0.329700  0.661800  0.305270  1.0  -0.3529
  N  N1213  1  0.414300  0.646900  0.311680  1.0  -0.3319
  N  N1214  1  0.739700  0.684300  0.314800  1.0  -0.4101
  N  N1215  1  0.895300  0.543900  0.335840  1.0  -0.3416
  N  N1216  1  0.168500  0.660300  0.353950  1.0  -0.2849
  N  N1217  1  0.205400  0.705900  0.366360  1.0  -0.3112
  N  N1218  1  0.174500  0.888900  0.418200  1.0  -0.195
  N  N1219  1  0.235100  0.486200  0.219270  1.0  -0.357
  N  N1220  1  0.240300  0.544800  0.340120  1.0  -0.2808
  N  N1221  1  0.225500  0.535000  0.371970  1.0  -0.3659
  N  N1222  1  0.150000  0.413100  0.464320  1.0  -0.3347
  N  N1223  1  0.865700  0.024900  0.524280  1.0  -0.3294
  N  N1224  1  0.942800  0.060400  0.406780  1.0  -0.3659
  N  N1225  1  0.954300  0.043400  0.375810  1.0  -0.3378
  N  N1226  1  0.978500  0.898500  0.289370  1.0  -0.3377
  N  N1227  1  0.283000  0.145100  0.459380  1.0  -0.3253
  N  N1228  1  0.996100  0.193500  0.391330  1.0  -0.3007
  N  N1229  1  0.941800  0.229900  0.375160  1.0  -0.3488
  N  N1230  1  0.865600  0.417600  0.340110  1.0  -0.3416
  N  N1231  1  0.043700  0.309800  0.493660  1.0  -0.3428
  N  N1232  1  0.845900  0.165600  0.439280  1.0  -0.3006
  N  N1233  1  0.772400  0.136000  0.437650  1.0  -0.3266
  N  N1234  1  0.488300  0.079700  0.479700  1.0  -0.3813
  N  N1235  1  0.195800  0.998100  0.390900  1.0  -0.411
  N  N1236  1  0.777500  0.000900  0.634000  1.0  -0.4021
  N  N1237  1  0.604200  0.696700  0.762650  1.0  -0.3391
  N  N1238  1  0.829700  0.838200  0.805270  1.0  -0.3519
  N  N1239  1  0.914300  0.853100  0.811680  1.0  -0.3319
  N  N1240  1  0.239700  0.815700  0.814800  1.0  -0.409
  N  N1241  1  0.395300  0.956100  0.835840  1.0  -0.3413
  N  N1242  1  0.668500  0.839700  0.853950  1.0  -0.2861
  N  N1243  1  0.705400  0.794100  0.866360  1.0  -0.3113
  N  N1244  1  0.674500  0.611100  0.918200  1.0  -0.1937
  N  N1245  1  0.735100  0.013800  0.719270  1.0  -0.3568
  N  N1246  1  0.740300  0.955200  0.840120  1.0  -0.2794
  N  N1247  1  0.725500  0.965000  0.871970  1.0  -0.3651
  N  N1248  1  0.650000  0.086900  0.964320  1.0  -0.3346
  N  N1249  1  0.365700  0.475100  0.024280  1.0  -0.3291
  N  N1250  1  0.442800  0.439600  0.906780  1.0  -0.3654
  N  N1251  1  0.454300  0.456600  0.875810  1.0  -0.3382
  N  N1252  1  0.478500  0.601500  0.789370  1.0  -0.3373
  N  N1253  1  0.783000  0.354900  0.959380  1.0  -0.3258
  N  N1254  1  0.496100  0.306500  0.891330  1.0  -0.2999
  N  N1255  1  0.441800  0.270100  0.875160  1.0  -0.3494
  N  N1256  1  0.365600  0.082400  0.840110  1.0  -0.3429
  N  N1257  1  0.543700  0.190200  0.993660  1.0  -0.3429
  N  N1258  1  0.345900  0.334400  0.939280  1.0  -0.3006
  N  N1259  1  0.272400  0.364000  0.937650  1.0  -0.3268
  N  N1260  1  0.988300  0.420300  0.979700  1.0  -0.38
  N  N1261  1  0.104200  0.196700  0.762650  1.0  -0.3391
  N  N1262  1  0.329700  0.338200  0.805270  1.0  -0.3519
  N  N1263  1  0.414300  0.353100  0.811680  1.0  -0.3319
  N  N1264  1  0.739700  0.315700  0.814800  1.0  -0.409
  N  N1265  1  0.895300  0.456100  0.835840  1.0  -0.3413
  N  N1266  1  0.168500  0.339700  0.853950  1.0  -0.2861
  N  N1267  1  0.205400  0.294100  0.866360  1.0  -0.3113
  N  N1268  1  0.174500  0.111100  0.918200  1.0  -0.1937
  N  N1269  1  0.235100  0.513800  0.719270  1.0  -0.3568
  N  N1270  1  0.240300  0.455200  0.840120  1.0  -0.2794
  N  N1271  1  0.225500  0.465000  0.871970  1.0  -0.3651
  N  N1272  1  0.150000  0.586900  0.964320  1.0  -0.3346
  N  N1273  1  0.865700  0.975100  0.024280  1.0  -0.3291
  N  N1274  1  0.942800  0.939600  0.906780  1.0  -0.3653
  N  N1275  1  0.954300  0.956600  0.875810  1.0  -0.3382
  N  N1276  1  0.978500  0.101500  0.789370  1.0  -0.3373
  N  N1277  1  0.283000  0.854900  0.959380  1.0  -0.3258
  N  N1278  1  0.996100  0.806500  0.891330  1.0  -0.2999
  N  N1279  1  0.941800  0.770100  0.875160  1.0  -0.3494
  N  N1280  1  0.865600  0.582400  0.840110  1.0  -0.3429
  N  N1281  1  0.043700  0.690200  0.993660  1.0  -0.3429
  N  N1282  1  0.845900  0.834400  0.939280  1.0  -0.3006
  N  N1283  1  0.772400  0.864000  0.937650  1.0  -0.3266
  N  N1284  1  0.488300  0.920300  0.979700  1.0  -0.38
  N  N1285  1  0.395800  0.696700  0.737350  1.0  -0.339
  N  N1286  1  0.170300  0.838200  0.694730  1.0  -0.3519
  N  N1287  1  0.085700  0.853100  0.688320  1.0  -0.3313
  N  N1288  1  0.760300  0.815700  0.685200  1.0  -0.408
  N  N1289  1  0.604700  0.956100  0.664160  1.0  -0.3414
  N  N1290  1  0.331500  0.839700  0.646050  1.0  -0.2854
  N  N1291  1  0.294600  0.794100  0.633640  1.0  -0.3124
  N  N1292  1  0.325500  0.611100  0.581800  1.0  -0.1949
  N  N1293  1  0.264900  0.013800  0.780730  1.0  -0.3572
  N  N1294  1  0.259700  0.955200  0.659880  1.0  -0.2797
  N  N1295  1  0.274500  0.965000  0.628030  1.0  -0.3662
  N  N1296  1  0.350000  0.086900  0.535680  1.0  -0.3349
  N  N1297  1  0.634300  0.475100  0.475720  1.0  -0.332
  N  N1298  1  0.557200  0.439600  0.593220  1.0  -0.3658
  N  N1299  1  0.545700  0.456600  0.624190  1.0  -0.339
  N  N1300  1  0.521500  0.601500  0.710630  1.0  -0.3367
  N  N1301  1  0.217000  0.354900  0.540620  1.0  -0.3273
  N  N1302  1  0.503900  0.306500  0.608670  1.0  -0.2998
  N  N1303  1  0.558200  0.270100  0.624840  1.0  -0.3485
  N  N1304  1  0.634400  0.082400  0.659890  1.0  -0.3417
  N  N1305  1  0.456300  0.190200  0.506340  1.0  -0.3455
  N  N1306  1  0.654100  0.334400  0.560720  1.0  -0.3024
  N  N1307  1  0.727600  0.364000  0.562350  1.0  -0.3277
  N  N1308  1  0.011700  0.420300  0.520300  1.0  -0.3812
  N  N1309  1  0.895800  0.196700  0.737350  1.0  -0.339
  N  N1310  1  0.670300  0.338200  0.694730  1.0  -0.3519
  N  N1311  1  0.585700  0.353100  0.688320  1.0  -0.3313
  N  N1312  1  0.260300  0.315700  0.685200  1.0  -0.408
  N  N1313  1  0.104700  0.456100  0.664160  1.0  -0.3414
  N  N1314  1  0.831500  0.339700  0.646050  1.0  -0.2854
  N  N1315  1  0.794600  0.294100  0.633640  1.0  -0.3124
  N  N1316  1  0.825500  0.111100  0.581800  1.0  -0.1949
  N  N1317  1  0.764900  0.513800  0.780730  1.0  -0.3572
  N  N1318  1  0.759700  0.455200  0.659880  1.0  -0.2797
  N  N1319  1  0.774500  0.465000  0.628030  1.0  -0.3662
  N  N1320  1  0.850000  0.586900  0.535680  1.0  -0.3349
  N  N1321  1  0.134300  0.975100  0.475720  1.0  -0.332
  N  N1322  1  0.057200  0.939600  0.593220  1.0  -0.3656
  N  N1323  1  0.045700  0.956600  0.624190  1.0  -0.339
  N  N1324  1  0.021500  0.101500  0.710630  1.0  -0.3367
  N  N1325  1  0.717000  0.854900  0.540620  1.0  -0.3273
  N  N1326  1  0.003900  0.806500  0.608670  1.0  -0.2998
  N  N1327  1  0.058200  0.770100  0.624840  1.0  -0.3485
  N  N1328  1  0.134400  0.582400  0.659890  1.0  -0.3417
  N  N1329  1  0.956300  0.690200  0.506340  1.0  -0.3455
  N  N1330  1  0.154100  0.834400  0.560720  1.0  -0.3024
  N  N1331  1  0.227600  0.864000  0.562350  1.0  -0.3275
  N  N1332  1  0.511700  0.920300  0.520300  1.0  -0.3812
