# generated using pymatgen
data_Zn2H41C54(N7Cl)2
_symmetry_space_group_name_H-M   'P 1'
_cell_length_a   8.96000000
_cell_length_b   28.43700000
_cell_length_c   56.80000000
_cell_angle_alpha   90.00000000
_cell_angle_beta   90.00000000
_cell_angle_gamma   90.00000000
_symmetry_Int_Tables_number   1
_chemical_formula_structural   Zn2H41C54(N7Cl)2
_chemical_formula_sum   'Zn16 H328 C432 N112 Cl16'
_cell_volume   14472.38553600
_cell_formula_units_Z   8
loop_
 _symmetry_equiv_pos_site_id
 _symmetry_equiv_pos_as_xyz
  1  'x, y, z'
loop_
 _atom_site_type_symbol
 _atom_site_label
 _atom_site_symmetry_multiplicity
 _atom_site_fract_x
 _atom_site_fract_y
 _atom_site_fract_z
 _atom_site_occupancy
 _atom_site_charge
  Zn  Zn1  1  0.156300  0.031050  0.129880  1.0  0.8498
  Zn  Zn2  1  0.880200  0.730210  0.879640  1.0  0.784
  Zn  Zn3  1  0.343700  0.468950  0.629880  1.0  0.8514
  Zn  Zn4  1  0.619800  0.769790  0.379640  1.0  0.7825
  Zn  Zn5  1  0.156300  0.968950  0.629880  1.0  0.8504
  Zn  Zn6  1  0.880200  0.269790  0.379640  1.0  0.7842
  Zn  Zn7  1  0.343700  0.531050  0.129880  1.0  0.8508
  Zn  Zn8  1  0.619800  0.230210  0.879640  1.0  0.7825
  Zn  Zn9  1  0.843700  0.031050  0.370120  1.0  0.8507
  Zn  Zn10  1  0.119800  0.730210  0.620360  1.0  0.7829
  Zn  Zn11  1  0.656300  0.468950  0.870120  1.0  0.8504
  Zn  Zn12  1  0.380200  0.769790  0.120360  1.0  0.7836
  Zn  Zn13  1  0.843700  0.968950  0.870120  1.0  0.8515
  Zn  Zn14  1  0.119800  0.269790  0.120360  1.0  0.7823
  Zn  Zn15  1  0.656300  0.531050  0.370120  1.0  0.8501
  Zn  Zn16  1  0.380200  0.230210  0.620360  1.0  0.7839
  H  H17  1  0.247800  0.056100  0.180900  1.0  0.1007
  H  H18  1  0.957600  0.954200  0.203800  1.0  0.1081
  H  H19  1  0.948200  0.956000  0.159200  1.0  0.1043
  H  H20  1  0.309800  0.096000  0.258200  1.0  0.113
  H  H21  1  0.220600  0.084200  0.219900  1.0  0.0989
  H  H22  1  0.150400  0.946500  0.234600  1.0  0.0969
  H  H23  1  0.239600  0.958300  0.272900  1.0  0.1055
  H  H24  1  0.404800  0.236700  0.347200  1.0  0.1012
  H  H25  1  0.243000  0.293200  0.370400  1.0  0.0966
  H  H26  1  0.984300  0.180100  0.351700  1.0  0.1014
  H  H27  1  0.455600  0.151100  0.343500  1.0  0.0947
  H  H28  1  0.038100  0.148300  0.316100  1.0  0.1063
  H  H29  1  0.102000  0.082500  0.293500  1.0  0.0863
  H  H30  1  0.519600  0.085300  0.320900  1.0  0.0925
  H  H31  1  0.503000  0.875100  0.360100  1.0  0.0828
  H  H32  1  0.893000  0.812700  0.353400  1.0  0.0951
  H  H33  1  0.861100  0.879900  0.321400  1.0  0.1
  H  H34  1  0.648100  0.908400  0.292800  1.0  0.1003
  H  H35  1  0.530000  0.971700  0.274200  1.0  0.0987
  H  H36  1  0.362600  0.014400  0.336900  1.0  0.0888
  H  H37  1  0.480600  0.951100  0.355600  1.0  0.1056
  H  H38  1  0.015000  0.937900  0.109300  1.0  0.0911
  H  H39  1  0.438300  0.990500  0.101000  1.0  0.0974
  H  H40  1  0.991200  0.854300  0.105400  1.0  0.0961
  H  H41  1  0.883100  0.788700  0.087300  1.0  0.087
  H  H42  1  0.150000  0.807600  0.030400  1.0  0.0923
  H  H43  1  0.258200  0.873200  0.048600  1.0  0.1016
  H  H44  1  0.611400  0.640700  0.059900  1.0  0.097
  H  H45  1  0.698000  0.707100  0.039700  1.0  0.0896
  H  H46  1  0.043500  0.716000  0.083900  1.0  0.085
  H  H47  1  0.955400  0.652100  0.106900  1.0  0.0991
  H  H48  1  0.042500  0.658600  0.985700  1.0  0.0962
  H  H49  1  0.022100  0.675300  0.025900  1.0  0.1036
  H  H50  1  0.879100  0.806900  0.010300  1.0  0.0987
  H  H51  1  0.899500  0.790200  0.970100  1.0  0.1063
  H  H52  1  0.849200  0.762900  0.934100  1.0  0.1146
  H  H53  1  0.151100  0.658300  0.948700  1.0  0.1027
  H  H54  1  0.093400  0.655500  0.905000  1.0  0.1036
  H  H55  1  0.693800  0.508200  0.127000  1.0  0.0888
  H  H56  1  0.882000  0.562500  0.107700  1.0  0.0951
  H  H57  1  0.467500  0.622700  0.101300  1.0  0.1123
  H  H58  1  0.252200  0.443900  0.680900  1.0  0.1009
  H  H59  1  0.542400  0.545800  0.703800  1.0  0.1088
  H  H60  1  0.551800  0.544000  0.659200  1.0  0.1047
  H  H61  1  0.190200  0.404000  0.758200  1.0  0.1131
  H  H62  1  0.279400  0.415800  0.719900  1.0  0.0987
  H  H63  1  0.349600  0.553500  0.734600  1.0  0.0969
  H  H64  1  0.260400  0.541700  0.772900  1.0  0.1042
  H  H65  1  0.095200  0.263300  0.847200  1.0  0.1006
  H  H66  1  0.257000  0.206800  0.870400  1.0  0.0959
  H  H67  1  0.515700  0.319900  0.851700  1.0  0.1007
  H  H68  1  0.044400  0.348900  0.843500  1.0  0.0951
  H  H69  1  0.461900  0.351700  0.816100  1.0  0.1069
  H  H70  1  0.398000  0.417500  0.793500  1.0  0.0865
  H  H71  1  0.980400  0.414700  0.820900  1.0  0.0925
  H  H72  1  0.997000  0.624900  0.860100  1.0  0.0826
  H  H73  1  0.607000  0.687300  0.853400  1.0  0.096
  H  H74  1  0.638900  0.620100  0.821400  1.0  0.0999
  H  H75  1  0.851900  0.591600  0.792800  1.0  0.1016
  H  H76  1  0.970000  0.528300  0.774200  1.0  0.0999
  H  H77  1  0.137400  0.485600  0.836900  1.0  0.0896
  H  H78  1  0.019400  0.548900  0.855600  1.0  0.1056
  H  H79  1  0.485000  0.562100  0.609300  1.0  0.0905
  H  H80  1  0.061700  0.509500  0.601000  1.0  0.0968
  H  H81  1  0.508800  0.645700  0.605400  1.0  0.0961
  H  H82  1  0.616900  0.711300  0.587300  1.0  0.0874
  H  H83  1  0.350000  0.692400  0.530400  1.0  0.0927
  H  H84  1  0.241800  0.626800  0.548600  1.0  0.1025
  H  H85  1  0.888600  0.859300  0.559900  1.0  0.0978
  H  H86  1  0.802000  0.792900  0.539700  1.0  0.0889
  H  H87  1  0.456500  0.784000  0.583900  1.0  0.0843
  H  H88  1  0.544600  0.847900  0.606900  1.0  0.0991
  H  H89  1  0.457500  0.841400  0.485700  1.0  0.0959
  H  H90  1  0.477900  0.824700  0.525900  1.0  0.1038
  H  H91  1  0.620900  0.693100  0.510300  1.0  0.0992
  H  H92  1  0.600500  0.709800  0.470100  1.0  0.1056
  H  H93  1  0.650800  0.737100  0.434100  1.0  0.1133
  H  H94  1  0.348900  0.841700  0.448700  1.0  0.103
  H  H95  1  0.406600  0.844500  0.405000  1.0  0.1038
  H  H96  1  0.806200  0.991800  0.627000  1.0  0.09
  H  H97  1  0.618000  0.937500  0.607700  1.0  0.0956
  H  H98  1  0.032500  0.877300  0.601300  1.0  0.1121
  H  H99  1  0.247800  0.943900  0.680900  1.0  0.1007
  H  H100  1  0.957600  0.045800  0.703800  1.0  0.1092
  H  H101  1  0.948200  0.044000  0.659200  1.0  0.1049
  H  H102  1  0.309800  0.904000  0.758200  1.0  0.1135
  H  H103  1  0.220600  0.915800  0.719900  1.0  0.0986
  H  H104  1  0.150400  0.053500  0.734600  1.0  0.0968
  H  H105  1  0.239600  0.041700  0.772900  1.0  0.1041
  H  H106  1  0.404800  0.763300  0.847200  1.0  0.1016
  H  H107  1  0.243000  0.706800  0.870400  1.0  0.0958
  H  H108  1  0.984300  0.819900  0.851700  1.0  0.101
  H  H109  1  0.455600  0.848900  0.843500  1.0  0.0951
  H  H110  1  0.038100  0.851700  0.816100  1.0  0.1063
  H  H111  1  0.102000  0.917500  0.793500  1.0  0.086
  H  H112  1  0.519600  0.914700  0.820900  1.0  0.0922
  H  H113  1  0.503000  0.124900  0.860100  1.0  0.082
  H  H114  1  0.893000  0.187300  0.853400  1.0  0.0966
  H  H115  1  0.861100  0.120100  0.821400  1.0  0.1001
  H  H116  1  0.648100  0.091600  0.792800  1.0  0.101
  H  H117  1  0.530000  0.028300  0.774200  1.0  0.0993
  H  H118  1  0.362600  0.985600  0.836900  1.0  0.0892
  H  H119  1  0.480600  0.048900  0.855600  1.0  0.1055
  H  H120  1  0.015000  0.062100  0.609300  1.0  0.0902
  H  H121  1  0.438300  0.009500  0.601000  1.0  0.0966
  H  H122  1  0.991200  0.145700  0.605400  1.0  0.0964
  H  H123  1  0.883100  0.211300  0.587300  1.0  0.0871
  H  H124  1  0.150000  0.192400  0.530400  1.0  0.0929
  H  H125  1  0.258200  0.126800  0.548600  1.0  0.1027
  H  H126  1  0.611400  0.359300  0.559900  1.0  0.0976
  H  H127  1  0.698000  0.292900  0.539700  1.0  0.0891
  H  H128  1  0.043500  0.284000  0.583900  1.0  0.0844
  H  H129  1  0.955400  0.347900  0.606900  1.0  0.099
  H  H130  1  0.042500  0.341400  0.485700  1.0  0.0964
  H  H131  1  0.022100  0.324700  0.525900  1.0  0.1032
  H  H132  1  0.879100  0.193100  0.510300  1.0  0.0993
  H  H133  1  0.899500  0.209800  0.470100  1.0  0.1052
  H  H134  1  0.849200  0.237100  0.434100  1.0  0.1139
  H  H135  1  0.151100  0.341700  0.448700  1.0  0.1027
  H  H136  1  0.093400  0.344500  0.405000  1.0  0.1036
  H  H137  1  0.693800  0.491800  0.627000  1.0  0.09
  H  H138  1  0.882000  0.437500  0.607700  1.0  0.0955
  H  H139  1  0.467500  0.377300  0.601300  1.0  0.112
  H  H140  1  0.252200  0.556100  0.180900  1.0  0.1012
  H  H141  1  0.542400  0.454200  0.203800  1.0  0.108
  H  H142  1  0.551800  0.456000  0.159200  1.0  0.1042
  H  H143  1  0.190200  0.596000  0.258200  1.0  0.1128
  H  H144  1  0.279400  0.584200  0.219900  1.0  0.0989
  H  H145  1  0.349600  0.446500  0.234600  1.0  0.097
  H  H146  1  0.260400  0.458300  0.272900  1.0  0.1056
  H  H147  1  0.095200  0.736700  0.347200  1.0  0.1011
  H  H148  1  0.257000  0.793200  0.370400  1.0  0.0969
  H  H149  1  0.515700  0.680100  0.351700  1.0  0.1013
  H  H150  1  0.044400  0.651100  0.343500  1.0  0.0946
  H  H151  1  0.461900  0.648300  0.316100  1.0  0.1075
  H  H152  1  0.398000  0.582500  0.293500  1.0  0.0862
  H  H153  1  0.980400  0.585300  0.320900  1.0  0.0924
  H  H154  1  0.997000  0.375100  0.360100  1.0  0.0832
  H  H155  1  0.607000  0.312700  0.353400  1.0  0.097
  H  H156  1  0.638900  0.379900  0.321400  1.0  0.1002
  H  H157  1  0.851900  0.408400  0.292800  1.0  0.0998
  H  H158  1  0.970000  0.471700  0.274200  1.0  0.099
  H  H159  1  0.137400  0.514400  0.336900  1.0  0.0889
  H  H160  1  0.019400  0.451100  0.355600  1.0  0.1058
  H  H161  1  0.485000  0.437900  0.109300  1.0  0.0901
  H  H162  1  0.061700  0.490500  0.101000  1.0  0.0979
  H  H163  1  0.508800  0.354300  0.105400  1.0  0.0961
  H  H164  1  0.616900  0.288700  0.087300  1.0  0.0873
  H  H165  1  0.350000  0.307600  0.030400  1.0  0.0922
  H  H166  1  0.241800  0.373200  0.048600  1.0  0.104
  H  H167  1  0.888600  0.140700  0.059900  1.0  0.0972
  H  H168  1  0.802000  0.207100  0.039700  1.0  0.0896
  H  H169  1  0.456500  0.216000  0.083900  1.0  0.0847
  H  H170  1  0.544600  0.152100  0.106900  1.0  0.0995
  H  H171  1  0.457500  0.158600  0.985700  1.0  0.0956
  H  H172  1  0.477900  0.175300  0.025900  1.0  0.1037
  H  H173  1  0.620900  0.306900  0.010300  1.0  0.0985
  H  H174  1  0.600500  0.290200  0.970100  1.0  0.1066
  H  H175  1  0.650800  0.262900  0.934100  1.0  0.114
  H  H176  1  0.348900  0.158300  0.948700  1.0  0.1029
  H  H177  1  0.406600  0.155500  0.905000  1.0  0.1036
  H  H178  1  0.806200  0.008200  0.127000  1.0  0.089
  H  H179  1  0.618000  0.062500  0.107700  1.0  0.0953
  H  H180  1  0.032500  0.122700  0.101300  1.0  0.1117
  H  H181  1  0.752200  0.056100  0.319100  1.0  0.1012
  H  H182  1  0.042400  0.954200  0.296200  1.0  0.1074
  H  H183  1  0.051800  0.956000  0.340800  1.0  0.1046
  H  H184  1  0.690200  0.096000  0.241800  1.0  0.112
  H  H185  1  0.779400  0.084200  0.280100  1.0  0.0981
  H  H186  1  0.849600  0.946500  0.265400  1.0  0.0968
  H  H187  1  0.760400  0.958300  0.227100  1.0  0.1046
  H  H188  1  0.595200  0.236700  0.152800  1.0  0.1
  H  H189  1  0.757000  0.293200  0.129600  1.0  0.0973
  H  H190  1  0.015700  0.180100  0.148300  1.0  0.1011
  H  H191  1  0.544400  0.151100  0.156500  1.0  0.0941
  H  H192  1  0.961900  0.148300  0.183900  1.0  0.1073
  H  H193  1  0.898000  0.082500  0.206500  1.0  0.0876
  H  H194  1  0.480400  0.085300  0.179100  1.0  0.0931
  H  H195  1  0.497000  0.875100  0.139900  1.0  0.0829
  H  H196  1  0.107000  0.812700  0.146600  1.0  0.0968
  H  H197  1  0.138900  0.879900  0.178600  1.0  0.1006
  H  H198  1  0.351900  0.908400  0.207200  1.0  0.1001
  H  H199  1  0.470000  0.971700  0.225800  1.0  0.0985
  H  H200  1  0.637400  0.014400  0.163100  1.0  0.0891
  H  H201  1  0.519400  0.951100  0.144400  1.0  0.1058
  H  H202  1  0.985000  0.937900  0.390700  1.0  0.091
  H  H203  1  0.561700  0.990500  0.399000  1.0  0.097
  H  H204  1  0.008800  0.854300  0.394600  1.0  0.0956
  H  H205  1  0.116900  0.788700  0.412700  1.0  0.0873
  H  H206  1  0.850000  0.807600  0.469600  1.0  0.0905
  H  H207  1  0.741800  0.873200  0.451400  1.0  0.1026
  H  H208  1  0.388600  0.640700  0.440100  1.0  0.0978
  H  H209  1  0.302000  0.707100  0.460300  1.0  0.0894
  H  H210  1  0.956500  0.716000  0.416100  1.0  0.0844
  H  H211  1  0.044600  0.652100  0.393100  1.0  0.0987
  H  H212  1  0.957500  0.658600  0.514300  1.0  0.0961
  H  H213  1  0.977900  0.675300  0.474100  1.0  0.1027
  H  H214  1  0.120900  0.806900  0.489700  1.0  0.0986
  H  H215  1  0.100500  0.790200  0.529900  1.0  0.1061
  H  H216  1  0.150800  0.762900  0.565900  1.0  0.1133
  H  H217  1  0.848900  0.658300  0.551300  1.0  0.1024
  H  H218  1  0.906600  0.655500  0.595000  1.0  0.1038
  H  H219  1  0.306200  0.508200  0.373000  1.0  0.0886
  H  H220  1  0.118000  0.562500  0.392300  1.0  0.0965
  H  H221  1  0.532500  0.622700  0.398700  1.0  0.1113
  H  H222  1  0.747800  0.443900  0.819100  1.0  0.101
  H  H223  1  0.457600  0.545800  0.796200  1.0  0.1095
  H  H224  1  0.448200  0.544000  0.840800  1.0  0.1049
  H  H225  1  0.809800  0.404000  0.741800  1.0  0.1127
  H  H226  1  0.720600  0.415800  0.780100  1.0  0.0988
  H  H227  1  0.650400  0.553500  0.765400  1.0  0.0965
  H  H228  1  0.739600  0.541700  0.727100  1.0  0.1035
  H  H229  1  0.904800  0.263300  0.652800  1.0  0.1003
  H  H230  1  0.743000  0.206800  0.629600  1.0  0.0962
  H  H231  1  0.484300  0.319900  0.648300  1.0  0.1012
  H  H232  1  0.955600  0.348900  0.656500  1.0  0.0942
  H  H233  1  0.538100  0.351700  0.683900  1.0  0.1072
  H  H234  1  0.602000  0.417500  0.706500  1.0  0.0864
  H  H235  1  0.019600  0.414700  0.679100  1.0  0.0932
  H  H236  1  0.003000  0.624900  0.639900  1.0  0.0824
  H  H237  1  0.393000  0.687300  0.646600  1.0  0.0961
  H  H238  1  0.361100  0.620100  0.678600  1.0  0.1009
  H  H239  1  0.148100  0.591600  0.707200  1.0  0.1
  H  H240  1  0.030000  0.528300  0.725800  1.0  0.0986
  H  H241  1  0.862600  0.485600  0.663100  1.0  0.0893
  H  H242  1  0.980600  0.548900  0.644400  1.0  0.106
  H  H243  1  0.515000  0.562100  0.890700  1.0  0.0911
  H  H244  1  0.938300  0.509500  0.899000  1.0  0.0971
  H  H245  1  0.491200  0.645700  0.894600  1.0  0.0956
  H  H246  1  0.383100  0.711300  0.912700  1.0  0.087
  H  H247  1  0.650000  0.692400  0.969600  1.0  0.0915
  H  H248  1  0.758200  0.626800  0.951400  1.0  0.1032
  H  H249  1  0.111400  0.859300  0.940100  1.0  0.0978
  H  H250  1  0.198000  0.792900  0.960300  1.0  0.089
  H  H251  1  0.543500  0.784000  0.916100  1.0  0.0844
  H  H252  1  0.455400  0.847900  0.893100  1.0  0.0987
  H  H253  1  0.542500  0.841400  0.014300  1.0  0.0968
  H  H254  1  0.522100  0.824700  0.974100  1.0  0.1032
  H  H255  1  0.379100  0.693100  0.989700  1.0  0.0994
  H  H256  1  0.399500  0.709800  0.029900  1.0  0.1054
  H  H257  1  0.349200  0.737100  0.065900  1.0  0.1137
  H  H258  1  0.651100  0.841700  0.051300  1.0  0.103
  H  H259  1  0.593400  0.844500  0.095000  1.0  0.1036
  H  H260  1  0.193800  0.991800  0.873000  1.0  0.0885
  H  H261  1  0.382000  0.937500  0.892300  1.0  0.0959
  H  H262  1  0.967500  0.877300  0.898700  1.0  0.1125
  H  H263  1  0.752200  0.943900  0.819100  1.0  0.1012
  H  H264  1  0.042400  0.045800  0.796200  1.0  0.1091
  H  H265  1  0.051800  0.044000  0.840800  1.0  0.1048
  H  H266  1  0.690200  0.904000  0.741800  1.0  0.1125
  H  H267  1  0.779400  0.915800  0.780100  1.0  0.0989
  H  H268  1  0.849600  0.053500  0.765400  1.0  0.0966
  H  H269  1  0.760400  0.041700  0.727100  1.0  0.1036
  H  H270  1  0.595200  0.763300  0.652800  1.0  0.1008
  H  H271  1  0.757000  0.706800  0.629600  1.0  0.0965
  H  H272  1  0.015700  0.819900  0.648300  1.0  0.1007
  H  H273  1  0.544400  0.848900  0.656500  1.0  0.0942
  H  H274  1  0.961900  0.851700  0.683900  1.0  0.1071
  H  H275  1  0.898000  0.917500  0.706500  1.0  0.0869
  H  H276  1  0.480400  0.914700  0.679100  1.0  0.0934
  H  H277  1  0.497000  0.124900  0.639900  1.0  0.0827
  H  H278  1  0.107000  0.187300  0.646600  1.0  0.0971
  H  H279  1  0.138900  0.120100  0.678600  1.0  0.1011
  H  H280  1  0.351900  0.091600  0.707200  1.0  0.1004
  H  H281  1  0.470000  0.028300  0.725800  1.0  0.0989
  H  H282  1  0.637400  0.985600  0.663100  1.0  0.0897
  H  H283  1  0.519400  0.048900  0.644400  1.0  0.1059
  H  H284  1  0.985000  0.062100  0.890700  1.0  0.0901
  H  H285  1  0.561700  0.009500  0.899000  1.0  0.0962
  H  H286  1  0.008800  0.145700  0.894600  1.0  0.0957
  H  H287  1  0.116900  0.211300  0.912700  1.0  0.0871
  H  H288  1  0.850000  0.192400  0.969600  1.0  0.0913
  H  H289  1  0.741800  0.126800  0.951400  1.0  0.0987
  H  H290  1  0.388600  0.359300  0.940100  1.0  0.098
  H  H291  1  0.302000  0.292900  0.960300  1.0  0.0889
  H  H292  1  0.956500  0.284000  0.916100  1.0  0.0843
  H  H293  1  0.044600  0.347900  0.893100  1.0  0.0989
  H  H294  1  0.957500  0.341400  0.014300  1.0  0.0965
  H  H295  1  0.977900  0.324700  0.974100  1.0  0.104
  H  H296  1  0.120900  0.193100  0.989700  1.0  0.0994
  H  H297  1  0.100500  0.209800  0.029900  1.0  0.1057
  H  H298  1  0.150800  0.237100  0.065900  1.0  0.113
  H  H299  1  0.848900  0.341700  0.051300  1.0  0.1031
  H  H300  1  0.906600  0.344500  0.095000  1.0  0.1038
  H  H301  1  0.306200  0.491800  0.873000  1.0  0.0891
  H  H302  1  0.118000  0.437500  0.892300  1.0  0.0963
  H  H303  1  0.532500  0.377300  0.898700  1.0  0.1121
  H  H304  1  0.747800  0.556100  0.319100  1.0  0.1008
  H  H305  1  0.457600  0.454200  0.296200  1.0  0.1075
  H  H306  1  0.448200  0.456000  0.340800  1.0  0.1048
  H  H307  1  0.809800  0.596000  0.241800  1.0  0.112
  H  H308  1  0.720600  0.584200  0.280100  1.0  0.0981
  H  H309  1  0.650400  0.446500  0.265400  1.0  0.0968
  H  H310  1  0.739600  0.458300  0.227100  1.0  0.1045
  H  H311  1  0.904800  0.736700  0.152800  1.0  0.1008
  H  H312  1  0.743000  0.793200  0.129600  1.0  0.0969
  H  H313  1  0.484300  0.680100  0.148300  1.0  0.1015
  H  H314  1  0.955600  0.651100  0.156500  1.0  0.0943
  H  H315  1  0.538100  0.648300  0.183900  1.0  0.107
  H  H316  1  0.602000  0.582500  0.206500  1.0  0.0874
  H  H317  1  0.019600  0.585300  0.179100  1.0  0.0933
  H  H318  1  0.003000  0.375100  0.139900  1.0  0.0827
  H  H319  1  0.393000  0.312700  0.146600  1.0  0.0962
  H  H320  1  0.361100  0.379900  0.178600  1.0  0.0998
  H  H321  1  0.148100  0.408400  0.207200  1.0  0.1005
  H  H322  1  0.030000  0.471700  0.225800  1.0  0.0985
  H  H323  1  0.862600  0.514400  0.163100  1.0  0.0889
  H  H324  1  0.980600  0.451100  0.144400  1.0  0.1057
  H  H325  1  0.515000  0.437900  0.390700  1.0  0.0907
  H  H326  1  0.938300  0.490500  0.399000  1.0  0.0981
  H  H327  1  0.491200  0.354300  0.394600  1.0  0.0953
  H  H328  1  0.383100  0.288700  0.412700  1.0  0.0871
  H  H329  1  0.650000  0.307600  0.469600  1.0  0.0905
  H  H330  1  0.758200  0.373200  0.451400  1.0  0.1028
  H  H331  1  0.111400  0.140700  0.440100  1.0  0.0976
  H  H332  1  0.198000  0.207100  0.460300  1.0  0.0892
  H  H333  1  0.543500  0.216000  0.416100  1.0  0.0846
  H  H334  1  0.455400  0.152100  0.393100  1.0  0.0986
  H  H335  1  0.542500  0.158600  0.514300  1.0  0.0967
  H  H336  1  0.522100  0.175300  0.474100  1.0  0.1029
  H  H337  1  0.379100  0.306900  0.489700  1.0  0.0989
  H  H338  1  0.399500  0.290200  0.529900  1.0  0.1057
  H  H339  1  0.349200  0.262900  0.565900  1.0  0.114
  H  H340  1  0.651100  0.158300  0.551300  1.0  0.1026
  H  H341  1  0.593400  0.155500  0.595000  1.0  0.1037
  H  H342  1  0.193800  0.008200  0.373000  1.0  0.0884
  H  H343  1  0.382000  0.062500  0.392300  1.0  0.0961
  H  H344  1  0.967500  0.122700  0.398700  1.0  0.1125
  C  C345  1  0.176000  0.031600  0.181000  1.0  0.1382
  C  C346  1  0.013600  0.974500  0.193900  1.0  -0.0713
  C  C347  1  0.008300  0.975500  0.168900  1.0  0.0237
  C  C348  1  0.277400  0.065700  0.253400  1.0  -0.1162
  C  C349  1  0.224400  0.058700  0.230650  1.0  -0.1754
  C  C350  1  0.177100  0.014300  0.223640  1.0  0.1576
  C  C351  1  0.182700  0.976900  0.239400  1.0  -0.1899
  C  C352  1  0.235700  0.983900  0.262100  1.0  -0.1368
  C  C353  1  0.283100  0.028300  0.269110  1.0  0.097
  C  C354  1  0.302300  0.232400  0.350900  1.0  -0.0344
  C  C355  1  0.211800  0.264000  0.363900  1.0  0.0175
  C  C356  1  0.066900  0.200800  0.353400  1.0  0.1077
  C  C357  1  0.383800  0.137100  0.333333  1.0  -0.2421
  C  C358  1  0.240800  0.155900  0.331900  1.0  0.2924
  C  C359  1  0.135800  0.135500  0.317100  1.0  -0.2056
  C  C360  1  0.173800  0.096400  0.303650  1.0  -0.1463
  C  C361  1  0.316800  0.077700  0.305080  1.0  0.1147
  C  C362  1  0.421800  0.098000  0.319900  1.0  -0.1325
  C  C363  1  0.596000  0.865300  0.353900  1.0  0.1205
  C  C364  1  0.807000  0.831100  0.350500  1.0  -0.0135
  C  C365  1  0.793000  0.869700  0.333100  1.0  -0.0054
  C  C366  1  0.590200  0.929900  0.301770  1.0  -0.1358
  C  C367  1  0.520000  0.967500  0.290710  1.0  -0.2182
  C  C368  1  0.435200  0.999000  0.303810  1.0  0.1287
  C  C369  1  0.420500  0.992900  0.327980  1.0  -0.1552
  C  C370  1  0.490700  0.955300  0.339040  1.0  -0.1362
  C  C371  1  0.575500  0.923800  0.325940  1.0  0.0956
  C  C372  1  0.115800  0.941500  0.104400  1.0  0.0171
  C  C373  1  0.196100  0.910300  0.089550  1.0  0.1169
  C  C374  1  0.352700  0.970900  0.099780  1.0  0.2316
  C  C375  1  0.023500  0.844800  0.090170  1.0  -0.194
  C  C376  1  0.959200  0.805900  0.079410  1.0  -0.1409
  C  C377  1  0.006400  0.792000  0.057160  1.0  0.0428
  C  C378  1  0.117800  0.817100  0.045660  1.0  -0.1358
  C  C379  1  0.182000  0.856100  0.056410  1.0  -0.051
  C  C380  1  0.134900  0.869900  0.078670  1.0  0.0391
  C  C381  1  0.757300  0.642900  0.088000  1.0  0.2134
  C  C382  1  0.694500  0.657500  0.066000  1.0  -0.1398
  C  C383  1  0.750400  0.695600  0.053000  1.0  -0.17
  C  C384  1  0.876700  0.715200  0.059700  1.0  0.2355
  C  C385  1  0.953300  0.700700  0.079700  1.0  -0.206
  C  C386  1  0.899300  0.663300  0.093900  1.0  -0.1752
  C  C387  1  0.009400  0.688700  0.990650  1.0  -0.2009
  C  C388  1  0.997200  0.698700  0.014540  1.0  -0.2038
  C  C389  1  0.948700  0.742700  0.021850  1.0  0.1778
  C  C390  1  0.912300  0.776800  0.005290  1.0  -0.1553
  C  C391  1  0.924400  0.766900  0.981410  1.0  -0.1703
  C  C392  1  0.972900  0.722800  0.974090  1.0  0.1644
  C  C393  1  0.915600  0.737100  0.932300  1.0  0.149
  C  C394  1  0.084700  0.678500  0.940470  1.0  -0.0475
  C  C395  1  0.052300  0.676900  0.916010  1.0  0.0204
  C  C396  1  0.672200  0.537400  0.119630  1.0  0.0196
  C  C397  1  0.777500  0.567800  0.108800  1.0  -0.0461
  C  C398  1  0.545500  0.601400  0.105210  1.0  0.1015
  C  C399  1  0.324000  0.468400  0.681000  1.0  0.1388
  C  C400  1  0.486400  0.525500  0.693900  1.0  -0.0715
  C  C401  1  0.491700  0.524500  0.668900  1.0  0.024
  C  C402  1  0.222600  0.434300  0.753400  1.0  -0.1162
  C  C403  1  0.275600  0.441300  0.730650  1.0  -0.1733
  C  C404  1  0.322900  0.485700  0.723640  1.0  0.1577
  C  C405  1  0.317300  0.523100  0.739400  1.0  -0.1904
  C  C406  1  0.264300  0.516100  0.762100  1.0  -0.138
  C  C407  1  0.216900  0.471700  0.769110  1.0  0.0976
  C  C408  1  0.197700  0.267600  0.850900  1.0  -0.0372
  C  C409  1  0.288200  0.236000  0.863900  1.0  0.0182
  C  C410  1  0.433100  0.299200  0.853400  1.0  0.111
  C  C411  1  0.116200  0.362900  0.833330  1.0  -0.246
  C  C412  1  0.259200  0.344100  0.831900  1.0  0.2916
  C  C413  1  0.364200  0.364500  0.817100  1.0  -0.2072
  C  C414  1  0.326200  0.403600  0.803650  1.0  -0.146
  C  C415  1  0.183200  0.422300  0.805080  1.0  0.1148
  C  C416  1  0.078200  0.402000  0.819900  1.0  -0.1331
  C  C417  1  0.904000  0.634700  0.853900  1.0  0.1207
  C  C418  1  0.693000  0.668900  0.850500  1.0  -0.012
  C  C419  1  0.707000  0.630300  0.833100  1.0  -0.0045
  C  C420  1  0.909800  0.570100  0.801770  1.0  -0.1347
  C  C421  1  0.980000  0.532500  0.790710  1.0  -0.2181
  C  C422  1  0.064800  0.501000  0.803810  1.0  0.1287
  C  C423  1  0.079500  0.507100  0.827980  1.0  -0.1548
  C  C424  1  0.009300  0.544700  0.839040  1.0  -0.1362
  C  C425  1  0.924500  0.576200  0.825940  1.0  0.0952
  C  C426  1  0.384200  0.558500  0.604400  1.0  0.0205
  C  C427  1  0.303900  0.589700  0.589550  1.0  0.1162
  C  C428  1  0.147300  0.529100  0.599780  1.0  0.2297
  C  C429  1  0.476500  0.655200  0.590170  1.0  -0.1935
  C  C430  1  0.540800  0.694100  0.579410  1.0  -0.1413
  C  C431  1  0.493600  0.708000  0.557160  1.0  0.0433
  C  C432  1  0.382200  0.682900  0.545660  1.0  -0.136
  C  C433  1  0.318000  0.643900  0.556410  1.0  -0.0511
  C  C434  1  0.365100  0.630100  0.578670  1.0  0.0394
  C  C435  1  0.742700  0.857100  0.588000  1.0  0.2136
  C  C436  1  0.805500  0.842500  0.566000  1.0  -0.1393
  C  C437  1  0.749600  0.804400  0.553000  1.0  -0.1695
  C  C438  1  0.623300  0.784800  0.559700  1.0  0.2348
  C  C439  1  0.546700  0.799300  0.579700  1.0  -0.2073
  C  C440  1  0.600700  0.836700  0.593900  1.0  -0.1749
  C  C441  1  0.490600  0.811300  0.490650  1.0  -0.2007
  C  C442  1  0.502800  0.801300  0.514540  1.0  -0.2035
  C  C443  1  0.551300  0.757300  0.521850  1.0  0.1775
  C  C444  1  0.587700  0.723200  0.505290  1.0  -0.1557
  C  C445  1  0.575600  0.733100  0.481410  1.0  -0.172
  C  C446  1  0.527100  0.777200  0.474090  1.0  0.1646
  C  C447  1  0.584400  0.762900  0.432300  1.0  0.1491
  C  C448  1  0.415300  0.821500  0.440470  1.0  -0.0478
  C  C449  1  0.447700  0.823100  0.416010  1.0  0.022
  C  C450  1  0.827800  0.962600  0.619630  1.0  0.019
  C  C451  1  0.722500  0.932200  0.608800  1.0  -0.0466
  C  C452  1  0.954500  0.898600  0.605210  1.0  0.1036
  C  C453  1  0.176000  0.968400  0.681000  1.0  0.1377
  C  C454  1  0.013600  0.025500  0.693900  1.0  -0.0715
  C  C455  1  0.008300  0.024500  0.668900  1.0  0.0243
  C  C456  1  0.277400  0.934300  0.753400  1.0  -0.1168
  C  C457  1  0.224400  0.941300  0.730650  1.0  -0.1729
  C  C458  1  0.177100  0.985700  0.723640  1.0  0.158
  C  C459  1  0.182700  0.023100  0.739400  1.0  -0.1909
  C  C460  1  0.235700  0.016100  0.762100  1.0  -0.1381
  C  C461  1  0.283100  0.971700  0.769110  1.0  0.0976
  C  C462  1  0.302300  0.767600  0.850900  1.0  -0.0363
  C  C463  1  0.211800  0.736000  0.863900  1.0  0.0179
  C  C464  1  0.066900  0.799200  0.853400  1.0  0.1081
  C  C465  1  0.383800  0.862900  0.833330  1.0  -0.2461
  C  C466  1  0.240800  0.844100  0.831900  1.0  0.2917
  C  C467  1  0.135800  0.864500  0.817100  1.0  -0.2067
  C  C468  1  0.173800  0.903600  0.803650  1.0  -0.144
  C  C469  1  0.316800  0.922300  0.805080  1.0  0.1146
  C  C470  1  0.421800  0.902000  0.819900  1.0  -0.1333
  C  C471  1  0.596000  0.134700  0.853900  1.0  0.1203
  C  C472  1  0.807000  0.168900  0.850500  1.0  -0.0115
  C  C473  1  0.793000  0.130300  0.833100  1.0  -0.0042
  C  C474  1  0.590200  0.070100  0.801770  1.0  -0.1346
  C  C475  1  0.520000  0.032500  0.790710  1.0  -0.2188
  C  C476  1  0.435200  0.001000  0.803810  1.0  0.1289
  C  C477  1  0.420500  0.007100  0.827980  1.0  -0.1554
  C  C478  1  0.490700  0.044700  0.839040  1.0  -0.136
  C  C479  1  0.575500  0.076200  0.825940  1.0  0.0949
  C  C480  1  0.115800  0.058500  0.604400  1.0  0.0183
  C  C481  1  0.196100  0.089700  0.589550  1.0  0.1175
  C  C482  1  0.352700  0.029100  0.599780  1.0  0.2304
  C  C483  1  0.023500  0.155200  0.590170  1.0  -0.1939
  C  C484  1  0.959200  0.194100  0.579410  1.0  -0.1407
  C  C485  1  0.006400  0.208000  0.557160  1.0  0.0434
  C  C486  1  0.117800  0.182900  0.545660  1.0  -0.137
  C  C487  1  0.182000  0.143900  0.556410  1.0  -0.0529
  C  C488  1  0.134900  0.130100  0.578670  1.0  0.0386
  C  C489  1  0.757300  0.357100  0.588000  1.0  0.2135
  C  C490  1  0.694500  0.342500  0.566000  1.0  -0.1399
  C  C491  1  0.750400  0.304400  0.553000  1.0  -0.1697
  C  C492  1  0.876700  0.284800  0.559700  1.0  0.2359
  C  C493  1  0.953300  0.299300  0.579700  1.0  -0.2057
  C  C494  1  0.899300  0.336700  0.593900  1.0  -0.1754
  C  C495  1  0.009400  0.311300  0.490650  1.0  -0.1989
  C  C496  1  0.997200  0.301300  0.514540  1.0  -0.2024
  C  C497  1  0.948700  0.257300  0.521850  1.0  0.1778
  C  C498  1  0.912300  0.223200  0.505290  1.0  -0.1558
  C  C499  1  0.924400  0.233100  0.481410  1.0  -0.1712
  C  C500  1  0.972900  0.277200  0.474090  1.0  0.1642
  C  C501  1  0.915600  0.262900  0.432300  1.0  0.1506
  C  C502  1  0.084700  0.321500  0.440470  1.0  -0.0473
  C  C503  1  0.052300  0.323100  0.416010  1.0  0.0217
  C  C504  1  0.672200  0.462600  0.619630  1.0  0.0201
  C  C505  1  0.777500  0.432200  0.608800  1.0  -0.0447
  C  C506  1  0.545500  0.398600  0.605210  1.0  0.1017
  C  C507  1  0.324000  0.531600  0.181000  1.0  0.1386
  C  C508  1  0.486400  0.474500  0.193900  1.0  -0.0716
  C  C509  1  0.491700  0.475500  0.168900  1.0  0.0233
  C  C510  1  0.222600  0.565700  0.253400  1.0  -0.1171
  C  C511  1  0.275600  0.558700  0.230650  1.0  -0.1757
  C  C512  1  0.322900  0.514300  0.223640  1.0  0.1574
  C  C513  1  0.317300  0.476900  0.239400  1.0  -0.1905
  C  C514  1  0.264300  0.483900  0.262100  1.0  -0.137
  C  C515  1  0.216900  0.528300  0.269110  1.0  0.0971
  C  C516  1  0.197700  0.732400  0.350900  1.0  -0.0368
  C  C517  1  0.288200  0.764000  0.363900  1.0  0.0176
  C  C518  1  0.433100  0.700800  0.353400  1.0  0.1103
  C  C519  1  0.116200  0.637100  0.333333  1.0  -0.2418
  C  C520  1  0.259200  0.655900  0.331900  1.0  0.2923
  C  C521  1  0.364200  0.635500  0.317100  1.0  -0.2036
  C  C522  1  0.326200  0.596400  0.303650  1.0  -0.1465
  C  C523  1  0.183200  0.577700  0.305080  1.0  0.1149
  C  C524  1  0.078200  0.598000  0.319900  1.0  -0.133
  C  C525  1  0.904000  0.365300  0.353900  1.0  0.1205
  C  C526  1  0.693000  0.331100  0.350500  1.0  -0.0128
  C  C527  1  0.707000  0.369700  0.333100  1.0  -0.005
  C  C528  1  0.909800  0.429900  0.301770  1.0  -0.1354
  C  C529  1  0.980000  0.467500  0.290710  1.0  -0.2183
  C  C530  1  0.064800  0.499000  0.303810  1.0  0.1284
  C  C531  1  0.079500  0.492900  0.327980  1.0  -0.1551
  C  C532  1  0.009300  0.455300  0.339040  1.0  -0.1363
  C  C533  1  0.924500  0.423800  0.325940  1.0  0.0955
  C  C534  1  0.384200  0.441500  0.104400  1.0  0.02
  C  C535  1  0.303900  0.410300  0.089550  1.0  0.1158
  C  C536  1  0.147300  0.470900  0.099780  1.0  0.2302
  C  C537  1  0.476500  0.344800  0.090170  1.0  -0.1937
  C  C538  1  0.540800  0.305900  0.079410  1.0  -0.1412
  C  C539  1  0.493600  0.292000  0.057160  1.0  0.0428
  C  C540  1  0.382200  0.317100  0.045660  1.0  -0.1351
  C  C541  1  0.318000  0.356100  0.056410  1.0  -0.0514
  C  C542  1  0.365100  0.369900  0.078670  1.0  0.0397
  C  C543  1  0.742700  0.142900  0.088000  1.0  0.2135
  C  C544  1  0.805500  0.157500  0.066000  1.0  -0.1399
  C  C545  1  0.749600  0.195600  0.053000  1.0  -0.1706
  C  C546  1  0.623300  0.215200  0.059700  1.0  0.2342
  C  C547  1  0.546700  0.200700  0.079700  1.0  -0.2065
  C  C548  1  0.600700  0.163300  0.093900  1.0  -0.175
  C  C549  1  0.490600  0.188700  0.990650  1.0  -0.2005
  C  C550  1  0.502800  0.198700  0.014540  1.0  -0.2038
  C  C551  1  0.551300  0.242700  0.021850  1.0  0.1775
  C  C552  1  0.587700  0.276800  0.005290  1.0  -0.1543
  C  C553  1  0.575600  0.266900  0.981410  1.0  -0.17
  C  C554  1  0.527100  0.222800  0.974090  1.0  0.1648
  C  C555  1  0.584400  0.237100  0.932300  1.0  0.1487
  C  C556  1  0.415300  0.178500  0.940470  1.0  -0.0469
  C  C557  1  0.447700  0.176900  0.916010  1.0  0.021
  C  C558  1  0.827800  0.037400  0.119630  1.0  0.019
  C  C559  1  0.722500  0.067800  0.108800  1.0  -0.0468
  C  C560  1  0.954500  0.101400  0.105210  1.0  0.1039
  C  C561  1  0.824000  0.031600  0.319000  1.0  0.1387
  C  C562  1  0.986400  0.974500  0.306100  1.0  -0.0714
  C  C563  1  0.991700  0.975500  0.331100  1.0  0.0246
  C  C564  1  0.722600  0.065700  0.246600  1.0  -0.1163
  C  C565  1  0.775600  0.058700  0.269350  1.0  -0.1758
  C  C566  1  0.822900  0.014300  0.276360  1.0  0.1573
  C  C567  1  0.817300  0.976900  0.260600  1.0  -0.1869
  C  C568  1  0.764300  0.983900  0.237900  1.0  -0.1368
  C  C569  1  0.716900  0.028300  0.230890  1.0  0.097
  C  C570  1  0.697700  0.232400  0.149100  1.0  -0.0381
  C  C571  1  0.788200  0.264000  0.136100  1.0  0.019
  C  C572  1  0.933100  0.200800  0.146600  1.0  0.1114
  C  C573  1  0.616200  0.137100  0.166670  1.0  -0.2463
  C  C574  1  0.759200  0.155900  0.168100  1.0  0.2919
  C  C575  1  0.864200  0.135500  0.182900  1.0  -0.2042
  C  C576  1  0.826200  0.096400  0.196350  1.0  -0.1461
  C  C577  1  0.683200  0.077700  0.194920  1.0  0.1151
  C  C578  1  0.578200  0.098000  0.180100  1.0  -0.1326
  C  C579  1  0.404000  0.865300  0.146100  1.0  0.1206
  C  C580  1  0.193000  0.831100  0.149500  1.0  -0.0139
  C  C581  1  0.207000  0.869700  0.166900  1.0  -0.0072
  C  C582  1  0.409800  0.929900  0.198230  1.0  -0.1349
  C  C583  1  0.480000  0.967500  0.209290  1.0  -0.2176
  C  C584  1  0.564800  0.999000  0.196190  1.0  0.1284
  C  C585  1  0.579500  0.992900  0.172020  1.0  -0.1563
  C  C586  1  0.509300  0.955300  0.160960  1.0  -0.1346
  C  C587  1  0.424500  0.923800  0.174060  1.0  0.0955
  C  C588  1  0.884200  0.941500  0.395600  1.0  0.0208
  C  C589  1  0.803900  0.910300  0.410450  1.0  0.1165
  C  C590  1  0.647300  0.970900  0.400220  1.0  0.2302
  C  C591  1  0.976500  0.844800  0.409830  1.0  -0.1928
  C  C592  1  0.040800  0.805900  0.420590  1.0  -0.14
  C  C593  1  0.993600  0.792000  0.442840  1.0  0.0427
  C  C594  1  0.882200  0.817100  0.454340  1.0  -0.1353
  C  C595  1  0.818000  0.856100  0.443590  1.0  -0.052
  C  C596  1  0.865100  0.869900  0.421330  1.0  0.0395
  C  C597  1  0.242700  0.642900  0.412000  1.0  0.2131
  C  C598  1  0.305500  0.657500  0.434000  1.0  -0.1398
  C  C599  1  0.249600  0.695600  0.447000  1.0  -0.169
  C  C600  1  0.123300  0.715200  0.440300  1.0  0.2342
  C  C601  1  0.046700  0.700700  0.420300  1.0  -0.2068
  C  C602  1  0.100700  0.663300  0.406100  1.0  -0.1749
  C  C603  1  0.990600  0.688700  0.509350  1.0  -0.2009
  C  C604  1  0.002800  0.698700  0.485460  1.0  -0.2033
  C  C605  1  0.051300  0.742700  0.478150  1.0  0.1775
  C  C606  1  0.087700  0.776800  0.494710  1.0  -0.1542
  C  C607  1  0.075600  0.766900  0.518590  1.0  -0.1708
  C  C608  1  0.027100  0.722800  0.525910  1.0  0.1652
  C  C609  1  0.084400  0.737100  0.567700  1.0  0.15
  C  C610  1  0.915300  0.678500  0.559530  1.0  -0.0469
  C  C611  1  0.947700  0.676900  0.583990  1.0  0.0218
  C  C612  1  0.327800  0.537400  0.380370  1.0  0.019
  C  C613  1  0.222500  0.567800  0.391200  1.0  -0.048
  C  C614  1  0.454500  0.601400  0.394790  1.0  0.1041
  C  C615  1  0.676000  0.468400  0.819000  1.0  0.138
  C  C616  1  0.513600  0.525500  0.806100  1.0  -0.0711
  C  C617  1  0.508300  0.524500  0.831100  1.0  0.0252
  C  C618  1  0.777400  0.434300  0.746600  1.0  -0.1159
  C  C619  1  0.724400  0.441300  0.769350  1.0  -0.1731
  C  C620  1  0.677100  0.485700  0.776360  1.0  0.1579
  C  C621  1  0.682700  0.523100  0.760600  1.0  -0.1876
  C  C622  1  0.735700  0.516100  0.737900  1.0  -0.1384
  C  C623  1  0.783100  0.471700  0.730890  1.0  0.0974
  C  C624  1  0.802300  0.267600  0.649100  1.0  -0.0363
  C  C625  1  0.711800  0.236000  0.636100  1.0  0.0188
  C  C626  1  0.566900  0.299200  0.646600  1.0  0.1088
  C  C627  1  0.883800  0.362900  0.666667  1.0  -0.2413
  C  C628  1  0.740800  0.344100  0.668100  1.0  0.2921
  C  C629  1  0.635800  0.364500  0.682900  1.0  -0.2069
  C  C630  1  0.673800  0.403600  0.696350  1.0  -0.1439
  C  C631  1  0.816800  0.422300  0.694920  1.0  0.1152
  C  C632  1  0.921800  0.402000  0.680100  1.0  -0.1332
  C  C633  1  0.096000  0.634700  0.646100  1.0  0.1207
  C  C634  1  0.307000  0.668900  0.649500  1.0  -0.0121
  C  C635  1  0.293000  0.630300  0.666900  1.0  -0.0057
  C  C636  1  0.090200  0.570100  0.698230  1.0  -0.1345
  C  C637  1  0.020000  0.532500  0.709290  1.0  -0.2173
  C  C638  1  0.935200  0.501000  0.696190  1.0  0.129
  C  C639  1  0.920500  0.507100  0.672020  1.0  -0.1562
  C  C640  1  0.990700  0.544700  0.660960  1.0  -0.1338
  C  C641  1  0.075500  0.576200  0.674060  1.0  0.0949
  C  C642  1  0.615800  0.558500  0.895600  1.0  0.0185
  C  C643  1  0.696100  0.589700  0.910450  1.0  0.1181
  C  C644  1  0.852700  0.529100  0.900220  1.0  0.2327
  C  C645  1  0.523500  0.655200  0.909830  1.0  -0.1926
  C  C646  1  0.459200  0.694100  0.920590  1.0  -0.1397
  C  C647  1  0.506400  0.708000  0.942840  1.0  0.0431
  C  C648  1  0.617800  0.682900  0.954340  1.0  -0.138
  C  C649  1  0.682000  0.643900  0.943590  1.0  -0.0534
  C  C650  1  0.634900  0.630100  0.921330  1.0  0.0391
  C  C651  1  0.257300  0.857100  0.912000  1.0  0.2131
  C  C652  1  0.194500  0.842500  0.934000  1.0  -0.1395
  C  C653  1  0.250400  0.804400  0.947000  1.0  -0.1689
  C  C654  1  0.376700  0.784800  0.940300  1.0  0.2357
  C  C655  1  0.453300  0.799300  0.920300  1.0  -0.2055
  C  C656  1  0.399300  0.836700  0.906100  1.0  -0.1749
  C  C657  1  0.509400  0.811300  0.009350  1.0  -0.1993
  C  C658  1  0.497200  0.801300  0.985460  1.0  -0.2019
  C  C659  1  0.448700  0.757300  0.978150  1.0  0.1778
  C  C660  1  0.412300  0.723200  0.994710  1.0  -0.1558
  C  C661  1  0.424400  0.733100  0.018590  1.0  -0.1713
  C  C662  1  0.472900  0.777200  0.025910  1.0  0.1644
  C  C663  1  0.415600  0.762900  0.067700  1.0  0.1515
  C  C664  1  0.584700  0.821500  0.059530  1.0  -0.0475
  C  C665  1  0.552300  0.823100  0.083990  1.0  0.0225
  C  C666  1  0.172200  0.962600  0.880370  1.0  0.0207
  C  C667  1  0.277500  0.932200  0.891200  1.0  -0.0447
  C  C668  1  0.045500  0.898600  0.894790  1.0  0.1021
  C  C669  1  0.824000  0.968400  0.819000  1.0  0.1388
  C  C670  1  0.986400  0.025500  0.806100  1.0  -0.0713
  C  C671  1  0.991700  0.024500  0.831100  1.0  0.0251
  C  C672  1  0.722600  0.934300  0.746600  1.0  -0.1154
  C  C673  1  0.775600  0.941300  0.769350  1.0  -0.1736
  C  C674  1  0.822900  0.985700  0.776360  1.0  0.1576
  C  C675  1  0.817300  0.023100  0.760600  1.0  -0.1873
  C  C676  1  0.764300  0.016100  0.737900  1.0  -0.1381
  C  C677  1  0.716900  0.971700  0.730890  1.0  0.0974
  C  C678  1  0.697700  0.767600  0.649100  1.0  -0.0388
  C  C679  1  0.788200  0.736000  0.636100  1.0  0.0188
  C  C680  1  0.933100  0.799200  0.646600  1.0  0.1121
  C  C681  1  0.616200  0.862900  0.666667  1.0  -0.2418
  C  C682  1  0.759200  0.844100  0.668100  1.0  0.2921
  C  C683  1  0.864200  0.864500  0.682900  1.0  -0.2065
  C  C684  1  0.826200  0.903600  0.696350  1.0  -0.1456
  C  C685  1  0.683200  0.922300  0.694920  1.0  0.1154
  C  C686  1  0.578200  0.902000  0.680100  1.0  -0.133
  C  C687  1  0.404000  0.134700  0.646100  1.0  0.121
  C  C688  1  0.193000  0.168900  0.649500  1.0  -0.013
  C  C689  1  0.207000  0.130300  0.666900  1.0  -0.0078
  C  C690  1  0.409800  0.070100  0.698230  1.0  -0.1341
  C  C691  1  0.480000  0.032500  0.709290  1.0  -0.2164
  C  C692  1  0.564800  0.001000  0.696190  1.0  0.1288
  C  C693  1  0.579500  0.007100  0.672020  1.0  -0.1558
  C  C694  1  0.509300  0.044700  0.660960  1.0  -0.1347
  C  C695  1  0.424500  0.076200  0.674060  1.0  0.0951
  C  C696  1  0.884200  0.058500  0.895600  1.0  0.021
  C  C697  1  0.803900  0.089700  0.910450  1.0  0.1172
  C  C698  1  0.647300  0.029100  0.900220  1.0  0.2299
  C  C699  1  0.976500  0.155200  0.909830  1.0  -0.1926
  C  C700  1  0.040800  0.194100  0.920590  1.0  -0.1405
  C  C701  1  0.993600  0.208000  0.942840  1.0  0.043
  C  C702  1  0.882200  0.182900  0.954340  1.0  -0.1372
  C  C703  1  0.818000  0.143900  0.943590  1.0  -0.0515
  C  C704  1  0.865100  0.130100  0.921330  1.0  0.0396
  C  C705  1  0.242700  0.357100  0.912000  1.0  0.2132
  C  C706  1  0.305500  0.342500  0.934000  1.0  -0.1389
  C  C707  1  0.249600  0.304400  0.947000  1.0  -0.1686
  C  C708  1  0.123300  0.284800  0.940300  1.0  0.2348
  C  C709  1  0.046700  0.299300  0.920300  1.0  -0.2068
  C  C710  1  0.100700  0.336700  0.906100  1.0  -0.1746
  C  C711  1  0.990600  0.311300  0.009350  1.0  -0.2011
  C  C712  1  0.002800  0.301300  0.985460  1.0  -0.2029
  C  C713  1  0.051300  0.257300  0.978150  1.0  0.1775
  C  C714  1  0.087700  0.223200  0.994710  1.0  -0.1558
  C  C715  1  0.075600  0.233100  0.018590  1.0  -0.1718
  C  C716  1  0.027100  0.277200  0.025910  1.0  0.1648
  C  C717  1  0.084400  0.262900  0.067700  1.0  0.1504
  C  C718  1  0.915300  0.321500  0.059530  1.0  -0.0479
  C  C719  1  0.947700  0.323100  0.083990  1.0  0.0219
  C  C720  1  0.327800  0.462600  0.880370  1.0  0.0198
  C  C721  1  0.222500  0.432200  0.891200  1.0  -0.0486
  C  C722  1  0.454500  0.398600  0.894790  1.0  0.1039
  C  C723  1  0.676000  0.531600  0.319000  1.0  0.1386
  C  C724  1  0.513600  0.474500  0.306100  1.0  -0.0709
  C  C725  1  0.508300  0.475500  0.331100  1.0  0.0246
  C  C726  1  0.777400  0.565700  0.246600  1.0  -0.1153
  C  C727  1  0.724400  0.558700  0.269350  1.0  -0.1755
  C  C728  1  0.677100  0.514300  0.276360  1.0  0.1575
  C  C729  1  0.682700  0.476900  0.260600  1.0  -0.1864
  C  C730  1  0.735700  0.483900  0.237900  1.0  -0.1366
  C  C731  1  0.783100  0.528300  0.230890  1.0  0.097
  C  C732  1  0.802300  0.732400  0.149100  1.0  -0.0341
  C  C733  1  0.711800  0.764000  0.136100  1.0  0.0193
  C  C734  1  0.566900  0.700800  0.146600  1.0  0.1085
  C  C735  1  0.883800  0.637100  0.166670  1.0  -0.2466
  C  C736  1  0.740800  0.655900  0.168100  1.0  0.2919
  C  C737  1  0.635800  0.635500  0.182900  1.0  -0.2068
  C  C738  1  0.673800  0.596400  0.196350  1.0  -0.1459
  C  C739  1  0.816800  0.577700  0.194920  1.0  0.115
  C  C740  1  0.921800  0.598000  0.180100  1.0  -0.1321
  C  C741  1  0.096000  0.365300  0.146100  1.0  0.1206
  C  C742  1  0.307000  0.331100  0.149500  1.0  -0.0142
  C  C743  1  0.293000  0.369700  0.166900  1.0  -0.0061
  C  C744  1  0.090200  0.429900  0.198230  1.0  -0.1354
  C  C745  1  0.020000  0.467500  0.209290  1.0  -0.2175
  C  C746  1  0.935200  0.499000  0.196190  1.0  0.1287
  C  C747  1  0.920500  0.492900  0.172020  1.0  -0.1561
  C  C748  1  0.990700  0.455300  0.160960  1.0  -0.1338
  C  C749  1  0.075500  0.423800  0.174060  1.0  0.0957
  C  C750  1  0.615800  0.441500  0.395600  1.0  0.0176
  C  C751  1  0.696100  0.410300  0.410450  1.0  0.1172
  C  C752  1  0.852700  0.470900  0.400220  1.0  0.2333
  C  C753  1  0.523500  0.344800  0.409830  1.0  -0.1924
  C  C754  1  0.459200  0.305900  0.420590  1.0  -0.1396
  C  C755  1  0.506400  0.292000  0.442840  1.0  0.0428
  C  C756  1  0.617800  0.317100  0.454340  1.0  -0.1357
  C  C757  1  0.682000  0.356100  0.443590  1.0  -0.0517
  C  C758  1  0.634900  0.369900  0.421330  1.0  0.0392
  C  C759  1  0.257300  0.142900  0.412000  1.0  0.213
  C  C760  1  0.194500  0.157500  0.434000  1.0  -0.1396
  C  C761  1  0.250400  0.195600  0.447000  1.0  -0.1691
  C  C762  1  0.376700  0.215200  0.440300  1.0  0.2352
  C  C763  1  0.453300  0.200700  0.420300  1.0  -0.2068
  C  C764  1  0.399300  0.163300  0.406100  1.0  -0.1751
  C  C765  1  0.509400  0.188700  0.509350  1.0  -0.2013
  C  C766  1  0.497200  0.198700  0.485460  1.0  -0.2034
  C  C767  1  0.448700  0.242700  0.478150  1.0  0.1778
  C  C768  1  0.412300  0.276800  0.494710  1.0  -0.1552
  C  C769  1  0.424400  0.266900  0.518590  1.0  -0.1712
  C  C770  1  0.472900  0.222800  0.525910  1.0  0.1647
  C  C771  1  0.415600  0.237100  0.567700  1.0  0.1498
  C  C772  1  0.584700  0.178500  0.559530  1.0  -0.0476
  C  C773  1  0.552300  0.176900  0.583990  1.0  0.0218
  C  C774  1  0.172200  0.037400  0.380370  1.0  0.0197
  C  C775  1  0.277500  0.067800  0.391200  1.0  -0.0453
  C  C776  1  0.045500  0.101400  0.394790  1.0  0.1019
  N  N777  1  0.117300  0.009200  0.201370  1.0  -0.1226
  N  N778  1  0.108700  0.010700  0.160950  1.0  -0.395
  N  N779  1  0.066300  0.244500  0.365480  1.0  -0.3672
  N  N780  1  0.212800  0.193300  0.344390  1.0  -0.0492
  N  N781  1  0.212600  0.978900  0.110770  1.0  -0.3172
  N  N782  1  0.342500  0.928500  0.086670  1.0  -0.2449
  N  N783  1  0.000200  0.715700  0.950540  1.0  -0.1328
  N  N784  1  0.947900  0.713100  0.910960  1.0  -0.4022
  N  N785  1  0.352500  0.034800  0.292000  1.0  -0.2752
  N  N786  1  0.659700  0.885900  0.338400  1.0  0.0868
  N  N787  1  0.668700  0.826900  0.361700  1.0  -0.4619
  N  N788  1  0.935400  0.750800  0.046200  1.0  -0.2067
  N  N789  1  0.528800  0.558200  0.117410  1.0  -0.386
  N  N790  1  0.699200  0.607400  0.099890  1.0  -0.0074
  N  N791  1  0.382700  0.490800  0.701370  1.0  -0.1232
  N  N792  1  0.391300  0.489300  0.660950  1.0  -0.3953
  N  N793  1  0.433700  0.255500  0.865480  1.0  -0.3677
  N  N794  1  0.287200  0.306700  0.844390  1.0  -0.0492
  N  N795  1  0.287400  0.521100  0.610770  1.0  -0.3192
  N  N796  1  0.157500  0.571500  0.586670  1.0  -0.2408
  N  N797  1  0.499800  0.784300  0.450540  1.0  -0.1323
  N  N798  1  0.552100  0.786900  0.410960  1.0  -0.402
  N  N799  1  0.147500  0.465200  0.792000  1.0  -0.2751
  N  N800  1  0.840300  0.614100  0.838400  1.0  0.0858
  N  N801  1  0.831300  0.673100  0.861700  1.0  -0.4602
  N  N802  1  0.564600  0.749200  0.546200  1.0  -0.2084
  N  N803  1  0.971200  0.941800  0.617410  1.0  -0.3861
  N  N804  1  0.800800  0.892600  0.599890  1.0  -0.0066
  N  N805  1  0.117300  0.990800  0.701370  1.0  -0.1229
  N  N806  1  0.108700  0.989300  0.660950  1.0  -0.3956
  N  N807  1  0.066300  0.755500  0.865480  1.0  -0.3675
  N  N808  1  0.212800  0.806700  0.844390  1.0  -0.0495
  N  N809  1  0.212600  0.021100  0.610770  1.0  -0.3193
  N  N810  1  0.342500  0.071500  0.586670  1.0  -0.2439
  N  N811  1  0.000200  0.284300  0.450540  1.0  -0.1324
  N  N812  1  0.947900  0.286900  0.410960  1.0  -0.4025
  N  N813  1  0.352500  0.965200  0.792000  1.0  -0.2751
  N  N814  1  0.659700  0.114100  0.838400  1.0  0.0857
  N  N815  1  0.668700  0.173100  0.861700  1.0  -0.4603
  N  N816  1  0.935400  0.249200  0.546200  1.0  -0.2073
  N  N817  1  0.528800  0.441800  0.617410  1.0  -0.3853
  N  N818  1  0.699200  0.392600  0.599890  1.0  -0.0073
  N  N819  1  0.382700  0.509200  0.201370  1.0  -0.123
  N  N820  1  0.391300  0.510700  0.160950  1.0  -0.3945
  N  N821  1  0.433700  0.744500  0.365480  1.0  -0.368
  N  N822  1  0.287200  0.693300  0.344390  1.0  -0.0488
  N  N823  1  0.287400  0.478900  0.110770  1.0  -0.3174
  N  N824  1  0.157500  0.428500  0.086670  1.0  -0.2417
  N  N825  1  0.499800  0.215700  0.950540  1.0  -0.1326
  N  N826  1  0.552100  0.213100  0.910960  1.0  -0.4018
  N  N827  1  0.147500  0.534800  0.292000  1.0  -0.2751
  N  N828  1  0.840300  0.385900  0.338400  1.0  0.0864
  N  N829  1  0.831300  0.326900  0.361700  1.0  -0.4614
  N  N830  1  0.564600  0.250800  0.046200  1.0  -0.2079
  N  N831  1  0.971200  0.058200  0.117410  1.0  -0.3861
  N  N832  1  0.800800  0.107400  0.099890  1.0  -0.0066
  N  N833  1  0.882700  0.009200  0.298630  1.0  -0.1232
  N  N834  1  0.891300  0.010700  0.339050  1.0  -0.3959
  N  N835  1  0.933700  0.244500  0.134520  1.0  -0.3677
  N  N836  1  0.787200  0.193300  0.155610  1.0  -0.0489
  N  N837  1  0.787400  0.978900  0.389230  1.0  -0.3182
  N  N838  1  0.657500  0.928500  0.413330  1.0  -0.242
  N  N839  1  0.999800  0.715700  0.549460  1.0  -0.1325
  N  N840  1  0.052100  0.713100  0.589040  1.0  -0.4024
  N  N841  1  0.647500  0.034800  0.208000  1.0  -0.275
  N  N842  1  0.340300  0.885900  0.161600  1.0  0.0876
  N  N843  1  0.331300  0.826900  0.138300  1.0  -0.4614
  N  N844  1  0.064600  0.750800  0.453800  1.0  -0.2077
  N  N845  1  0.471200  0.558200  0.382590  1.0  -0.3861
  N  N846  1  0.300800  0.607400  0.400110  1.0  -0.0066
  N  N847  1  0.617300  0.490800  0.798630  1.0  -0.1228
  N  N848  1  0.608700  0.489300  0.839050  1.0  -0.3959
  N  N849  1  0.566300  0.255500  0.634520  1.0  -0.3668
  N  N850  1  0.712800  0.306700  0.655610  1.0  -0.0502
  N  N851  1  0.712600  0.521100  0.889230  1.0  -0.3196
  N  N852  1  0.842500  0.571500  0.913330  1.0  -0.2453
  N  N853  1  0.500200  0.784300  0.049460  1.0  -0.1324
  N  N854  1  0.447900  0.786900  0.089040  1.0  -0.4024
  N  N855  1  0.852500  0.465200  0.708000  1.0  -0.2751
  N  N856  1  0.159700  0.614100  0.661600  1.0  0.0878
  N  N857  1  0.168700  0.673100  0.638300  1.0  -0.46
  N  N858  1  0.435400  0.749200  0.953800  1.0  -0.2072
  N  N859  1  0.028800  0.941800  0.882590  1.0  -0.3854
  N  N860  1  0.199200  0.892600  0.900110  1.0  -0.0076
  N  N861  1  0.882700  0.990800  0.798630  1.0  -0.1232
  N  N862  1  0.891300  0.989300  0.839050  1.0  -0.3957
  N  N863  1  0.933700  0.755500  0.634520  1.0  -0.3674
  N  N864  1  0.787200  0.806700  0.655610  1.0  -0.0496
  N  N865  1  0.787400  0.021100  0.889230  1.0  -0.3192
  N  N866  1  0.657500  0.071500  0.913330  1.0  -0.2433
  N  N867  1  0.999800  0.284300  0.049460  1.0  -0.1322
  N  N868  1  0.052100  0.286900  0.089040  1.0  -0.4022
  N  N869  1  0.647500  0.965200  0.708000  1.0  -0.2751
  N  N870  1  0.340300  0.114100  0.661600  1.0  0.0879
  N  N871  1  0.331300  0.173100  0.638300  1.0  -0.4603
  N  N872  1  0.064600  0.249200  0.953800  1.0  -0.2083
  N  N873  1  0.471200  0.441800  0.882590  1.0  -0.3858
  N  N874  1  0.300800  0.392600  0.900110  1.0  -0.0068
  N  N875  1  0.617300  0.509200  0.298630  1.0  -0.1227
  N  N876  1  0.608700  0.510700  0.339050  1.0  -0.3963
  N  N877  1  0.566300  0.744500  0.134520  1.0  -0.3667
  N  N878  1  0.712800  0.693300  0.155610  1.0  -0.0494
  N  N879  1  0.712600  0.478900  0.389230  1.0  -0.318
  N  N880  1  0.842500  0.428500  0.413330  1.0  -0.2442
  N  N881  1  0.500200  0.215700  0.549460  1.0  -0.1328
  N  N882  1  0.447900  0.213100  0.589040  1.0  -0.4027
  N  N883  1  0.852500  0.534800  0.208000  1.0  -0.2751
  N  N884  1  0.159700  0.385900  0.161600  1.0  0.0879
  N  N885  1  0.168700  0.326900  0.138300  1.0  -0.4613
  N  N886  1  0.435400  0.250800  0.453800  1.0  -0.2066
  N  N887  1  0.028800  0.058200  0.382590  1.0  -0.3863
  N  N888  1  0.199200  0.107400  0.400110  1.0  -0.0075
  Cl  Cl889  1  0.341200  0.081330  0.128130  1.0  -0.4979
  Cl  Cl890  1  0.704900  0.786410  0.874600  1.0  -0.5716
  Cl  Cl891  1  0.158800  0.418670  0.628130  1.0  -0.4979
  Cl  Cl892  1  0.795100  0.713590  0.374600  1.0  -0.5717
  Cl  Cl893  1  0.341200  0.918670  0.628130  1.0  -0.4979
  Cl  Cl894  1  0.704900  0.213590  0.374600  1.0  -0.5723
  Cl  Cl895  1  0.158800  0.581330  0.128130  1.0  -0.4977
  Cl  Cl896  1  0.795100  0.286410  0.874600  1.0  -0.571
  Cl  Cl897  1  0.658800  0.081330  0.371870  1.0  -0.4978
  Cl  Cl898  1  0.295100  0.786410  0.625400  1.0  -0.5708
  Cl  Cl899  1  0.841200  0.418670  0.871870  1.0  -0.4977
  Cl  Cl900  1  0.204900  0.713590  0.125400  1.0  -0.5722
  Cl  Cl901  1  0.658800  0.918670  0.871870  1.0  -0.4977
  Cl  Cl902  1  0.295100  0.213590  0.125400  1.0  -0.5713
  Cl  Cl903  1  0.841200  0.581330  0.371870  1.0  -0.4979
  Cl  Cl904  1  0.204900  0.286410  0.625400  1.0  -0.5718
