# generated using pymatgen
data_CdH12(C2N3)6
_symmetry_space_group_name_H-M   'P 1'
_cell_length_a   11.15140000
_cell_length_b   11.15140000
_cell_length_c   102.57800000
_cell_angle_alpha   90.00000000
_cell_angle_beta   90.00000000
_cell_angle_gamma   120.00000000
_symmetry_Int_Tables_number   1
_chemical_formula_structural   CdH12(C2N3)6
_chemical_formula_sum   'Cd18 H216 C216 N324'
_cell_volume   11046.98202455
_cell_formula_units_Z   18
loop_
 _symmetry_equiv_pos_site_id
 _symmetry_equiv_pos_as_xyz
  1  'x, y, z'
loop_
 _atom_site_type_symbol
 _atom_site_label
 _atom_site_symmetry_multiplicity
 _atom_site_fract_x
 _atom_site_fract_y
 _atom_site_fract_z
 _atom_site_occupancy
 _atom_site_charge
  Cd  Cd1  1  0.000000  0.000000  0.000000  1.0  0.8357
  Cd  Cd2  1  0.666667  0.333333  0.333333  1.0  0.8311
  Cd  Cd3  1  0.333333  0.666667  0.666667  1.0  0.8311
  Cd  Cd4  1  0.000000  0.000000  0.500000  1.0  0.8357
  Cd  Cd5  1  0.666667  0.333333  0.833330  1.0  0.8317
  Cd  Cd6  1  0.333333  0.666667  0.166670  1.0  0.8317
  Cd  Cd7  1  0.666667  0.333333  0.063130  1.0  0.8243
  Cd  Cd8  1  0.333333  0.666667  0.396470  1.0  0.8251
  Cd  Cd9  1  0.000000  0.000000  0.729800  1.0  0.8241
  Cd  Cd10  1  0.333333  0.666667  0.436870  1.0  0.8242
  Cd  Cd11  1  0.000000  0.000000  0.770200  1.0  0.8244
  Cd  Cd12  1  0.666667  0.333333  0.103530  1.0  0.8254
  Cd  Cd13  1  0.333333  0.666667  0.936870  1.0  0.8242
  Cd  Cd14  1  0.000000  0.000000  0.270200  1.0  0.8244
  Cd  Cd15  1  0.666667  0.333333  0.603530  1.0  0.8254
  Cd  Cd16  1  0.666667  0.333333  0.563130  1.0  0.8243
  Cd  Cd17  1  0.333333  0.666667  0.896470  1.0  0.8251
  Cd  Cd18  1  0.000000  0.000000  0.229800  1.0  0.8241
  H  H19  1  0.310800  0.192200  0.013700  1.0  0.0811
  H  H20  1  0.187400  0.421300  0.032100  1.0  0.0648
  H  H21  1  0.563400  0.536800  0.021700  1.0  0.0621
  H  H22  1  0.357700  0.272100  0.049700  1.0  0.0722
  H  H23  1  0.628700  0.619200  0.064400  1.0  0.0686
  H  H24  1  0.513200  0.780600  0.095800  1.0  0.0665
  H  H25  1  0.977470  0.525530  0.347030  1.0  0.0811
  H  H26  1  0.854070  0.754630  0.365430  1.0  0.0648
  H  H27  1  0.230070  0.870130  0.355030  1.0  0.0621
  H  H28  1  0.024370  0.605430  0.383030  1.0  0.0722
  H  H29  1  0.295370  0.952530  0.397730  1.0  0.0686
  H  H30  1  0.179870  0.113930  0.429130  1.0  0.0665
  H  H31  1  0.644130  0.858870  0.680370  1.0  0.0811
  H  H32  1  0.520730  0.087970  0.698770  1.0  0.0648
  H  H33  1  0.896730  0.203470  0.688370  1.0  0.0621
  H  H34  1  0.691030  0.938770  0.716370  1.0  0.0722
  H  H35  1  0.962030  0.285870  0.731070  1.0  0.0687
  H  H36  1  0.846530  0.447270  0.762470  1.0  0.069
  H  H37  1  0.807800  0.118600  0.013700  1.0  0.0817
  H  H38  1  0.578700  0.766100  0.032100  1.0  0.0646
  H  H39  1  0.463200  0.026600  0.021700  1.0  0.0624
  H  H40  1  0.727900  0.085600  0.049700  1.0  0.0733
  H  H41  1  0.380800  0.009500  0.064400  1.0  0.0674
  H  H42  1  0.219400  0.732600  0.095800  1.0  0.0698
  H  H43  1  0.474470  0.451930  0.347030  1.0  0.0817
  H  H44  1  0.245370  0.099430  0.365430  1.0  0.0646
  H  H45  1  0.129870  0.359930  0.355030  1.0  0.0624
  H  H46  1  0.394570  0.418930  0.383030  1.0  0.0733
  H  H47  1  0.047470  0.342830  0.397730  1.0  0.0673
  H  H48  1  0.886070  0.065930  0.429130  1.0  0.0698
  H  H49  1  0.141130  0.785270  0.680370  1.0  0.0817
  H  H50  1  0.912030  0.432770  0.698770  1.0  0.0646
  H  H51  1  0.796530  0.693270  0.688370  1.0  0.0624
  H  H52  1  0.061230  0.752270  0.716370  1.0  0.0733
  H  H53  1  0.714130  0.676170  0.731070  1.0  0.0675
  H  H54  1  0.552730  0.399270  0.762470  1.0  0.0652
  H  H55  1  0.881400  0.689200  0.013700  1.0  0.0803
  H  H56  1  0.233900  0.812600  0.032100  1.0  0.0639
  H  H57  1  0.973400  0.436600  0.021700  1.0  0.0628
  H  H58  1  0.914400  0.642300  0.049700  1.0  0.073
  H  H59  1  0.990500  0.371300  0.064400  1.0  0.0686
  H  H60  1  0.267400  0.486800  0.095800  1.0  0.0644
  H  H61  1  0.548070  0.022530  0.347030  1.0  0.0803
  H  H62  1  0.900570  0.145930  0.365430  1.0  0.0639
  H  H63  1  0.640070  0.769930  0.355030  1.0  0.0628
  H  H64  1  0.581070  0.975630  0.383030  1.0  0.073
  H  H65  1  0.657170  0.704630  0.397730  1.0  0.0686
  H  H66  1  0.934070  0.820130  0.429130  1.0  0.0644
  H  H67  1  0.214730  0.355870  0.680370  1.0  0.0803
  H  H68  1  0.567230  0.479270  0.698770  1.0  0.0639
  H  H69  1  0.306730  0.103270  0.688370  1.0  0.0628
  H  H70  1  0.247730  0.308970  0.716370  1.0  0.073
  H  H71  1  0.323830  0.037970  0.731070  1.0  0.0687
  H  H72  1  0.600730  0.153470  0.762470  1.0  0.0666
  H  H73  1  0.192200  0.310800  0.486300  1.0  0.0802
  H  H74  1  0.421300  0.187400  0.467900  1.0  0.0644
  H  H75  1  0.536800  0.563400  0.478300  1.0  0.0626
  H  H76  1  0.272100  0.357700  0.450300  1.0  0.073
  H  H77  1  0.619200  0.628700  0.435600  1.0  0.069
  H  H78  1  0.780600  0.513200  0.404200  1.0  0.0656
  H  H79  1  0.858870  0.644130  0.819630  1.0  0.0802
  H  H80  1  0.087970  0.520730  0.801230  1.0  0.0644
  H  H81  1  0.203470  0.896730  0.811630  1.0  0.0626
  H  H82  1  0.938770  0.691030  0.783630  1.0  0.0729
  H  H83  1  0.285870  0.962030  0.768930  1.0  0.0691
  H  H84  1  0.447270  0.846530  0.737530  1.0  0.0686
  H  H85  1  0.525530  0.977470  0.152970  1.0  0.0802
  H  H86  1  0.754630  0.854070  0.134570  1.0  0.0644
  H  H87  1  0.870130  0.230070  0.144970  1.0  0.0626
  H  H88  1  0.605430  0.024370  0.116970  1.0  0.073
  H  H89  1  0.952530  0.295370  0.102270  1.0  0.069
  H  H90  1  0.113930  0.179870  0.070870  1.0  0.0656
  H  H91  1  0.118600  0.807800  0.486300  1.0  0.0806
  H  H92  1  0.766100  0.578700  0.467900  1.0  0.0654
  H  H93  1  0.026600  0.463200  0.478300  1.0  0.0626
  H  H94  1  0.085600  0.727900  0.450300  1.0  0.0727
  H  H95  1  0.009500  0.380800  0.435600  1.0  0.069
  H  H96  1  0.732600  0.219400  0.404200  1.0  0.0698
  H  H97  1  0.785270  0.141130  0.819630  1.0  0.0806
  H  H98  1  0.432770  0.912030  0.801230  1.0  0.0654
  H  H99  1  0.693270  0.796530  0.811630  1.0  0.0626
  H  H100  1  0.752270  0.061230  0.783630  1.0  0.0727
  H  H101  1  0.676170  0.714130  0.768930  1.0  0.0691
  H  H102  1  0.399270  0.552730  0.737530  1.0  0.0655
  H  H103  1  0.451930  0.474470  0.152970  1.0  0.0806
  H  H104  1  0.099430  0.245370  0.134570  1.0  0.0654
  H  H105  1  0.359930  0.129870  0.144970  1.0  0.0625
  H  H106  1  0.418930  0.394570  0.116970  1.0  0.0727
  H  H107  1  0.342830  0.047470  0.102270  1.0  0.069
  H  H108  1  0.065930  0.886070  0.070870  1.0  0.0698
  H  H109  1  0.689200  0.881400  0.486300  1.0  0.0821
  H  H110  1  0.812600  0.233900  0.467900  1.0  0.0654
  H  H111  1  0.436600  0.973400  0.478300  1.0  0.0627
  H  H112  1  0.642300  0.914400  0.450300  1.0  0.0738
  H  H113  1  0.371300  0.990500  0.435600  1.0  0.0682
  H  H114  1  0.486800  0.267400  0.404200  1.0  0.0646
  H  H115  1  0.355870  0.214730  0.819630  1.0  0.0821
  H  H116  1  0.479270  0.567230  0.801230  1.0  0.0654
  H  H117  1  0.103270  0.306730  0.811630  1.0  0.0627
  H  H118  1  0.308970  0.247730  0.783630  1.0  0.0738
  H  H119  1  0.037970  0.323830  0.768930  1.0  0.0683
  H  H120  1  0.153470  0.600730  0.737530  1.0  0.0671
  H  H121  1  0.022530  0.548070  0.152970  1.0  0.0821
  H  H122  1  0.145930  0.900570  0.134570  1.0  0.0654
  H  H123  1  0.769930  0.640070  0.144970  1.0  0.0627
  H  H124  1  0.975630  0.581070  0.116970  1.0  0.0738
  H  H125  1  0.704630  0.657170  0.102270  1.0  0.0681
  H  H126  1  0.820130  0.934070  0.070870  1.0  0.0646
  H  H127  1  0.689200  0.807800  0.986300  1.0  0.0806
  H  H128  1  0.812600  0.578700  0.967900  1.0  0.0655
  H  H129  1  0.436600  0.463200  0.978300  1.0  0.0627
  H  H130  1  0.642300  0.727900  0.950300  1.0  0.0728
  H  H131  1  0.371300  0.380800  0.935600  1.0  0.0677
  H  H132  1  0.486800  0.219400  0.904200  1.0  0.0668
  H  H133  1  0.355870  0.141130  0.319630  1.0  0.0806
  H  H134  1  0.479270  0.912030  0.301230  1.0  0.0655
  H  H135  1  0.103270  0.796530  0.311630  1.0  0.0627
  H  H136  1  0.308970  0.061230  0.283630  1.0  0.0727
  H  H137  1  0.037970  0.714130  0.268930  1.0  0.0677
  H  H138  1  0.153470  0.552730  0.237530  1.0  0.0696
  H  H139  1  0.022530  0.474470  0.652970  1.0  0.0806
  H  H140  1  0.145930  0.245370  0.634570  1.0  0.0655
  H  H141  1  0.769930  0.129870  0.644970  1.0  0.0627
  H  H142  1  0.975630  0.394570  0.616970  1.0  0.0728
  H  H143  1  0.704630  0.047470  0.602270  1.0  0.0676
  H  H144  1  0.820130  0.886070  0.570870  1.0  0.0668
  H  H145  1  0.192200  0.881400  0.986300  1.0  0.0819
  H  H146  1  0.421300  0.233900  0.967900  1.0  0.065
  H  H147  1  0.536800  0.973400  0.978300  1.0  0.0627
  H  H148  1  0.272100  0.914400  0.950300  1.0  0.0733
  H  H149  1  0.619200  0.990500  0.935600  1.0  0.0664
  H  H150  1  0.780600  0.267400  0.904200  1.0  0.0692
  H  H151  1  0.858870  0.214730  0.319630  1.0  0.0819
  H  H152  1  0.087970  0.567230  0.301230  1.0  0.065
  H  H153  1  0.203470  0.306730  0.311630  1.0  0.0627
  H  H154  1  0.938770  0.247730  0.283630  1.0  0.0733
  H  H155  1  0.285870  0.323830  0.268930  1.0  0.0664
  H  H156  1  0.447270  0.600730  0.237530  1.0  0.0649
  H  H157  1  0.525530  0.548070  0.652970  1.0  0.0819
  H  H158  1  0.754630  0.900570  0.634570  1.0  0.065
  H  H159  1  0.870130  0.640070  0.644970  1.0  0.0627
  H  H160  1  0.605430  0.581070  0.616970  1.0  0.0733
  H  H161  1  0.952530  0.657170  0.602270  1.0  0.0664
  H  H162  1  0.113930  0.934070  0.570870  1.0  0.0692
  H  H163  1  0.118600  0.310800  0.986300  1.0  0.0803
  H  H164  1  0.766100  0.187400  0.967900  1.0  0.0647
  H  H165  1  0.026600  0.563400  0.978300  1.0  0.0625
  H  H166  1  0.085600  0.357700  0.950300  1.0  0.0728
  H  H167  1  0.009500  0.628700  0.935600  1.0  0.0674
  H  H168  1  0.732600  0.513200  0.904200  1.0  0.0643
  H  H169  1  0.785270  0.644130  0.319630  1.0  0.0803
  H  H170  1  0.432770  0.520730  0.301230  1.0  0.0647
  H  H171  1  0.693270  0.896730  0.311630  1.0  0.0625
  H  H172  1  0.752270  0.691030  0.283630  1.0  0.0728
  H  H173  1  0.676170  0.962030  0.268930  1.0  0.0675
  H  H174  1  0.399270  0.846530  0.237530  1.0  0.0669
  H  H175  1  0.451930  0.977470  0.652970  1.0  0.0803
  H  H176  1  0.099430  0.854070  0.634570  1.0  0.0647
  H  H177  1  0.359930  0.230070  0.644970  1.0  0.0625
  H  H178  1  0.418930  0.024370  0.616970  1.0  0.0728
  H  H179  1  0.342830  0.295370  0.602270  1.0  0.0674
  H  H180  1  0.065930  0.179870  0.570870  1.0  0.0643
  H  H181  1  0.807800  0.689200  0.513700  1.0  0.0805
  H  H182  1  0.578700  0.812600  0.532100  1.0  0.0639
  H  H183  1  0.463200  0.436600  0.521700  1.0  0.0624
  H  H184  1  0.727900  0.642300  0.549700  1.0  0.0727
  H  H185  1  0.380800  0.371300  0.564400  1.0  0.0701
  H  H186  1  0.219400  0.486800  0.595800  1.0  0.0654
  H  H187  1  0.474470  0.022530  0.847030  1.0  0.0805
  H  H188  1  0.245370  0.145930  0.865430  1.0  0.0639
  H  H189  1  0.129870  0.769930  0.855030  1.0  0.0624
  H  H190  1  0.394570  0.975630  0.883030  1.0  0.0727
  H  H191  1  0.047470  0.704630  0.897730  1.0  0.0701
  H  H192  1  0.886070  0.820130  0.929130  1.0  0.0654
  H  H193  1  0.141130  0.355870  0.180370  1.0  0.0805
  H  H194  1  0.912030  0.479270  0.198770  1.0  0.0639
  H  H195  1  0.796530  0.103270  0.188370  1.0  0.0624
  H  H196  1  0.061230  0.308970  0.216370  1.0  0.0727
  H  H197  1  0.714130  0.037970  0.231070  1.0  0.0702
  H  H198  1  0.552730  0.153470  0.262470  1.0  0.0683
  H  H199  1  0.881400  0.192200  0.513700  1.0  0.0812
  H  H200  1  0.233900  0.421300  0.532100  1.0  0.0646
  H  H201  1  0.973400  0.536800  0.521700  1.0  0.0624
  H  H202  1  0.914400  0.272100  0.549700  1.0  0.0725
  H  H203  1  0.990500  0.619200  0.564400  1.0  0.0701
  H  H204  1  0.267400  0.780600  0.595800  1.0  0.0701
  H  H205  1  0.548070  0.525530  0.847030  1.0  0.0812
  H  H206  1  0.900570  0.754630  0.865430  1.0  0.0646
  H  H207  1  0.640070  0.870130  0.855030  1.0  0.0624
  H  H208  1  0.581070  0.605430  0.883030  1.0  0.0725
  H  H209  1  0.657170  0.952530  0.897730  1.0  0.0701
  H  H210  1  0.934070  0.113930  0.929130  1.0  0.0701
  H  H211  1  0.214730  0.858870  0.180370  1.0  0.0812
  H  H212  1  0.567230  0.087970  0.198770  1.0  0.0646
  H  H213  1  0.306730  0.203470  0.188370  1.0  0.0624
  H  H214  1  0.247730  0.938770  0.216370  1.0  0.0724
  H  H215  1  0.323830  0.285870  0.231070  1.0  0.0702
  H  H216  1  0.600730  0.447270  0.262470  1.0  0.0654
  H  H217  1  0.310800  0.118600  0.513700  1.0  0.0813
  H  H218  1  0.187400  0.766100  0.532100  1.0  0.0645
  H  H219  1  0.563400  0.026600  0.521700  1.0  0.0626
  H  H220  1  0.357700  0.085600  0.549700  1.0  0.0728
  H  H221  1  0.628700  0.009500  0.564400  1.0  0.0685
  H  H222  1  0.513200  0.732600  0.595800  1.0  0.065
  H  H223  1  0.977470  0.451930  0.847030  1.0  0.0813
  H  H224  1  0.854070  0.099430  0.865430  1.0  0.0645
  H  H225  1  0.230070  0.359930  0.855030  1.0  0.0626
  H  H226  1  0.024370  0.418930  0.883030  1.0  0.0728
  H  H227  1  0.295370  0.342830  0.897730  1.0  0.0685
  H  H228  1  0.179870  0.065930  0.929130  1.0  0.065
  H  H229  1  0.644130  0.785270  0.180370  1.0  0.0813
  H  H230  1  0.520730  0.432770  0.198770  1.0  0.0645
  H  H231  1  0.896730  0.693270  0.188370  1.0  0.0626
  H  H232  1  0.691030  0.752270  0.216370  1.0  0.0728
  H  H233  1  0.962030  0.676170  0.231070  1.0  0.0686
  H  H234  1  0.846530  0.399270  0.262470  1.0  0.0673
  C  C235  1  0.258400  0.231500  0.016380  1.0  0.0765
  C  C236  1  0.189900  0.357100  0.026480  1.0  0.0921
  C  C237  1  0.542600  0.487800  0.029520  1.0  0.0982
  C  C238  1  0.428900  0.342200  0.044870  1.0  0.1188
  C  C239  1  0.646000  0.602400  0.072850  1.0  0.1477
  C  C240  1  0.583200  0.840600  0.090200  1.0  0.0982
  C  C241  1  0.925070  0.564830  0.349710  1.0  0.0765
  C  C242  1  0.856570  0.690430  0.359810  1.0  0.0921
  C  C243  1  0.209270  0.821130  0.362850  1.0  0.0981
  C  C244  1  0.095570  0.675530  0.378200  1.0  0.1189
  C  C245  1  0.312670  0.935730  0.406180  1.0  0.1489
  C  C246  1  0.249870  0.173930  0.423530  1.0  0.1253
  C  C247  1  0.591730  0.898170  0.683050  1.0  0.0765
  C  C248  1  0.523230  0.023770  0.693150  1.0  0.0921
  C  C249  1  0.875930  0.154470  0.696190  1.0  0.0982
  C  C250  1  0.762230  0.008870  0.711540  1.0  0.1191
  C  C251  1  0.979330  0.269070  0.739520  1.0  0.1478
  C  C252  1  0.916530  0.507270  0.756870  1.0  0.0984
  C  C253  1  0.768500  0.026900  0.016380  1.0  0.0769
  C  C254  1  0.642900  0.832800  0.026480  1.0  0.0946
  C  C255  1  0.512200  0.054800  0.029520  1.0  0.0984
  C  C256  1  0.657800  0.086700  0.044870  1.0  0.12
  C  C257  1  0.397600  0.043600  0.072850  1.0  0.1475
  C  C258  1  0.159400  0.742600  0.090200  1.0  0.097
  C  C259  1  0.435170  0.360230  0.349710  1.0  0.0769
  C  C260  1  0.309570  0.166130  0.359810  1.0  0.0946
  C  C261  1  0.178870  0.388130  0.362850  1.0  0.0983
  C  C262  1  0.324470  0.420030  0.378200  1.0  0.12
  C  C263  1  0.064270  0.376930  0.406180  1.0  0.1484
  C  C264  1  0.826070  0.075930  0.423530  1.0  0.1245
  C  C265  1  0.101830  0.693570  0.683050  1.0  0.0769
  C  C266  1  0.976230  0.499470  0.693150  1.0  0.0946
  C  C267  1  0.845530  0.721470  0.696190  1.0  0.0984
  C  C268  1  0.991130  0.753370  0.711540  1.0  0.1202
  C  C269  1  0.730930  0.710270  0.739520  1.0  0.1475
  C  C270  1  0.492730  0.409270  0.756870  1.0  0.0974
  C  C271  1  0.973100  0.741600  0.016380  1.0  0.0766
  C  C272  1  0.167200  0.810100  0.026480  1.0  0.0956
  C  C273  1  0.945200  0.457400  0.029520  1.0  0.0966
  C  C274  1  0.913300  0.571100  0.044870  1.0  0.1179
  C  C275  1  0.956400  0.354000  0.072850  1.0  0.1464
  C  C276  1  0.257400  0.416800  0.090200  1.0  0.0955
  C  C277  1  0.639770  0.074930  0.349710  1.0  0.0766
  C  C278  1  0.833870  0.143430  0.359810  1.0  0.0956
  C  C279  1  0.611870  0.790730  0.362850  1.0  0.0965
  C  C280  1  0.579970  0.904430  0.378200  1.0  0.118
  C  C281  1  0.623070  0.687330  0.406180  1.0  0.1476
  C  C282  1  0.924070  0.750130  0.423530  1.0  0.1224
  C  C283  1  0.306430  0.408270  0.683050  1.0  0.0766
  C  C284  1  0.500530  0.476770  0.693150  1.0  0.0956
  C  C285  1  0.278530  0.124070  0.696190  1.0  0.0966
  C  C286  1  0.246630  0.237770  0.711540  1.0  0.1182
  C  C287  1  0.289730  0.020670  0.739520  1.0  0.1467
  C  C288  1  0.590730  0.083470  0.756870  1.0  0.0955
  C  C289  1  0.231500  0.258400  0.483620  1.0  0.076
  C  C290  1  0.357100  0.189900  0.473520  1.0  0.0926
  C  C291  1  0.487800  0.542600  0.470480  1.0  0.0973
  C  C292  1  0.342200  0.428900  0.455130  1.0  0.1174
  C  C293  1  0.602400  0.646000  0.427150  1.0  0.1467
  C  C294  1  0.840600  0.583200  0.409800  1.0  0.097
  C  C295  1  0.898170  0.591730  0.816950  1.0  0.076
  C  C296  1  0.023770  0.523230  0.806850  1.0  0.0926
  C  C297  1  0.154470  0.875930  0.803810  1.0  0.0973
  C  C298  1  0.008870  0.762230  0.788460  1.0  0.1177
  C  C299  1  0.269070  0.979330  0.760480  1.0  0.1469
  C  C300  1  0.507270  0.916530  0.743130  1.0  0.0972
  C  C301  1  0.564830  0.925070  0.150290  1.0  0.076
  C  C302  1  0.690430  0.856570  0.140190  1.0  0.0926
  C  C303  1  0.821130  0.209270  0.137150  1.0  0.0972
  C  C304  1  0.675530  0.095570  0.121800  1.0  0.1175
  C  C305  1  0.935730  0.312670  0.093820  1.0  0.1479
  C  C306  1  0.173930  0.249870  0.076470  1.0  0.1244
  C  C307  1  0.026900  0.768500  0.483620  1.0  0.0774
  C  C308  1  0.832800  0.642900  0.473520  1.0  0.0956
  C  C309  1  0.054800  0.512200  0.470480  1.0  0.099
  C  C310  1  0.086700  0.657800  0.455130  1.0  0.1186
  C  C311  1  0.043600  0.397600  0.427150  1.0  0.1468
  C  C312  1  0.742600  0.159400  0.409800  1.0  0.0978
  C  C313  1  0.693570  0.101830  0.816950  1.0  0.0774
  C  C314  1  0.499470  0.976230  0.806850  1.0  0.0956
  C  C315  1  0.721470  0.845530  0.803810  1.0  0.099
  C  C316  1  0.753370  0.991130  0.788460  1.0  0.1189
  C  C317  1  0.710270  0.730930  0.760480  1.0  0.1467
  C  C318  1  0.409270  0.492730  0.743130  1.0  0.0981
  C  C319  1  0.360230  0.435170  0.150290  1.0  0.0774
  C  C320  1  0.166130  0.309570  0.140190  1.0  0.0956
  C  C321  1  0.388130  0.178870  0.137150  1.0  0.0989
  C  C322  1  0.420030  0.324470  0.121800  1.0  0.1187
  C  C323  1  0.376930  0.064270  0.093820  1.0  0.1477
  C  C324  1  0.075930  0.826070  0.076470  1.0  0.1252
  C  C325  1  0.741600  0.973100  0.483620  1.0  0.0774
  C  C326  1  0.810100  0.167200  0.473520  1.0  0.0952
  C  C327  1  0.457400  0.945200  0.470480  1.0  0.0982
  C  C328  1  0.571100  0.913300  0.455130  1.0  0.1192
  C  C329  1  0.354000  0.956400  0.427150  1.0  0.1471
  C  C330  1  0.416800  0.257400  0.409800  1.0  0.0978
  C  C331  1  0.408270  0.306430  0.816950  1.0  0.0774
  C  C332  1  0.476770  0.500530  0.806850  1.0  0.0952
  C  C333  1  0.124070  0.278530  0.803810  1.0  0.0982
  C  C334  1  0.237770  0.246630  0.788460  1.0  0.1195
  C  C335  1  0.020670  0.289730  0.760480  1.0  0.1473
  C  C336  1  0.083470  0.590730  0.743130  1.0  0.0978
  C  C337  1  0.074930  0.639770  0.150290  1.0  0.0774
  C  C338  1  0.143430  0.833870  0.140190  1.0  0.0952
  C  C339  1  0.790730  0.611870  0.137150  1.0  0.0982
  C  C340  1  0.904430  0.579970  0.121800  1.0  0.1193
  C  C341  1  0.687330  0.623070  0.093820  1.0  0.1483
  C  C342  1  0.750130  0.924070  0.076470  1.0  0.1251
  C  C343  1  0.741600  0.768500  0.983620  1.0  0.0763
  C  C344  1  0.810100  0.642900  0.973520  1.0  0.0926
  C  C345  1  0.457400  0.512200  0.970480  1.0  0.0983
  C  C346  1  0.571100  0.657800  0.955130  1.0  0.1183
  C  C347  1  0.354000  0.397600  0.927150  1.0  0.1472
  C  C348  1  0.416800  0.159400  0.909800  1.0  0.0977
  C  C349  1  0.408270  0.101830  0.316950  1.0  0.0763
  C  C350  1  0.476770  0.976230  0.306850  1.0  0.0926
  C  C351  1  0.124070  0.845530  0.303810  1.0  0.0983
  C  C352  1  0.237770  0.991130  0.288460  1.0  0.1186
  C  C353  1  0.020670  0.730930  0.260480  1.0  0.1474
  C  C354  1  0.083470  0.492730  0.243130  1.0  0.0979
  C  C355  1  0.074930  0.435170  0.650290  1.0  0.0763
  C  C356  1  0.143430  0.309570  0.640190  1.0  0.0926
  C  C357  1  0.790730  0.178870  0.637150  1.0  0.0982
  C  C358  1  0.904430  0.324470  0.621800  1.0  0.1184
  C  C359  1  0.687330  0.064270  0.593820  1.0  0.1483
  C  C360  1  0.750130  0.826070  0.576470  1.0  0.125
  C  C361  1  0.231500  0.973100  0.983620  1.0  0.077
  C  C362  1  0.357100  0.167200  0.973520  1.0  0.0951
  C  C363  1  0.487800  0.945200  0.970480  1.0  0.0981
  C  C364  1  0.342200  0.913300  0.955130  1.0  0.1189
  C  C365  1  0.602400  0.956400  0.927150  1.0  0.1469
  C  C366  1  0.840600  0.257400  0.909800  1.0  0.0979
  C  C367  1  0.898170  0.306430  0.316950  1.0  0.077
  C  C368  1  0.023770  0.500530  0.306850  1.0  0.0951
  C  C369  1  0.154470  0.278530  0.303810  1.0  0.0981
  C  C370  1  0.008870  0.246630  0.288460  1.0  0.1192
  C  C371  1  0.269070  0.289730  0.260480  1.0  0.1468
  C  C372  1  0.507270  0.590730  0.243130  1.0  0.0982
  C  C373  1  0.564830  0.639770  0.650290  1.0  0.077
  C  C374  1  0.690430  0.833870  0.640190  1.0  0.0951
  C  C375  1  0.821130  0.611870  0.637150  1.0  0.098
  C  C376  1  0.675530  0.579970  0.621800  1.0  0.1189
  C  C377  1  0.935730  0.623070  0.593820  1.0  0.1477
  C  C378  1  0.173930  0.924070  0.576470  1.0  0.1252
  C  C379  1  0.026900  0.258400  0.983620  1.0  0.0774
  C  C380  1  0.832800  0.189900  0.973520  1.0  0.0956
  C  C381  1  0.054800  0.542600  0.970480  1.0  0.0977
  C  C382  1  0.086700  0.428900  0.955130  1.0  0.1182
  C  C383  1  0.043600  0.646000  0.927150  1.0  0.1465
  C  C384  1  0.742600  0.583200  0.909800  1.0  0.0966
  C  C385  1  0.693570  0.591730  0.316950  1.0  0.0774
  C  C386  1  0.499470  0.523230  0.306850  1.0  0.0957
  C  C387  1  0.721470  0.875930  0.303810  1.0  0.0977
  C  C388  1  0.753370  0.762230  0.288460  1.0  0.1185
  C  C389  1  0.710270  0.979330  0.260480  1.0  0.1467
  C  C390  1  0.409270  0.916530  0.243130  1.0  0.0965
  C  C391  1  0.360230  0.925070  0.650290  1.0  0.0774
  C  C392  1  0.166130  0.856570  0.640190  1.0  0.0956
  C  C393  1  0.388130  0.209270  0.637150  1.0  0.0976
  C  C394  1  0.420030  0.095570  0.621800  1.0  0.1182
  C  C395  1  0.376930  0.312670  0.593820  1.0  0.1476
  C  C396  1  0.075930  0.249870  0.576470  1.0  0.124
  C  C397  1  0.768500  0.741600  0.516380  1.0  0.0771
  C  C398  1  0.642900  0.810100  0.526480  1.0  0.0921
  C  C399  1  0.512200  0.457400  0.529520  1.0  0.0977
  C  C400  1  0.657800  0.571100  0.544870  1.0  0.1188
  C  C401  1  0.397600  0.354000  0.572850  1.0  0.1474
  C  C402  1  0.159400  0.416800  0.590200  1.0  0.0957
  C  C403  1  0.435170  0.074930  0.849710  1.0  0.0771
  C  C404  1  0.309570  0.143430  0.859810  1.0  0.0921
  C  C405  1  0.178870  0.790730  0.862850  1.0  0.0977
  C  C406  1  0.324470  0.904430  0.878200  1.0  0.1189
  C  C407  1  0.064270  0.687330  0.906180  1.0  0.1486
  C  C408  1  0.826070  0.750130  0.923530  1.0  0.1226
  C  C409  1  0.101830  0.408270  0.183050  1.0  0.0771
  C  C410  1  0.976230  0.476770  0.193150  1.0  0.0921
  C  C411  1  0.845530  0.124070  0.196190  1.0  0.0977
  C  C412  1  0.991130  0.237770  0.211540  1.0  0.1191
  C  C413  1  0.730930  0.020670  0.239520  1.0  0.1476
  C  C414  1  0.492730  0.083470  0.256870  1.0  0.0959
  C  C415  1  0.973100  0.231500  0.516380  1.0  0.0762
  C  C416  1  0.167200  0.357100  0.526480  1.0  0.0962
  C  C417  1  0.945200  0.487800  0.529520  1.0  0.0976
  C  C418  1  0.913300  0.342200  0.544870  1.0  0.1191
  C  C419  1  0.956400  0.602400  0.572850  1.0  0.1474
  C  C420  1  0.257400  0.840600  0.590200  1.0  0.0977
  C  C421  1  0.639770  0.564830  0.849710  1.0  0.0762
  C  C422  1  0.833870  0.690430  0.859810  1.0  0.0962
  C  C423  1  0.611870  0.821130  0.862850  1.0  0.0975
  C  C424  1  0.579970  0.675530  0.878200  1.0  0.1192
  C  C425  1  0.623070  0.935730  0.906180  1.0  0.1484
  C  C426  1  0.924070  0.173930  0.923530  1.0  0.125
  C  C427  1  0.306430  0.898170  0.183050  1.0  0.0762
  C  C428  1  0.500530  0.023770  0.193150  1.0  0.0962
  C  C429  1  0.278530  0.154470  0.196190  1.0  0.0976
  C  C430  1  0.246630  0.008870  0.211540  1.0  0.1194
  C  C431  1  0.289730  0.269070  0.239520  1.0  0.1474
  C  C432  1  0.590730  0.507270  0.256870  1.0  0.098
  C  C433  1  0.258400  0.026900  0.516380  1.0  0.0765
  C  C434  1  0.189900  0.832800  0.526480  1.0  0.0947
  C  C435  1  0.542600  0.054800  0.529520  1.0  0.0975
  C  C436  1  0.428900  0.086700  0.544870  1.0  0.1193
  C  C437  1  0.646000  0.043600  0.572850  1.0  0.1478
  C  C438  1  0.583200  0.742600  0.590200  1.0  0.0978
  C  C439  1  0.925070  0.360230  0.849710  1.0  0.0765
  C  C440  1  0.856570  0.166130  0.859810  1.0  0.0947
  C  C441  1  0.209270  0.388130  0.862850  1.0  0.0974
  C  C442  1  0.095570  0.420030  0.878200  1.0  0.1194
  C  C443  1  0.312670  0.376930  0.906180  1.0  0.1489
  C  C444  1  0.249870  0.075930  0.923530  1.0  0.125
  C  C445  1  0.591730  0.693570  0.183050  1.0  0.0765
  C  C446  1  0.523230  0.499470  0.193150  1.0  0.0947
  C  C447  1  0.875930  0.721470  0.196190  1.0  0.0975
  C  C448  1  0.762230  0.753370  0.211540  1.0  0.1196
  C  C449  1  0.979330  0.710270  0.239520  1.0  0.1479
  C  C450  1  0.916530  0.409270  0.256870  1.0  0.0979
  N  N451  1  0.138900  0.201300  0.011930  1.0  -0.2215
  N  N452  1  0.093600  0.280900  0.018320  1.0  -0.2931
  N  N453  1  0.295200  0.329900  0.025660  1.0  0.0236
  N  N454  1  0.414900  0.386000  0.033060  1.0  0.0352
  N  N455  1  0.631200  0.507000  0.038520  1.0  -0.3238
  N  N456  1  0.556400  0.412600  0.048430  1.0  -0.2502
  N  N457  1  0.654400  0.495800  0.076700  1.0  -0.2425
  N  N458  1  0.615400  0.967400  0.087840  1.0  -0.2391
  N  N459  1  0.805570  0.534630  0.345260  1.0  -0.2215
  N  N460  1  0.760270  0.614230  0.351650  1.0  -0.2931
  N  N461  1  0.961870  0.663230  0.358990  1.0  0.0236
  N  N462  1  0.081570  0.719330  0.366390  1.0  0.0352
  N  N463  1  0.297870  0.840330  0.371850  1.0  -0.3238
  N  N464  1  0.223070  0.745930  0.381760  1.0  -0.2502
  N  N465  1  0.321070  0.829130  0.410030  1.0  -0.2426
  N  N466  1  0.282070  0.300730  0.421170  1.0  -0.2391
  N  N467  1  0.472230  0.867970  0.678600  1.0  -0.2203
  N  N468  1  0.426930  0.947570  0.684990  1.0  -0.2931
  N  N469  1  0.628530  0.996570  0.692330  1.0  0.0236
  N  N470  1  0.748230  0.052670  0.699730  1.0  0.0354
  N  N471  1  0.964530  0.173670  0.705190  1.0  -0.3238
  N  N472  1  0.889730  0.079270  0.715100  1.0  -0.2502
  N  N473  1  0.987730  0.162470  0.743370  1.0  -0.244
  N  N474  1  0.948730  0.634070  0.754510  1.0  -0.2407
  N  N475  1  0.798700  0.937600  0.011930  1.0  -0.2214
  N  N476  1  0.719100  0.812700  0.018320  1.0  -0.2909
  N  N477  1  0.670100  0.965300  0.025660  1.0  0.0242
  N  N478  1  0.614000  0.028900  0.033060  1.0  0.0349
  N  N479  1  0.493000  0.124200  0.038520  1.0  -0.321
  N  N480  1  0.587400  0.143800  0.048430  1.0  -0.2498
  N  N481  1  0.504200  0.158600  0.076700  1.0  -0.2459
  N  N482  1  0.032600  0.648000  0.087840  1.0  -0.2414
  N  N483  1  0.465370  0.270930  0.345260  1.0  -0.2214
  N  N484  1  0.385770  0.146030  0.351650  1.0  -0.2909
  N  N485  1  0.336770  0.298630  0.358990  1.0  0.0242
  N  N486  1  0.280670  0.362230  0.366390  1.0  0.0349
  N  N487  1  0.159670  0.457530  0.371850  1.0  -0.321
  N  N488  1  0.254070  0.477130  0.381760  1.0  -0.2498
  N  N489  1  0.170870  0.491930  0.410030  1.0  -0.2462
  N  N490  1  0.699270  0.981330  0.421170  1.0  -0.2414
  N  N491  1  0.132030  0.604270  0.678600  1.0  -0.2246
  N  N492  1  0.052430  0.479370  0.684990  1.0  -0.2909
  N  N493  1  0.003430  0.631970  0.692330  1.0  0.0242
  N  N494  1  0.947330  0.695570  0.699730  1.0  0.0351
  N  N495  1  0.826330  0.790870  0.705190  1.0  -0.321
  N  N496  1  0.920730  0.810470  0.715100  1.0  -0.2498
  N  N497  1  0.837530  0.825270  0.743370  1.0  -0.239
  N  N498  1  0.365930  0.314670  0.754510  1.0  -0.2419
  N  N499  1  0.062400  0.861100  0.011930  1.0  -0.2228
  N  N500  1  0.187300  0.906400  0.018320  1.0  -0.2946
  N  N501  1  0.034700  0.704800  0.025660  1.0  0.0231
  N  N502  1  0.971100  0.585100  0.033060  1.0  0.0342
  N  N503  1  0.875800  0.368800  0.038520  1.0  -0.3234
  N  N504  1  0.856200  0.443600  0.048430  1.0  -0.2507
  N  N505  1  0.841400  0.345600  0.076700  1.0  -0.2432
  N  N506  1  0.352000  0.384600  0.087840  1.0  -0.2417
  N  N507  1  0.729070  0.194430  0.345260  1.0  -0.2228
  N  N508  1  0.853970  0.239730  0.351650  1.0  -0.2946
  N  N509  1  0.701370  0.038130  0.358990  1.0  0.0231
  N  N510  1  0.637770  0.918430  0.366390  1.0  0.0342
  N  N511  1  0.542470  0.702130  0.371850  1.0  -0.3234
  N  N512  1  0.522870  0.776930  0.381760  1.0  -0.2507
  N  N513  1  0.508070  0.678930  0.410030  1.0  -0.2432
  N  N514  1  0.018670  0.717930  0.421170  1.0  -0.2417
  N  N515  1  0.395730  0.527770  0.678600  1.0  -0.2212
  N  N516  1  0.520630  0.573070  0.684990  1.0  -0.2946
  N  N517  1  0.368030  0.371470  0.692330  1.0  0.0231
  N  N518  1  0.304430  0.251770  0.699730  1.0  0.0344
  N  N519  1  0.209130  0.035470  0.705190  1.0  -0.3234
  N  N520  1  0.189530  0.110270  0.715100  1.0  -0.2507
  N  N521  1  0.174730  0.012270  0.743370  1.0  -0.2393
  N  N522  1  0.685330  0.051270  0.754510  1.0  -0.2416
  N  N523  1  0.201300  0.138900  0.488070  1.0  -0.2234
  N  N524  1  0.280900  0.093600  0.481680  1.0  -0.2943
  N  N525  1  0.329900  0.295200  0.474340  1.0  0.0228
  N  N526  1  0.386000  0.414900  0.466940  1.0  0.035
  N  N527  1  0.507000  0.631200  0.461480  1.0  -0.3229
  N  N528  1  0.412600  0.556400  0.451570  1.0  -0.2499
  N  N529  1  0.495800  0.654400  0.423300  1.0  -0.2413
  N  N530  1  0.967400  0.615400  0.412160  1.0  -0.2414
  N  N531  1  0.867970  0.472230  0.821400  1.0  -0.2218
  N  N532  1  0.947570  0.426930  0.815010  1.0  -0.2943
  N  N533  1  0.996570  0.628530  0.807670  1.0  0.0228
  N  N534  1  0.052670  0.748230  0.800270  1.0  0.0352
  N  N535  1  0.173670  0.964530  0.794810  1.0  -0.3229
  N  N536  1  0.079270  0.889730  0.784900  1.0  -0.2499
  N  N537  1  0.162470  0.987730  0.756630  1.0  -0.2432
  N  N538  1  0.634070  0.948730  0.745490  1.0  -0.2431
  N  N539  1  0.534630  0.805570  0.154740  1.0  -0.2234
  N  N540  1  0.614230  0.760270  0.148350  1.0  -0.2943
  N  N541  1  0.663230  0.961870  0.141010  1.0  0.0228
  N  N542  1  0.719330  0.081570  0.133610  1.0  0.035
  N  N543  1  0.840330  0.297870  0.128150  1.0  -0.3229
  N  N544  1  0.745930  0.223070  0.118240  1.0  -0.2499
  N  N545  1  0.829130  0.321070  0.089970  1.0  -0.2414
  N  N546  1  0.300730  0.282070  0.078830  1.0  -0.2414
  N  N547  1  0.937600  0.798700  0.488070  1.0  -0.22
  N  N548  1  0.812700  0.719100  0.481680  1.0  -0.2921
  N  N549  1  0.965300  0.670100  0.474340  1.0  0.0237
  N  N550  1  0.028900  0.614000  0.466940  1.0  0.0358
  N  N551  1  0.124200  0.493000  0.461480  1.0  -0.3228
  N  N552  1  0.143800  0.587400  0.451570  1.0  -0.2498
  N  N553  1  0.158600  0.504200  0.423300  1.0  -0.2481
  N  N554  1  0.648000  0.032600  0.412160  1.0  -0.2382
  N  N555  1  0.604270  0.132030  0.821400  1.0  -0.2225
  N  N556  1  0.479370  0.052430  0.815010  1.0  -0.2921
  N  N557  1  0.631970  0.003430  0.807670  1.0  0.0237
  N  N558  1  0.695570  0.947330  0.800270  1.0  0.036
  N  N559  1  0.790870  0.826330  0.794810  1.0  -0.3228
  N  N560  1  0.810470  0.920730  0.784900  1.0  -0.2498
  N  N561  1  0.825270  0.837530  0.756630  1.0  -0.2412
  N  N562  1  0.314670  0.365930  0.745490  1.0  -0.2385
  N  N563  1  0.270930  0.465370  0.154740  1.0  -0.22
  N  N564  1  0.146030  0.385770  0.148350  1.0  -0.2921
  N  N565  1  0.298630  0.336770  0.141010  1.0  0.0237
  N  N566  1  0.362230  0.280670  0.133610  1.0  0.0358
  N  N567  1  0.457530  0.159670  0.128150  1.0  -0.3228
  N  N568  1  0.477130  0.254070  0.118240  1.0  -0.2498
  N  N569  1  0.491930  0.170870  0.089970  1.0  -0.2484
  N  N570  1  0.981330  0.699270  0.078830  1.0  -0.2383
  N  N571  1  0.861100  0.062400  0.488070  1.0  -0.2242
  N  N572  1  0.906400  0.187300  0.481680  1.0  -0.2959
  N  N573  1  0.704800  0.034700  0.474340  1.0  0.0237
  N  N574  1  0.585100  0.971100  0.466940  1.0  0.0344
  N  N575  1  0.368800  0.875800  0.461480  1.0  -0.3204
  N  N576  1  0.443600  0.856200  0.451570  1.0  -0.2496
  N  N577  1  0.345600  0.841400  0.423300  1.0  -0.2435
  N  N578  1  0.384600  0.352000  0.412160  1.0  -0.2405
  N  N579  1  0.527770  0.395730  0.821400  1.0  -0.2225
  N  N580  1  0.573070  0.520630  0.815010  1.0  -0.296
  N  N581  1  0.371470  0.368030  0.807670  1.0  0.0237
  N  N582  1  0.251770  0.304430  0.800270  1.0  0.0346
  N  N583  1  0.035470  0.209130  0.794810  1.0  -0.3204
  N  N584  1  0.110270  0.189530  0.784900  1.0  -0.2496
  N  N585  1  0.012270  0.174730  0.756630  1.0  -0.239
  N  N586  1  0.051270  0.685330  0.745490  1.0  -0.2407
  N  N587  1  0.194430  0.729070  0.154740  1.0  -0.2242
  N  N588  1  0.239730  0.853970  0.148350  1.0  -0.2959
  N  N589  1  0.038130  0.701370  0.141010  1.0  0.0237
  N  N590  1  0.918430  0.637770  0.133610  1.0  0.0344
  N  N591  1  0.702130  0.542470  0.128150  1.0  -0.3205
  N  N592  1  0.776930  0.522870  0.118240  1.0  -0.2496
  N  N593  1  0.678930  0.508070  0.089970  1.0  -0.2435
  N  N594  1  0.717930  0.018670  0.078830  1.0  -0.2405
  N  N595  1  0.861100  0.798700  0.988070  1.0  -0.2228
  N  N596  1  0.906400  0.719100  0.981680  1.0  -0.297
  N  N597  1  0.704800  0.670100  0.974340  1.0  0.0233
  N  N598  1  0.585100  0.614000  0.966940  1.0  0.0362
  N  N599  1  0.368800  0.493000  0.961480  1.0  -0.3234
  N  N600  1  0.443600  0.587400  0.951570  1.0  -0.2497
  N  N601  1  0.345600  0.504200  0.923300  1.0  -0.2438
  N  N602  1  0.384600  0.032600  0.912160  1.0  -0.2371
  N  N603  1  0.527770  0.132030  0.321400  1.0  -0.2218
  N  N604  1  0.573070  0.052430  0.315010  1.0  -0.297
  N  N605  1  0.371470  0.003430  0.307670  1.0  0.0233
  N  N606  1  0.251770  0.947330  0.300270  1.0  0.0364
  N  N607  1  0.035470  0.826330  0.294810  1.0  -0.3234
  N  N608  1  0.110270  0.920730  0.284900  1.0  -0.2496
  N  N609  1  0.012270  0.837530  0.256630  1.0  -0.2457
  N  N610  1  0.051270  0.365930  0.245490  1.0  -0.2388
  N  N611  1  0.194430  0.465370  0.654740  1.0  -0.2228
  N  N612  1  0.239730  0.385770  0.648350  1.0  -0.297
  N  N613  1  0.038130  0.336770  0.641010  1.0  0.0233
  N  N614  1  0.918430  0.280670  0.633610  1.0  0.0362
  N  N615  1  0.702130  0.159670  0.628150  1.0  -0.3234
  N  N616  1  0.776930  0.254070  0.618240  1.0  -0.2497
  N  N617  1  0.678930  0.170870  0.589970  1.0  -0.2439
  N  N618  1  0.717930  0.699270  0.578830  1.0  -0.2371
  N  N619  1  0.201300  0.062400  0.988070  1.0  -0.2209
  N  N620  1  0.280900  0.187300  0.981680  1.0  -0.2937
  N  N621  1  0.329900  0.034700  0.974340  1.0  0.0243
  N  N622  1  0.386000  0.971100  0.966940  1.0  0.0346
  N  N623  1  0.507000  0.875800  0.961480  1.0  -0.3232
  N  N624  1  0.412600  0.856200  0.951570  1.0  -0.2499
  N  N625  1  0.495800  0.841400  0.923300  1.0  -0.2458
  N  N626  1  0.967400  0.352000  0.912160  1.0  -0.2405
  N  N627  1  0.867970  0.395730  0.321400  1.0  -0.224
  N  N628  1  0.947570  0.520630  0.315010  1.0  -0.2937
  N  N629  1  0.996570  0.368030  0.307670  1.0  0.0243
  N  N630  1  0.052670  0.304430  0.300270  1.0  0.0348
  N  N631  1  0.173670  0.209130  0.294810  1.0  -0.3232
  N  N632  1  0.079270  0.189530  0.284900  1.0  -0.2499
  N  N633  1  0.162470  0.174730  0.256630  1.0  -0.2393
  N  N634  1  0.634070  0.685330  0.245490  1.0  -0.2407
  N  N635  1  0.534630  0.729070  0.654740  1.0  -0.221
  N  N636  1  0.614230  0.853970  0.648350  1.0  -0.2937
  N  N637  1  0.663230  0.701370  0.641010  1.0  0.0243
  N  N638  1  0.719330  0.637770  0.633610  1.0  0.0346
  N  N639  1  0.840330  0.542470  0.628150  1.0  -0.3233
  N  N640  1  0.745930  0.522870  0.618240  1.0  -0.2499
  N  N641  1  0.829130  0.508070  0.589970  1.0  -0.246
  N  N642  1  0.300730  0.018670  0.578830  1.0  -0.2405
  N  N643  1  0.937600  0.138900  0.988070  1.0  -0.2238
  N  N644  1  0.812700  0.093600  0.981680  1.0  -0.2935
  N  N645  1  0.965300  0.295200  0.974340  1.0  0.0228
  N  N646  1  0.028900  0.414900  0.966940  1.0  0.0338
  N  N647  1  0.124200  0.631200  0.961480  1.0  -0.3213
  N  N648  1  0.143800  0.556400  0.951570  1.0  -0.2505
  N  N649  1  0.158600  0.654400  0.923300  1.0  -0.2458
  N  N650  1  0.648000  0.615400  0.912160  1.0  -0.241
  N  N651  1  0.604270  0.472230  0.321400  1.0  -0.2216
  N  N652  1  0.479370  0.426930  0.315010  1.0  -0.2935
  N  N653  1  0.631970  0.628530  0.307670  1.0  0.0228
  N  N654  1  0.695570  0.748230  0.300270  1.0  0.034
  N  N655  1  0.790870  0.964530  0.294810  1.0  -0.3213
  N  N656  1  0.810470  0.889730  0.284900  1.0  -0.2505
  N  N657  1  0.825270  0.987730  0.256630  1.0  -0.2406
  N  N658  1  0.314670  0.948730  0.245490  1.0  -0.2411
  N  N659  1  0.270930  0.805570  0.654740  1.0  -0.2238
  N  N660  1  0.146030  0.760270  0.648350  1.0  -0.2935
  N  N661  1  0.298630  0.961870  0.641010  1.0  0.0228
  N  N662  1  0.362230  0.081570  0.633610  1.0  0.0338
  N  N663  1  0.457530  0.297870  0.628150  1.0  -0.3213
  N  N664  1  0.477130  0.223070  0.618240  1.0  -0.2505
  N  N665  1  0.491930  0.321070  0.589970  1.0  -0.2457
  N  N666  1  0.981330  0.282070  0.578830  1.0  -0.2411
  N  N667  1  0.798700  0.861100  0.511930  1.0  -0.2226
  N  N668  1  0.719100  0.906400  0.518320  1.0  -0.2938
  N  N669  1  0.670100  0.704800  0.525660  1.0  0.0232
  N  N670  1  0.614000  0.585100  0.533060  1.0  0.0333
  N  N671  1  0.493000  0.368800  0.538520  1.0  -0.323
  N  N672  1  0.587400  0.443600  0.548430  1.0  -0.251
  N  N673  1  0.504200  0.345600  0.576700  1.0  -0.2436
  N  N674  1  0.032600  0.384600  0.587840  1.0  -0.2405
  N  N675  1  0.465370  0.194430  0.845260  1.0  -0.2226
  N  N676  1  0.385770  0.239730  0.851650  1.0  -0.2938
  N  N677  1  0.336770  0.038130  0.858990  1.0  0.0232
  N  N678  1  0.280670  0.918430  0.866390  1.0  0.0333
  N  N679  1  0.159670  0.702130  0.871850  1.0  -0.323
  N  N680  1  0.254070  0.776930  0.881760  1.0  -0.2511
  N  N681  1  0.170870  0.678930  0.910030  1.0  -0.2436
  N  N682  1  0.699270  0.717930  0.921170  1.0  -0.2405
  N  N683  1  0.132030  0.527770  0.178600  1.0  -0.222
  N  N684  1  0.052430  0.573070  0.184990  1.0  -0.2938
  N  N685  1  0.003430  0.371470  0.192330  1.0  0.0232
  N  N686  1  0.947330  0.251770  0.199730  1.0  0.0335
  N  N687  1  0.826330  0.035470  0.205190  1.0  -0.323
  N  N688  1  0.920730  0.110270  0.215100  1.0  -0.2511
  N  N689  1  0.837530  0.012270  0.243370  1.0  -0.2455
  N  N690  1  0.365930  0.051270  0.254510  1.0  -0.2424
  N  N691  1  0.062400  0.201300  0.511930  1.0  -0.2193
  N  N692  1  0.187300  0.280900  0.518320  1.0  -0.2945
  N  N693  1  0.034700  0.329900  0.525660  1.0  0.023
  N  N694  1  0.971100  0.386000  0.533060  1.0  0.0353
  N  N695  1  0.875800  0.507000  0.538520  1.0  -0.3235
  N  N696  1  0.856200  0.412600  0.548430  1.0  -0.2508
  N  N697  1  0.841400  0.495800  0.576700  1.0  -0.2466
  N  N698  1  0.352000  0.967400  0.587840  1.0  -0.2383
  N  N699  1  0.729070  0.534630  0.845260  1.0  -0.2193
  N  N700  1  0.853970  0.614230  0.851650  1.0  -0.2945
  N  N701  1  0.701370  0.663230  0.858990  1.0  0.023
  N  N702  1  0.637770  0.719330  0.866390  1.0  0.0353
  N  N703  1  0.542470  0.840330  0.871850  1.0  -0.3235
  N  N704  1  0.522870  0.745930  0.881760  1.0  -0.2508
  N  N705  1  0.508070  0.829130  0.910030  1.0  -0.2468
  N  N706  1  0.018670  0.300730  0.921170  1.0  -0.2383
  N  N707  1  0.395730  0.867970  0.178600  1.0  -0.2221
  N  N708  1  0.520630  0.947570  0.184990  1.0  -0.2945
  N  N709  1  0.368030  0.996570  0.192330  1.0  0.023
  N  N710  1  0.304430  0.052670  0.199730  1.0  0.0355
  N  N711  1  0.209130  0.173670  0.205190  1.0  -0.3235
  N  N712  1  0.189530  0.079270  0.215100  1.0  -0.2508
  N  N713  1  0.174730  0.162470  0.243370  1.0  -0.2408
  N  N714  1  0.685330  0.634070  0.254510  1.0  -0.2386
  N  N715  1  0.138900  0.937600  0.511930  1.0  -0.2236
  N  N716  1  0.093600  0.812700  0.518320  1.0  -0.2928
  N  N717  1  0.295200  0.965300  0.525660  1.0  0.0248
  N  N718  1  0.414900  0.028900  0.533060  1.0  0.0348
  N  N719  1  0.631200  0.124200  0.538520  1.0  -0.3237
  N  N720  1  0.556400  0.143800  0.548430  1.0  -0.2496
  N  N721  1  0.654400  0.158600  0.576700  1.0  -0.2438
  N  N722  1  0.615400  0.648000  0.587840  1.0  -0.241
  N  N723  1  0.805570  0.270930  0.845260  1.0  -0.2236
  N  N724  1  0.760270  0.146030  0.851650  1.0  -0.2928
  N  N725  1  0.961870  0.298630  0.858990  1.0  0.0248
  N  N726  1  0.081570  0.362230  0.866390  1.0  0.0348
  N  N727  1  0.297870  0.457530  0.871850  1.0  -0.3237
  N  N728  1  0.223070  0.477130  0.881760  1.0  -0.2496
  N  N729  1  0.321070  0.491930  0.910030  1.0  -0.2437
  N  N730  1  0.282070  0.981330  0.921170  1.0  -0.241
  N  N731  1  0.472230  0.604270  0.178600  1.0  -0.2223
  N  N732  1  0.426930  0.479370  0.184990  1.0  -0.2929
  N  N733  1  0.628530  0.631970  0.192330  1.0  0.0248
  N  N734  1  0.748230  0.695570  0.199730  1.0  0.0349
  N  N735  1  0.964530  0.790870  0.205190  1.0  -0.3237
  N  N736  1  0.889730  0.810470  0.215100  1.0  -0.2497
  N  N737  1  0.987730  0.825270  0.243370  1.0  -0.2389
  N  N738  1  0.948730  0.314670  0.254510  1.0  -0.2409
  N  N739  1  0.666667  0.685280  0.083330  1.0  0.0538
  N  N740  1  0.666667  0.808780  0.083330  1.0  0.0297
  N  N741  1  0.314720  0.981380  0.083330  1.0  0.0535
  N  N742  1  0.191220  0.857880  0.083330  1.0  0.0294
  N  N743  1  0.018620  0.333333  0.083330  1.0  0.0559
  N  N744  1  0.142120  0.333333  0.083330  1.0  0.0331
  N  N745  1  0.685280  0.666667  0.416670  1.0  0.056
  N  N746  1  0.808780  0.666667  0.416670  1.0  0.0314
  N  N747  1  0.351950  0.000000  0.750000  1.0  0.0536
  N  N748  1  0.475450  0.000000  0.750000  1.0  0.0337
  N  N749  1  0.981380  0.314720  0.416670  1.0  0.0535
  N  N750  1  0.857880  0.191220  0.416670  1.0  0.0294
  N  N751  1  0.648050  0.648050  0.750000  1.0  0.051
  N  N752  1  0.524550  0.524550  0.750000  1.0  0.0323
  N  N753  1  0.333333  0.018620  0.416670  1.0  0.0538
  N  N754  1  0.333333  0.142120  0.416670  1.0  0.0317
  N  N755  1  0.000000  0.351950  0.750000  1.0  0.0514
  N  N756  1  0.000000  0.475450  0.750000  1.0  0.032
  N  N757  1  0.333333  0.314720  0.916670  1.0  0.054
  N  N758  1  0.333333  0.191220  0.916670  1.0  0.0296
  N  N759  1  0.000000  0.648050  0.250000  1.0  0.0515
  N  N760  1  0.000000  0.524550  0.250000  1.0  0.0323
  N  N761  1  0.685280  0.018620  0.916670  1.0  0.0541
  N  N762  1  0.808780  0.142120  0.916670  1.0  0.0294
  N  N763  1  0.351950  0.351950  0.250000  1.0  0.0517
  N  N764  1  0.475450  0.475450  0.250000  1.0  0.032
  N  N765  1  0.981380  0.666667  0.916670  1.0  0.0554
  N  N766  1  0.857880  0.666667  0.916670  1.0  0.0328
  N  N767  1  0.648050  0.000000  0.250000  1.0  0.0532
  N  N768  1  0.524550  0.000000  0.250000  1.0  0.0333
  N  N769  1  0.314720  0.333333  0.583330  1.0  0.0556
  N  N770  1  0.191220  0.333333  0.583330  1.0  0.031
  N  N771  1  0.018620  0.685280  0.583330  1.0  0.054
  N  N772  1  0.142120  0.808780  0.583330  1.0  0.0294
  N  N773  1  0.666667  0.981380  0.583330  1.0  0.054
  N  N774  1  0.666667  0.857880  0.583330  1.0  0.0313
