# generated using pymatgen
data_DyCdH12(C4O5)3
_symmetry_space_group_name_H-M   'P 1'
_cell_length_a   26.25220000
_cell_length_b   26.25220000
_cell_length_c   26.25220000
_cell_angle_alpha   90.00000000
_cell_angle_beta   90.00000000
_cell_angle_gamma   90.00000000
_symmetry_Int_Tables_number   1
_chemical_formula_structural   DyCdH12(C4O5)3
_chemical_formula_sum   'Dy32 Cd32 H384 C384 O480'
_cell_volume   18092.43881866
_cell_formula_units_Z   32
loop_
 _symmetry_equiv_pos_site_id
 _symmetry_equiv_pos_as_xyz
  1  'x, y, z'
loop_
 _atom_site_type_symbol
 _atom_site_label
 _atom_site_symmetry_multiplicity
 _atom_site_fract_x
 _atom_site_fract_y
 _atom_site_fract_z
 _atom_site_occupancy
 _atom_site_charge
  Dy  Dy1  1  0.000000  0.000000  0.250000  1.0  2.1985
  Dy  Dy2  1  0.000000  0.500000  0.750000  1.0  2.1985
  Dy  Dy3  1  0.500000  0.000000  0.750000  1.0  2.1985
  Dy  Dy4  1  0.500000  0.500000  0.250000  1.0  2.1985
  Dy  Dy5  1  0.250000  0.750000  0.750000  1.0  2.1985
  Dy  Dy6  1  0.250000  0.250000  0.250000  1.0  2.1985
  Dy  Dy7  1  0.750000  0.500000  0.000000  1.0  2.1985
  Dy  Dy8  1  0.750000  0.000000  0.500000  1.0  2.1985
  Dy  Dy9  1  0.500000  0.250000  0.500000  1.0  2.1985
  Dy  Dy10  1  0.500000  0.750000  0.000000  1.0  2.1985
  Dy  Dy11  1  0.250000  0.000000  0.000000  1.0  2.1985
  Dy  Dy12  1  0.250000  0.500000  0.500000  1.0  2.1985
  Dy  Dy13  1  0.750000  0.250000  0.750000  1.0  2.1985
  Dy  Dy14  1  0.000000  0.750000  0.500000  1.0  2.1985
  Dy  Dy15  1  0.000000  0.250000  0.000000  1.0  2.1985
  Dy  Dy16  1  0.750000  0.750000  0.250000  1.0  2.1985
  Dy  Dy17  1  0.000000  0.000000  0.750000  1.0  2.1985
  Dy  Dy18  1  0.000000  0.500000  0.250000  1.0  2.1985
  Dy  Dy19  1  0.750000  0.250000  0.250000  1.0  2.1985
  Dy  Dy20  1  0.750000  0.750000  0.750000  1.0  2.1985
  Dy  Dy21  1  0.250000  0.500000  0.000000  1.0  2.1985
  Dy  Dy22  1  0.250000  0.000000  0.500000  1.0  2.1985
  Dy  Dy23  1  0.500000  0.750000  0.500000  1.0  2.1985
  Dy  Dy24  1  0.500000  0.250000  0.000000  1.0  2.1985
  Dy  Dy25  1  0.750000  0.000000  0.000000  1.0  2.1985
  Dy  Dy26  1  0.250000  0.750000  0.250000  1.0  2.1985
  Dy  Dy27  1  0.000000  0.250000  0.500000  1.0  2.1985
  Dy  Dy28  1  0.500000  0.500000  0.750000  1.0  2.1985
  Dy  Dy29  1  0.000000  0.750000  0.000000  1.0  2.1985
  Dy  Dy30  1  0.250000  0.250000  0.750000  1.0  2.1985
  Dy  Dy31  1  0.500000  0.000000  0.250000  1.0  2.1985
  Dy  Dy32  1  0.750000  0.500000  0.500000  1.0  2.1985
  Cd  Cd33  1  0.000000  0.000000  0.500000  1.0  1.0482
  Cd  Cd34  1  0.500000  0.500000  0.500000  1.0  1.0482
  Cd  Cd35  1  0.250000  0.750000  0.000000  1.0  1.0482
  Cd  Cd36  1  0.750000  0.500000  0.750000  1.0  1.0482
  Cd  Cd37  1  0.750000  0.000000  0.250000  1.0  1.0482
  Cd  Cd38  1  0.500000  0.250000  0.250000  1.0  1.0482
  Cd  Cd39  1  0.000000  0.250000  0.750000  1.0  1.0482
  Cd  Cd40  1  0.500000  0.000000  0.000000  1.0  1.0482
  Cd  Cd41  1  0.750000  0.750000  0.500000  1.0  1.0482
  Cd  Cd42  1  0.250000  0.500000  0.250000  1.0  1.0482
  Cd  Cd43  1  0.000000  0.500000  0.000000  1.0  1.0482
  Cd  Cd44  1  0.500000  0.750000  0.750000  1.0  1.0482
  Cd  Cd45  1  0.250000  0.250000  0.500000  1.0  1.0482
  Cd  Cd46  1  0.750000  0.250000  0.500000  1.0  1.0482
  Cd  Cd47  1  0.750000  0.750000  0.000000  1.0  1.0482
  Cd  Cd48  1  0.250000  0.250000  0.000000  1.0  1.0482
  Cd  Cd49  1  0.500000  0.500000  0.000000  1.0  1.0482
  Cd  Cd50  1  0.250000  0.000000  0.250000  1.0  1.0482
  Cd  Cd51  1  0.000000  0.750000  0.750000  1.0  1.0482
  Cd  Cd52  1  0.000000  0.250000  0.250000  1.0  1.0482
  Cd  Cd53  1  0.500000  0.000000  0.500000  1.0  1.0482
  Cd  Cd54  1  0.250000  0.500000  0.750000  1.0  1.0482
  Cd  Cd55  1  0.750000  0.000000  0.750000  1.0  1.0482
  Cd  Cd56  1  0.500000  0.750000  0.250000  1.0  1.0482
  Cd  Cd57  1  0.000000  0.500000  0.500000  1.0  1.0482
  Cd  Cd58  1  0.000000  0.000000  0.000000  1.0  1.0482
  Cd  Cd59  1  0.750000  0.250000  0.000000  1.0  1.0482
  Cd  Cd60  1  0.000000  0.750000  0.250000  1.0  1.0482
  Cd  Cd61  1  0.250000  0.000000  0.750000  1.0  1.0482
  Cd  Cd62  1  0.250000  0.750000  0.500000  1.0  1.0482
  Cd  Cd63  1  0.750000  0.500000  0.250000  1.0  1.0482
  Cd  Cd64  1  0.500000  0.250000  0.750000  1.0  1.0482
  H  H65  1  0.972900  0.065900  0.384600  1.0  0.0997
  H  H66  1  0.032400  0.072200  0.382000  1.0  0.1018
  H  H67  1  0.972900  0.565900  0.884600  1.0  0.0997
  H  H68  1  0.032400  0.572200  0.882000  1.0  0.1018
  H  H69  1  0.472900  0.065900  0.884600  1.0  0.0997
  H  H70  1  0.532400  0.072200  0.882000  1.0  0.1018
  H  H71  1  0.472900  0.565900  0.384600  1.0  0.0997
  H  H72  1  0.532400  0.572200  0.382000  1.0  0.1018
  H  H73  1  0.277100  0.684100  0.884600  1.0  0.0987
  H  H74  1  0.217600  0.677800  0.882000  1.0  0.1021
  H  H75  1  0.277100  0.184100  0.384600  1.0  0.0987
  H  H76  1  0.217600  0.177800  0.382000  1.0  0.1021
  H  H77  1  0.777100  0.684100  0.384600  1.0  0.0987
  H  H78  1  0.717600  0.677800  0.382000  1.0  0.1021
  H  H79  1  0.777100  0.184100  0.884600  1.0  0.0987
  H  H80  1  0.717600  0.177800  0.882000  1.0  0.1021
  H  H81  1  0.777100  0.565900  0.865400  1.0  0.0986
  H  H82  1  0.717600  0.572200  0.868000  1.0  0.1021
  H  H83  1  0.777100  0.065900  0.365400  1.0  0.0986
  H  H84  1  0.717600  0.072200  0.368000  1.0  0.1021
  H  H85  1  0.277100  0.565900  0.365400  1.0  0.0986
  H  H86  1  0.217600  0.572200  0.368000  1.0  0.1021
  H  H87  1  0.277100  0.065900  0.865400  1.0  0.0986
  H  H88  1  0.217600  0.072200  0.868000  1.0  0.1021
  H  H89  1  0.472900  0.184100  0.365400  1.0  0.0999
  H  H90  1  0.532400  0.177800  0.368000  1.0  0.1021
  H  H91  1  0.472900  0.684100  0.865400  1.0  0.0999
  H  H92  1  0.532400  0.677800  0.868000  1.0  0.1021
  H  H93  1  0.972900  0.184100  0.865400  1.0  0.0999
  H  H94  1  0.032400  0.177800  0.868000  1.0  0.1021
  H  H95  1  0.972900  0.684100  0.365400  1.0  0.0999
  H  H96  1  0.032400  0.677800  0.368000  1.0  0.1021
  H  H97  1  0.384600  0.972900  0.065900  1.0  0.1023
  H  H98  1  0.382000  0.032400  0.072200  1.0  0.1022
  H  H99  1  0.384600  0.472900  0.565900  1.0  0.1023
  H  H100  1  0.382000  0.532400  0.572200  1.0  0.1022
  H  H101  1  0.884600  0.972900  0.565900  1.0  0.1023
  H  H102  1  0.882000  0.032400  0.572200  1.0  0.1022
  H  H103  1  0.884600  0.472900  0.065900  1.0  0.1023
  H  H104  1  0.882000  0.532400  0.072200  1.0  0.1022
  H  H105  1  0.884600  0.277100  0.684100  1.0  0.1015
  H  H106  1  0.882000  0.217600  0.677800  1.0  0.1028
  H  H107  1  0.884600  0.777100  0.184100  1.0  0.1015
  H  H108  1  0.882000  0.717600  0.177800  1.0  0.1028
  H  H109  1  0.384600  0.277100  0.184100  1.0  0.1015
  H  H110  1  0.382000  0.217600  0.177800  1.0  0.1028
  H  H111  1  0.384600  0.777100  0.684100  1.0  0.1015
  H  H112  1  0.382000  0.717600  0.677800  1.0  0.1028
  H  H113  1  0.865400  0.777100  0.565900  1.0  0.1015
  H  H114  1  0.868000  0.717600  0.572200  1.0  0.1031
  H  H115  1  0.865400  0.277100  0.065900  1.0  0.1015
  H  H116  1  0.868000  0.217600  0.072200  1.0  0.1031
  H  H117  1  0.365400  0.777100  0.065900  1.0  0.1015
  H  H118  1  0.368000  0.717600  0.072200  1.0  0.1031
  H  H119  1  0.365400  0.277100  0.565900  1.0  0.1015
  H  H120  1  0.368000  0.217600  0.572200  1.0  0.1031
  H  H121  1  0.365400  0.472900  0.184100  1.0  0.1023
  H  H122  1  0.368000  0.532400  0.177800  1.0  0.1027
  H  H123  1  0.365400  0.972900  0.684100  1.0  0.1023
  H  H124  1  0.368000  0.032400  0.677800  1.0  0.1027
  H  H125  1  0.865400  0.472900  0.684100  1.0  0.1023
  H  H126  1  0.868000  0.532400  0.677800  1.0  0.1027
  H  H127  1  0.865400  0.972900  0.184100  1.0  0.1023
  H  H128  1  0.868000  0.032400  0.177800  1.0  0.1027
  H  H129  1  0.065900  0.384600  0.972900  1.0  0.1013
  H  H130  1  0.072200  0.382000  0.032400  1.0  0.1022
  H  H131  1  0.065900  0.884600  0.472900  1.0  0.1013
  H  H132  1  0.072200  0.882000  0.532400  1.0  0.1022
  H  H133  1  0.565900  0.384600  0.472900  1.0  0.1013
  H  H134  1  0.572200  0.382000  0.532400  1.0  0.1022
  H  H135  1  0.565900  0.884600  0.972900  1.0  0.1013
  H  H136  1  0.572200  0.882000  0.032400  1.0  0.1022
  H  H137  1  0.684100  0.884600  0.277100  1.0  0.1011
  H  H138  1  0.677800  0.882000  0.217600  1.0  0.1021
  H  H139  1  0.684100  0.384600  0.777100  1.0  0.1011
  H  H140  1  0.677800  0.382000  0.717600  1.0  0.1021
  H  H141  1  0.184100  0.884600  0.777100  1.0  0.1011
  H  H142  1  0.177800  0.882000  0.717600  1.0  0.1021
  H  H143  1  0.184100  0.384600  0.277100  1.0  0.1011
  H  H144  1  0.177800  0.382000  0.217600  1.0  0.1021
  H  H145  1  0.565900  0.865400  0.777100  1.0  0.1017
  H  H146  1  0.572200  0.868000  0.717600  1.0  0.1024
  H  H147  1  0.565900  0.365400  0.277100  1.0  0.1017
  H  H148  1  0.572200  0.368000  0.217600  1.0  0.1024
  H  H149  1  0.065900  0.865400  0.277100  1.0  0.1017
  H  H150  1  0.072200  0.868000  0.217600  1.0  0.1024
  H  H151  1  0.065900  0.365400  0.777100  1.0  0.1017
  H  H152  1  0.072200  0.368000  0.717600  1.0  0.1024
  H  H153  1  0.184100  0.365400  0.472900  1.0  0.1014
  H  H154  1  0.177800  0.368000  0.532400  1.0  0.1021
  H  H155  1  0.184100  0.865400  0.972900  1.0  0.1014
  H  H156  1  0.177800  0.868000  0.032400  1.0  0.1021
  H  H157  1  0.684100  0.365400  0.972900  1.0  0.1014
  H  H158  1  0.677800  0.368000  0.032400  1.0  0.1021
  H  H159  1  0.684100  0.865400  0.472900  1.0  0.1014
  H  H160  1  0.677800  0.868000  0.532400  1.0  0.1021
  H  H161  1  0.815900  0.222900  0.615400  1.0  0.1016
  H  H162  1  0.822200  0.282400  0.618000  1.0  0.1026
  H  H163  1  0.815900  0.722900  0.115400  1.0  0.1016
  H  H164  1  0.822200  0.782400  0.118000  1.0  0.1026
  H  H165  1  0.315900  0.222900  0.115400  1.0  0.1016
  H  H166  1  0.322200  0.282400  0.118000  1.0  0.1026
  H  H167  1  0.315900  0.722900  0.615400  1.0  0.1016
  H  H168  1  0.322200  0.782400  0.618000  1.0  0.1026
  H  H169  1  0.434100  0.527100  0.115400  1.0  0.1012
  H  H170  1  0.427800  0.467600  0.118000  1.0  0.1027
  H  H171  1  0.434100  0.027100  0.615400  1.0  0.1012
  H  H172  1  0.427800  0.967600  0.618000  1.0  0.1027
  H  H173  1  0.934100  0.527100  0.615400  1.0  0.1012
  H  H174  1  0.927800  0.467600  0.618000  1.0  0.1027
  H  H175  1  0.934100  0.027100  0.115400  1.0  0.1012
  H  H176  1  0.927800  0.967600  0.118000  1.0  0.1027
  H  H177  1  0.315900  0.027100  0.134600  1.0  0.1006
  H  H178  1  0.322200  0.967600  0.132000  1.0  0.1029
  H  H179  1  0.315900  0.527100  0.634600  1.0  0.1006
  H  H180  1  0.322200  0.467600  0.632000  1.0  0.1029
  H  H181  1  0.815900  0.027100  0.634600  1.0  0.1006
  H  H182  1  0.822200  0.967600  0.632000  1.0  0.1029
  H  H183  1  0.815900  0.527100  0.134600  1.0  0.1006
  H  H184  1  0.822200  0.467600  0.132000  1.0  0.1029
  H  H185  1  0.934100  0.722900  0.634600  1.0  0.1018
  H  H186  1  0.927800  0.782400  0.632000  1.0  0.1021
  H  H187  1  0.934100  0.222900  0.134600  1.0  0.1018
  H  H188  1  0.927800  0.282400  0.132000  1.0  0.1021
  H  H189  1  0.434100  0.722900  0.134600  1.0  0.1018
  H  H190  1  0.427800  0.782400  0.132000  1.0  0.1021
  H  H191  1  0.434100  0.222900  0.634600  1.0  0.1018
  H  H192  1  0.427800  0.282400  0.632000  1.0  0.1021
  H  H193  1  0.722900  0.634600  0.934100  1.0  0.1006
  H  H194  1  0.782400  0.632000  0.927800  1.0  0.1023
  H  H195  1  0.722900  0.134600  0.434100  1.0  0.1006
  H  H196  1  0.782400  0.132000  0.427800  1.0  0.1023
  H  H197  1  0.222900  0.634600  0.434100  1.0  0.1006
  H  H198  1  0.282400  0.632000  0.427800  1.0  0.1023
  H  H199  1  0.222900  0.134600  0.934100  1.0  0.1006
  H  H200  1  0.282400  0.132000  0.927800  1.0  0.1023
  H  H201  1  0.027100  0.134600  0.315900  1.0  0.0994
  H  H202  1  0.967600  0.132000  0.322200  1.0  0.1023
  H  H203  1  0.027100  0.634600  0.815900  1.0  0.0994
  H  H204  1  0.967600  0.632000  0.822200  1.0  0.1023
  H  H205  1  0.527100  0.134600  0.815900  1.0  0.0994
  H  H206  1  0.467600  0.132000  0.822200  1.0  0.1023
  H  H207  1  0.527100  0.634600  0.315900  1.0  0.0994
  H  H208  1  0.467600  0.632000  0.322200  1.0  0.1023
  H  H209  1  0.527100  0.115400  0.434100  1.0  0.0995
  H  H210  1  0.467600  0.118000  0.427800  1.0  0.1022
  H  H211  1  0.527100  0.615400  0.934100  1.0  0.0995
  H  H212  1  0.467600  0.618000  0.927800  1.0  0.1022
  H  H213  1  0.027100  0.115400  0.934100  1.0  0.0995
  H  H214  1  0.967600  0.118000  0.927800  1.0  0.1022
  H  H215  1  0.027100  0.615400  0.434100  1.0  0.0995
  H  H216  1  0.967600  0.618000  0.427800  1.0  0.1022
  H  H217  1  0.222900  0.615400  0.815900  1.0  0.1002
  H  H218  1  0.282400  0.618000  0.822200  1.0  0.1024
  H  H219  1  0.222900  0.115400  0.315900  1.0  0.1002
  H  H220  1  0.282400  0.118000  0.322200  1.0  0.1024
  H  H221  1  0.722900  0.615400  0.315900  1.0  0.1002
  H  H222  1  0.782400  0.618000  0.322200  1.0  0.1024
  H  H223  1  0.722900  0.115400  0.815900  1.0  0.1002
  H  H224  1  0.782400  0.118000  0.822200  1.0  0.1024
  H  H225  1  0.134600  0.315900  0.027100  1.0  0.1012
  H  H226  1  0.132000  0.322200  0.967600  1.0  0.102
  H  H227  1  0.134600  0.815900  0.527100  1.0  0.1012
  H  H228  1  0.132000  0.822200  0.467600  1.0  0.102
  H  H229  1  0.634600  0.315900  0.527100  1.0  0.1012
  H  H230  1  0.632000  0.322200  0.467600  1.0  0.102
  H  H231  1  0.634600  0.815900  0.027100  1.0  0.1012
  H  H232  1  0.632000  0.822200  0.967600  1.0  0.102
  H  H233  1  0.634600  0.934100  0.722900  1.0  0.101
  H  H234  1  0.632000  0.927800  0.782400  1.0  0.102
  H  H235  1  0.634600  0.434100  0.222900  1.0  0.101
  H  H236  1  0.632000  0.427800  0.282400  1.0  0.102
  H  H237  1  0.134600  0.934100  0.222900  1.0  0.101
  H  H238  1  0.132000  0.927800  0.282400  1.0  0.102
  H  H239  1  0.134600  0.434100  0.722900  1.0  0.101
  H  H240  1  0.132000  0.427800  0.782400  1.0  0.102
  H  H241  1  0.615400  0.815900  0.222900  1.0  0.1007
  H  H242  1  0.618000  0.822200  0.282400  1.0  0.1018
  H  H243  1  0.615400  0.315900  0.722900  1.0  0.1007
  H  H244  1  0.618000  0.322200  0.782400  1.0  0.1018
  H  H245  1  0.115400  0.815900  0.722900  1.0  0.1007
  H  H246  1  0.118000  0.822200  0.782400  1.0  0.1018
  H  H247  1  0.115400  0.315900  0.222900  1.0  0.1007
  H  H248  1  0.118000  0.322200  0.282400  1.0  0.1018
  H  H249  1  0.115400  0.434100  0.527100  1.0  0.101
  H  H250  1  0.118000  0.427800  0.467600  1.0  0.1022
  H  H251  1  0.115400  0.934100  0.027100  1.0  0.101
  H  H252  1  0.118000  0.927800  0.967600  1.0  0.1022
  H  H253  1  0.615400  0.434100  0.027100  1.0  0.101
  H  H254  1  0.618000  0.427800  0.967600  1.0  0.1022
  H  H255  1  0.615400  0.934100  0.527100  1.0  0.101
  H  H256  1  0.618000  0.927800  0.467600  1.0  0.1022
  H  H257  1  0.027100  0.934100  0.615400  1.0  0.0989
  H  H258  1  0.967600  0.927800  0.618000  1.0  0.102
  H  H259  1  0.027100  0.434100  0.115400  1.0  0.0989
  H  H260  1  0.967600  0.427800  0.118000  1.0  0.102
  H  H261  1  0.527100  0.934100  0.115400  1.0  0.0989
  H  H262  1  0.467600  0.927800  0.118000  1.0  0.102
  H  H263  1  0.527100  0.434100  0.615400  1.0  0.0989
  H  H264  1  0.467600  0.427800  0.618000  1.0  0.102
  H  H265  1  0.722900  0.315900  0.115400  1.0  0.0997
  H  H266  1  0.782400  0.322200  0.118000  1.0  0.1021
  H  H267  1  0.722900  0.815900  0.615400  1.0  0.0997
  H  H268  1  0.782400  0.822200  0.618000  1.0  0.1021
  H  H269  1  0.222900  0.315900  0.615400  1.0  0.0997
  H  H270  1  0.282400  0.322200  0.618000  1.0  0.1021
  H  H271  1  0.222900  0.815900  0.115400  1.0  0.0997
  H  H272  1  0.282400  0.822200  0.118000  1.0  0.1021
  H  H273  1  0.222900  0.434100  0.134600  1.0  0.0997
  H  H274  1  0.282400  0.427800  0.132000  1.0  0.1021
  H  H275  1  0.222900  0.934100  0.634600  1.0  0.0997
  H  H276  1  0.282400  0.927800  0.632000  1.0  0.1021
  H  H277  1  0.722900  0.434100  0.634600  1.0  0.0997
  H  H278  1  0.782400  0.427800  0.632000  1.0  0.1021
  H  H279  1  0.722900  0.934100  0.134600  1.0  0.0997
  H  H280  1  0.782400  0.927800  0.132000  1.0  0.1021
  H  H281  1  0.527100  0.815900  0.634600  1.0  0.0986
  H  H282  1  0.467600  0.822200  0.632000  1.0  0.1019
  H  H283  1  0.527100  0.315900  0.134600  1.0  0.0986
  H  H284  1  0.467600  0.322200  0.132000  1.0  0.1019
  H  H285  1  0.027100  0.815900  0.134600  1.0  0.0986
  H  H286  1  0.967600  0.822200  0.132000  1.0  0.1019
  H  H287  1  0.027100  0.315900  0.634600  1.0  0.0986
  H  H288  1  0.967600  0.322200  0.632000  1.0  0.1019
  H  H289  1  0.615400  0.027100  0.934100  1.0  0.1018
  H  H290  1  0.618000  0.967600  0.927800  1.0  0.1029
  H  H291  1  0.615400  0.527100  0.434100  1.0  0.1018
  H  H292  1  0.618000  0.467600  0.427800  1.0  0.1029
  H  H293  1  0.115400  0.027100  0.434100  1.0  0.1018
  H  H294  1  0.118000  0.967600  0.427800  1.0  0.1029
  H  H295  1  0.115400  0.527100  0.934100  1.0  0.1018
  H  H296  1  0.118000  0.467600  0.927800  1.0  0.1029
  H  H297  1  0.115400  0.722900  0.315900  1.0  0.1022
  H  H298  1  0.118000  0.782400  0.322200  1.0  0.1023
  H  H299  1  0.115400  0.222900  0.815900  1.0  0.1022
  H  H300  1  0.118000  0.282400  0.822200  1.0  0.1023
  H  H301  1  0.615400  0.722900  0.815900  1.0  0.1022
  H  H302  1  0.618000  0.782400  0.822200  1.0  0.1023
  H  H303  1  0.615400  0.222900  0.315900  1.0  0.1022
  H  H304  1  0.618000  0.282400  0.322200  1.0  0.1023
  H  H305  1  0.134600  0.222900  0.434100  1.0  0.1024
  H  H306  1  0.132000  0.282400  0.427800  1.0  0.1026
  H  H307  1  0.134600  0.722900  0.934100  1.0  0.1024
  H  H308  1  0.132000  0.782400  0.927800  1.0  0.1026
  H  H309  1  0.634600  0.222900  0.934100  1.0  0.1024
  H  H310  1  0.632000  0.282400  0.927800  1.0  0.1026
  H  H311  1  0.634600  0.722900  0.434100  1.0  0.1024
  H  H312  1  0.632000  0.782400  0.427800  1.0  0.1026
  H  H313  1  0.634600  0.527100  0.815900  1.0  0.1012
  H  H314  1  0.632000  0.467600  0.822200  1.0  0.1029
  H  H315  1  0.634600  0.027100  0.315900  1.0  0.1012
  H  H316  1  0.632000  0.967600  0.322200  1.0  0.1029
  H  H317  1  0.134600  0.527100  0.315900  1.0  0.1012
  H  H318  1  0.132000  0.467600  0.322200  1.0  0.1029
  H  H319  1  0.134600  0.027100  0.815900  1.0  0.1012
  H  H320  1  0.132000  0.967600  0.822200  1.0  0.1029
  H  H321  1  0.934100  0.615400  0.027100  1.0  0.1015
  H  H322  1  0.927800  0.618000  0.967600  1.0  0.1022
  H  H323  1  0.934100  0.115400  0.527100  1.0  0.1015
  H  H324  1  0.927800  0.118000  0.467600  1.0  0.1022
  H  H325  1  0.434100  0.615400  0.527100  1.0  0.1015
  H  H326  1  0.427800  0.618000  0.467600  1.0  0.1022
  H  H327  1  0.434100  0.115400  0.027100  1.0  0.1015
  H  H328  1  0.427800  0.118000  0.967600  1.0  0.1022
  H  H329  1  0.315900  0.115400  0.722900  1.0  0.1015
  H  H330  1  0.322200  0.118000  0.782400  1.0  0.1025
  H  H331  1  0.315900  0.615400  0.222900  1.0  0.1015
  H  H332  1  0.322200  0.618000  0.282400  1.0  0.1025
  H  H333  1  0.815900  0.115400  0.222900  1.0  0.1015
  H  H334  1  0.822200  0.118000  0.282400  1.0  0.1025
  H  H335  1  0.815900  0.615400  0.722900  1.0  0.1015
  H  H336  1  0.822200  0.618000  0.782400  1.0  0.1025
  H  H337  1  0.434100  0.134600  0.222900  1.0  0.1013
  H  H338  1  0.427800  0.132000  0.282400  1.0  0.1018
  H  H339  1  0.434100  0.634600  0.722900  1.0  0.1013
  H  H340  1  0.427800  0.632000  0.782400  1.0  0.1018
  H  H341  1  0.934100  0.134600  0.722900  1.0  0.1013
  H  H342  1  0.927800  0.132000  0.782400  1.0  0.1018
  H  H343  1  0.934100  0.634600  0.222900  1.0  0.1013
  H  H344  1  0.927800  0.632000  0.282400  1.0  0.1018
  H  H345  1  0.815900  0.634600  0.527100  1.0  0.1012
  H  H346  1  0.822200  0.632000  0.467600  1.0  0.1023
  H  H347  1  0.815900  0.134600  0.027100  1.0  0.1012
  H  H348  1  0.822200  0.132000  0.967600  1.0  0.1023
  H  H349  1  0.315900  0.634600  0.027100  1.0  0.1012
  H  H350  1  0.322200  0.632000  0.967600  1.0  0.1023
  H  H351  1  0.315900  0.134600  0.527100  1.0  0.1012
  H  H352  1  0.322200  0.132000  0.467600  1.0  0.1023
  H  H353  1  0.184100  0.777100  0.384600  1.0  0.1007
  H  H354  1  0.177800  0.717600  0.382000  1.0  0.1028
  H  H355  1  0.184100  0.277100  0.884600  1.0  0.1007
  H  H356  1  0.177800  0.217600  0.882000  1.0  0.1028
  H  H357  1  0.684100  0.777100  0.884600  1.0  0.1007
  H  H358  1  0.677800  0.717600  0.882000  1.0  0.1028
  H  H359  1  0.684100  0.277100  0.384600  1.0  0.1007
  H  H360  1  0.677800  0.217600  0.382000  1.0  0.1028
  H  H361  1  0.565900  0.472900  0.884600  1.0  0.1019
  H  H362  1  0.572200  0.532400  0.882000  1.0  0.1022
  H  H363  1  0.565900  0.972900  0.384600  1.0  0.1019
  H  H364  1  0.572200  0.032400  0.382000  1.0  0.1022
  H  H365  1  0.065900  0.472900  0.384600  1.0  0.1019
  H  H366  1  0.072200  0.532400  0.382000  1.0  0.1022
  H  H367  1  0.065900  0.972900  0.884600  1.0  0.1019
  H  H368  1  0.072200  0.032400  0.882000  1.0  0.1022
  H  H369  1  0.684100  0.972900  0.865400  1.0  0.1015
  H  H370  1  0.677800  0.032400  0.868000  1.0  0.1024
  H  H371  1  0.684100  0.472900  0.365400  1.0  0.1015
  H  H372  1  0.677800  0.532400  0.368000  1.0  0.1024
  H  H373  1  0.184100  0.972900  0.365400  1.0  0.1015
  H  H374  1  0.177800  0.032400  0.368000  1.0  0.1024
  H  H375  1  0.184100  0.472900  0.865400  1.0  0.1015
  H  H376  1  0.177800  0.532400  0.868000  1.0  0.1024
  H  H377  1  0.065900  0.277100  0.365400  1.0  0.1011
  H  H378  1  0.072200  0.217600  0.368000  1.0  0.1029
  H  H379  1  0.065900  0.777100  0.865400  1.0  0.1011
  H  H380  1  0.072200  0.717600  0.868000  1.0  0.1029
  H  H381  1  0.565900  0.277100  0.865400  1.0  0.1011
  H  H382  1  0.572200  0.217600  0.868000  1.0  0.1029
  H  H383  1  0.565900  0.777100  0.365400  1.0  0.1011
  H  H384  1  0.572200  0.717600  0.368000  1.0  0.1029
  H  H385  1  0.277100  0.365400  0.065900  1.0  0.0994
  H  H386  1  0.217600  0.368000  0.072200  1.0  0.1024
  H  H387  1  0.277100  0.865400  0.565900  1.0  0.0994
  H  H388  1  0.217600  0.868000  0.572200  1.0  0.1024
  H  H389  1  0.777100  0.365400  0.565900  1.0  0.0994
  H  H390  1  0.717600  0.368000  0.572200  1.0  0.1024
  H  H391  1  0.777100  0.865400  0.065900  1.0  0.0994
  H  H392  1  0.717600  0.868000  0.072200  1.0  0.1024
  H  H393  1  0.972900  0.865400  0.684100  1.0  0.1005
  H  H394  1  0.032400  0.868000  0.677800  1.0  0.1022
  H  H395  1  0.972900  0.365400  0.184100  1.0  0.1005
  H  H396  1  0.032400  0.368000  0.177800  1.0  0.1022
  H  H397  1  0.472900  0.865400  0.184100  1.0  0.1005
  H  H398  1  0.532400  0.868000  0.177800  1.0  0.1022
  H  H399  1  0.472900  0.365400  0.684100  1.0  0.1005
  H  H400  1  0.532400  0.368000  0.677800  1.0  0.1022
  H  H401  1  0.472900  0.884600  0.565900  1.0  0.1002
  H  H402  1  0.532400  0.882000  0.572200  1.0  0.1021
  H  H403  1  0.472900  0.384600  0.065900  1.0  0.1002
  H  H404  1  0.532400  0.382000  0.072200  1.0  0.1021
  H  H405  1  0.972900  0.884600  0.065900  1.0  0.1002
  H  H406  1  0.032400  0.882000  0.072200  1.0  0.1021
  H  H407  1  0.972900  0.384600  0.565900  1.0  0.1002
  H  H408  1  0.032400  0.382000  0.572200  1.0  0.1021
  H  H409  1  0.777100  0.384600  0.184100  1.0  0.0994
  H  H410  1  0.717600  0.382000  0.177800  1.0  0.1025
  H  H411  1  0.777100  0.884600  0.684100  1.0  0.0994
  H  H412  1  0.717600  0.882000  0.677800  1.0  0.1025
  H  H413  1  0.277100  0.384600  0.684100  1.0  0.0994
  H  H414  1  0.217600  0.382000  0.677800  1.0  0.1025
  H  H415  1  0.277100  0.884600  0.184100  1.0  0.0994
  H  H416  1  0.217600  0.882000  0.177800  1.0  0.1025
  H  H417  1  0.865400  0.684100  0.972900  1.0  0.1009
  H  H418  1  0.868000  0.677800  0.032400  1.0  0.1021
  H  H419  1  0.865400  0.184100  0.472900  1.0  0.1009
  H  H420  1  0.868000  0.177800  0.532400  1.0  0.1021
  H  H421  1  0.365400  0.684100  0.472900  1.0  0.1009
  H  H422  1  0.368000  0.677800  0.532400  1.0  0.1021
  H  H423  1  0.365400  0.184100  0.972900  1.0  0.1009
  H  H424  1  0.368000  0.177800  0.032400  1.0  0.1021
  H  H425  1  0.365400  0.065900  0.277100  1.0  0.101
  H  H426  1  0.368000  0.072200  0.217600  1.0  0.102
  H  H427  1  0.365400  0.565900  0.777100  1.0  0.101
  H  H428  1  0.368000  0.572200  0.717600  1.0  0.102
  H  H429  1  0.865400  0.065900  0.777100  1.0  0.101
  H  H430  1  0.868000  0.072200  0.717600  1.0  0.102
  H  H431  1  0.865400  0.565900  0.277100  1.0  0.101
  H  H432  1  0.868000  0.572200  0.217600  1.0  0.102
  H  H433  1  0.384600  0.184100  0.777100  1.0  0.1012
  H  H434  1  0.382000  0.177800  0.717600  1.0  0.102
  H  H435  1  0.384600  0.684100  0.277100  1.0  0.1012
  H  H436  1  0.382000  0.677800  0.217600  1.0  0.102
  H  H437  1  0.884600  0.184100  0.277100  1.0  0.1012
  H  H438  1  0.882000  0.177800  0.217600  1.0  0.102
  H  H439  1  0.884600  0.684100  0.777100  1.0  0.1012
  H  H440  1  0.882000  0.677800  0.717600  1.0  0.102
  H  H441  1  0.884600  0.565900  0.472900  1.0  0.1008
  H  H442  1  0.882000  0.572200  0.532400  1.0  0.1019
  H  H443  1  0.884600  0.065900  0.972900  1.0  0.1008
  H  H444  1  0.882000  0.072200  0.032400  1.0  0.1019
  H  H445  1  0.384600  0.565900  0.972900  1.0  0.1008
  H  H446  1  0.382000  0.572200  0.032400  1.0  0.1019
  H  H447  1  0.384600  0.065900  0.472900  1.0  0.1008
  H  H448  1  0.382000  0.072200  0.532400  1.0  0.1019
  C  C449  1  0.003500  0.054600  0.367200  1.0  -0.0521
  C  C450  1  0.009800  0.997800  0.373700  1.0  0.7566
  C  C451  1  0.003500  0.554600  0.867200  1.0  -0.0521
  C  C452  1  0.009800  0.497800  0.873700  1.0  0.7566
  C  C453  1  0.503500  0.054600  0.867200  1.0  -0.0521
  C  C454  1  0.509800  0.997800  0.873700  1.0  0.7566
  C  C455  1  0.503500  0.554600  0.367200  1.0  -0.0521
  C  C456  1  0.509800  0.497800  0.373700  1.0  0.7566
  C  C457  1  0.246500  0.695400  0.867200  1.0  -0.0525
  C  C458  1  0.240200  0.752200  0.873700  1.0  0.7568
  C  C459  1  0.246500  0.195400  0.367200  1.0  -0.0525
  C  C460  1  0.240200  0.252200  0.373700  1.0  0.7568
  C  C461  1  0.746500  0.695400  0.367200  1.0  -0.0525
  C  C462  1  0.740200  0.752200  0.373700  1.0  0.7568
  C  C463  1  0.746500  0.195400  0.867200  1.0  -0.0525
  C  C464  1  0.740200  0.252200  0.873700  1.0  0.7568
  C  C465  1  0.746500  0.554600  0.882800  1.0  -0.0521
  C  C466  1  0.740200  0.497800  0.876300  1.0  0.7573
  C  C467  1  0.746500  0.054600  0.382800  1.0  -0.0521
  C  C468  1  0.740200  0.997800  0.376300  1.0  0.7573
  C  C469  1  0.246500  0.554600  0.382800  1.0  -0.0521
  C  C470  1  0.240200  0.497800  0.376300  1.0  0.7573
  C  C471  1  0.246500  0.054600  0.882800  1.0  -0.0521
  C  C472  1  0.240200  0.997800  0.876300  1.0  0.7573
  C  C473  1  0.503500  0.195400  0.382800  1.0  -0.0534
  C  C474  1  0.509800  0.252200  0.376300  1.0  0.7566
  C  C475  1  0.503500  0.695400  0.882800  1.0  -0.0534
  C  C476  1  0.509800  0.752200  0.876300  1.0  0.7566
  C  C477  1  0.003500  0.195400  0.882800  1.0  -0.0534
  C  C478  1  0.009800  0.252200  0.876300  1.0  0.7566
  C  C479  1  0.003500  0.695400  0.382800  1.0  -0.0534
  C  C480  1  0.009800  0.752200  0.376300  1.0  0.7566
  C  C481  1  0.367200  0.003500  0.054600  1.0  -0.0537
  C  C482  1  0.373700  0.009800  0.997800  1.0  0.7646
  C  C483  1  0.367200  0.503500  0.554600  1.0  -0.0537
  C  C484  1  0.373700  0.509800  0.497800  1.0  0.7646
  C  C485  1  0.867200  0.003500  0.554600  1.0  -0.0537
  C  C486  1  0.873700  0.009800  0.497800  1.0  0.7646
  C  C487  1  0.867200  0.503500  0.054600  1.0  -0.0537
  C  C488  1  0.873700  0.509800  0.997800  1.0  0.7646
  C  C489  1  0.867200  0.246500  0.695400  1.0  -0.0556
  C  C490  1  0.873700  0.240200  0.752200  1.0  0.7657
  C  C491  1  0.867200  0.746500  0.195400  1.0  -0.0556
  C  C492  1  0.873700  0.740200  0.252200  1.0  0.7657
  C  C493  1  0.367200  0.246500  0.195400  1.0  -0.0556
  C  C494  1  0.373700  0.240200  0.252200  1.0  0.7657
  C  C495  1  0.367200  0.746500  0.695400  1.0  -0.0556
  C  C496  1  0.373700  0.740200  0.752200  1.0  0.7657
  C  C497  1  0.882800  0.746500  0.554600  1.0  -0.0542
  C  C498  1  0.876300  0.740200  0.497800  1.0  0.7645
  C  C499  1  0.882800  0.246500  0.054600  1.0  -0.0542
  C  C500  1  0.876300  0.240200  0.997800  1.0  0.7645
  C  C501  1  0.382800  0.746500  0.054600  1.0  -0.0542
  C  C502  1  0.376300  0.740200  0.997800  1.0  0.7645
  C  C503  1  0.382800  0.246500  0.554600  1.0  -0.0542
  C  C504  1  0.376300  0.240200  0.497800  1.0  0.7645
  C  C505  1  0.382800  0.503500  0.195400  1.0  -0.0552
  C  C506  1  0.376300  0.509800  0.252200  1.0  0.7653
  C  C507  1  0.382800  0.003500  0.695400  1.0  -0.0552
  C  C508  1  0.376300  0.009800  0.752200  1.0  0.7653
  C  C509  1  0.882800  0.503500  0.695400  1.0  -0.0552
  C  C510  1  0.876300  0.509800  0.752200  1.0  0.7653
  C  C511  1  0.882800  0.003500  0.195400  1.0  -0.0552
  C  C512  1  0.876300  0.009800  0.252200  1.0  0.7653
  C  C513  1  0.054600  0.367200  0.003500  1.0  -0.0545
  C  C514  1  0.997800  0.373700  0.009800  1.0  0.7571
  C  C515  1  0.054600  0.867200  0.503500  1.0  -0.0545
  C  C516  1  0.997800  0.873700  0.509800  1.0  0.7571
  C  C517  1  0.554600  0.367200  0.503500  1.0  -0.0545
  C  C518  1  0.497800  0.373700  0.509800  1.0  0.7571
  C  C519  1  0.554600  0.867200  0.003500  1.0  -0.0545
  C  C520  1  0.497800  0.873700  0.009800  1.0  0.7571
  C  C521  1  0.695400  0.867200  0.246500  1.0  -0.0544
  C  C522  1  0.752200  0.873700  0.240200  1.0  0.7559
  C  C523  1  0.695400  0.367200  0.746500  1.0  -0.0544
  C  C524  1  0.752200  0.373700  0.740200  1.0  0.7559
  C  C525  1  0.195400  0.867200  0.746500  1.0  -0.0544
  C  C526  1  0.252200  0.873700  0.740200  1.0  0.7559
  C  C527  1  0.195400  0.367200  0.246500  1.0  -0.0544
  C  C528  1  0.252200  0.373700  0.240200  1.0  0.7559
  C  C529  1  0.554600  0.882800  0.746500  1.0  -0.0558
  C  C530  1  0.497800  0.876300  0.740200  1.0  0.7568
  C  C531  1  0.554600  0.382800  0.246500  1.0  -0.0558
  C  C532  1  0.497800  0.376300  0.240200  1.0  0.7568
  C  C533  1  0.054600  0.882800  0.246500  1.0  -0.0558
  C  C534  1  0.997800  0.876300  0.240200  1.0  0.7568
  C  C535  1  0.054600  0.382800  0.746500  1.0  -0.0558
  C  C536  1  0.997800  0.376300  0.740200  1.0  0.7568
  C  C537  1  0.195400  0.382800  0.503500  1.0  -0.0547
  C  C538  1  0.252200  0.376300  0.509800  1.0  0.7559
  C  C539  1  0.195400  0.882800  0.003500  1.0  -0.0547
  C  C540  1  0.252200  0.876300  0.009800  1.0  0.7559
  C  C541  1  0.695400  0.382800  0.003500  1.0  -0.0547
  C  C542  1  0.752200  0.376300  0.009800  1.0  0.7559
  C  C543  1  0.695400  0.882800  0.503500  1.0  -0.0547
  C  C544  1  0.752200  0.876300  0.509800  1.0  0.7559
  C  C545  1  0.804600  0.253500  0.632800  1.0  -0.0549
  C  C546  1  0.747800  0.259800  0.626300  1.0  0.7563
  C  C547  1  0.804600  0.753500  0.132800  1.0  -0.0549
  C  C548  1  0.747800  0.759800  0.126300  1.0  0.7563
  C  C549  1  0.304600  0.253500  0.132800  1.0  -0.0549
  C  C550  1  0.247800  0.259800  0.126300  1.0  0.7563
  C  C551  1  0.304600  0.753500  0.632800  1.0  -0.0549
  C  C552  1  0.247800  0.759800  0.626300  1.0  0.7563
  C  C553  1  0.445400  0.496500  0.132800  1.0  -0.0545
  C  C554  1  0.502200  0.490200  0.126300  1.0  0.7552
  C  C555  1  0.445400  0.996500  0.632800  1.0  -0.0545
  C  C556  1  0.502200  0.990200  0.626300  1.0  0.7552
  C  C557  1  0.945400  0.496500  0.632800  1.0  -0.0545
  C  C558  1  0.002200  0.490200  0.626300  1.0  0.7552
  C  C559  1  0.945400  0.996500  0.132800  1.0  -0.0545
  C  C560  1  0.002200  0.990200  0.126300  1.0  0.7552
  C  C561  1  0.304600  0.996500  0.117200  1.0  -0.0545
  C  C562  1  0.247800  0.990200  0.123700  1.0  0.7564
  C  C563  1  0.304600  0.496500  0.617200  1.0  -0.0545
  C  C564  1  0.247800  0.490200  0.623700  1.0  0.7564
  C  C565  1  0.804600  0.996500  0.617200  1.0  -0.0545
  C  C566  1  0.747800  0.990200  0.623700  1.0  0.7564
  C  C567  1  0.804600  0.496500  0.117200  1.0  -0.0545
  C  C568  1  0.747800  0.490200  0.123700  1.0  0.7564
  C  C569  1  0.945400  0.753500  0.617200  1.0  -0.0533
  C  C570  1  0.002200  0.759800  0.623700  1.0  0.7555
  C  C571  1  0.945400  0.253500  0.117200  1.0  -0.0533
  C  C572  1  0.002200  0.259800  0.123700  1.0  0.7555
  C  C573  1  0.445400  0.753500  0.117200  1.0  -0.0533
  C  C574  1  0.502200  0.759800  0.123700  1.0  0.7555
  C  C575  1  0.445400  0.253500  0.617200  1.0  -0.0533
  C  C576  1  0.502200  0.259800  0.623700  1.0  0.7555
  C  C577  1  0.753500  0.617200  0.945400  1.0  -0.0556
  C  C578  1  0.759800  0.623700  0.002200  1.0  0.7652
  C  C579  1  0.753500  0.117200  0.445400  1.0  -0.0556
  C  C580  1  0.759800  0.123700  0.502200  1.0  0.7652
  C  C581  1  0.253500  0.617200  0.445400  1.0  -0.0556
  C  C582  1  0.259800  0.623700  0.502200  1.0  0.7652
  C  C583  1  0.253500  0.117200  0.945400  1.0  -0.0556
  C  C584  1  0.259800  0.123700  0.002200  1.0  0.7652
  C  C585  1  0.996500  0.117200  0.304600  1.0  -0.0537
  C  C586  1  0.990200  0.123700  0.247800  1.0  0.7657
  C  C587  1  0.996500  0.617200  0.804600  1.0  -0.0537
  C  C588  1  0.990200  0.623700  0.747800  1.0  0.7657
  C  C589  1  0.496500  0.117200  0.804600  1.0  -0.0537
  C  C590  1  0.490200  0.123700  0.747800  1.0  0.7657
  C  C591  1  0.496500  0.617200  0.304600  1.0  -0.0537
  C  C592  1  0.490200  0.623700  0.247800  1.0  0.7657
  C  C593  1  0.496500  0.132800  0.445400  1.0  -0.0554
  C  C594  1  0.490200  0.126300  0.502200  1.0  0.7659
  C  C595  1  0.496500  0.632800  0.945400  1.0  -0.0554
  C  C596  1  0.490200  0.626300  0.002200  1.0  0.7659
  C  C597  1  0.996500  0.132800  0.945400  1.0  -0.0554
  C  C598  1  0.990200  0.126300  0.002200  1.0  0.7659
  C  C599  1  0.996500  0.632800  0.445400  1.0  -0.0554
  C  C600  1  0.990200  0.626300  0.502200  1.0  0.7659
  C  C601  1  0.253500  0.632800  0.804600  1.0  -0.0551
  C  C602  1  0.259800  0.626300  0.747800  1.0  0.7651
  C  C603  1  0.253500  0.132800  0.304600  1.0  -0.0551
  C  C604  1  0.259800  0.126300  0.247800  1.0  0.7651
  C  C605  1  0.753500  0.632800  0.304600  1.0  -0.0551
  C  C606  1  0.759800  0.626300  0.247800  1.0  0.7651
  C  C607  1  0.753500  0.132800  0.804600  1.0  -0.0551
  C  C608  1  0.759800  0.126300  0.747800  1.0  0.7651
  C  C609  1  0.117200  0.304600  0.996500  1.0  -0.0524
  C  C610  1  0.123700  0.247800  0.990200  1.0  0.7566
  C  C611  1  0.117200  0.804600  0.496500  1.0  -0.0524
  C  C612  1  0.123700  0.747800  0.490200  1.0  0.7566
  C  C613  1  0.617200  0.304600  0.496500  1.0  -0.0524
  C  C614  1  0.623700  0.247800  0.490200  1.0  0.7566
  C  C615  1  0.617200  0.804600  0.996500  1.0  -0.0524
  C  C616  1  0.623700  0.747800  0.990200  1.0  0.7566
  C  C617  1  0.617200  0.945400  0.753500  1.0  -0.0529
  C  C618  1  0.623700  0.002200  0.759800  1.0  0.7565
  C  C619  1  0.617200  0.445400  0.253500  1.0  -0.0529
  C  C620  1  0.623700  0.502200  0.259800  1.0  0.7565
  C  C621  1  0.117200  0.945400  0.253500  1.0  -0.0529
  C  C622  1  0.123700  0.002200  0.259800  1.0  0.7565
  C  C623  1  0.117200  0.445400  0.753500  1.0  -0.0529
  C  C624  1  0.123700  0.502200  0.759800  1.0  0.7565
  C  C625  1  0.632800  0.804600  0.253500  1.0  -0.0521
  C  C626  1  0.626300  0.747800  0.259800  1.0  0.7572
  C  C627  1  0.632800  0.304600  0.753500  1.0  -0.0521
  C  C628  1  0.626300  0.247800  0.759800  1.0  0.7572
  C  C629  1  0.132800  0.804600  0.753500  1.0  -0.0521
  C  C630  1  0.126300  0.747800  0.759800  1.0  0.7572
  C  C631  1  0.132800  0.304600  0.253500  1.0  -0.0521
  C  C632  1  0.126300  0.247800  0.259800  1.0  0.7572
  C  C633  1  0.132800  0.445400  0.496500  1.0  -0.0535
  C  C634  1  0.126300  0.502200  0.490200  1.0  0.7569
  C  C635  1  0.132800  0.945400  0.996500  1.0  -0.0535
  C  C636  1  0.126300  0.002200  0.990200  1.0  0.7569
  C  C637  1  0.632800  0.445400  0.996500  1.0  -0.0535
  C  C638  1  0.626300  0.502200  0.990200  1.0  0.7569
  C  C639  1  0.632800  0.945400  0.496500  1.0  -0.0535
  C  C640  1  0.626300  0.002200  0.490200  1.0  0.7569
  C  C641  1  0.996500  0.945400  0.632800  1.0  -0.0528
  C  C642  1  0.990200  0.002200  0.626300  1.0  0.7568
  C  C643  1  0.996500  0.445400  0.132800  1.0  -0.0528
  C  C644  1  0.990200  0.502200  0.126300  1.0  0.7568
  C  C645  1  0.496500  0.945400  0.132800  1.0  -0.0528
  C  C646  1  0.490200  0.002200  0.126300  1.0  0.7568
  C  C647  1  0.496500  0.445400  0.632800  1.0  -0.0528
  C  C648  1  0.490200  0.502200  0.626300  1.0  0.7568
  C  C649  1  0.753500  0.304600  0.132800  1.0  -0.0527
  C  C650  1  0.759800  0.247800  0.126300  1.0  0.7566
  C  C651  1  0.753500  0.804600  0.632800  1.0  -0.0527
  C  C652  1  0.759800  0.747800  0.626300  1.0  0.7566
  C  C653  1  0.253500  0.304600  0.632800  1.0  -0.0527
  C  C654  1  0.259800  0.247800  0.626300  1.0  0.7566
  C  C655  1  0.253500  0.804600  0.132800  1.0  -0.0527
  C  C656  1  0.259800  0.747800  0.126300  1.0  0.7566
  C  C657  1  0.253500  0.445400  0.117200  1.0  -0.0533
  C  C658  1  0.259800  0.502200  0.123700  1.0  0.7566
  C  C659  1  0.253500  0.945400  0.617200  1.0  -0.0533
  C  C660  1  0.259800  0.002200  0.623700  1.0  0.7566
  C  C661  1  0.753500  0.445400  0.617200  1.0  -0.0533
  C  C662  1  0.759800  0.502200  0.623700  1.0  0.7566
  C  C663  1  0.753500  0.945400  0.117200  1.0  -0.0533
  C  C664  1  0.759800  0.002200  0.123700  1.0  0.7566
  C  C665  1  0.496500  0.804600  0.617200  1.0  -0.0512
  C  C666  1  0.490200  0.747800  0.623700  1.0  0.7575
  C  C667  1  0.496500  0.304600  0.117200  1.0  -0.0512
  C  C668  1  0.490200  0.247800  0.123700  1.0  0.7575
  C  C669  1  0.996500  0.804600  0.117200  1.0  -0.0512
  C  C670  1  0.990200  0.747800  0.123700  1.0  0.7575
  C  C671  1  0.996500  0.304600  0.617200  1.0  -0.0512
  C  C672  1  0.990200  0.247800  0.623700  1.0  0.7575
  C  C673  1  0.632800  0.996500  0.945400  1.0  -0.0556
  C  C674  1  0.626300  0.990200  0.002200  1.0  0.7658
  C  C675  1  0.632800  0.496500  0.445400  1.0  -0.0556
  C  C676  1  0.626300  0.490200  0.502200  1.0  0.7658
  C  C677  1  0.132800  0.996500  0.445400  1.0  -0.0556
  C  C678  1  0.126300  0.990200  0.502200  1.0  0.7658
  C  C679  1  0.132800  0.496500  0.945400  1.0  -0.0556
  C  C680  1  0.126300  0.490200  0.002200  1.0  0.7658
  C  C681  1  0.132800  0.753500  0.304600  1.0  -0.0538
  C  C682  1  0.126300  0.759800  0.247800  1.0  0.765
  C  C683  1  0.132800  0.253500  0.804600  1.0  -0.0538
  C  C684  1  0.126300  0.259800  0.747800  1.0  0.765
  C  C685  1  0.632800  0.753500  0.804600  1.0  -0.0538
  C  C686  1  0.626300  0.759800  0.747800  1.0  0.765
  C  C687  1  0.632800  0.253500  0.304600  1.0  -0.0538
  C  C688  1  0.626300  0.259800  0.247800  1.0  0.765
  C  C689  1  0.117200  0.253500  0.445400  1.0  -0.0551
  C  C690  1  0.123700  0.259800  0.502200  1.0  0.765
  C  C691  1  0.117200  0.753500  0.945400  1.0  -0.0551
  C  C692  1  0.123700  0.759800  0.002200  1.0  0.765
  C  C693  1  0.617200  0.253500  0.945400  1.0  -0.0551
  C  C694  1  0.623700  0.259800  0.002200  1.0  0.765
  C  C695  1  0.617200  0.753500  0.445400  1.0  -0.0551
  C  C696  1  0.623700  0.759800  0.502200  1.0  0.765
  C  C697  1  0.617200  0.496500  0.804600  1.0  -0.0542
  C  C698  1  0.623700  0.490200  0.747800  1.0  0.7643
  C  C699  1  0.617200  0.996500  0.304600  1.0  -0.0542
  C  C700  1  0.623700  0.990200  0.247800  1.0  0.7643
  C  C701  1  0.117200  0.496500  0.304600  1.0  -0.0542
  C  C702  1  0.123700  0.490200  0.247800  1.0  0.7643
  C  C703  1  0.117200  0.996500  0.804600  1.0  -0.0542
  C  C704  1  0.123700  0.990200  0.747800  1.0  0.7643
  C  C705  1  0.945400  0.632800  0.996500  1.0  -0.0551
  C  C706  1  0.002200  0.626300  0.990200  1.0  0.7559
  C  C707  1  0.945400  0.132800  0.496500  1.0  -0.0551
  C  C708  1  0.002200  0.126300  0.490200  1.0  0.7559
  C  C709  1  0.445400  0.632800  0.496500  1.0  -0.0551
  C  C710  1  0.502200  0.626300  0.490200  1.0  0.7559
  C  C711  1  0.445400  0.132800  0.996500  1.0  -0.0551
  C  C712  1  0.502200  0.126300  0.990200  1.0  0.7559
  C  C713  1  0.304600  0.132800  0.753500  1.0  -0.0554
  C  C714  1  0.247800  0.126300  0.759800  1.0  0.757
  C  C715  1  0.304600  0.632800  0.253500  1.0  -0.0554
  C  C716  1  0.247800  0.626300  0.259800  1.0  0.757
  C  C717  1  0.804600  0.132800  0.253500  1.0  -0.0554
  C  C718  1  0.747800  0.126300  0.259800  1.0  0.757
  C  C719  1  0.804600  0.632800  0.753500  1.0  -0.0554
  C  C720  1  0.747800  0.626300  0.759800  1.0  0.757
  C  C721  1  0.445400  0.117200  0.253500  1.0  -0.0541
  C  C722  1  0.502200  0.123700  0.259800  1.0  0.7557
  C  C723  1  0.445400  0.617200  0.753500  1.0  -0.0541
  C  C724  1  0.502200  0.623700  0.759800  1.0  0.7557
  C  C725  1  0.945400  0.117200  0.753500  1.0  -0.0541
  C  C726  1  0.002200  0.123700  0.759800  1.0  0.7557
  C  C727  1  0.945400  0.617200  0.253500  1.0  -0.0541
  C  C728  1  0.002200  0.623700  0.259800  1.0  0.7557
  C  C729  1  0.804600  0.617200  0.496500  1.0  -0.0548
  C  C730  1  0.747800  0.623700  0.490200  1.0  0.757
  C  C731  1  0.804600  0.117200  0.996500  1.0  -0.0548
  C  C732  1  0.747800  0.123700  0.990200  1.0  0.757
  C  C733  1  0.304600  0.617200  0.996500  1.0  -0.0548
  C  C734  1  0.247800  0.623700  0.990200  1.0  0.757
  C  C735  1  0.304600  0.117200  0.496500  1.0  -0.0548
  C  C736  1  0.247800  0.123700  0.490200  1.0  0.757
  C  C737  1  0.195400  0.746500  0.367200  1.0  -0.0539
  C  C738  1  0.252200  0.740200  0.373700  1.0  0.7552
  C  C739  1  0.195400  0.246500  0.867200  1.0  -0.0539
  C  C740  1  0.252200  0.240200  0.873700  1.0  0.7552
  C  C741  1  0.695400  0.746500  0.867200  1.0  -0.0539
  C  C742  1  0.752200  0.740200  0.873700  1.0  0.7552
  C  C743  1  0.695400  0.246500  0.367200  1.0  -0.0539
  C  C744  1  0.752200  0.240200  0.373700  1.0  0.7552
  C  C745  1  0.554600  0.503500  0.867200  1.0  -0.0542
  C  C746  1  0.497800  0.509800  0.873700  1.0  0.7563
  C  C747  1  0.554600  0.003500  0.367200  1.0  -0.0542
  C  C748  1  0.497800  0.009800  0.373700  1.0  0.7563
  C  C749  1  0.054600  0.503500  0.367200  1.0  -0.0542
  C  C750  1  0.997800  0.509800  0.373700  1.0  0.7563
  C  C751  1  0.054600  0.003500  0.867200  1.0  -0.0542
  C  C752  1  0.997800  0.009800  0.873700  1.0  0.7563
  C  C753  1  0.695400  0.003500  0.882800  1.0  -0.0539
  C  C754  1  0.752200  0.009800  0.876300  1.0  0.7553
  C  C755  1  0.695400  0.503500  0.382800  1.0  -0.0539
  C  C756  1  0.752200  0.509800  0.376300  1.0  0.7553
  C  C757  1  0.195400  0.003500  0.382800  1.0  -0.0539
  C  C758  1  0.252200  0.009800  0.376300  1.0  0.7553
  C  C759  1  0.195400  0.503500  0.882800  1.0  -0.0539
  C  C760  1  0.252200  0.509800  0.876300  1.0  0.7553
  C  C761  1  0.054600  0.246500  0.382800  1.0  -0.0551
  C  C762  1  0.997800  0.240200  0.376300  1.0  0.7566
  C  C763  1  0.054600  0.746500  0.882800  1.0  -0.0551
  C  C764  1  0.997800  0.740200  0.876300  1.0  0.7566
  C  C765  1  0.554600  0.246500  0.882800  1.0  -0.0551
  C  C766  1  0.497800  0.240200  0.876300  1.0  0.7566
  C  C767  1  0.554600  0.746500  0.382800  1.0  -0.0551
  C  C768  1  0.497800  0.740200  0.376300  1.0  0.7566
  C  C769  1  0.246500  0.382800  0.054600  1.0  -0.0544
  C  C770  1  0.240200  0.376300  0.997800  1.0  0.7657
  C  C771  1  0.246500  0.882800  0.554600  1.0  -0.0544
  C  C772  1  0.240200  0.876300  0.497800  1.0  0.7657
  C  C773  1  0.746500  0.382800  0.554600  1.0  -0.0544
  C  C774  1  0.740200  0.376300  0.497800  1.0  0.7657
  C  C775  1  0.746500  0.882800  0.054600  1.0  -0.0544
  C  C776  1  0.740200  0.876300  0.997800  1.0  0.7657
  C  C777  1  0.003500  0.882800  0.695400  1.0  -0.0562
  C  C778  1  0.009800  0.876300  0.752200  1.0  0.765
  C  C779  1  0.003500  0.382800  0.195400  1.0  -0.0562
  C  C780  1  0.009800  0.376300  0.252200  1.0  0.765
  C  C781  1  0.503500  0.882800  0.195400  1.0  -0.0562
  C  C782  1  0.509800  0.876300  0.252200  1.0  0.765
  C  C783  1  0.503500  0.382800  0.695400  1.0  -0.0562
  C  C784  1  0.509800  0.376300  0.752200  1.0  0.765
  C  C785  1  0.503500  0.867200  0.554600  1.0  -0.0546
  C  C786  1  0.509800  0.873700  0.497800  1.0  0.765
  C  C787  1  0.503500  0.367200  0.054600  1.0  -0.0546
  C  C788  1  0.509800  0.373700  0.997800  1.0  0.765
  C  C789  1  0.003500  0.867200  0.054600  1.0  -0.0546
  C  C790  1  0.009800  0.873700  0.997800  1.0  0.765
  C  C791  1  0.003500  0.367200  0.554600  1.0  -0.0546
  C  C792  1  0.009800  0.373700  0.497800  1.0  0.765
  C  C793  1  0.746500  0.367200  0.195400  1.0  -0.0549
  C  C794  1  0.740200  0.373700  0.252200  1.0  0.7661
  C  C795  1  0.746500  0.867200  0.695400  1.0  -0.0549
  C  C796  1  0.740200  0.873700  0.752200  1.0  0.7661
  C  C797  1  0.246500  0.367200  0.695400  1.0  -0.0549
  C  C798  1  0.240200  0.373700  0.752200  1.0  0.7661
  C  C799  1  0.246500  0.867200  0.195400  1.0  -0.0549
  C  C800  1  0.240200  0.873700  0.252200  1.0  0.7661
  C  C801  1  0.882800  0.695400  0.003500  1.0  -0.053
  C  C802  1  0.876300  0.752200  0.009800  1.0  0.7567
  C  C803  1  0.882800  0.195400  0.503500  1.0  -0.053
  C  C804  1  0.876300  0.252200  0.509800  1.0  0.7567
  C  C805  1  0.382800  0.695400  0.503500  1.0  -0.053
  C  C806  1  0.376300  0.752200  0.509800  1.0  0.7567
  C  C807  1  0.382800  0.195400  0.003500  1.0  -0.053
  C  C808  1  0.376300  0.252200  0.009800  1.0  0.7567
  C  C809  1  0.382800  0.054600  0.246500  1.0  -0.0523
  C  C810  1  0.376300  0.997800  0.240200  1.0  0.757
  C  C811  1  0.382800  0.554600  0.746500  1.0  -0.0523
  C  C812  1  0.376300  0.497800  0.740200  1.0  0.757
  C  C813  1  0.882800  0.054600  0.746500  1.0  -0.0523
  C  C814  1  0.876300  0.997800  0.740200  1.0  0.757
  C  C815  1  0.882800  0.554600  0.246500  1.0  -0.0523
  C  C816  1  0.876300  0.497800  0.240200  1.0  0.757
  C  C817  1  0.367200  0.195400  0.746500  1.0  -0.0533
  C  C818  1  0.373700  0.252200  0.740200  1.0  0.7565
  C  C819  1  0.367200  0.695400  0.246500  1.0  -0.0533
  C  C820  1  0.373700  0.752200  0.240200  1.0  0.7565
  C  C821  1  0.867200  0.195400  0.246500  1.0  -0.0533
  C  C822  1  0.873700  0.252200  0.240200  1.0  0.7565
  C  C823  1  0.867200  0.695400  0.746500  1.0  -0.0533
  C  C824  1  0.873700  0.752200  0.740200  1.0  0.7565
  C  C825  1  0.867200  0.554600  0.503500  1.0  -0.0523
  C  C826  1  0.873700  0.497800  0.509800  1.0  0.7569
  C  C827  1  0.867200  0.054600  0.003500  1.0  -0.0523
  C  C828  1  0.873700  0.997800  0.009800  1.0  0.7569
  C  C829  1  0.367200  0.554600  0.003500  1.0  -0.0523
  C  C830  1  0.373700  0.497800  0.009800  1.0  0.7569
  C  C831  1  0.367200  0.054600  0.503500  1.0  -0.0523
  C  C832  1  0.373700  0.997800  0.509800  1.0  0.7569
  O  O833  1  0.008900  0.970300  0.334900  1.0  -0.6188
  O  O834  1  0.014300  0.978600  0.417400  1.0  -0.6646
  O  O835  1  0.008900  0.470300  0.834900  1.0  -0.6188
  O  O836  1  0.014300  0.478600  0.917400  1.0  -0.6654
  O  O837  1  0.508900  0.970300  0.834900  1.0  -0.6188
  O  O838  1  0.514300  0.978600  0.917400  1.0  -0.6645
  O  O839  1  0.508900  0.470300  0.334900  1.0  -0.6188
  O  O840  1  0.514300  0.478600  0.417400  1.0  -0.6654
  O  O841  1  0.241100  0.779700  0.834900  1.0  -0.6184
  O  O842  1  0.235700  0.771400  0.917400  1.0  -0.6672
  O  O843  1  0.241100  0.279700  0.334900  1.0  -0.6184
  O  O844  1  0.235700  0.271400  0.417400  1.0  -0.6672
  O  O845  1  0.741100  0.779700  0.334900  1.0  -0.6184
  O  O846  1  0.735700  0.771400  0.417400  1.0  -0.6672
  O  O847  1  0.741100  0.279700  0.834900  1.0  -0.6184
  O  O848  1  0.735700  0.271400  0.917400  1.0  -0.6672
  O  O849  1  0.741100  0.470300  0.915100  1.0  -0.6199
  O  O850  1  0.735700  0.478600  0.832600  1.0  -0.6666
  O  O851  1  0.741100  0.970300  0.415100  1.0  -0.6199
  O  O852  1  0.735700  0.978600  0.332600  1.0  -0.6661
  O  O853  1  0.241100  0.470300  0.415100  1.0  -0.6199
  O  O854  1  0.235700  0.478600  0.332600  1.0  -0.6666
  O  O855  1  0.241100  0.970300  0.915100  1.0  -0.6199
  O  O856  1  0.235700  0.978600  0.832600  1.0  -0.6661
  O  O857  1  0.508900  0.279700  0.415100  1.0  -0.6202
  O  O858  1  0.514300  0.271400  0.332600  1.0  -0.666
  O  O859  1  0.508900  0.779700  0.915100  1.0  -0.6202
  O  O860  1  0.514300  0.771400  0.832600  1.0  -0.666
  O  O861  1  0.008900  0.279700  0.915100  1.0  -0.6202
  O  O862  1  0.014300  0.271400  0.832600  1.0  -0.666
  O  O863  1  0.008900  0.779700  0.415100  1.0  -0.6202
  O  O864  1  0.014300  0.771400  0.332600  1.0  -0.666
  O  O865  1  0.334900  0.008900  0.970300  1.0  -0.623
  O  O866  1  0.417400  0.014300  0.978600  1.0  -0.6656
  O  O867  1  0.334900  0.508900  0.470300  1.0  -0.623
  O  O868  1  0.417400  0.514300  0.478600  1.0  -0.6661
  O  O869  1  0.834900  0.008900  0.470300  1.0  -0.623
  O  O870  1  0.917400  0.014300  0.478600  1.0  -0.6661
  O  O871  1  0.834900  0.508900  0.970300  1.0  -0.623
  O  O872  1  0.917400  0.514300  0.978600  1.0  -0.6648
  O  O873  1  0.834900  0.241100  0.779700  1.0  -0.6239
  O  O874  1  0.917400  0.235700  0.771400  1.0  -0.6677
  O  O875  1  0.834900  0.741100  0.279700  1.0  -0.6239
  O  O876  1  0.917400  0.735700  0.271400  1.0  -0.6677
  O  O877  1  0.334900  0.241100  0.279700  1.0  -0.6239
  O  O878  1  0.417400  0.235700  0.271400  1.0  -0.6677
  O  O879  1  0.334900  0.741100  0.779700  1.0  -0.6239
  O  O880  1  0.417400  0.735700  0.771400  1.0  -0.6677
  O  O881  1  0.915100  0.741100  0.470300  1.0  -0.6225
  O  O882  1  0.832600  0.735700  0.478600  1.0  -0.6666
  O  O883  1  0.915100  0.241100  0.970300  1.0  -0.6225
  O  O884  1  0.832600  0.235700  0.978600  1.0  -0.6654
  O  O885  1  0.415100  0.741100  0.970300  1.0  -0.6225
  O  O886  1  0.332600  0.735700  0.978600  1.0  -0.6654
  O  O887  1  0.415100  0.241100  0.470300  1.0  -0.6225
  O  O888  1  0.332600  0.235700  0.478600  1.0  -0.6666
  O  O889  1  0.415100  0.508900  0.279700  1.0  -0.6225
  O  O890  1  0.332600  0.514300  0.271400  1.0  -0.6672
  O  O891  1  0.415100  0.008900  0.779700  1.0  -0.6225
  O  O892  1  0.332600  0.014300  0.771400  1.0  -0.6672
  O  O893  1  0.915100  0.508900  0.779700  1.0  -0.6225
  O  O894  1  0.832600  0.514300  0.771400  1.0  -0.6672
  O  O895  1  0.915100  0.008900  0.279700  1.0  -0.6225
  O  O896  1  0.832600  0.014300  0.271400  1.0  -0.6672
  O  O897  1  0.970300  0.334900  0.008900  1.0  -0.6187
  O  O898  1  0.978600  0.417400  0.014300  1.0  -0.6649
  O  O899  1  0.970300  0.834900  0.508900  1.0  -0.6187
  O  O900  1  0.978600  0.917400  0.514300  1.0  -0.6649
  O  O901  1  0.470300  0.334900  0.508900  1.0  -0.6187
  O  O902  1  0.478600  0.417400  0.514300  1.0  -0.6658
  O  O903  1  0.470300  0.834900  0.008900  1.0  -0.6187
  O  O904  1  0.478600  0.917400  0.014300  1.0  -0.6658
  O  O905  1  0.779700  0.834900  0.241100  1.0  -0.6192
  O  O906  1  0.771400  0.917400  0.235700  1.0  -0.6651
  O  O907  1  0.779700  0.334900  0.741100  1.0  -0.6192
  O  O908  1  0.771400  0.417400  0.735700  1.0  -0.6651
  O  O909  1  0.279700  0.834900  0.741100  1.0  -0.6192
  O  O910  1  0.271400  0.917400  0.735700  1.0  -0.6651
  O  O911  1  0.279700  0.334900  0.241100  1.0  -0.6192
  O  O912  1  0.271400  0.417400  0.235700  1.0  -0.6651
  O  O913  1  0.470300  0.915100  0.741100  1.0  -0.6172
  O  O914  1  0.478600  0.832600  0.735700  1.0  -0.6673
  O  O915  1  0.470300  0.415100  0.241100  1.0  -0.6172
  O  O916  1  0.478600  0.332600  0.235700  1.0  -0.6673
  O  O917  1  0.970300  0.915100  0.241100  1.0  -0.6172
  O  O918  1  0.978600  0.832600  0.235700  1.0  -0.6662
  O  O919  1  0.970300  0.415100  0.741100  1.0  -0.6172
  O  O920  1  0.978600  0.332600  0.735700  1.0  -0.6662
  O  O921  1  0.279700  0.415100  0.508900  1.0  -0.6193
  O  O922  1  0.271400  0.332600  0.514300  1.0  -0.6647
  O  O923  1  0.279700  0.915100  0.008900  1.0  -0.6193
  O  O924  1  0.271400  0.832600  0.014300  1.0  -0.6647
  O  O925  1  0.779700  0.415100  0.008900  1.0  -0.6193
  O  O926  1  0.771400  0.332600  0.014300  1.0  -0.6647
  O  O927  1  0.779700  0.915100  0.508900  1.0  -0.6193
  O  O928  1  0.771400  0.832600  0.514300  1.0  -0.6647
  O  O929  1  0.720300  0.258900  0.665100  1.0  -0.62
  O  O930  1  0.728600  0.264300  0.582600  1.0  -0.6655
  O  O931  1  0.720300  0.758900  0.165100  1.0  -0.62
  O  O932  1  0.728600  0.764300  0.082600  1.0  -0.6655
  O  O933  1  0.220300  0.258900  0.165100  1.0  -0.62
  O  O934  1  0.228600  0.264300  0.082600  1.0  -0.6655
  O  O935  1  0.220300  0.758900  0.665100  1.0  -0.62
  O  O936  1  0.228600  0.764300  0.582600  1.0  -0.6655
  O  O937  1  0.529700  0.491100  0.165100  1.0  -0.6205
  O  O938  1  0.521400  0.485700  0.082600  1.0  -0.6646
  O  O939  1  0.529700  0.991100  0.665100  1.0  -0.6205
  O  O940  1  0.521400  0.985700  0.582600  1.0  -0.6646
  O  O941  1  0.029700  0.491100  0.665100  1.0  -0.6205
  O  O942  1  0.021400  0.485700  0.582600  1.0  -0.6646
  O  O943  1  0.029700  0.991100  0.165100  1.0  -0.6205
  O  O944  1  0.021400  0.985700  0.082600  1.0  -0.6655
  O  O945  1  0.220300  0.991100  0.084900  1.0  -0.6198
  O  O946  1  0.228600  0.985700  0.167400  1.0  -0.6668
  O  O947  1  0.220300  0.491100  0.584900  1.0  -0.6198
  O  O948  1  0.228600  0.485700  0.667400  1.0  -0.6668
  O  O949  1  0.720300  0.991100  0.584900  1.0  -0.6198
  O  O950  1  0.728600  0.985700  0.667400  1.0  -0.6668
  O  O951  1  0.720300  0.491100  0.084900  1.0  -0.6198
  O  O952  1  0.728600  0.485700  0.167400  1.0  -0.6668
  O  O953  1  0.029700  0.758900  0.584900  1.0  -0.621
  O  O954  1  0.021400  0.764300  0.667400  1.0  -0.6646
  O  O955  1  0.029700  0.258900  0.084900  1.0  -0.621
  O  O956  1  0.021400  0.264300  0.167400  1.0  -0.6646
  O  O957  1  0.529700  0.758900  0.084900  1.0  -0.621
  O  O958  1  0.521400  0.764300  0.167400  1.0  -0.6646
  O  O959  1  0.529700  0.258900  0.584900  1.0  -0.621
  O  O960  1  0.521400  0.264300  0.667400  1.0  -0.6646
  O  O961  1  0.758900  0.584900  0.029700  1.0  -0.6244
  O  O962  1  0.764300  0.667400  0.021400  1.0  -0.6693
  O  O963  1  0.758900  0.084900  0.529700  1.0  -0.6244
  O  O964  1  0.764300  0.167400  0.521400  1.0  -0.6693
  O  O965  1  0.258900  0.584900  0.529700  1.0  -0.6244
  O  O966  1  0.264300  0.667400  0.521400  1.0  -0.6693
  O  O967  1  0.258900  0.084900  0.029700  1.0  -0.6244
  O  O968  1  0.264300  0.167400  0.021400  1.0  -0.6693
  O  O969  1  0.991100  0.084900  0.220300  1.0  -0.624
  O  O970  1  0.985700  0.167400  0.228600  1.0  -0.6691
  O  O971  1  0.991100  0.584900  0.720300  1.0  -0.624
  O  O972  1  0.985700  0.667400  0.728600  1.0  -0.6691
  O  O973  1  0.491100  0.084900  0.720300  1.0  -0.624
  O  O974  1  0.485700  0.167400  0.728600  1.0  -0.6691
  O  O975  1  0.491100  0.584900  0.220300  1.0  -0.624
  O  O976  1  0.485700  0.667400  0.228600  1.0  -0.6691
  O  O977  1  0.491100  0.165100  0.529700  1.0  -0.6232
  O  O978  1  0.485700  0.082600  0.521400  1.0  -0.6707
  O  O979  1  0.491100  0.665100  0.029700  1.0  -0.6232
  O  O980  1  0.485700  0.582600  0.021400  1.0  -0.6707
  O  O981  1  0.991100  0.165100  0.029700  1.0  -0.6232
  O  O982  1  0.985700  0.082600  0.021400  1.0  -0.6707
  O  O983  1  0.991100  0.665100  0.529700  1.0  -0.6232
  O  O984  1  0.985700  0.582600  0.521400  1.0  -0.6707
  O  O985  1  0.258900  0.665100  0.720300  1.0  -0.6221
  O  O986  1  0.264300  0.582600  0.728600  1.0  -0.6684
  O  O987  1  0.258900  0.165100  0.220300  1.0  -0.6221
  O  O988  1  0.264300  0.082600  0.228600  1.0  -0.6684
  O  O989  1  0.758900  0.665100  0.220300  1.0  -0.6221
  O  O990  1  0.764300  0.582600  0.228600  1.0  -0.6684
  O  O991  1  0.758900  0.165100  0.720300  1.0  -0.6221
  O  O992  1  0.764300  0.082600  0.728600  1.0  -0.6684
  O  O993  1  0.084900  0.220300  0.991100  1.0  -0.6173
  O  O994  1  0.167400  0.228600  0.985700  1.0  -0.6643
  O  O995  1  0.084900  0.720300  0.491100  1.0  -0.6173
  O  O996  1  0.167400  0.728600  0.485700  1.0  -0.6643
  O  O997  1  0.584900  0.220300  0.491100  1.0  -0.6173
  O  O998  1  0.667400  0.228600  0.485700  1.0  -0.6643
  O  O999  1  0.584900  0.720300  0.991100  1.0  -0.6173
  O  O1000  1  0.667400  0.728600  0.985700  1.0  -0.6643
  O  O1001  1  0.584900  0.029700  0.758900  1.0  -0.6167
  O  O1002  1  0.667400  0.021400  0.764300  1.0  -0.6648
  O  O1003  1  0.584900  0.529700  0.258900  1.0  -0.6167
  O  O1004  1  0.667400  0.521400  0.264300  1.0  -0.6648
  O  O1005  1  0.084900  0.029700  0.258900  1.0  -0.6167
  O  O1006  1  0.167400  0.021400  0.264300  1.0  -0.6648
  O  O1007  1  0.084900  0.529700  0.758900  1.0  -0.6167
  O  O1008  1  0.167400  0.521400  0.764300  1.0  -0.6648
  O  O1009  1  0.665100  0.720300  0.258900  1.0  -0.6164
  O  O1010  1  0.582600  0.728600  0.264300  1.0  -0.6648
  O  O1011  1  0.665100  0.220300  0.758900  1.0  -0.6164
  O  O1012  1  0.582600  0.228600  0.764300  1.0  -0.6648
  O  O1013  1  0.165100  0.720300  0.758900  1.0  -0.6164
  O  O1014  1  0.082600  0.728600  0.764300  1.0  -0.6648
  O  O1015  1  0.165100  0.220300  0.258900  1.0  -0.6164
  O  O1016  1  0.082600  0.228600  0.264300  1.0  -0.6648
  O  O1017  1  0.165100  0.529700  0.491100  1.0  -0.6161
  O  O1018  1  0.082600  0.521400  0.485700  1.0  -0.665
  O  O1019  1  0.165100  0.029700  0.991100  1.0  -0.6161
  O  O1020  1  0.082600  0.021400  0.985700  1.0  -0.6651
  O  O1021  1  0.665100  0.529700  0.991100  1.0  -0.6161
  O  O1022  1  0.582600  0.521400  0.985700  1.0  -0.665
  O  O1023  1  0.665100  0.029700  0.491100  1.0  -0.6161
  O  O1024  1  0.582600  0.021400  0.485700  1.0  -0.665
  O  O1025  1  0.991100  0.029700  0.665100  1.0  -0.619
  O  O1026  1  0.985700  0.021400  0.582600  1.0  -0.6664
  O  O1027  1  0.991100  0.529700  0.165100  1.0  -0.619
  O  O1028  1  0.985700  0.521400  0.082600  1.0  -0.6664
  O  O1029  1  0.491100  0.029700  0.165100  1.0  -0.619
  O  O1030  1  0.485700  0.021400  0.082600  1.0  -0.6668
  O  O1031  1  0.491100  0.529700  0.665100  1.0  -0.619
  O  O1032  1  0.485700  0.521400  0.582600  1.0  -0.6668
  O  O1033  1  0.758900  0.220300  0.165100  1.0  -0.6194
  O  O1034  1  0.764300  0.228600  0.082600  1.0  -0.6656
  O  O1035  1  0.758900  0.720300  0.665100  1.0  -0.6194
  O  O1036  1  0.764300  0.728600  0.582600  1.0  -0.6656
  O  O1037  1  0.258900  0.220300  0.665100  1.0  -0.6194
  O  O1038  1  0.264300  0.228600  0.582600  1.0  -0.6656
  O  O1039  1  0.258900  0.720300  0.165100  1.0  -0.6194
  O  O1040  1  0.264300  0.728600  0.082600  1.0  -0.6656
  O  O1041  1  0.258900  0.529700  0.084900  1.0  -0.6196
  O  O1042  1  0.264300  0.521400  0.167400  1.0  -0.6661
  O  O1043  1  0.258900  0.029700  0.584900  1.0  -0.6196
  O  O1044  1  0.264300  0.021400  0.667400  1.0  -0.6661
  O  O1045  1  0.758900  0.529700  0.584900  1.0  -0.6196
  O  O1046  1  0.764300  0.521400  0.667400  1.0  -0.6661
  O  O1047  1  0.758900  0.029700  0.084900  1.0  -0.6196
  O  O1048  1  0.764300  0.021400  0.167400  1.0  -0.6661
  O  O1049  1  0.491100  0.720300  0.584900  1.0  -0.6195
  O  O1050  1  0.485700  0.728600  0.667400  1.0  -0.6674
  O  O1051  1  0.491100  0.220300  0.084900  1.0  -0.6195
  O  O1052  1  0.485700  0.228600  0.167400  1.0  -0.6674
  O  O1053  1  0.991100  0.720300  0.084900  1.0  -0.6195
  O  O1054  1  0.985700  0.728600  0.167400  1.0  -0.667
  O  O1055  1  0.991100  0.220300  0.584900  1.0  -0.6195
  O  O1056  1  0.985700  0.228600  0.667400  1.0  -0.667
  O  O1057  1  0.665100  0.991100  0.029700  1.0  -0.6233
  O  O1058  1  0.582600  0.985700  0.021400  1.0  -0.6678
  O  O1059  1  0.665100  0.491100  0.529700  1.0  -0.6233
  O  O1060  1  0.582600  0.485700  0.521400  1.0  -0.6678
  O  O1061  1  0.165100  0.991100  0.529700  1.0  -0.6233
  O  O1062  1  0.082600  0.985700  0.521400  1.0  -0.6678
  O  O1063  1  0.165100  0.491100  0.029700  1.0  -0.6233
  O  O1064  1  0.082600  0.485700  0.021400  1.0  -0.6678
  O  O1065  1  0.165100  0.758900  0.220300  1.0  -0.6224
  O  O1066  1  0.082600  0.764300  0.228600  1.0  -0.6663
  O  O1067  1  0.165100  0.258900  0.720300  1.0  -0.6224
  O  O1068  1  0.082600  0.264300  0.728600  1.0  -0.6663
  O  O1069  1  0.665100  0.758900  0.720300  1.0  -0.6224
  O  O1070  1  0.582600  0.764300  0.728600  1.0  -0.6663
  O  O1071  1  0.665100  0.258900  0.220300  1.0  -0.6224
  O  O1072  1  0.582600  0.264300  0.228600  1.0  -0.6663
  O  O1073  1  0.084900  0.258900  0.529700  1.0  -0.6234
  O  O1074  1  0.167400  0.264300  0.521400  1.0  -0.6669
  O  O1075  1  0.084900  0.758900  0.029700  1.0  -0.6234
  O  O1076  1  0.167400  0.764300  0.021400  1.0  -0.6669
  O  O1077  1  0.584900  0.258900  0.029700  1.0  -0.6234
  O  O1078  1  0.667400  0.264300  0.021400  1.0  -0.6669
  O  O1079  1  0.584900  0.758900  0.529700  1.0  -0.6234
  O  O1080  1  0.667400  0.764300  0.521400  1.0  -0.6669
  O  O1081  1  0.584900  0.491100  0.720300  1.0  -0.6229
  O  O1082  1  0.667400  0.485700  0.728600  1.0  -0.6665
  O  O1083  1  0.584900  0.991100  0.220300  1.0  -0.6229
  O  O1084  1  0.667400  0.985700  0.228600  1.0  -0.6666
  O  O1085  1  0.084900  0.491100  0.220300  1.0  -0.6229
  O  O1086  1  0.167400  0.485700  0.228600  1.0  -0.6665
  O  O1087  1  0.084900  0.991100  0.720300  1.0  -0.6229
  O  O1088  1  0.167400  0.985700  0.728600  1.0  -0.6666
  O  O1089  1  0.029700  0.665100  0.991100  1.0  -0.6191
  O  O1090  1  0.021400  0.582600  0.985700  1.0  -0.6661
  O  O1091  1  0.029700  0.165100  0.491100  1.0  -0.6191
  O  O1092  1  0.021400  0.082600  0.485700  1.0  -0.6652
  O  O1093  1  0.529700  0.665100  0.491100  1.0  -0.6191
  O  O1094  1  0.521400  0.582600  0.485700  1.0  -0.6652
  O  O1095  1  0.529700  0.165100  0.991100  1.0  -0.6191
  O  O1096  1  0.521400  0.082600  0.985700  1.0  -0.6652
  O  O1097  1  0.220300  0.165100  0.758900  1.0  -0.6175
  O  O1098  1  0.228600  0.082600  0.764300  1.0  -0.6663
  O  O1099  1  0.220300  0.665100  0.258900  1.0  -0.6175
  O  O1100  1  0.228600  0.582600  0.264300  1.0  -0.6663
  O  O1101  1  0.720300  0.165100  0.258900  1.0  -0.6175
  O  O1102  1  0.728600  0.082600  0.264300  1.0  -0.6663
  O  O1103  1  0.720300  0.665100  0.758900  1.0  -0.6175
  O  O1104  1  0.728600  0.582600  0.764300  1.0  -0.6663
  O  O1105  1  0.529700  0.084900  0.258900  1.0  -0.6196
  O  O1106  1  0.521400  0.167400  0.264300  1.0  -0.6648
  O  O1107  1  0.529700  0.584900  0.758900  1.0  -0.6196
  O  O1108  1  0.521400  0.667400  0.764300  1.0  -0.6648
  O  O1109  1  0.029700  0.084900  0.758900  1.0  -0.6196
  O  O1110  1  0.021400  0.167400  0.764300  1.0  -0.6648
  O  O1111  1  0.029700  0.584900  0.258900  1.0  -0.6196
  O  O1112  1  0.021400  0.667400  0.264300  1.0  -0.6648
  O  O1113  1  0.720300  0.584900  0.491100  1.0  -0.6183
  O  O1114  1  0.728600  0.667400  0.485700  1.0  -0.6662
  O  O1115  1  0.720300  0.084900  0.991100  1.0  -0.6183
  O  O1116  1  0.728600  0.167400  0.985700  1.0  -0.6662
  O  O1117  1  0.220300  0.584900  0.991100  1.0  -0.6183
  O  O1118  1  0.228600  0.667400  0.985700  1.0  -0.6662
  O  O1119  1  0.220300  0.084900  0.491100  1.0  -0.6183
  O  O1120  1  0.228600  0.167400  0.485700  1.0  -0.6662
  O  O1121  1  0.279700  0.741100  0.334900  1.0  -0.6203
  O  O1122  1  0.271400  0.735700  0.417400  1.0  -0.6649
  O  O1123  1  0.279700  0.241100  0.834900  1.0  -0.6203
  O  O1124  1  0.271400  0.235700  0.917400  1.0  -0.6649
  O  O1125  1  0.779700  0.741100  0.834900  1.0  -0.6203
  O  O1126  1  0.771400  0.735700  0.917400  1.0  -0.6649
  O  O1127  1  0.779700  0.241100  0.334900  1.0  -0.6203
  O  O1128  1  0.771400  0.235700  0.417400  1.0  -0.6649
  O  O1129  1  0.470300  0.508900  0.834900  1.0  -0.6196
  O  O1130  1  0.478600  0.514300  0.917400  1.0  -0.6651
  O  O1131  1  0.470300  0.008900  0.334900  1.0  -0.6196
  O  O1132  1  0.478600  0.014300  0.417400  1.0  -0.6651
  O  O1133  1  0.970300  0.508900  0.334900  1.0  -0.6196
  O  O1134  1  0.978600  0.514300  0.417400  1.0  -0.6637
  O  O1135  1  0.970300  0.008900  0.834900  1.0  -0.6196
  O  O1136  1  0.978600  0.014300  0.917400  1.0  -0.6637
  O  O1137  1  0.779700  0.008900  0.915100  1.0  -0.6217
  O  O1138  1  0.771400  0.014300  0.832600  1.0  -0.6647
  O  O1139  1  0.779700  0.508900  0.415100  1.0  -0.6217
  O  O1140  1  0.771400  0.514300  0.332600  1.0  -0.6647
  O  O1141  1  0.279700  0.008900  0.415100  1.0  -0.6217
  O  O1142  1  0.271400  0.014300  0.332600  1.0  -0.6647
  O  O1143  1  0.279700  0.508900  0.915100  1.0  -0.6217
  O  O1144  1  0.271400  0.514300  0.832600  1.0  -0.6647
  O  O1145  1  0.970300  0.241100  0.415100  1.0  -0.6198
  O  O1146  1  0.978600  0.235700  0.332600  1.0  -0.6655
  O  O1147  1  0.970300  0.741100  0.915100  1.0  -0.6198
  O  O1148  1  0.978600  0.735700  0.832600  1.0  -0.6655
  O  O1149  1  0.470300  0.241100  0.915100  1.0  -0.6198
  O  O1150  1  0.478600  0.235700  0.832600  1.0  -0.6665
  O  O1151  1  0.470300  0.741100  0.415100  1.0  -0.6198
  O  O1152  1  0.478600  0.735700  0.332600  1.0  -0.6665
  O  O1153  1  0.241100  0.415100  0.970300  1.0  -0.6223
  O  O1154  1  0.235700  0.332600  0.978600  1.0  -0.6688
  O  O1155  1  0.241100  0.915100  0.470300  1.0  -0.6223
  O  O1156  1  0.235700  0.832600  0.478600  1.0  -0.6696
  O  O1157  1  0.741100  0.415100  0.470300  1.0  -0.6223
  O  O1158  1  0.735700  0.332600  0.478600  1.0  -0.6696
  O  O1159  1  0.741100  0.915100  0.970300  1.0  -0.6223
  O  O1160  1  0.735700  0.832600  0.978600  1.0  -0.6688
  O  O1161  1  0.008900  0.915100  0.779700  1.0  -0.6237
  O  O1162  1  0.014300  0.832600  0.771400  1.0  -0.6699
  O  O1163  1  0.008900  0.415100  0.279700  1.0  -0.6237
  O  O1164  1  0.014300  0.332600  0.271400  1.0  -0.6699
  O  O1165  1  0.508900  0.915100  0.279700  1.0  -0.6237
  O  O1166  1  0.514300  0.832600  0.271400  1.0  -0.6699
  O  O1167  1  0.508900  0.415100  0.779700  1.0  -0.6237
  O  O1168  1  0.514300  0.332600  0.771400  1.0  -0.6699
  O  O1169  1  0.508900  0.834900  0.470300  1.0  -0.6241
  O  O1170  1  0.514300  0.917400  0.478600  1.0  -0.6688
  O  O1171  1  0.508900  0.334900  0.970300  1.0  -0.6241
  O  O1172  1  0.514300  0.417400  0.978600  1.0  -0.6672
  O  O1173  1  0.008900  0.834900  0.970300  1.0  -0.6241
  O  O1174  1  0.014300  0.917400  0.978600  1.0  -0.668
  O  O1175  1  0.008900  0.334900  0.470300  1.0  -0.6241
  O  O1176  1  0.014300  0.417400  0.478600  1.0  -0.6688
  O  O1177  1  0.741100  0.334900  0.279700  1.0  -0.6239
  O  O1178  1  0.735700  0.417400  0.271400  1.0  -0.6695
  O  O1179  1  0.741100  0.834900  0.779700  1.0  -0.6239
  O  O1180  1  0.735700  0.917400  0.771400  1.0  -0.6695
  O  O1181  1  0.241100  0.334900  0.779700  1.0  -0.6239
  O  O1182  1  0.235700  0.417400  0.771400  1.0  -0.6695
  O  O1183  1  0.241100  0.834900  0.279700  1.0  -0.6239
  O  O1184  1  0.235700  0.917400  0.271400  1.0  -0.6695
  O  O1185  1  0.915100  0.779700  0.008900  1.0  -0.6171
  O  O1186  1  0.832600  0.771400  0.014300  1.0  -0.6641
  O  O1187  1  0.915100  0.279700  0.508900  1.0  -0.6171
  O  O1188  1  0.832600  0.271400  0.514300  1.0  -0.6641
  O  O1189  1  0.415100  0.779700  0.508900  1.0  -0.6171
  O  O1190  1  0.332600  0.771400  0.514300  1.0  -0.6641
  O  O1191  1  0.415100  0.279700  0.008900  1.0  -0.6171
  O  O1192  1  0.332600  0.271400  0.014300  1.0  -0.6641
  O  O1193  1  0.415100  0.970300  0.241100  1.0  -0.6155
  O  O1194  1  0.332600  0.978600  0.235700  1.0  -0.6639
  O  O1195  1  0.415100  0.470300  0.741100  1.0  -0.6155
  O  O1196  1  0.332600  0.478600  0.735700  1.0  -0.6651
  O  O1197  1  0.915100  0.970300  0.741100  1.0  -0.6155
  O  O1198  1  0.832600  0.978600  0.735700  1.0  -0.6639
  O  O1199  1  0.915100  0.470300  0.241100  1.0  -0.6155
  O  O1200  1  0.832600  0.478600  0.235700  1.0  -0.6651
  O  O1201  1  0.334900  0.279700  0.741100  1.0  -0.616
  O  O1202  1  0.417400  0.271400  0.735700  1.0  -0.6652
  O  O1203  1  0.334900  0.779700  0.241100  1.0  -0.616
  O  O1204  1  0.417400  0.771400  0.235700  1.0  -0.6652
  O  O1205  1  0.834900  0.279700  0.241100  1.0  -0.616
  O  O1206  1  0.917400  0.271400  0.235700  1.0  -0.6652
  O  O1207  1  0.834900  0.779700  0.741100  1.0  -0.616
  O  O1208  1  0.917400  0.771400  0.735700  1.0  -0.6652
  O  O1209  1  0.834900  0.470300  0.508900  1.0  -0.6178
  O  O1210  1  0.917400  0.478600  0.514300  1.0  -0.6642
  O  O1211  1  0.834900  0.970300  0.008900  1.0  -0.6178
  O  O1212  1  0.917400  0.978600  0.014300  1.0  -0.6627
  O  O1213  1  0.334900  0.470300  0.008900  1.0  -0.6178
  O  O1214  1  0.417400  0.478600  0.014300  1.0  -0.6642
  O  O1215  1  0.334900  0.970300  0.508900  1.0  -0.6178
  O  O1216  1  0.417400  0.978600  0.514300  1.0  -0.6627
  O  O1217  1  0.000000  0.065800  0.315800  1.0  -0.328
  O  O1218  1  0.000000  0.565800  0.815800  1.0  -0.3272
  O  O1219  1  0.500000  0.065800  0.815800  1.0  -0.328
  O  O1220  1  0.500000  0.565800  0.315800  1.0  -0.3272
  O  O1221  1  0.250000  0.684200  0.815800  1.0  -0.326
  O  O1222  1  0.250000  0.184200  0.315800  1.0  -0.326
  O  O1223  1  0.750000  0.684200  0.315800  1.0  -0.326
  O  O1224  1  0.750000  0.184200  0.815800  1.0  -0.326
  O  O1225  1  0.750000  0.565800  0.934200  1.0  -0.325
  O  O1226  1  0.750000  0.065800  0.434200  1.0  -0.3248
  O  O1227  1  0.250000  0.565800  0.434200  1.0  -0.325
  O  O1228  1  0.250000  0.065800  0.934200  1.0  -0.3248
  O  O1229  1  0.500000  0.184200  0.434200  1.0  -0.3253
  O  O1230  1  0.500000  0.684200  0.934200  1.0  -0.3253
  O  O1231  1  0.000000  0.184200  0.934200  1.0  -0.3253
  O  O1232  1  0.000000  0.684200  0.434200  1.0  -0.3253
  O  O1233  1  0.315800  0.000000  0.065800  1.0  -0.3272
  O  O1234  1  0.315800  0.500000  0.565800  1.0  -0.3266
  O  O1235  1  0.815800  0.000000  0.565800  1.0  -0.3266
  O  O1236  1  0.815800  0.500000  0.065800  1.0  -0.3272
  O  O1237  1  0.815800  0.250000  0.684200  1.0  -0.3258
  O  O1238  1  0.815800  0.750000  0.184200  1.0  -0.3258
  O  O1239  1  0.315800  0.250000  0.184200  1.0  -0.3258
  O  O1240  1  0.315800  0.750000  0.684200  1.0  -0.3258
  O  O1241  1  0.934200  0.750000  0.565800  1.0  -0.3258
  O  O1242  1  0.934200  0.250000  0.065800  1.0  -0.3256
  O  O1243  1  0.434200  0.750000  0.065800  1.0  -0.3256
  O  O1244  1  0.434200  0.250000  0.565800  1.0  -0.3258
  O  O1245  1  0.434200  0.500000  0.184200  1.0  -0.3248
  O  O1246  1  0.434200  0.000000  0.684200  1.0  -0.3248
  O  O1247  1  0.934200  0.500000  0.684200  1.0  -0.3248
  O  O1248  1  0.934200  0.000000  0.184200  1.0  -0.3248
  O  O1249  1  0.065800  0.315800  0.000000  1.0  -0.3299
  O  O1250  1  0.065800  0.815800  0.500000  1.0  -0.3299
  O  O1251  1  0.565800  0.315800  0.500000  1.0  -0.3289
  O  O1252  1  0.565800  0.815800  0.000000  1.0  -0.3289
  O  O1253  1  0.684200  0.815800  0.250000  1.0  -0.3253
  O  O1254  1  0.684200  0.315800  0.750000  1.0  -0.3253
  O  O1255  1  0.184200  0.815800  0.750000  1.0  -0.3253
  O  O1256  1  0.184200  0.315800  0.250000  1.0  -0.3253
  O  O1257  1  0.565800  0.934200  0.750000  1.0  -0.325
  O  O1258  1  0.565800  0.434200  0.250000  1.0  -0.325
  O  O1259  1  0.065800  0.934200  0.250000  1.0  -0.3247
  O  O1260  1  0.065800  0.434200  0.750000  1.0  -0.3247
  O  O1261  1  0.184200  0.434200  0.500000  1.0  -0.3255
  O  O1262  1  0.184200  0.934200  0.000000  1.0  -0.3255
  O  O1263  1  0.684200  0.434200  0.000000  1.0  -0.3255
  O  O1264  1  0.684200  0.934200  0.500000  1.0  -0.3255
  O  O1265  1  0.000000  0.934200  0.684200  1.0  -0.3253
  O  O1266  1  0.000000  0.434200  0.184200  1.0  -0.3253
  O  O1267  1  0.500000  0.934200  0.184200  1.0  -0.3253
  O  O1268  1  0.500000  0.434200  0.684200  1.0  -0.3253
  O  O1269  1  0.750000  0.315800  0.184200  1.0  -0.325
  O  O1270  1  0.750000  0.815800  0.684200  1.0  -0.325
  O  O1271  1  0.250000  0.315800  0.684200  1.0  -0.325
  O  O1272  1  0.250000  0.815800  0.184200  1.0  -0.325
  O  O1273  1  0.250000  0.434200  0.065800  1.0  -0.3256
  O  O1274  1  0.250000  0.934200  0.565800  1.0  -0.326
  O  O1275  1  0.750000  0.434200  0.565800  1.0  -0.326
  O  O1276  1  0.750000  0.934200  0.065800  1.0  -0.3256
  O  O1277  1  0.500000  0.815800  0.565800  1.0  -0.3272
  O  O1278  1  0.500000  0.315800  0.065800  1.0  -0.328
  O  O1279  1  0.000000  0.815800  0.065800  1.0  -0.328
  O  O1280  1  0.000000  0.315800  0.565800  1.0  -0.3272
  O  O1281  1  0.684200  0.000000  0.934200  1.0  -0.3258
  O  O1282  1  0.684200  0.500000  0.434200  1.0  -0.3258
  O  O1283  1  0.184200  0.000000  0.434200  1.0  -0.3258
  O  O1284  1  0.184200  0.500000  0.934200  1.0  -0.3258
  O  O1285  1  0.184200  0.750000  0.315800  1.0  -0.3273
  O  O1286  1  0.184200  0.250000  0.815800  1.0  -0.3273
  O  O1287  1  0.684200  0.750000  0.815800  1.0  -0.3273
  O  O1288  1  0.684200  0.250000  0.315800  1.0  -0.3273
  O  O1289  1  0.065800  0.250000  0.434200  1.0  -0.3246
  O  O1290  1  0.065800  0.750000  0.934200  1.0  -0.3246
  O  O1291  1  0.565800  0.250000  0.934200  1.0  -0.3247
  O  O1292  1  0.565800  0.750000  0.434200  1.0  -0.3247
  O  O1293  1  0.565800  0.500000  0.815800  1.0  -0.3284
  O  O1294  1  0.565800  0.000000  0.315800  1.0  -0.3284
  O  O1295  1  0.065800  0.500000  0.315800  1.0  -0.3294
  O  O1296  1  0.065800  0.000000  0.815800  1.0  -0.3294
  O  O1297  1  0.934200  0.684200  0.000000  1.0  -0.3255
  O  O1298  1  0.934200  0.184200  0.500000  1.0  -0.3255
  O  O1299  1  0.434200  0.684200  0.500000  1.0  -0.3255
  O  O1300  1  0.434200  0.184200  0.000000  1.0  -0.3255
  O  O1301  1  0.315800  0.184200  0.750000  1.0  -0.325
  O  O1302  1  0.315800  0.684200  0.250000  1.0  -0.325
  O  O1303  1  0.815800  0.184200  0.250000  1.0  -0.325
  O  O1304  1  0.815800  0.684200  0.750000  1.0  -0.325
  O  O1305  1  0.434200  0.065800  0.250000  1.0  -0.325
  O  O1306  1  0.434200  0.565800  0.750000  1.0  -0.3253
  O  O1307  1  0.934200  0.065800  0.750000  1.0  -0.325
  O  O1308  1  0.934200  0.565800  0.250000  1.0  -0.3253
  O  O1309  1  0.815800  0.565800  0.500000  1.0  -0.3289
  O  O1310  1  0.815800  0.065800  0.000000  1.0  -0.3299
  O  O1311  1  0.315800  0.565800  0.000000  1.0  -0.3289
  O  O1312  1  0.315800  0.065800  0.500000  1.0  -0.3299
