# generated using pymatgen
data_HoCdH12(C4O5)3
_symmetry_space_group_name_H-M   'P 1'
_cell_length_a   26.17900000
_cell_length_b   26.17900000
_cell_length_c   26.17900000
_cell_angle_alpha   90.00000000
_cell_angle_beta   90.00000000
_cell_angle_gamma   90.00000000
_symmetry_Int_Tables_number   1
_chemical_formula_structural   HoCdH12(C4O5)3
_chemical_formula_sum   'Ho32 Cd32 H384 C384 O480'
_cell_volume   17941.51693334
_cell_formula_units_Z   32
loop_
 _symmetry_equiv_pos_site_id
 _symmetry_equiv_pos_as_xyz
  1  'x, y, z'
loop_
 _atom_site_type_symbol
 _atom_site_label
 _atom_site_symmetry_multiplicity
 _atom_site_fract_x
 _atom_site_fract_y
 _atom_site_fract_z
 _atom_site_occupancy
 _atom_site_charge
  Ho  Ho1  1  0.000000  0.250000  0.000000  1.0  2.1507
  Ho  Ho2  1  0.000000  0.750000  0.500000  1.0  2.1507
  Ho  Ho3  1  0.500000  0.250000  0.500000  1.0  2.1507
  Ho  Ho4  1  0.250000  0.500000  0.500000  1.0  2.1507
  Ho  Ho5  1  0.750000  0.000000  0.500000  1.0  2.1507
  Ho  Ho6  1  0.750000  0.750000  0.250000  1.0  2.1507
  Ho  Ho7  1  0.500000  0.000000  0.750000  1.0  2.1507
  Ho  Ho8  1  0.000000  0.000000  0.250000  1.0  2.1507
  Ho  Ho9  1  0.000000  0.500000  0.750000  1.0  2.1507
  Ho  Ho10  1  0.500000  0.500000  0.250000  1.0  2.1507
  Ho  Ho11  1  0.500000  0.750000  0.000000  1.0  2.1507
  Ho  Ho12  1  0.250000  0.750000  0.750000  1.0  2.1507
  Ho  Ho13  1  0.250000  0.250000  0.250000  1.0  2.1507
  Ho  Ho14  1  0.750000  0.500000  0.000000  1.0  2.1507
  Ho  Ho15  1  0.250000  0.000000  0.000000  1.0  2.1507
  Ho  Ho16  1  0.750000  0.250000  0.750000  1.0  2.1507
  Ho  Ho17  1  0.000000  0.750000  0.000000  1.0  2.1507
  Ho  Ho18  1  0.750000  0.500000  0.500000  1.0  2.1507
  Ho  Ho19  1  0.250000  0.250000  0.750000  1.0  2.1507
  Ho  Ho20  1  0.750000  0.750000  0.750000  1.0  2.1507
  Ho  Ho21  1  0.500000  0.000000  0.250000  1.0  2.1507
  Ho  Ho22  1  0.000000  0.000000  0.750000  1.0  2.1507
  Ho  Ho23  1  0.000000  0.500000  0.250000  1.0  2.1507
  Ho  Ho24  1  0.500000  0.750000  0.500000  1.0  2.1507
  Ho  Ho25  1  0.500000  0.250000  0.000000  1.0  2.1507
  Ho  Ho26  1  0.750000  0.250000  0.250000  1.0  2.1507
  Ho  Ho27  1  0.250000  0.500000  0.000000  1.0  2.1507
  Ho  Ho28  1  0.250000  0.000000  0.500000  1.0  2.1507
  Ho  Ho29  1  0.750000  0.000000  0.000000  1.0  2.1507
  Ho  Ho30  1  0.500000  0.500000  0.750000  1.0  2.1507
  Ho  Ho31  1  0.250000  0.750000  0.250000  1.0  2.1507
  Ho  Ho32  1  0.000000  0.250000  0.500000  1.0  2.1507
  Cd  Cd33  1  0.000000  0.500000  0.000000  1.0  1.055
  Cd  Cd34  1  0.500000  0.500000  0.500000  1.0  1.055
  Cd  Cd35  1  0.250000  0.250000  0.500000  1.0  1.055
  Cd  Cd36  1  0.250000  0.750000  0.000000  1.0  1.055
  Cd  Cd37  1  0.750000  0.000000  0.250000  1.0  1.055
  Cd  Cd38  1  0.500000  0.750000  0.750000  1.0  1.055
  Cd  Cd39  1  0.000000  0.250000  0.750000  1.0  1.055
  Cd  Cd40  1  0.000000  0.000000  0.500000  1.0  1.055
  Cd  Cd41  1  0.500000  0.250000  0.250000  1.0  1.055
  Cd  Cd42  1  0.750000  0.500000  0.750000  1.0  1.055
  Cd  Cd43  1  0.500000  0.000000  0.000000  1.0  1.055
  Cd  Cd44  1  0.250000  0.500000  0.250000  1.0  1.055
  Cd  Cd45  1  0.750000  0.750000  0.500000  1.0  1.055
  Cd  Cd46  1  0.250000  0.250000  0.000000  1.0  1.055
  Cd  Cd47  1  0.000000  0.500000  0.500000  1.0  1.055
  Cd  Cd48  1  0.000000  0.000000  0.000000  1.0  1.055
  Cd  Cd49  1  0.750000  0.000000  0.750000  1.0  1.055
  Cd  Cd50  1  0.500000  0.750000  0.250000  1.0  1.055
  Cd  Cd51  1  0.000000  0.750000  0.750000  1.0  1.055
  Cd  Cd52  1  0.000000  0.250000  0.250000  1.0  1.055
  Cd  Cd53  1  0.750000  0.250000  0.500000  1.0  1.055
  Cd  Cd54  1  0.750000  0.750000  0.000000  1.0  1.055
  Cd  Cd55  1  0.500000  0.500000  0.000000  1.0  1.055
  Cd  Cd56  1  0.250000  0.000000  0.250000  1.0  1.055
  Cd  Cd57  1  0.250000  0.500000  0.750000  1.0  1.055
  Cd  Cd58  1  0.500000  0.000000  0.500000  1.0  1.055
  Cd  Cd59  1  0.250000  0.000000  0.750000  1.0  1.055
  Cd  Cd60  1  0.750000  0.250000  0.000000  1.0  1.055
  Cd  Cd61  1  0.000000  0.750000  0.250000  1.0  1.055
  Cd  Cd62  1  0.250000  0.750000  0.500000  1.0  1.055
  Cd  Cd63  1  0.750000  0.500000  0.250000  1.0  1.055
  Cd  Cd64  1  0.500000  0.250000  0.750000  1.0  1.055
  H  H65  1  0.032100  0.382400  0.072000  1.0  0.1092
  H  H66  1  0.972400  0.384700  0.066200  1.0  0.1038
  H  H67  1  0.032100  0.882400  0.572000  1.0  0.1092
  H  H68  1  0.972400  0.884700  0.566200  1.0  0.1038
  H  H69  1  0.532100  0.382400  0.572000  1.0  0.1092
  H  H70  1  0.472400  0.384700  0.566200  1.0  0.1038
  H  H71  1  0.532100  0.882400  0.072000  1.0  0.1092
  H  H72  1  0.472400  0.884700  0.066200  1.0  0.1038
  H  H73  1  0.217900  0.367600  0.572000  1.0  0.1096
  H  H74  1  0.277600  0.365300  0.566200  1.0  0.1031
  H  H75  1  0.217900  0.867600  0.072000  1.0  0.1096
  H  H76  1  0.277600  0.865300  0.066200  1.0  0.1031
  H  H77  1  0.717900  0.367600  0.072000  1.0  0.1096
  H  H78  1  0.777600  0.365300  0.066200  1.0  0.1031
  H  H79  1  0.717900  0.867600  0.572000  1.0  0.1096
  H  H80  1  0.777600  0.865300  0.566200  1.0  0.1031
  H  H81  1  0.717900  0.882400  0.178000  1.0  0.1094
  H  H82  1  0.777600  0.884700  0.183800  1.0  0.1028
  H  H83  1  0.717900  0.382400  0.678000  1.0  0.1094
  H  H84  1  0.777600  0.384700  0.683800  1.0  0.1028
  H  H85  1  0.217900  0.882400  0.678000  1.0  0.1094
  H  H86  1  0.277600  0.884700  0.683800  1.0  0.1028
  H  H87  1  0.217900  0.382400  0.178000  1.0  0.1094
  H  H88  1  0.277600  0.384700  0.183800  1.0  0.1028
  H  H89  1  0.532100  0.867600  0.678000  1.0  0.1093
  H  H90  1  0.472400  0.865300  0.683800  1.0  0.1041
  H  H91  1  0.532100  0.367600  0.178000  1.0  0.1093
  H  H92  1  0.472400  0.365300  0.183800  1.0  0.1041
  H  H93  1  0.032100  0.867600  0.178000  1.0  0.1093
  H  H94  1  0.972400  0.865300  0.183800  1.0  0.1041
  H  H95  1  0.032100  0.367600  0.678000  1.0  0.1093
  H  H96  1  0.972400  0.365300  0.683800  1.0  0.1041
  H  H97  1  0.072000  0.032100  0.382400  1.0  0.1096
  H  H98  1  0.066200  0.972400  0.384700  1.0  0.1058
  H  H99  1  0.072000  0.532100  0.882400  1.0  0.1096
  H  H100  1  0.066200  0.472400  0.884700  1.0  0.1058
  H  H101  1  0.572000  0.032100  0.882400  1.0  0.1096
  H  H102  1  0.566200  0.972400  0.884700  1.0  0.1058
  H  H103  1  0.572000  0.532100  0.382400  1.0  0.1096
  H  H104  1  0.566200  0.472400  0.384700  1.0  0.1058
  H  H105  1  0.572000  0.217900  0.367600  1.0  0.11
  H  H106  1  0.566200  0.277600  0.365300  1.0  0.1047
  H  H107  1  0.572000  0.717900  0.867600  1.0  0.11
  H  H108  1  0.566200  0.777600  0.865300  1.0  0.1047
  H  H109  1  0.072000  0.217900  0.867600  1.0  0.11
  H  H110  1  0.066200  0.277600  0.865300  1.0  0.1047
  H  H111  1  0.072000  0.717900  0.367600  1.0  0.11
  H  H112  1  0.066200  0.777600  0.365300  1.0  0.1047
  H  H113  1  0.178000  0.717900  0.882400  1.0  0.1102
  H  H114  1  0.183800  0.777600  0.884700  1.0  0.1046
  H  H115  1  0.178000  0.217900  0.382400  1.0  0.1102
  H  H116  1  0.183800  0.277600  0.384700  1.0  0.1046
  H  H117  1  0.678000  0.717900  0.382400  1.0  0.1102
  H  H118  1  0.683800  0.777600  0.384700  1.0  0.1046
  H  H119  1  0.678000  0.217900  0.882400  1.0  0.1102
  H  H120  1  0.683800  0.277600  0.884700  1.0  0.1046
  H  H121  1  0.678000  0.532100  0.867600  1.0  0.1096
  H  H122  1  0.683800  0.472400  0.865300  1.0  0.1052
  H  H123  1  0.678000  0.032100  0.367600  1.0  0.1096
  H  H124  1  0.683800  0.972400  0.365300  1.0  0.1052
  H  H125  1  0.178000  0.532100  0.367600  1.0  0.1096
  H  H126  1  0.183800  0.472400  0.365300  1.0  0.1052
  H  H127  1  0.178000  0.032100  0.867600  1.0  0.1096
  H  H128  1  0.183800  0.972400  0.865300  1.0  0.1052
  H  H129  1  0.382400  0.072000  0.032100  1.0  0.1096
  H  H130  1  0.384700  0.066200  0.972400  1.0  0.1047
  H  H131  1  0.382400  0.572000  0.532100  1.0  0.1096
  H  H132  1  0.384700  0.566200  0.472400  1.0  0.1047
  H  H133  1  0.882400  0.072000  0.532100  1.0  0.1096
  H  H134  1  0.884700  0.066200  0.472400  1.0  0.1047
  H  H135  1  0.882400  0.572000  0.032100  1.0  0.1096
  H  H136  1  0.884700  0.566200  0.972400  1.0  0.1047
  H  H137  1  0.367600  0.572000  0.217900  1.0  0.1092
  H  H138  1  0.365300  0.566200  0.277600  1.0  0.1052
  H  H139  1  0.367600  0.072000  0.717900  1.0  0.1092
  H  H140  1  0.365300  0.066200  0.777600  1.0  0.1052
  H  H141  1  0.867600  0.572000  0.717900  1.0  0.1092
  H  H142  1  0.865300  0.566200  0.777600  1.0  0.1052
  H  H143  1  0.867600  0.072000  0.217900  1.0  0.1092
  H  H144  1  0.865300  0.066200  0.277600  1.0  0.1052
  H  H145  1  0.882400  0.178000  0.717900  1.0  0.1093
  H  H146  1  0.884700  0.183800  0.777600  1.0  0.1053
  H  H147  1  0.882400  0.678000  0.217900  1.0  0.1093
  H  H148  1  0.884700  0.683800  0.277600  1.0  0.1053
  H  H149  1  0.382400  0.178000  0.217900  1.0  0.1093
  H  H150  1  0.384700  0.183800  0.277600  1.0  0.1053
  H  H151  1  0.382400  0.678000  0.717900  1.0  0.1093
  H  H152  1  0.384700  0.683800  0.777600  1.0  0.1053
  H  H153  1  0.867600  0.678000  0.532100  1.0  0.1097
  H  H154  1  0.865300  0.683800  0.472400  1.0  0.1049
  H  H155  1  0.867600  0.178000  0.032100  1.0  0.1097
  H  H156  1  0.865300  0.183800  0.972400  1.0  0.1049
  H  H157  1  0.367600  0.678000  0.032100  1.0  0.1097
  H  H158  1  0.365300  0.683800  0.972400  1.0  0.1049
  H  H159  1  0.367600  0.178000  0.532100  1.0  0.1097
  H  H160  1  0.365300  0.183800  0.472400  1.0  0.1049
  H  H161  1  0.132400  0.282100  0.928000  1.0  0.1098
  H  H162  1  0.134700  0.222400  0.933800  1.0  0.1061
  H  H163  1  0.132400  0.782100  0.428000  1.0  0.1098
  H  H164  1  0.134700  0.722400  0.433800  1.0  0.1061
  H  H165  1  0.632400  0.282100  0.428000  1.0  0.1098
  H  H166  1  0.634700  0.222400  0.433800  1.0  0.1061
  H  H167  1  0.632400  0.782100  0.928000  1.0  0.1098
  H  H168  1  0.634700  0.722400  0.933800  1.0  0.1061
  H  H169  1  0.117600  0.467900  0.428000  1.0  0.1101
  H  H170  1  0.115300  0.527600  0.433800  1.0  0.1056
  H  H171  1  0.117600  0.967900  0.928000  1.0  0.1101
  H  H172  1  0.115300  0.027600  0.933800  1.0  0.1056
  H  H173  1  0.617600  0.467900  0.928000  1.0  0.1101
  H  H174  1  0.615300  0.527600  0.933800  1.0  0.1056
  H  H175  1  0.617600  0.967900  0.428000  1.0  0.1101
  H  H176  1  0.615300  0.027600  0.433800  1.0  0.1056
  H  H177  1  0.632400  0.967900  0.822000  1.0  0.1103
  H  H178  1  0.634700  0.027600  0.816200  1.0  0.1051
  H  H179  1  0.632400  0.467900  0.322000  1.0  0.1103
  H  H180  1  0.634700  0.527600  0.316200  1.0  0.1051
  H  H181  1  0.132400  0.967900  0.322000  1.0  0.1103
  H  H182  1  0.134700  0.027600  0.316200  1.0  0.1051
  H  H183  1  0.132400  0.467900  0.822000  1.0  0.1103
  H  H184  1  0.134700  0.527600  0.816200  1.0  0.1051
  H  H185  1  0.617600  0.782100  0.322000  1.0  0.1097
  H  H186  1  0.615300  0.722400  0.316200  1.0  0.1062
  H  H187  1  0.617600  0.282100  0.822000  1.0  0.1097
  H  H188  1  0.615300  0.222400  0.816200  1.0  0.1062
  H  H189  1  0.117600  0.782100  0.822000  1.0  0.1097
  H  H190  1  0.115300  0.722400  0.816200  1.0  0.1062
  H  H191  1  0.117600  0.282100  0.322000  1.0  0.1097
  H  H192  1  0.115300  0.222400  0.316200  1.0  0.1062
  H  H193  1  0.782100  0.322000  0.617600  1.0  0.1091
  H  H194  1  0.722400  0.316200  0.615300  1.0  0.1031
  H  H195  1  0.782100  0.822000  0.117600  1.0  0.1091
  H  H196  1  0.722400  0.816200  0.115300  1.0  0.1031
  H  H197  1  0.282100  0.322000  0.117600  1.0  0.1091
  H  H198  1  0.222400  0.316200  0.115300  1.0  0.1031
  H  H199  1  0.282100  0.822000  0.617600  1.0  0.1091
  H  H200  1  0.222400  0.816200  0.615300  1.0  0.1031
  H  H201  1  0.967900  0.822000  0.632400  1.0  0.1089
  H  H202  1  0.027600  0.816200  0.634700  1.0  0.102
  H  H203  1  0.967900  0.322000  0.132400  1.0  0.1089
  H  H204  1  0.027600  0.316200  0.134700  1.0  0.102
  H  H205  1  0.467900  0.822000  0.132400  1.0  0.1089
  H  H206  1  0.527600  0.816200  0.134700  1.0  0.102
  H  H207  1  0.467900  0.322000  0.632400  1.0  0.1089
  H  H208  1  0.527600  0.316200  0.634700  1.0  0.102
  H  H209  1  0.467900  0.428000  0.117600  1.0  0.1089
  H  H210  1  0.527600  0.433800  0.115300  1.0  0.1022
  H  H211  1  0.467900  0.928000  0.617600  1.0  0.1089
  H  H212  1  0.527600  0.933800  0.615300  1.0  0.1022
  H  H213  1  0.967900  0.428000  0.617600  1.0  0.1089
  H  H214  1  0.027600  0.433800  0.615300  1.0  0.1022
  H  H215  1  0.967900  0.928000  0.117600  1.0  0.1089
  H  H216  1  0.027600  0.933800  0.115300  1.0  0.1022
  H  H217  1  0.282100  0.928000  0.132400  1.0  0.1091
  H  H218  1  0.222400  0.933800  0.134700  1.0  0.1031
  H  H219  1  0.282100  0.428000  0.632400  1.0  0.1091
  H  H220  1  0.222400  0.433800  0.634700  1.0  0.1031
  H  H221  1  0.782100  0.928000  0.632400  1.0  0.1091
  H  H222  1  0.722400  0.933800  0.634700  1.0  0.1031
  H  H223  1  0.782100  0.428000  0.132400  1.0  0.1091
  H  H224  1  0.722400  0.433800  0.134700  1.0  0.1031
  H  H225  1  0.822000  0.632400  0.967900  1.0  0.1094
  H  H226  1  0.816200  0.634700  0.027600  1.0  0.1052
  H  H227  1  0.822000  0.132400  0.467900  1.0  0.1094
  H  H228  1  0.816200  0.134700  0.527600  1.0  0.1052
  H  H229  1  0.322000  0.632400  0.467900  1.0  0.1094
  H  H230  1  0.316200  0.634700  0.527600  1.0  0.1052
  H  H231  1  0.322000  0.132400  0.967900  1.0  0.1094
  H  H232  1  0.316200  0.134700  0.027600  1.0  0.1052
  H  H233  1  0.322000  0.617600  0.782100  1.0  0.1101
  H  H234  1  0.316200  0.615300  0.722400  1.0  0.1054
  H  H235  1  0.322000  0.117600  0.282100  1.0  0.1101
  H  H236  1  0.316200  0.115300  0.222400  1.0  0.1054
  H  H237  1  0.822000  0.617600  0.282100  1.0  0.1101
  H  H238  1  0.816200  0.615300  0.222400  1.0  0.1054
  H  H239  1  0.822000  0.117600  0.782100  1.0  0.1101
  H  H240  1  0.816200  0.115300  0.722400  1.0  0.1054
  H  H241  1  0.928000  0.132400  0.282100  1.0  0.1094
  H  H242  1  0.933800  0.134700  0.222400  1.0  0.1051
  H  H243  1  0.928000  0.632400  0.782100  1.0  0.1094
  H  H244  1  0.933800  0.634700  0.722400  1.0  0.1051
  H  H245  1  0.428000  0.132400  0.782100  1.0  0.1094
  H  H246  1  0.433800  0.134700  0.722400  1.0  0.1051
  H  H247  1  0.428000  0.632400  0.282100  1.0  0.1094
  H  H248  1  0.433800  0.634700  0.222400  1.0  0.1051
  H  H249  1  0.428000  0.117600  0.467900  1.0  0.1096
  H  H250  1  0.433800  0.115300  0.527600  1.0  0.1057
  H  H251  1  0.428000  0.617600  0.967900  1.0  0.1096
  H  H252  1  0.433800  0.615300  0.027600  1.0  0.1057
  H  H253  1  0.928000  0.117600  0.967900  1.0  0.1096
  H  H254  1  0.933800  0.115300  0.027600  1.0  0.1057
  H  H255  1  0.928000  0.617600  0.467900  1.0  0.1096
  H  H256  1  0.933800  0.615300  0.527600  1.0  0.1057
  H  H257  1  0.967900  0.617600  0.928000  1.0  0.1093
  H  H258  1  0.027600  0.615300  0.933800  1.0  0.1031
  H  H259  1  0.967900  0.117600  0.428000  1.0  0.1093
  H  H260  1  0.027600  0.115300  0.433800  1.0  0.1031
  H  H261  1  0.467900  0.617600  0.428000  1.0  0.1093
  H  H262  1  0.527600  0.615300  0.433800  1.0  0.1031
  H  H263  1  0.467900  0.117600  0.928000  1.0  0.1093
  H  H264  1  0.527600  0.115300  0.933800  1.0  0.1031
  H  H265  1  0.782100  0.632400  0.428000  1.0  0.1092
  H  H266  1  0.722400  0.634700  0.433800  1.0  0.1041
  H  H267  1  0.782100  0.132400  0.928000  1.0  0.1092
  H  H268  1  0.722400  0.134700  0.933800  1.0  0.1041
  H  H269  1  0.282100  0.632400  0.928000  1.0  0.1092
  H  H270  1  0.222400  0.634700  0.933800  1.0  0.1041
  H  H271  1  0.282100  0.132400  0.428000  1.0  0.1092
  H  H272  1  0.222400  0.134700  0.433800  1.0  0.1041
  H  H273  1  0.282100  0.117600  0.822000  1.0  0.1096
  H  H274  1  0.222400  0.115300  0.816200  1.0  0.1039
  H  H275  1  0.282100  0.617600  0.322000  1.0  0.1096
  H  H276  1  0.222400  0.615300  0.316200  1.0  0.1039
  H  H277  1  0.782100  0.117600  0.322000  1.0  0.1096
  H  H278  1  0.722400  0.115300  0.316200  1.0  0.1039
  H  H279  1  0.782100  0.617600  0.822000  1.0  0.1096
  H  H280  1  0.722400  0.615300  0.816200  1.0  0.1039
  H  H281  1  0.467900  0.132400  0.322000  1.0  0.1093
  H  H282  1  0.527600  0.134700  0.316200  1.0  0.1029
  H  H283  1  0.467900  0.632400  0.822000  1.0  0.1093
  H  H284  1  0.527600  0.634700  0.816200  1.0  0.1029
  H  H285  1  0.967900  0.132400  0.822000  1.0  0.1093
  H  H286  1  0.027600  0.134700  0.816200  1.0  0.1029
  H  H287  1  0.967900  0.632400  0.322000  1.0  0.1093
  H  H288  1  0.027600  0.634700  0.316200  1.0  0.1029
  H  H289  1  0.928000  0.967900  0.617600  1.0  0.1099
  H  H290  1  0.933800  0.027600  0.615300  1.0  0.1049
  H  H291  1  0.928000  0.467900  0.117600  1.0  0.1099
  H  H292  1  0.933800  0.527600  0.115300  1.0  0.1049
  H  H293  1  0.428000  0.967900  0.117600  1.0  0.1099
  H  H294  1  0.433800  0.027600  0.115300  1.0  0.1049
  H  H295  1  0.428000  0.467900  0.617600  1.0  0.1099
  H  H296  1  0.433800  0.527600  0.615300  1.0  0.1049
  H  H297  1  0.428000  0.782100  0.632400  1.0  0.1094
  H  H298  1  0.433800  0.722400  0.634700  1.0  0.1056
  H  H299  1  0.428000  0.282100  0.132400  1.0  0.1094
  H  H300  1  0.433800  0.222400  0.134700  1.0  0.1056
  H  H301  1  0.928000  0.782100  0.132400  1.0  0.1094
  H  H302  1  0.933800  0.722400  0.134700  1.0  0.1056
  H  H303  1  0.928000  0.282100  0.632400  1.0  0.1094
  H  H304  1  0.933800  0.222400  0.634700  1.0  0.1056
  H  H305  1  0.822000  0.282100  0.117600  1.0  0.1098
  H  H306  1  0.816200  0.222400  0.115300  1.0  0.1053
  H  H307  1  0.822000  0.782100  0.617600  1.0  0.1098
  H  H308  1  0.816200  0.722400  0.615300  1.0  0.1053
  H  H309  1  0.322000  0.282100  0.617600  1.0  0.1098
  H  H310  1  0.316200  0.222400  0.615300  1.0  0.1053
  H  H311  1  0.322000  0.782100  0.117600  1.0  0.1098
  H  H312  1  0.316200  0.722400  0.115300  1.0  0.1053
  H  H313  1  0.322000  0.467900  0.132400  1.0  0.1102
  H  H314  1  0.316200  0.527600  0.134700  1.0  0.1043
  H  H315  1  0.322000  0.967900  0.632400  1.0  0.1102
  H  H316  1  0.316200  0.027600  0.634700  1.0  0.1043
  H  H317  1  0.822000  0.467900  0.632400  1.0  0.1102
  H  H318  1  0.816200  0.527600  0.634700  1.0  0.1043
  H  H319  1  0.822000  0.967900  0.132400  1.0  0.1102
  H  H320  1  0.816200  0.027600  0.134700  1.0  0.1043
  H  H321  1  0.617600  0.928000  0.967900  1.0  0.1095
  H  H322  1  0.615300  0.933800  0.027600  1.0  0.1053
  H  H323  1  0.617600  0.428000  0.467900  1.0  0.1095
  H  H324  1  0.615300  0.433800  0.527600  1.0  0.1053
  H  H325  1  0.117600  0.928000  0.467900  1.0  0.1095
  H  H326  1  0.115300  0.933800  0.527600  1.0  0.1053
  H  H327  1  0.117600  0.428000  0.967900  1.0  0.1095
  H  H328  1  0.115300  0.433800  0.027600  1.0  0.1053
  H  H329  1  0.632400  0.428000  0.782100  1.0  0.1096
  H  H330  1  0.634700  0.433800  0.722400  1.0  0.1048
  H  H331  1  0.632400  0.928000  0.282100  1.0  0.1096
  H  H332  1  0.634700  0.933800  0.222400  1.0  0.1048
  H  H333  1  0.132400  0.428000  0.282100  1.0  0.1096
  H  H334  1  0.134700  0.433800  0.222400  1.0  0.1048
  H  H335  1  0.132400  0.928000  0.782100  1.0  0.1096
  H  H336  1  0.134700  0.933800  0.722400  1.0  0.1048
  H  H337  1  0.117600  0.822000  0.282100  1.0  0.1095
  H  H338  1  0.115300  0.816200  0.222400  1.0  0.1047
  H  H339  1  0.117600  0.322000  0.782100  1.0  0.1095
  H  H340  1  0.115300  0.316200  0.722400  1.0  0.1047
  H  H341  1  0.617600  0.822000  0.782100  1.0  0.1095
  H  H342  1  0.615300  0.816200  0.722400  1.0  0.1047
  H  H343  1  0.617600  0.322000  0.282100  1.0  0.1095
  H  H344  1  0.615300  0.316200  0.222400  1.0  0.1047
  H  H345  1  0.132400  0.322000  0.467900  1.0  0.1093
  H  H346  1  0.134700  0.316200  0.527600  1.0  0.1053
  H  H347  1  0.132400  0.822000  0.967900  1.0  0.1093
  H  H348  1  0.134700  0.816200  0.027600  1.0  0.1053
  H  H349  1  0.632400  0.322000  0.967900  1.0  0.1093
  H  H350  1  0.634700  0.316200  0.027600  1.0  0.1053
  H  H351  1  0.632400  0.822000  0.467900  1.0  0.1093
  H  H352  1  0.634700  0.816200  0.527600  1.0  0.1053
  H  H353  1  0.867600  0.717900  0.072000  1.0  0.1105
  H  H354  1  0.865300  0.777600  0.066200  1.0  0.1054
  H  H355  1  0.867600  0.217900  0.572000  1.0  0.1105
  H  H356  1  0.865300  0.277600  0.566200  1.0  0.1054
  H  H357  1  0.367600  0.717900  0.572000  1.0  0.1105
  H  H358  1  0.365300  0.777600  0.566200  1.0  0.1054
  H  H359  1  0.367600  0.217900  0.072000  1.0  0.1105
  H  H360  1  0.365300  0.277600  0.066200  1.0  0.1054
  H  H361  1  0.882400  0.532100  0.572000  1.0  0.1097
  H  H362  1  0.884700  0.472400  0.566200  1.0  0.1061
  H  H363  1  0.882400  0.032100  0.072000  1.0  0.1097
  H  H364  1  0.884700  0.972400  0.066200  1.0  0.1061
  H  H365  1  0.382400  0.532100  0.072000  1.0  0.1097
  H  H366  1  0.384700  0.472400  0.066200  1.0  0.1061
  H  H367  1  0.382400  0.032100  0.572000  1.0  0.1097
  H  H368  1  0.384700  0.972400  0.566200  1.0  0.1061
  H  H369  1  0.367600  0.032100  0.178000  1.0  0.1098
  H  H370  1  0.365300  0.972400  0.183800  1.0  0.1063
  H  H371  1  0.367600  0.532100  0.678000  1.0  0.1098
  H  H372  1  0.365300  0.472400  0.683800  1.0  0.1063
  H  H373  1  0.867600  0.032100  0.678000  1.0  0.1098
  H  H374  1  0.865300  0.972400  0.683800  1.0  0.1063
  H  H375  1  0.867600  0.532100  0.178000  1.0  0.1098
  H  H376  1  0.865300  0.472400  0.183800  1.0  0.1063
  H  H377  1  0.382400  0.217900  0.678000  1.0  0.11
  H  H378  1  0.384700  0.277600  0.683800  1.0  0.1053
  H  H379  1  0.382400  0.717900  0.178000  1.0  0.11
  H  H380  1  0.384700  0.777600  0.183800  1.0  0.1053
  H  H381  1  0.882400  0.217900  0.178000  1.0  0.11
  H  H382  1  0.884700  0.277600  0.183800  1.0  0.1053
  H  H383  1  0.882400  0.717900  0.678000  1.0  0.11
  H  H384  1  0.884700  0.777600  0.683800  1.0  0.1053
  H  H385  1  0.217900  0.678000  0.382400  1.0  0.109
  H  H386  1  0.277600  0.683800  0.384700  1.0  0.1021
  H  H387  1  0.217900  0.178000  0.882400  1.0  0.109
  H  H388  1  0.277600  0.183800  0.884700  1.0  0.1021
  H  H389  1  0.717900  0.678000  0.882400  1.0  0.109
  H  H390  1  0.777600  0.683800  0.884700  1.0  0.1021
  H  H391  1  0.717900  0.178000  0.382400  1.0  0.109
  H  H392  1  0.777600  0.183800  0.384700  1.0  0.1021
  H  H393  1  0.032100  0.178000  0.367600  1.0  0.109
  H  H394  1  0.972400  0.183800  0.365300  1.0  0.1033
  H  H395  1  0.032100  0.678000  0.867600  1.0  0.109
  H  H396  1  0.972400  0.683800  0.865300  1.0  0.1033
  H  H397  1  0.532100  0.178000  0.867600  1.0  0.109
  H  H398  1  0.472400  0.183800  0.865300  1.0  0.1033
  H  H399  1  0.532100  0.678000  0.367600  1.0  0.109
  H  H400  1  0.472400  0.683800  0.365300  1.0  0.1033
  H  H401  1  0.532100  0.572000  0.882400  1.0  0.1089
  H  H402  1  0.472400  0.566200  0.884700  1.0  0.103
  H  H403  1  0.532100  0.072000  0.382400  1.0  0.1089
  H  H404  1  0.472400  0.066200  0.384700  1.0  0.103
  H  H405  1  0.032100  0.572000  0.382400  1.0  0.1089
  H  H406  1  0.972400  0.566200  0.384700  1.0  0.103
  H  H407  1  0.032100  0.072000  0.882400  1.0  0.1089
  H  H408  1  0.972400  0.066200  0.884700  1.0  0.103
  H  H409  1  0.717900  0.072000  0.867600  1.0  0.109
  H  H410  1  0.777600  0.066200  0.865300  1.0  0.1021
  H  H411  1  0.717900  0.572000  0.367600  1.0  0.109
  H  H412  1  0.777600  0.566200  0.365300  1.0  0.1021
  H  H413  1  0.217900  0.072000  0.367600  1.0  0.109
  H  H414  1  0.277600  0.066200  0.365300  1.0  0.1021
  H  H415  1  0.217900  0.572000  0.867600  1.0  0.109
  H  H416  1  0.277600  0.566200  0.865300  1.0  0.1021
  H  H417  1  0.178000  0.367600  0.032100  1.0  0.1098
  H  H418  1  0.183800  0.365300  0.972400  1.0  0.1053
  H  H419  1  0.178000  0.867600  0.532100  1.0  0.1098
  H  H420  1  0.183800  0.865300  0.472400  1.0  0.1053
  H  H421  1  0.678000  0.367600  0.532100  1.0  0.1098
  H  H422  1  0.683800  0.365300  0.472400  1.0  0.1053
  H  H423  1  0.678000  0.867600  0.032100  1.0  0.1098
  H  H424  1  0.683800  0.865300  0.972400  1.0  0.1053
  H  H425  1  0.678000  0.382400  0.217900  1.0  0.1093
  H  H426  1  0.683800  0.384700  0.277600  1.0  0.1053
  H  H427  1  0.678000  0.882400  0.717900  1.0  0.1093
  H  H428  1  0.683800  0.884700  0.777600  1.0  0.1053
  H  H429  1  0.178000  0.382400  0.717900  1.0  0.1093
  H  H430  1  0.183800  0.384700  0.777600  1.0  0.1053
  H  H431  1  0.178000  0.882400  0.217900  1.0  0.1093
  H  H432  1  0.183800  0.884700  0.277600  1.0  0.1053
  H  H433  1  0.072000  0.867600  0.717900  1.0  0.1098
  H  H434  1  0.066200  0.865300  0.777600  1.0  0.1058
  H  H435  1  0.072000  0.367600  0.217900  1.0  0.1098
  H  H436  1  0.066200  0.365300  0.277600  1.0  0.1058
  H  H437  1  0.572000  0.867600  0.217900  1.0  0.1098
  H  H438  1  0.566200  0.865300  0.277600  1.0  0.1058
  H  H439  1  0.572000  0.367600  0.717900  1.0  0.1098
  H  H440  1  0.566200  0.365300  0.777600  1.0  0.1058
  H  H441  1  0.572000  0.882400  0.532100  1.0  0.1098
  H  H442  1  0.566200  0.884700  0.472400  1.0  0.105
  H  H443  1  0.572000  0.382400  0.032100  1.0  0.1098
  H  H444  1  0.566200  0.384700  0.972400  1.0  0.105
  H  H445  1  0.072000  0.882400  0.032100  1.0  0.1098
  H  H446  1  0.066200  0.884700  0.972400  1.0  0.105
  H  H447  1  0.072000  0.382400  0.532100  1.0  0.1098
  H  H448  1  0.066200  0.384700  0.472400  1.0  0.105
  C  C449  1  0.008700  0.373600  0.998800  1.0  0.7359
  C  C450  1  0.003100  0.367400  0.054600  1.0  -0.0328
  C  C451  1  0.008700  0.873600  0.498800  1.0  0.7359
  C  C452  1  0.003100  0.867400  0.554600  1.0  -0.0328
  C  C453  1  0.508700  0.373600  0.498800  1.0  0.7359
  C  C454  1  0.503100  0.367400  0.554600  1.0  -0.0328
  C  C455  1  0.508700  0.873600  0.998800  1.0  0.7359
  C  C456  1  0.503100  0.867400  0.054600  1.0  -0.0328
  C  C457  1  0.241300  0.376400  0.498800  1.0  0.7375
  C  C458  1  0.246900  0.382600  0.554600  1.0  -0.0328
  C  C459  1  0.241300  0.876400  0.998800  1.0  0.7375
  C  C460  1  0.246900  0.882600  0.054600  1.0  -0.0328
  C  C461  1  0.741300  0.376400  0.998800  1.0  0.7375
  C  C462  1  0.746900  0.382600  0.054600  1.0  -0.0328
  C  C463  1  0.741300  0.876400  0.498800  1.0  0.7375
  C  C464  1  0.746900  0.882600  0.554600  1.0  -0.0328
  C  C465  1  0.741300  0.873600  0.251200  1.0  0.7355
  C  C466  1  0.746900  0.867400  0.195400  1.0  -0.0324
  C  C467  1  0.741300  0.373600  0.751200  1.0  0.7355
  C  C468  1  0.746900  0.367400  0.695400  1.0  -0.0324
  C  C469  1  0.241300  0.873600  0.751200  1.0  0.7355
  C  C470  1  0.246900  0.867400  0.695400  1.0  -0.0324
  C  C471  1  0.241300  0.373600  0.251200  1.0  0.7355
  C  C472  1  0.246900  0.367400  0.195400  1.0  -0.0324
  C  C473  1  0.508700  0.876400  0.751200  1.0  0.7334
  C  C474  1  0.503100  0.882600  0.695400  1.0  -0.0336
  C  C475  1  0.508700  0.376400  0.251200  1.0  0.7334
  C  C476  1  0.503100  0.382600  0.195400  1.0  -0.0336
  C  C477  1  0.008700  0.876400  0.251200  1.0  0.7334
  C  C478  1  0.003100  0.882600  0.195400  1.0  -0.0336
  C  C479  1  0.008700  0.376400  0.751200  1.0  0.7334
  C  C480  1  0.003100  0.382600  0.695400  1.0  -0.0336
  C  C481  1  0.998800  0.008700  0.373600  1.0  0.7257
  C  C482  1  0.054600  0.003100  0.367400  1.0  -0.0345
  C  C483  1  0.998800  0.508700  0.873600  1.0  0.7257
  C  C484  1  0.054600  0.503100  0.867400  1.0  -0.0345
  C  C485  1  0.498800  0.008700  0.873600  1.0  0.7257
  C  C486  1  0.554600  0.003100  0.867400  1.0  -0.0345
  C  C487  1  0.498800  0.508700  0.373600  1.0  0.7257
  C  C488  1  0.554600  0.503100  0.367400  1.0  -0.0345
  C  C489  1  0.498800  0.241300  0.376400  1.0  0.7253
  C  C490  1  0.554600  0.246900  0.382600  1.0  -0.035
  C  C491  1  0.498800  0.741300  0.876400  1.0  0.7253
  C  C492  1  0.554600  0.746900  0.882600  1.0  -0.035
  C  C493  1  0.998800  0.241300  0.876400  1.0  0.7253
  C  C494  1  0.054600  0.246900  0.882600  1.0  -0.035
  C  C495  1  0.998800  0.741300  0.376400  1.0  0.7253
  C  C496  1  0.054600  0.746900  0.382600  1.0  -0.035
  C  C497  1  0.251200  0.741300  0.873600  1.0  0.7246
  C  C498  1  0.195400  0.746900  0.867400  1.0  -0.0344
  C  C499  1  0.251200  0.241300  0.373600  1.0  0.7246
  C  C500  1  0.195400  0.246900  0.367400  1.0  -0.0344
  C  C501  1  0.751200  0.741300  0.373600  1.0  0.7246
  C  C502  1  0.695400  0.746900  0.367400  1.0  -0.0344
  C  C503  1  0.751200  0.241300  0.873600  1.0  0.7246
  C  C504  1  0.695400  0.246900  0.867400  1.0  -0.0344
  C  C505  1  0.751200  0.508700  0.876400  1.0  0.7245
  C  C506  1  0.695400  0.503100  0.882600  1.0  -0.0345
  C  C507  1  0.751200  0.008700  0.376400  1.0  0.7245
  C  C508  1  0.695400  0.003100  0.382600  1.0  -0.0345
  C  C509  1  0.251200  0.508700  0.376400  1.0  0.7245
  C  C510  1  0.195400  0.503100  0.382600  1.0  -0.0345
  C  C511  1  0.251200  0.008700  0.876400  1.0  0.7245
  C  C512  1  0.195400  0.003100  0.882600  1.0  -0.0345
  C  C513  1  0.373600  0.998800  0.008700  1.0  0.7264
  C  C514  1  0.367400  0.054600  0.003100  1.0  -0.0324
  C  C515  1  0.373600  0.498800  0.508700  1.0  0.7264
  C  C516  1  0.367400  0.554600  0.503100  1.0  -0.0324
  C  C517  1  0.873600  0.998800  0.508700  1.0  0.7264
  C  C518  1  0.867400  0.054600  0.503100  1.0  -0.0324
  C  C519  1  0.873600  0.498800  0.008700  1.0  0.7264
  C  C520  1  0.867400  0.554600  0.003100  1.0  -0.0324
  C  C521  1  0.376400  0.498800  0.241300  1.0  0.7261
  C  C522  1  0.382600  0.554600  0.246900  1.0  -0.0328
  C  C523  1  0.376400  0.998800  0.741300  1.0  0.7261
  C  C524  1  0.382600  0.054600  0.746900  1.0  -0.0328
  C  C525  1  0.876400  0.498800  0.741300  1.0  0.7261
  C  C526  1  0.882600  0.554600  0.746900  1.0  -0.0328
  C  C527  1  0.876400  0.998800  0.241300  1.0  0.7261
  C  C528  1  0.882600  0.054600  0.246900  1.0  -0.0328
  C  C529  1  0.873600  0.251200  0.741300  1.0  0.7287
  C  C530  1  0.867400  0.195400  0.746900  1.0  -0.0333
  C  C531  1  0.873600  0.751200  0.241300  1.0  0.7287
  C  C532  1  0.867400  0.695400  0.246900  1.0  -0.0333
  C  C533  1  0.373600  0.251200  0.241300  1.0  0.7287
  C  C534  1  0.367400  0.195400  0.246900  1.0  -0.0333
  C  C535  1  0.373600  0.751200  0.741300  1.0  0.7287
  C  C536  1  0.367400  0.695400  0.746900  1.0  -0.0333
  C  C537  1  0.876400  0.751200  0.508700  1.0  0.7288
  C  C538  1  0.882600  0.695400  0.503100  1.0  -0.0332
  C  C539  1  0.876400  0.251200  0.008700  1.0  0.7288
  C  C540  1  0.882600  0.195400  0.003100  1.0  -0.0332
  C  C541  1  0.376400  0.751200  0.008700  1.0  0.7288
  C  C542  1  0.382600  0.695400  0.003100  1.0  -0.0332
  C  C543  1  0.376400  0.251200  0.508700  1.0  0.7288
  C  C544  1  0.382600  0.195400  0.503100  1.0  -0.0332
  C  C545  1  0.123600  0.258700  0.001200  1.0  0.7341
  C  C546  1  0.117400  0.253100  0.945400  1.0  -0.033
  C  C547  1  0.123600  0.758700  0.501200  1.0  0.7341
  C  C548  1  0.117400  0.753100  0.445400  1.0  -0.033
  C  C549  1  0.623600  0.258700  0.501200  1.0  0.7341
  C  C550  1  0.617400  0.253100  0.445400  1.0  -0.033
  C  C551  1  0.623600  0.758700  0.001200  1.0  0.7341
  C  C552  1  0.617400  0.753100  0.945400  1.0  -0.033
  C  C553  1  0.126400  0.491300  0.501200  1.0  0.7346
  C  C554  1  0.132600  0.496900  0.445400  1.0  -0.0336
  C  C555  1  0.126400  0.991300  0.001200  1.0  0.7346
  C  C556  1  0.132600  0.996900  0.945400  1.0  -0.0336
  C  C557  1  0.626400  0.491300  0.001200  1.0  0.7346
  C  C558  1  0.632600  0.496900  0.945400  1.0  -0.0336
  C  C559  1  0.626400  0.991300  0.501200  1.0  0.7346
  C  C560  1  0.632600  0.996900  0.445400  1.0  -0.0336
  C  C561  1  0.623600  0.991300  0.748800  1.0  0.7361
  C  C562  1  0.617400  0.996900  0.804600  1.0  -0.0329
  C  C563  1  0.623600  0.491300  0.248800  1.0  0.7361
  C  C564  1  0.617400  0.496900  0.304600  1.0  -0.0329
  C  C565  1  0.123600  0.991300  0.248800  1.0  0.7361
  C  C566  1  0.117400  0.996900  0.304600  1.0  -0.0329
  C  C567  1  0.123600  0.491300  0.748800  1.0  0.7361
  C  C568  1  0.117400  0.496900  0.804600  1.0  -0.0329
  C  C569  1  0.626400  0.758700  0.248800  1.0  0.7364
  C  C570  1  0.632600  0.753100  0.304600  1.0  -0.0328
  C  C571  1  0.626400  0.258700  0.748800  1.0  0.7364
  C  C572  1  0.632600  0.253100  0.804600  1.0  -0.0328
  C  C573  1  0.126400  0.758700  0.748800  1.0  0.7364
  C  C574  1  0.132600  0.753100  0.804600  1.0  -0.0328
  C  C575  1  0.126400  0.258700  0.248800  1.0  0.7364
  C  C576  1  0.132600  0.253100  0.304600  1.0  -0.0328
  C  C577  1  0.758700  0.248800  0.626400  1.0  0.7256
  C  C578  1  0.753100  0.304600  0.632600  1.0  -0.0325
  C  C579  1  0.758700  0.748800  0.126400  1.0  0.7256
  C  C580  1  0.753100  0.804600  0.132600  1.0  -0.0325
  C  C581  1  0.258700  0.248800  0.126400  1.0  0.7256
  C  C582  1  0.253100  0.304600  0.132600  1.0  -0.0325
  C  C583  1  0.258700  0.748800  0.626400  1.0  0.7256
  C  C584  1  0.253100  0.804600  0.632600  1.0  -0.0325
  C  C585  1  0.991300  0.748800  0.623600  1.0  0.7267
  C  C586  1  0.996900  0.804600  0.617400  1.0  -0.0314
  C  C587  1  0.991300  0.248800  0.123600  1.0  0.7267
  C  C588  1  0.996900  0.304600  0.117400  1.0  -0.0314
  C  C589  1  0.491300  0.748800  0.123600  1.0  0.7267
  C  C590  1  0.496900  0.804600  0.117400  1.0  -0.0314
  C  C591  1  0.491300  0.248800  0.623600  1.0  0.7267
  C  C592  1  0.496900  0.304600  0.617400  1.0  -0.0314
  C  C593  1  0.491300  0.501200  0.126400  1.0  0.7288
  C  C594  1  0.496900  0.445400  0.132600  1.0  -0.0324
  C  C595  1  0.491300  0.001200  0.626400  1.0  0.7288
  C  C596  1  0.496900  0.945400  0.632600  1.0  -0.0324
  C  C597  1  0.991300  0.501200  0.626400  1.0  0.7288
  C  C598  1  0.996900  0.445400  0.632600  1.0  -0.0324
  C  C599  1  0.991300  0.001200  0.126400  1.0  0.7288
  C  C600  1  0.996900  0.945400  0.132600  1.0  -0.0324
  C  C601  1  0.258700  0.001200  0.123600  1.0  0.7283
  C  C602  1  0.253100  0.945400  0.117400  1.0  -0.033
  C  C603  1  0.258700  0.501200  0.623600  1.0  0.7283
  C  C604  1  0.253100  0.445400  0.617400  1.0  -0.033
  C  C605  1  0.758700  0.001200  0.623600  1.0  0.7283
  C  C606  1  0.753100  0.945400  0.617400  1.0  -0.033
  C  C607  1  0.758700  0.501200  0.123600  1.0  0.7283
  C  C608  1  0.753100  0.445400  0.117400  1.0  -0.033
  C  C609  1  0.748800  0.623600  0.991300  1.0  0.7259
  C  C610  1  0.804600  0.617400  0.996900  1.0  -0.0349
  C  C611  1  0.748800  0.123600  0.491300  1.0  0.7259
  C  C612  1  0.804600  0.117400  0.496900  1.0  -0.0349
  C  C613  1  0.248800  0.623600  0.491300  1.0  0.7259
  C  C614  1  0.304600  0.617400  0.496900  1.0  -0.0349
  C  C615  1  0.248800  0.123600  0.991300  1.0  0.7259
  C  C616  1  0.304600  0.117400  0.996900  1.0  -0.0349
  C  C617  1  0.248800  0.626400  0.758700  1.0  0.726
  C  C618  1  0.304600  0.632600  0.753100  1.0  -0.0354
  C  C619  1  0.248800  0.126400  0.258700  1.0  0.726
  C  C620  1  0.304600  0.132600  0.253100  1.0  -0.0354
  C  C621  1  0.748800  0.626400  0.258700  1.0  0.726
  C  C622  1  0.804600  0.632600  0.253100  1.0  -0.0354
  C  C623  1  0.748800  0.126400  0.758700  1.0  0.726
  C  C624  1  0.804600  0.132600  0.753100  1.0  -0.0354
  C  C625  1  0.001200  0.123600  0.258700  1.0  0.7252
  C  C626  1  0.945400  0.117400  0.253100  1.0  -0.0345
  C  C627  1  0.001200  0.623600  0.758700  1.0  0.7252
  C  C628  1  0.945400  0.617400  0.753100  1.0  -0.0345
  C  C629  1  0.501200  0.123600  0.758700  1.0  0.7252
  C  C630  1  0.445400  0.117400  0.753100  1.0  -0.0345
  C  C631  1  0.501200  0.623600  0.258700  1.0  0.7252
  C  C632  1  0.445400  0.617400  0.253100  1.0  -0.0345
  C  C633  1  0.501200  0.126400  0.491300  1.0  0.7251
  C  C634  1  0.445400  0.132600  0.496900  1.0  -0.0355
  C  C635  1  0.501200  0.626400  0.991300  1.0  0.7251
  C  C636  1  0.445400  0.632600  0.996900  1.0  -0.0355
  C  C637  1  0.001200  0.126400  0.991300  1.0  0.7251
  C  C638  1  0.945400  0.132600  0.996900  1.0  -0.0355
  C  C639  1  0.001200  0.626400  0.491300  1.0  0.7251
  C  C640  1  0.945400  0.632600  0.496900  1.0  -0.0355
  C  C641  1  0.991300  0.626400  0.001200  1.0  0.735
  C  C642  1  0.996900  0.632600  0.945400  1.0  -0.0331
  C  C643  1  0.991300  0.126400  0.501200  1.0  0.735
  C  C644  1  0.996900  0.132600  0.445400  1.0  -0.0331
  C  C645  1  0.491300  0.626400  0.501200  1.0  0.735
  C  C646  1  0.496900  0.632600  0.445400  1.0  -0.0331
  C  C647  1  0.491300  0.126400  0.001200  1.0  0.735
  C  C648  1  0.496900  0.132600  0.945400  1.0  -0.0331
  C  C649  1  0.758700  0.623600  0.501200  1.0  0.7339
  C  C650  1  0.753100  0.617400  0.445400  1.0  -0.0328
  C  C651  1  0.758700  0.123600  0.001200  1.0  0.7339
  C  C652  1  0.753100  0.117400  0.945400  1.0  -0.0328
  C  C653  1  0.258700  0.623600  0.001200  1.0  0.7339
  C  C654  1  0.253100  0.617400  0.945400  1.0  -0.0328
  C  C655  1  0.258700  0.123600  0.501200  1.0  0.7339
  C  C656  1  0.253100  0.117400  0.445400  1.0  -0.0328
  C  C657  1  0.258700  0.126400  0.748800  1.0  0.736
  C  C658  1  0.253100  0.132600  0.804600  1.0  -0.0335
  C  C659  1  0.258700  0.626400  0.248800  1.0  0.736
  C  C660  1  0.253100  0.632600  0.304600  1.0  -0.0335
  C  C661  1  0.758700  0.126400  0.248800  1.0  0.736
  C  C662  1  0.753100  0.132600  0.304600  1.0  -0.0335
  C  C663  1  0.758700  0.626400  0.748800  1.0  0.736
  C  C664  1  0.753100  0.632600  0.804600  1.0  -0.0335
  C  C665  1  0.491300  0.123600  0.248800  1.0  0.7373
  C  C666  1  0.496900  0.117400  0.304600  1.0  -0.0321
  C  C667  1  0.491300  0.623600  0.748800  1.0  0.7373
  C  C668  1  0.496900  0.617400  0.804600  1.0  -0.0321
  C  C669  1  0.991300  0.123600  0.748800  1.0  0.7373
  C  C670  1  0.996900  0.117400  0.804600  1.0  -0.0321
  C  C671  1  0.991300  0.623600  0.248800  1.0  0.7373
  C  C672  1  0.996900  0.617400  0.304600  1.0  -0.0321
  C  C673  1  0.001200  0.991300  0.626400  1.0  0.7244
  C  C674  1  0.945400  0.996900  0.632600  1.0  -0.035
  C  C675  1  0.001200  0.491300  0.126400  1.0  0.7244
  C  C676  1  0.945400  0.496900  0.132600  1.0  -0.035
  C  C677  1  0.501200  0.991300  0.126400  1.0  0.7244
  C  C678  1  0.445400  0.996900  0.132600  1.0  -0.035
  C  C679  1  0.501200  0.491300  0.626400  1.0  0.7244
  C  C680  1  0.445400  0.496900  0.632600  1.0  -0.035
  C  C681  1  0.501200  0.758700  0.623600  1.0  0.725
  C  C682  1  0.445400  0.753100  0.617400  1.0  -0.034
  C  C683  1  0.501200  0.258700  0.123600  1.0  0.725
  C  C684  1  0.445400  0.253100  0.117400  1.0  -0.034
  C  C685  1  0.001200  0.758700  0.123600  1.0  0.725
  C  C686  1  0.945400  0.753100  0.117400  1.0  -0.034
  C  C687  1  0.001200  0.258700  0.623600  1.0  0.725
  C  C688  1  0.945400  0.253100  0.617400  1.0  -0.034
  C  C689  1  0.748800  0.258700  0.126400  1.0  0.7252
  C  C690  1  0.804600  0.253100  0.132600  1.0  -0.0349
  C  C691  1  0.748800  0.758700  0.626400  1.0  0.7252
  C  C692  1  0.804600  0.753100  0.632600  1.0  -0.0349
  C  C693  1  0.248800  0.258700  0.626400  1.0  0.7252
  C  C694  1  0.304600  0.253100  0.632600  1.0  -0.0349
  C  C695  1  0.248800  0.758700  0.126400  1.0  0.7252
  C  C696  1  0.304600  0.753100  0.132600  1.0  -0.0349
  C  C697  1  0.248800  0.491300  0.123600  1.0  0.7256
  C  C698  1  0.304600  0.496900  0.117400  1.0  -0.0345
  C  C699  1  0.248800  0.991300  0.623600  1.0  0.7256
  C  C700  1  0.304600  0.996900  0.617400  1.0  -0.0345
  C  C701  1  0.748800  0.491300  0.623600  1.0  0.7256
  C  C702  1  0.804600  0.496900  0.617400  1.0  -0.0345
  C  C703  1  0.748800  0.991300  0.123600  1.0  0.7256
  C  C704  1  0.804600  0.996900  0.117400  1.0  -0.0345
  C  C705  1  0.626400  0.001200  0.991300  1.0  0.7287
  C  C706  1  0.632600  0.945400  0.996900  1.0  -0.0337
  C  C707  1  0.626400  0.501200  0.491300  1.0  0.7287
  C  C708  1  0.632600  0.445400  0.496900  1.0  -0.0337
  C  C709  1  0.126400  0.001200  0.491300  1.0  0.7287
  C  C710  1  0.132600  0.945400  0.496900  1.0  -0.0337
  C  C711  1  0.126400  0.501200  0.991300  1.0  0.7287
  C  C712  1  0.132600  0.445400  0.996900  1.0  -0.0337
  C  C713  1  0.623600  0.501200  0.758700  1.0  0.7289
  C  C714  1  0.617400  0.445400  0.753100  1.0  -0.0328
  C  C715  1  0.623600  0.001200  0.258700  1.0  0.7289
  C  C716  1  0.617400  0.945400  0.253100  1.0  -0.0328
  C  C717  1  0.123600  0.501200  0.258700  1.0  0.7289
  C  C718  1  0.117400  0.445400  0.253100  1.0  -0.0328
  C  C719  1  0.123600  0.001200  0.758700  1.0  0.7289
  C  C720  1  0.117400  0.945400  0.753100  1.0  -0.0328
  C  C721  1  0.126400  0.748800  0.258700  1.0  0.7265
  C  C722  1  0.132600  0.804600  0.253100  1.0  -0.0325
  C  C723  1  0.126400  0.248800  0.758700  1.0  0.7265
  C  C724  1  0.132600  0.304600  0.753100  1.0  -0.0325
  C  C725  1  0.626400  0.748800  0.758700  1.0  0.7265
  C  C726  1  0.632600  0.804600  0.753100  1.0  -0.0325
  C  C727  1  0.626400  0.248800  0.258700  1.0  0.7265
  C  C728  1  0.632600  0.304600  0.253100  1.0  -0.0325
  C  C729  1  0.123600  0.248800  0.491300  1.0  0.7261
  C  C730  1  0.117400  0.304600  0.496900  1.0  -0.0326
  C  C731  1  0.123600  0.748800  0.991300  1.0  0.7261
  C  C732  1  0.117400  0.804600  0.996900  1.0  -0.0326
  C  C733  1  0.623600  0.248800  0.991300  1.0  0.7261
  C  C734  1  0.617400  0.304600  0.996900  1.0  -0.0326
  C  C735  1  0.623600  0.748800  0.491300  1.0  0.7261
  C  C736  1  0.617400  0.804600  0.496900  1.0  -0.0326
  C  C737  1  0.876400  0.741300  0.998800  1.0  0.7357
  C  C738  1  0.882600  0.746900  0.054600  1.0  -0.0332
  C  C739  1  0.876400  0.241300  0.498800  1.0  0.7357
  C  C740  1  0.882600  0.246900  0.554600  1.0  -0.0332
  C  C741  1  0.376400  0.741300  0.498800  1.0  0.7357
  C  C742  1  0.382600  0.746900  0.554600  1.0  -0.0332
  C  C743  1  0.376400  0.241300  0.998800  1.0  0.7357
  C  C744  1  0.382600  0.246900  0.054600  1.0  -0.0332
  C  C745  1  0.873600  0.508700  0.498800  1.0  0.7367
  C  C746  1  0.867400  0.503100  0.554600  1.0  -0.0325
  C  C747  1  0.873600  0.008700  0.998800  1.0  0.7367
  C  C748  1  0.867400  0.003100  0.054600  1.0  -0.0325
  C  C749  1  0.373600  0.508700  0.998800  1.0  0.7367
  C  C750  1  0.367400  0.503100  0.054600  1.0  -0.0325
  C  C751  1  0.373600  0.008700  0.498800  1.0  0.7367
  C  C752  1  0.367400  0.003100  0.554600  1.0  -0.0325
  C  C753  1  0.376400  0.008700  0.251200  1.0  0.734
  C  C754  1  0.382600  0.003100  0.195400  1.0  -0.0332
  C  C755  1  0.376400  0.508700  0.751200  1.0  0.734
  C  C756  1  0.382600  0.503100  0.695400  1.0  -0.0332
  C  C757  1  0.876400  0.008700  0.751200  1.0  0.734
  C  C758  1  0.882600  0.003100  0.695400  1.0  -0.0332
  C  C759  1  0.876400  0.508700  0.251200  1.0  0.734
  C  C760  1  0.882600  0.503100  0.195400  1.0  -0.0332
  C  C761  1  0.373600  0.241300  0.751200  1.0  0.7348
  C  C762  1  0.367400  0.246900  0.695400  1.0  -0.0333
  C  C763  1  0.373600  0.741300  0.251200  1.0  0.7348
  C  C764  1  0.367400  0.746900  0.195400  1.0  -0.0333
  C  C765  1  0.873600  0.241300  0.251200  1.0  0.7348
  C  C766  1  0.867400  0.246900  0.195400  1.0  -0.0333
  C  C767  1  0.873600  0.741300  0.751200  1.0  0.7348
  C  C768  1  0.867400  0.746900  0.695400  1.0  -0.0333
  C  C769  1  0.241300  0.751200  0.373600  1.0  0.7291
  C  C770  1  0.246900  0.695400  0.367400  1.0  -0.0323
  C  C771  1  0.241300  0.251200  0.873600  1.0  0.7291
  C  C772  1  0.246900  0.195400  0.867400  1.0  -0.0323
  C  C773  1  0.741300  0.751200  0.873600  1.0  0.7291
  C  C774  1  0.746900  0.695400  0.867400  1.0  -0.0323
  C  C775  1  0.741300  0.251200  0.373600  1.0  0.7291
  C  C776  1  0.746900  0.195400  0.367400  1.0  -0.0323
  C  C777  1  0.008700  0.251200  0.376400  1.0  0.728
  C  C778  1  0.003100  0.195400  0.382600  1.0  -0.0328
  C  C779  1  0.008700  0.751200  0.876400  1.0  0.728
  C  C780  1  0.003100  0.695400  0.882600  1.0  -0.0328
  C  C781  1  0.508700  0.251200  0.876400  1.0  0.728
  C  C782  1  0.503100  0.195400  0.882600  1.0  -0.0328
  C  C783  1  0.508700  0.751200  0.376400  1.0  0.728
  C  C784  1  0.503100  0.695400  0.382600  1.0  -0.0328
  C  C785  1  0.508700  0.498800  0.873600  1.0  0.7259
  C  C786  1  0.503100  0.554600  0.867400  1.0  -0.0321
  C  C787  1  0.508700  0.998800  0.373600  1.0  0.7259
  C  C788  1  0.503100  0.054600  0.367400  1.0  -0.0321
  C  C789  1  0.008700  0.498800  0.373600  1.0  0.7259
  C  C790  1  0.003100  0.554600  0.367400  1.0  -0.0321
  C  C791  1  0.008700  0.998800  0.873600  1.0  0.7259
  C  C792  1  0.003100  0.054600  0.867400  1.0  -0.0321
  C  C793  1  0.741300  0.998800  0.876400  1.0  0.7264
  C  C794  1  0.746900  0.054600  0.882600  1.0  -0.0322
  C  C795  1  0.741300  0.498800  0.376400  1.0  0.7264
  C  C796  1  0.746900  0.554600  0.382600  1.0  -0.0322
  C  C797  1  0.241300  0.998800  0.376400  1.0  0.7264
  C  C798  1  0.246900  0.054600  0.382600  1.0  -0.0322
  C  C799  1  0.241300  0.498800  0.876400  1.0  0.7264
  C  C800  1  0.246900  0.554600  0.882600  1.0  -0.0322
  C  C801  1  0.251200  0.376400  0.008700  1.0  0.7254
  C  C802  1  0.195400  0.382600  0.003100  1.0  -0.0351
  C  C803  1  0.251200  0.876400  0.508700  1.0  0.7254
  C  C804  1  0.195400  0.882600  0.503100  1.0  -0.0351
  C  C805  1  0.751200  0.376400  0.508700  1.0  0.7254
  C  C806  1  0.695400  0.382600  0.503100  1.0  -0.0351
  C  C807  1  0.751200  0.876400  0.008700  1.0  0.7254
  C  C808  1  0.695400  0.882600  0.003100  1.0  -0.0351
  C  C809  1  0.751200  0.373600  0.241300  1.0  0.725
  C  C810  1  0.695400  0.367400  0.246900  1.0  -0.0348
  C  C811  1  0.751200  0.873600  0.741300  1.0  0.725
  C  C812  1  0.695400  0.867400  0.746900  1.0  -0.0348
  C  C813  1  0.251200  0.373600  0.741300  1.0  0.725
  C  C814  1  0.195400  0.367400  0.746900  1.0  -0.0348
  C  C815  1  0.251200  0.873600  0.241300  1.0  0.725
  C  C816  1  0.195400  0.867400  0.246900  1.0  -0.0348
  C  C817  1  0.998800  0.876400  0.741300  1.0  0.7257
  C  C818  1  0.054600  0.882600  0.746900  1.0  -0.0359
  C  C819  1  0.998800  0.376400  0.241300  1.0  0.7257
  C  C820  1  0.054600  0.382600  0.246900  1.0  -0.0359
  C  C821  1  0.498800  0.876400  0.241300  1.0  0.7257
  C  C822  1  0.554600  0.882600  0.246900  1.0  -0.0359
  C  C823  1  0.498800  0.376400  0.741300  1.0  0.7257
  C  C824  1  0.554600  0.382600  0.746900  1.0  -0.0359
  C  C825  1  0.498800  0.873600  0.508700  1.0  0.7261
  C  C826  1  0.554600  0.867400  0.503100  1.0  -0.0346
  C  C827  1  0.498800  0.373600  0.008700  1.0  0.7261
  C  C828  1  0.554600  0.367400  0.003100  1.0  -0.0346
  C  C829  1  0.998800  0.873600  0.008700  1.0  0.7261
  C  C830  1  0.054600  0.867400  0.003100  1.0  -0.0346
  C  C831  1  0.998800  0.373600  0.508700  1.0  0.7261
  C  C832  1  0.054600  0.367400  0.503100  1.0  -0.0346
  O  O833  1  0.014200  0.417500  0.977800  1.0  -0.6624
  O  O834  1  0.008900  0.334300  0.970000  1.0  -0.6423
  O  O835  1  0.014200  0.917500  0.477800  1.0  -0.6624
  O  O836  1  0.008900  0.834300  0.470000  1.0  -0.6423
  O  O837  1  0.514200  0.417500  0.477800  1.0  -0.6624
  O  O838  1  0.508900  0.334300  0.470000  1.0  -0.6423
  O  O839  1  0.514200  0.917500  0.977800  1.0  -0.6624
  O  O840  1  0.508900  0.834300  0.970000  1.0  -0.6423
  O  O841  1  0.235800  0.332500  0.477800  1.0  -0.6636
  O  O842  1  0.241100  0.415700  0.470000  1.0  -0.6414
  O  O843  1  0.235800  0.832500  0.977800  1.0  -0.6636
  O  O844  1  0.241100  0.915700  0.970000  1.0  -0.6414
  O  O845  1  0.735800  0.332500  0.977800  1.0  -0.6636
  O  O846  1  0.741100  0.415700  0.970000  1.0  -0.6414
  O  O847  1  0.735800  0.832500  0.477800  1.0  -0.6636
  O  O848  1  0.741100  0.915700  0.470000  1.0  -0.6414
  O  O849  1  0.735800  0.917500  0.272200  1.0  -0.6619
  O  O850  1  0.741100  0.834300  0.280000  1.0  -0.6437
  O  O851  1  0.735800  0.417500  0.772200  1.0  -0.6619
  O  O852  1  0.741100  0.334300  0.780000  1.0  -0.6437
  O  O853  1  0.235800  0.917500  0.772200  1.0  -0.6619
  O  O854  1  0.241100  0.834300  0.780000  1.0  -0.6437
  O  O855  1  0.235800  0.417500  0.272200  1.0  -0.6619
  O  O856  1  0.241100  0.334300  0.280000  1.0  -0.6437
  O  O857  1  0.514200  0.832500  0.772200  1.0  -0.665
  O  O858  1  0.508900  0.915700  0.780000  1.0  -0.6425
  O  O859  1  0.514200  0.332500  0.272200  1.0  -0.665
  O  O860  1  0.508900  0.415700  0.280000  1.0  -0.6425
  O  O861  1  0.014200  0.832500  0.272200  1.0  -0.665
  O  O862  1  0.008900  0.915700  0.280000  1.0  -0.6425
  O  O863  1  0.014200  0.332500  0.772200  1.0  -0.665
  O  O864  1  0.008900  0.415700  0.780000  1.0  -0.6425
  O  O865  1  0.977800  0.014200  0.417500  1.0  -0.6608
  O  O866  1  0.970000  0.008900  0.334300  1.0  -0.6386
  O  O867  1  0.977800  0.514200  0.917500  1.0  -0.6608
  O  O868  1  0.970000  0.508900  0.834300  1.0  -0.6386
  O  O869  1  0.477800  0.014200  0.917500  1.0  -0.6608
  O  O870  1  0.470000  0.008900  0.834300  1.0  -0.6386
  O  O871  1  0.477800  0.514200  0.417500  1.0  -0.6608
  O  O872  1  0.470000  0.508900  0.334300  1.0  -0.6386
  O  O873  1  0.477800  0.235800  0.332500  1.0  -0.6614
  O  O874  1  0.470000  0.241100  0.415700  1.0  -0.6384
  O  O875  1  0.477800  0.735800  0.832500  1.0  -0.6614
  O  O876  1  0.470000  0.741100  0.915700  1.0  -0.6384
  O  O877  1  0.977800  0.235800  0.832500  1.0  -0.6614
  O  O878  1  0.970000  0.241100  0.915700  1.0  -0.6384
  O  O879  1  0.977800  0.735800  0.332500  1.0  -0.6614
  O  O880  1  0.970000  0.741100  0.415700  1.0  -0.6384
  O  O881  1  0.272200  0.735800  0.917500  1.0  -0.6608
  O  O882  1  0.280000  0.741100  0.834300  1.0  -0.6396
  O  O883  1  0.272200  0.235800  0.417500  1.0  -0.6608
  O  O884  1  0.280000  0.241100  0.334300  1.0  -0.6396
  O  O885  1  0.772200  0.735800  0.417500  1.0  -0.6608
  O  O886  1  0.780000  0.741100  0.334300  1.0  -0.6396
  O  O887  1  0.772200  0.235800  0.917500  1.0  -0.6608
  O  O888  1  0.780000  0.241100  0.834300  1.0  -0.6396
  O  O889  1  0.772200  0.514200  0.832500  1.0  -0.6612
  O  O890  1  0.780000  0.508900  0.915700  1.0  -0.6411
  O  O891  1  0.772200  0.014200  0.332500  1.0  -0.6612
  O  O892  1  0.780000  0.008900  0.415700  1.0  -0.6411
  O  O893  1  0.272200  0.514200  0.332500  1.0  -0.6612
  O  O894  1  0.280000  0.508900  0.415700  1.0  -0.6411
  O  O895  1  0.272200  0.014200  0.832500  1.0  -0.6612
  O  O896  1  0.280000  0.008900  0.915700  1.0  -0.6411
  O  O897  1  0.417500  0.977800  0.014200  1.0  -0.6599
  O  O898  1  0.334300  0.970000  0.008900  1.0  -0.6368
  O  O899  1  0.417500  0.477800  0.514200  1.0  -0.6599
  O  O900  1  0.334300  0.470000  0.508900  1.0  -0.6368
  O  O901  1  0.917500  0.977800  0.514200  1.0  -0.6599
  O  O902  1  0.834300  0.970000  0.508900  1.0  -0.6368
  O  O903  1  0.917500  0.477800  0.014200  1.0  -0.6599
  O  O904  1  0.834300  0.470000  0.008900  1.0  -0.6368
  O  O905  1  0.332500  0.477800  0.235800  1.0  -0.6595
  O  O906  1  0.415700  0.470000  0.241100  1.0  -0.6351
  O  O907  1  0.332500  0.977800  0.735800  1.0  -0.6595
  O  O908  1  0.415700  0.970000  0.741100  1.0  -0.6351
  O  O909  1  0.832500  0.477800  0.735800  1.0  -0.6595
  O  O910  1  0.915700  0.470000  0.741100  1.0  -0.6351
  O  O911  1  0.832500  0.977800  0.235800  1.0  -0.6595
  O  O912  1  0.915700  0.970000  0.241100  1.0  -0.6351
  O  O913  1  0.917500  0.272200  0.735800  1.0  -0.6606
  O  O914  1  0.834300  0.280000  0.741100  1.0  -0.6357
  O  O915  1  0.917500  0.772200  0.235800  1.0  -0.6606
  O  O916  1  0.834300  0.780000  0.241100  1.0  -0.6357
  O  O917  1  0.417500  0.272200  0.235800  1.0  -0.6606
  O  O918  1  0.334300  0.280000  0.241100  1.0  -0.6357
  O  O919  1  0.417500  0.772200  0.735800  1.0  -0.6606
  O  O920  1  0.334300  0.780000  0.741100  1.0  -0.6357
  O  O921  1  0.832500  0.772200  0.514200  1.0  -0.659
  O  O922  1  0.915700  0.780000  0.508900  1.0  -0.6358
  O  O923  1  0.832500  0.272200  0.014200  1.0  -0.659
  O  O924  1  0.915700  0.280000  0.008900  1.0  -0.6358
  O  O925  1  0.332500  0.772200  0.014200  1.0  -0.659
  O  O926  1  0.415700  0.780000  0.008900  1.0  -0.6358
  O  O927  1  0.332500  0.272200  0.514200  1.0  -0.659
  O  O928  1  0.415700  0.280000  0.508900  1.0  -0.6358
  O  O929  1  0.167500  0.264200  0.022200  1.0  -0.6628
  O  O930  1  0.084300  0.258900  0.030000  1.0  -0.6427
  O  O931  1  0.167500  0.764200  0.522200  1.0  -0.6628
  O  O932  1  0.084300  0.758900  0.530000  1.0  -0.6427
  O  O933  1  0.667500  0.264200  0.522200  1.0  -0.6628
  O  O934  1  0.584300  0.258900  0.530000  1.0  -0.6427
  O  O935  1  0.667500  0.764200  0.022200  1.0  -0.6628
  O  O936  1  0.584300  0.758900  0.030000  1.0  -0.6427
  O  O937  1  0.082500  0.485800  0.522200  1.0  -0.6622
  O  O938  1  0.165700  0.491100  0.530000  1.0  -0.6426
  O  O939  1  0.082500  0.985800  0.022200  1.0  -0.6622
  O  O940  1  0.165700  0.991100  0.030000  1.0  -0.6426
  O  O941  1  0.582500  0.485800  0.022200  1.0  -0.6622
  O  O942  1  0.665700  0.491100  0.030000  1.0  -0.6426
  O  O943  1  0.582500  0.985800  0.522200  1.0  -0.6622
  O  O944  1  0.665700  0.991100  0.530000  1.0  -0.6426
  O  O945  1  0.667500  0.985800  0.727800  1.0  -0.6623
  O  O946  1  0.584300  0.991100  0.720000  1.0  -0.6425
  O  O947  1  0.667500  0.485800  0.227800  1.0  -0.6623
  O  O948  1  0.584300  0.491100  0.220000  1.0  -0.6425
  O  O949  1  0.167500  0.985800  0.227800  1.0  -0.6623
  O  O950  1  0.084300  0.991100  0.220000  1.0  -0.6425
  O  O951  1  0.167500  0.485800  0.727800  1.0  -0.6623
  O  O952  1  0.084300  0.491100  0.720000  1.0  -0.6425
  O  O953  1  0.582500  0.764200  0.227800  1.0  -0.6616
  O  O954  1  0.665700  0.758900  0.220000  1.0  -0.6409
  O  O955  1  0.582500  0.264200  0.727800  1.0  -0.6616
  O  O956  1  0.665700  0.258900  0.720000  1.0  -0.6409
  O  O957  1  0.082500  0.764200  0.727800  1.0  -0.6616
  O  O958  1  0.165700  0.758900  0.720000  1.0  -0.6409
  O  O959  1  0.082500  0.264200  0.227800  1.0  -0.6616
  O  O960  1  0.165700  0.258900  0.220000  1.0  -0.6409
  O  O961  1  0.764200  0.227800  0.582500  1.0  -0.6616
  O  O962  1  0.758900  0.220000  0.665700  1.0  -0.6392
  O  O963  1  0.764200  0.727800  0.082500  1.0  -0.6616
  O  O964  1  0.758900  0.720000  0.165700  1.0  -0.6392
  O  O965  1  0.264200  0.227800  0.082500  1.0  -0.6616
  O  O966  1  0.258900  0.220000  0.165700  1.0  -0.6392
  O  O967  1  0.264200  0.727800  0.582500  1.0  -0.6616
  O  O968  1  0.258900  0.720000  0.665700  1.0  -0.6392
  O  O969  1  0.985800  0.727800  0.667500  1.0  -0.6618
  O  O970  1  0.991100  0.720000  0.584300  1.0  -0.6395
  O  O971  1  0.985800  0.227800  0.167500  1.0  -0.6618
  O  O972  1  0.991100  0.220000  0.084300  1.0  -0.6395
  O  O973  1  0.485800  0.727800  0.167500  1.0  -0.6618
  O  O974  1  0.491100  0.720000  0.084300  1.0  -0.6395
  O  O975  1  0.485800  0.227800  0.667500  1.0  -0.6618
  O  O976  1  0.491100  0.220000  0.584300  1.0  -0.6395
  O  O977  1  0.485800  0.522200  0.082500  1.0  -0.6615
  O  O978  1  0.491100  0.530000  0.165700  1.0  -0.6397
  O  O979  1  0.485800  0.022200  0.582500  1.0  -0.6615
  O  O980  1  0.491100  0.030000  0.665700  1.0  -0.6397
  O  O981  1  0.985800  0.522200  0.582500  1.0  -0.6615
  O  O982  1  0.991100  0.530000  0.665700  1.0  -0.6397
  O  O983  1  0.985800  0.022200  0.082500  1.0  -0.6615
  O  O984  1  0.991100  0.030000  0.165700  1.0  -0.6397
  O  O985  1  0.264200  0.022200  0.167500  1.0  -0.6622
  O  O986  1  0.258900  0.030000  0.084300  1.0  -0.639
  O  O987  1  0.264200  0.522200  0.667500  1.0  -0.6622
  O  O988  1  0.258900  0.530000  0.584300  1.0  -0.639
  O  O989  1  0.764200  0.022200  0.667500  1.0  -0.6622
  O  O990  1  0.758900  0.030000  0.584300  1.0  -0.639
  O  O991  1  0.764200  0.522200  0.167500  1.0  -0.6622
  O  O992  1  0.758900  0.530000  0.084300  1.0  -0.639
  O  O993  1  0.727800  0.667500  0.985800  1.0  -0.6594
  O  O994  1  0.720000  0.584300  0.991100  1.0  -0.6359
  O  O995  1  0.727800  0.167500  0.485800  1.0  -0.6594
  O  O996  1  0.720000  0.084300  0.491100  1.0  -0.6359
  O  O997  1  0.227800  0.667500  0.485800  1.0  -0.6594
  O  O998  1  0.220000  0.584300  0.491100  1.0  -0.6359
  O  O999  1  0.227800  0.167500  0.985800  1.0  -0.6594
  O  O1000  1  0.220000  0.084300  0.991100  1.0  -0.6359
  O  O1001  1  0.227800  0.582500  0.764200  1.0  -0.6606
  O  O1002  1  0.220000  0.665700  0.758900  1.0  -0.6351
  O  O1003  1  0.227800  0.082500  0.264200  1.0  -0.6606
  O  O1004  1  0.220000  0.165700  0.258900  1.0  -0.6351
  O  O1005  1  0.727800  0.582500  0.264200  1.0  -0.6606
  O  O1006  1  0.720000  0.665700  0.258900  1.0  -0.6351
  O  O1007  1  0.727800  0.082500  0.764200  1.0  -0.6606
  O  O1008  1  0.720000  0.165700  0.758900  1.0  -0.6351
  O  O1009  1  0.022200  0.167500  0.264200  1.0  -0.6583
  O  O1010  1  0.030000  0.084300  0.258900  1.0  -0.6381
  O  O1011  1  0.022200  0.667500  0.764200  1.0  -0.6583
  O  O1012  1  0.030000  0.584300  0.758900  1.0  -0.6381
  O  O1013  1  0.522200  0.167500  0.764200  1.0  -0.6583
  O  O1014  1  0.530000  0.084300  0.758900  1.0  -0.6381
  O  O1015  1  0.522200  0.667500  0.264200  1.0  -0.6583
  O  O1016  1  0.530000  0.584300  0.258900  1.0  -0.6381
  O  O1017  1  0.522200  0.082500  0.485800  1.0  -0.6604
  O  O1018  1  0.530000  0.165700  0.491100  1.0  -0.637
  O  O1019  1  0.522200  0.582500  0.985800  1.0  -0.6604
  O  O1020  1  0.530000  0.665700  0.991100  1.0  -0.637
  O  O1021  1  0.022200  0.082500  0.985800  1.0  -0.6604
  O  O1022  1  0.030000  0.165700  0.991100  1.0  -0.637
  O  O1023  1  0.022200  0.582500  0.485800  1.0  -0.6604
  O  O1024  1  0.030000  0.665700  0.491100  1.0  -0.637
  O  O1025  1  0.985800  0.582500  0.022200  1.0  -0.6634
  O  O1026  1  0.991100  0.665700  0.030000  1.0  -0.643
  O  O1027  1  0.985800  0.082500  0.522200  1.0  -0.6634
  O  O1028  1  0.991100  0.165700  0.530000  1.0  -0.643
  O  O1029  1  0.485800  0.582500  0.522200  1.0  -0.6634
  O  O1030  1  0.491100  0.665700  0.530000  1.0  -0.643
  O  O1031  1  0.485800  0.082500  0.022200  1.0  -0.6634
  O  O1032  1  0.491100  0.165700  0.030000  1.0  -0.643
  O  O1033  1  0.764200  0.667500  0.522200  1.0  -0.6625
  O  O1034  1  0.758900  0.584300  0.530000  1.0  -0.6431
  O  O1035  1  0.764200  0.167500  0.022200  1.0  -0.6625
  O  O1036  1  0.758900  0.084300  0.030000  1.0  -0.6431
  O  O1037  1  0.264200  0.667500  0.022200  1.0  -0.6625
  O  O1038  1  0.258900  0.584300  0.030000  1.0  -0.6431
  O  O1039  1  0.264200  0.167500  0.522200  1.0  -0.6625
  O  O1040  1  0.258900  0.084300  0.530000  1.0  -0.6431
  O  O1041  1  0.264200  0.082500  0.727800  1.0  -0.6634
  O  O1042  1  0.258900  0.165700  0.720000  1.0  -0.6397
  O  O1043  1  0.264200  0.582500  0.227800  1.0  -0.6634
  O  O1044  1  0.258900  0.665700  0.220000  1.0  -0.6397
  O  O1045  1  0.764200  0.082500  0.227800  1.0  -0.6634
  O  O1046  1  0.758900  0.165700  0.220000  1.0  -0.6397
  O  O1047  1  0.764200  0.582500  0.727800  1.0  -0.6634
  O  O1048  1  0.758900  0.665700  0.720000  1.0  -0.6397
  O  O1049  1  0.485800  0.167500  0.227800  1.0  -0.6612
  O  O1050  1  0.491100  0.084300  0.220000  1.0  -0.6438
  O  O1051  1  0.485800  0.667500  0.727800  1.0  -0.6612
  O  O1052  1  0.491100  0.584300  0.720000  1.0  -0.6438
  O  O1053  1  0.985800  0.167500  0.727800  1.0  -0.6612
  O  O1054  1  0.991100  0.084300  0.720000  1.0  -0.6438
  O  O1055  1  0.985800  0.667500  0.227800  1.0  -0.6612
  O  O1056  1  0.991100  0.584300  0.220000  1.0  -0.6438
  O  O1057  1  0.022200  0.985800  0.582500  1.0  -0.6597
  O  O1058  1  0.030000  0.991100  0.665700  1.0  -0.6403
  O  O1059  1  0.022200  0.485800  0.082500  1.0  -0.6597
  O  O1060  1  0.030000  0.491100  0.165700  1.0  -0.6403
  O  O1061  1  0.522200  0.985800  0.082500  1.0  -0.6597
  O  O1062  1  0.530000  0.991100  0.165700  1.0  -0.6403
  O  O1063  1  0.522200  0.485800  0.582500  1.0  -0.6597
  O  O1064  1  0.530000  0.491100  0.665700  1.0  -0.6403
  O  O1065  1  0.522200  0.764200  0.667500  1.0  -0.6603
  O  O1066  1  0.530000  0.758900  0.584300  1.0  -0.6403
  O  O1067  1  0.522200  0.264200  0.167500  1.0  -0.6603
  O  O1068  1  0.530000  0.258900  0.084300  1.0  -0.6403
  O  O1069  1  0.022200  0.764200  0.167500  1.0  -0.6603
  O  O1070  1  0.030000  0.758900  0.084300  1.0  -0.6403
  O  O1071  1  0.022200  0.264200  0.667500  1.0  -0.6603
  O  O1072  1  0.030000  0.258900  0.584300  1.0  -0.6403
  O  O1073  1  0.727800  0.264200  0.082500  1.0  -0.6606
  O  O1074  1  0.720000  0.258900  0.165700  1.0  -0.6385
  O  O1075  1  0.727800  0.764200  0.582500  1.0  -0.6606
  O  O1076  1  0.720000  0.758900  0.665700  1.0  -0.6385
  O  O1077  1  0.227800  0.264200  0.582500  1.0  -0.6606
  O  O1078  1  0.220000  0.258900  0.665700  1.0  -0.6385
  O  O1079  1  0.227800  0.764200  0.082500  1.0  -0.6606
  O  O1080  1  0.220000  0.758900  0.165700  1.0  -0.6385
  O  O1081  1  0.227800  0.485800  0.167500  1.0  -0.6611
  O  O1082  1  0.220000  0.491100  0.084300  1.0  -0.6387
  O  O1083  1  0.227800  0.985800  0.667500  1.0  -0.6611
  O  O1084  1  0.220000  0.991100  0.584300  1.0  -0.6387
  O  O1085  1  0.727800  0.485800  0.667500  1.0  -0.6611
  O  O1086  1  0.720000  0.491100  0.584300  1.0  -0.6387
  O  O1087  1  0.727800  0.985800  0.167500  1.0  -0.6611
  O  O1088  1  0.720000  0.991100  0.084300  1.0  -0.6387
  O  O1089  1  0.582500  0.022200  0.985800  1.0  -0.6585
  O  O1090  1  0.665700  0.030000  0.991100  1.0  -0.6353
  O  O1091  1  0.582500  0.522200  0.485800  1.0  -0.6585
  O  O1092  1  0.665700  0.530000  0.491100  1.0  -0.6353
  O  O1093  1  0.082500  0.022200  0.485800  1.0  -0.6585
  O  O1094  1  0.165700  0.030000  0.491100  1.0  -0.6353
  O  O1095  1  0.082500  0.522200  0.985800  1.0  -0.6585
  O  O1096  1  0.165700  0.530000  0.991100  1.0  -0.6353
  O  O1097  1  0.667500  0.522200  0.764200  1.0  -0.6593
  O  O1098  1  0.584300  0.530000  0.758900  1.0  -0.636
  O  O1099  1  0.667500  0.022200  0.264200  1.0  -0.6593
  O  O1100  1  0.584300  0.030000  0.258900  1.0  -0.636
  O  O1101  1  0.167500  0.522200  0.264200  1.0  -0.6593
  O  O1102  1  0.084300  0.530000  0.258900  1.0  -0.636
  O  O1103  1  0.167500  0.022200  0.764200  1.0  -0.6593
  O  O1104  1  0.084300  0.030000  0.758900  1.0  -0.636
  O  O1105  1  0.082500  0.727800  0.264200  1.0  -0.6593
  O  O1106  1  0.165700  0.720000  0.258900  1.0  -0.6351
  O  O1107  1  0.082500  0.227800  0.764200  1.0  -0.6593
  O  O1108  1  0.165700  0.220000  0.758900  1.0  -0.6351
  O  O1109  1  0.582500  0.727800  0.764200  1.0  -0.6593
  O  O1110  1  0.665700  0.720000  0.758900  1.0  -0.6351
  O  O1111  1  0.582500  0.227800  0.264200  1.0  -0.6593
  O  O1112  1  0.665700  0.220000  0.258900  1.0  -0.6351
  O  O1113  1  0.167500  0.227800  0.485800  1.0  -0.659
  O  O1114  1  0.084300  0.220000  0.491100  1.0  -0.6367
  O  O1115  1  0.167500  0.727800  0.985800  1.0  -0.659
  O  O1116  1  0.084300  0.720000  0.991100  1.0  -0.6367
  O  O1117  1  0.667500  0.227800  0.985800  1.0  -0.659
  O  O1118  1  0.584300  0.220000  0.991100  1.0  -0.6367
  O  O1119  1  0.667500  0.727800  0.485800  1.0  -0.659
  O  O1120  1  0.584300  0.720000  0.491100  1.0  -0.6367
  O  O1121  1  0.832500  0.735800  0.977800  1.0  -0.6609
  O  O1122  1  0.915700  0.741100  0.970000  1.0  -0.641
  O  O1123  1  0.832500  0.235800  0.477800  1.0  -0.6609
  O  O1124  1  0.915700  0.241100  0.470000  1.0  -0.641
  O  O1125  1  0.332500  0.735800  0.477800  1.0  -0.6609
  O  O1126  1  0.415700  0.741100  0.470000  1.0  -0.641
  O  O1127  1  0.332500  0.235800  0.977800  1.0  -0.6609
  O  O1128  1  0.415700  0.241100  0.970000  1.0  -0.641
  O  O1129  1  0.917500  0.514200  0.477800  1.0  -0.6615
  O  O1130  1  0.834300  0.508900  0.470000  1.0  -0.6426
  O  O1131  1  0.917500  0.014200  0.977800  1.0  -0.6615
  O  O1132  1  0.834300  0.008900  0.970000  1.0  -0.6426
  O  O1133  1  0.417500  0.514200  0.977800  1.0  -0.6615
  O  O1134  1  0.334300  0.508900  0.970000  1.0  -0.6426
  O  O1135  1  0.417500  0.014200  0.477800  1.0  -0.6615
  O  O1136  1  0.334300  0.008900  0.470000  1.0  -0.6426
  O  O1137  1  0.332500  0.014200  0.272200  1.0  -0.6613
  O  O1138  1  0.415700  0.008900  0.280000  1.0  -0.6417
  O  O1139  1  0.332500  0.514200  0.772200  1.0  -0.6613
  O  O1140  1  0.415700  0.508900  0.780000  1.0  -0.6417
  O  O1141  1  0.832500  0.014200  0.772200  1.0  -0.6613
  O  O1142  1  0.915700  0.008900  0.780000  1.0  -0.6417
  O  O1143  1  0.832500  0.514200  0.272200  1.0  -0.6613
  O  O1144  1  0.915700  0.508900  0.280000  1.0  -0.6417
  O  O1145  1  0.417500  0.235800  0.772200  1.0  -0.6625
  O  O1146  1  0.334300  0.241100  0.780000  1.0  -0.6432
  O  O1147  1  0.417500  0.735800  0.272200  1.0  -0.6625
  O  O1148  1  0.334300  0.741100  0.280000  1.0  -0.6432
  O  O1149  1  0.917500  0.235800  0.272200  1.0  -0.6625
  O  O1150  1  0.834300  0.241100  0.280000  1.0  -0.6432
  O  O1151  1  0.917500  0.735800  0.772200  1.0  -0.6625
  O  O1152  1  0.834300  0.741100  0.780000  1.0  -0.6432
  O  O1153  1  0.235800  0.772200  0.417500  1.0  -0.6612
  O  O1154  1  0.241100  0.780000  0.334300  1.0  -0.6384
  O  O1155  1  0.235800  0.272200  0.917500  1.0  -0.6612
  O  O1156  1  0.241100  0.280000  0.834300  1.0  -0.6384
  O  O1157  1  0.735800  0.772200  0.917500  1.0  -0.6612
  O  O1158  1  0.741100  0.780000  0.834300  1.0  -0.6384
  O  O1159  1  0.735800  0.272200  0.417500  1.0  -0.6612
  O  O1160  1  0.741100  0.280000  0.334300  1.0  -0.6384
  O  O1161  1  0.014200  0.272200  0.332500  1.0  -0.6611
  O  O1162  1  0.008900  0.280000  0.415700  1.0  -0.6401
  O  O1163  1  0.014200  0.772200  0.832500  1.0  -0.6611
  O  O1164  1  0.008900  0.780000  0.915700  1.0  -0.6401
  O  O1165  1  0.514200  0.272200  0.832500  1.0  -0.6611
  O  O1166  1  0.508900  0.280000  0.915700  1.0  -0.6401
  O  O1167  1  0.514200  0.772200  0.332500  1.0  -0.6611
  O  O1168  1  0.508900  0.780000  0.415700  1.0  -0.6401
  O  O1169  1  0.514200  0.477800  0.917500  1.0  -0.661
  O  O1170  1  0.508900  0.470000  0.834300  1.0  -0.6383
  O  O1171  1  0.514200  0.977800  0.417500  1.0  -0.661
  O  O1172  1  0.508900  0.970000  0.334300  1.0  -0.6383
  O  O1173  1  0.014200  0.477800  0.417500  1.0  -0.661
  O  O1174  1  0.008900  0.470000  0.334300  1.0  -0.6383
  O  O1175  1  0.014200  0.977800  0.917500  1.0  -0.661
  O  O1176  1  0.008900  0.970000  0.834300  1.0  -0.6383
  O  O1177  1  0.735800  0.977800  0.832500  1.0  -0.6612
  O  O1178  1  0.741100  0.970000  0.915700  1.0  -0.6403
  O  O1179  1  0.735800  0.477800  0.332500  1.0  -0.6612
  O  O1180  1  0.741100  0.470000  0.415700  1.0  -0.6403
  O  O1181  1  0.235800  0.977800  0.332500  1.0  -0.6612
  O  O1182  1  0.241100  0.970000  0.415700  1.0  -0.6403
  O  O1183  1  0.235800  0.477800  0.832500  1.0  -0.6612
  O  O1184  1  0.241100  0.470000  0.915700  1.0  -0.6403
  O  O1185  1  0.272200  0.332500  0.014200  1.0  -0.6592
  O  O1186  1  0.280000  0.415700  0.008900  1.0  -0.6371
  O  O1187  1  0.272200  0.832500  0.514200  1.0  -0.6592
  O  O1188  1  0.280000  0.915700  0.508900  1.0  -0.6371
  O  O1189  1  0.772200  0.332500  0.514200  1.0  -0.6592
  O  O1190  1  0.780000  0.415700  0.508900  1.0  -0.6371
  O  O1191  1  0.772200  0.832500  0.014200  1.0  -0.6592
  O  O1192  1  0.780000  0.915700  0.008900  1.0  -0.6371
  O  O1193  1  0.772200  0.417500  0.235800  1.0  -0.6579
  O  O1194  1  0.780000  0.334300  0.241100  1.0  -0.6379
  O  O1195  1  0.772200  0.917500  0.735800  1.0  -0.6579
  O  O1196  1  0.780000  0.834300  0.741100  1.0  -0.6379
  O  O1197  1  0.272200  0.417500  0.735800  1.0  -0.6579
  O  O1198  1  0.280000  0.334300  0.741100  1.0  -0.6379
  O  O1199  1  0.272200  0.917500  0.235800  1.0  -0.6579
  O  O1200  1  0.280000  0.834300  0.241100  1.0  -0.6379
  O  O1201  1  0.977800  0.832500  0.735800  1.0  -0.6603
  O  O1202  1  0.970000  0.915700  0.741100  1.0  -0.6358
  O  O1203  1  0.977800  0.332500  0.235800  1.0  -0.6603
  O  O1204  1  0.970000  0.415700  0.241100  1.0  -0.6358
  O  O1205  1  0.477800  0.832500  0.235800  1.0  -0.6603
  O  O1206  1  0.470000  0.915700  0.241100  1.0  -0.6358
  O  O1207  1  0.477800  0.332500  0.735800  1.0  -0.6603
  O  O1208  1  0.470000  0.415700  0.741100  1.0  -0.6358
  O  O1209  1  0.477800  0.917500  0.514200  1.0  -0.6584
  O  O1210  1  0.470000  0.834300  0.508900  1.0  -0.6354
  O  O1211  1  0.477800  0.417500  0.014200  1.0  -0.6584
  O  O1212  1  0.470000  0.334300  0.008900  1.0  -0.6354
  O  O1213  1  0.977800  0.917500  0.014200  1.0  -0.6584
  O  O1214  1  0.970000  0.834300  0.008900  1.0  -0.6354
  O  O1215  1  0.977800  0.417500  0.514200  1.0  -0.6584
  O  O1216  1  0.970000  0.334300  0.508900  1.0  -0.6354
  O  O1217  1  0.000000  0.315600  0.065600  1.0  -0.2907
  O  O1218  1  0.000000  0.815600  0.565600  1.0  -0.2907
  O  O1219  1  0.500000  0.315600  0.565600  1.0  -0.2907
  O  O1220  1  0.250000  0.434400  0.565600  1.0  -0.2905
  O  O1221  1  0.750000  0.434400  0.065600  1.0  -0.2905
  O  O1222  1  0.750000  0.815600  0.184400  1.0  -0.2884
  O  O1223  1  0.250000  0.815600  0.684400  1.0  -0.2884
  O  O1224  1  0.500000  0.934400  0.684400  1.0  -0.2876
  O  O1225  1  0.000000  0.934400  0.184400  1.0  -0.2876
  O  O1226  1  0.000000  0.434400  0.684400  1.0  -0.2876
  O  O1227  1  0.065600  0.000000  0.315600  1.0  -0.2887
  O  O1228  1  0.065600  0.500000  0.815600  1.0  -0.2887
  O  O1229  1  0.565600  0.000000  0.815600  1.0  -0.2887
  O  O1230  1  0.565600  0.250000  0.434400  1.0  -0.2867
  O  O1231  1  0.565600  0.750000  0.934400  1.0  -0.2867
  O  O1232  1  0.065600  0.750000  0.434400  1.0  -0.2867
  O  O1233  1  0.184400  0.750000  0.815600  1.0  -0.2889
  O  O1234  1  0.184400  0.250000  0.315600  1.0  -0.2889
  O  O1235  1  0.684400  0.500000  0.934400  1.0  -0.2864
  O  O1236  1  0.684400  0.000000  0.434400  1.0  -0.2864
  O  O1237  1  0.315600  0.065600  0.000000  1.0  -0.288
  O  O1238  1  0.315600  0.565600  0.500000  1.0  -0.288
  O  O1239  1  0.815600  0.565600  0.000000  1.0  -0.288
  O  O1240  1  0.434400  0.565600  0.250000  1.0  -0.2874
  O  O1241  1  0.434400  0.065600  0.750000  1.0  -0.2874
  O  O1242  1  0.815600  0.184400  0.750000  1.0  -0.2871
  O  O1243  1  0.815600  0.684400  0.250000  1.0  -0.2871
  O  O1244  1  0.934400  0.684400  0.500000  1.0  -0.287
  O  O1245  1  0.934400  0.184400  0.000000  1.0  -0.287
  O  O1246  1  0.434400  0.684400  0.000000  1.0  -0.287
  O  O1247  1  0.065600  0.250000  0.934400  1.0  -0.2867
  O  O1248  1  0.184400  0.500000  0.434400  1.0  -0.2864
  O  O1249  1  0.184400  0.000000  0.934400  1.0  -0.2864
  O  O1250  1  0.565600  0.500000  0.315600  1.0  -0.2887
  O  O1251  1  0.684400  0.750000  0.315600  1.0  -0.2889
  O  O1252  1  0.684400  0.250000  0.815600  1.0  -0.2889
  O  O1253  1  0.750000  0.315600  0.684400  1.0  -0.2884
  O  O1254  1  0.250000  0.315600  0.184400  1.0  -0.2884
  O  O1255  1  0.500000  0.815600  0.065600  1.0  -0.2907
  O  O1256  1  0.500000  0.434400  0.184400  1.0  -0.2876
  O  O1257  1  0.250000  0.934400  0.065600  1.0  -0.2905
  O  O1258  1  0.750000  0.934400  0.565600  1.0  -0.2905
  O  O1259  1  0.815600  0.065600  0.500000  1.0  -0.288
  O  O1260  1  0.315600  0.684400  0.750000  1.0  -0.2871
  O  O1261  1  0.315600  0.184400  0.250000  1.0  -0.2871
  O  O1262  1  0.934400  0.065600  0.250000  1.0  -0.2874
  O  O1263  1  0.934400  0.565600  0.750000  1.0  -0.2874
  O  O1264  1  0.434400  0.184400  0.500000  1.0  -0.287
  O  O1265  1  0.000000  0.684400  0.934400  1.0  -0.2876
  O  O1266  1  0.000000  0.184400  0.434400  1.0  -0.2876
  O  O1267  1  0.500000  0.684400  0.434400  1.0  -0.2876
  O  O1268  1  0.750000  0.565600  0.434400  1.0  -0.2884
  O  O1269  1  0.250000  0.565600  0.934400  1.0  -0.2884
  O  O1270  1  0.250000  0.184400  0.815600  1.0  -0.2905
  O  O1271  1  0.750000  0.184400  0.315600  1.0  -0.2905
  O  O1272  1  0.750000  0.684400  0.815600  1.0  -0.2905
  O  O1273  1  0.500000  0.065600  0.315600  1.0  -0.2907
  O  O1274  1  0.000000  0.065600  0.815600  1.0  -0.2907
  O  O1275  1  0.934400  0.000000  0.684400  1.0  -0.2864
  O  O1276  1  0.934400  0.500000  0.184400  1.0  -0.2864
  O  O1277  1  0.434400  0.000000  0.184400  1.0  -0.2864
  O  O1278  1  0.434400  0.750000  0.565600  1.0  -0.2889
  O  O1279  1  0.434400  0.250000  0.065600  1.0  -0.2889
  O  O1280  1  0.815600  0.250000  0.184400  1.0  -0.2867
  O  O1281  1  0.815600  0.750000  0.684400  1.0  -0.2867
  O  O1282  1  0.315600  0.500000  0.065600  1.0  -0.2887
  O  O1283  1  0.315600  0.000000  0.565600  1.0  -0.2887
  O  O1284  1  0.815600  0.000000  0.065600  1.0  -0.2887
  O  O1285  1  0.684400  0.934400  0.000000  1.0  -0.287
  O  O1286  1  0.684400  0.434400  0.500000  1.0  -0.287
  O  O1287  1  0.184400  0.434400  0.000000  1.0  -0.287
  O  O1288  1  0.565600  0.434400  0.750000  1.0  -0.2871
  O  O1289  1  0.565600  0.934400  0.250000  1.0  -0.2871
  O  O1290  1  0.184400  0.815600  0.250000  1.0  -0.2874
  O  O1291  1  0.184400  0.315600  0.750000  1.0  -0.2874
  O  O1292  1  0.684400  0.815600  0.750000  1.0  -0.2874
  O  O1293  1  0.065600  0.315600  0.500000  1.0  -0.288
  O  O1294  1  0.065600  0.815600  0.000000  1.0  -0.288
  O  O1295  1  0.934400  0.750000  0.065600  1.0  -0.2889
  O  O1296  1  0.934400  0.250000  0.565600  1.0  -0.2889
  O  O1297  1  0.815600  0.500000  0.565600  1.0  -0.2887
  O  O1298  1  0.434400  0.500000  0.684400  1.0  -0.2864
  O  O1299  1  0.315600  0.250000  0.684400  1.0  -0.2867
  O  O1300  1  0.315600  0.750000  0.184400  1.0  -0.2867
  O  O1301  1  0.250000  0.684400  0.315600  1.0  -0.2905
  O  O1302  1  0.500000  0.184400  0.934400  1.0  -0.2876
  O  O1303  1  0.500000  0.565600  0.815600  1.0  -0.2907
  O  O1304  1  0.000000  0.565600  0.315600  1.0  -0.2907
  O  O1305  1  0.750000  0.065600  0.934400  1.0  -0.2884
  O  O1306  1  0.250000  0.065600  0.434400  1.0  -0.2884
  O  O1307  1  0.184400  0.934400  0.500000  1.0  -0.287
  O  O1308  1  0.684400  0.315600  0.250000  1.0  -0.2874
  O  O1309  1  0.065600  0.934400  0.750000  1.0  -0.2871
  O  O1310  1  0.065600  0.434400  0.250000  1.0  -0.2871
  O  O1311  1  0.565600  0.815600  0.500000  1.0  -0.288
  O  O1312  1  0.565600  0.315600  0.000000  1.0  -0.288
