# generated using pymatgen
data_ErCdH12(C4O5)3
_symmetry_space_group_name_H-M   'P 1'
_cell_length_a   26.16000000
_cell_length_b   26.16000000
_cell_length_c   26.16000000
_cell_angle_alpha   90.00000000
_cell_angle_beta   90.00000000
_cell_angle_gamma   90.00000000
_symmetry_Int_Tables_number   1
_chemical_formula_structural   ErCdH12(C4O5)3
_chemical_formula_sum   'Er32 Cd32 H384 C384 O480'
_cell_volume   17902.48089600
_cell_formula_units_Z   32
loop_
 _symmetry_equiv_pos_site_id
 _symmetry_equiv_pos_as_xyz
  1  'x, y, z'
loop_
 _atom_site_type_symbol
 _atom_site_label
 _atom_site_symmetry_multiplicity
 _atom_site_fract_x
 _atom_site_fract_y
 _atom_site_fract_z
 _atom_site_occupancy
 _atom_site_charge
  Er  Er1  1  0.000000  0.250000  0.000000  1.0  1.2376
  Er  Er2  1  0.000000  0.750000  0.500000  1.0  1.2376
  Er  Er3  1  0.500000  0.250000  0.500000  1.0  1.2376
  Er  Er4  1  0.250000  0.500000  0.500000  1.0  1.2376
  Er  Er5  1  0.750000  0.000000  0.500000  1.0  1.2376
  Er  Er6  1  0.750000  0.750000  0.250000  1.0  1.2376
  Er  Er7  1  0.500000  0.000000  0.750000  1.0  1.2376
  Er  Er8  1  0.000000  0.000000  0.250000  1.0  1.2376
  Er  Er9  1  0.000000  0.500000  0.750000  1.0  1.2376
  Er  Er10  1  0.500000  0.500000  0.250000  1.0  1.2376
  Er  Er11  1  0.500000  0.750000  0.000000  1.0  1.2376
  Er  Er12  1  0.250000  0.750000  0.750000  1.0  1.2376
  Er  Er13  1  0.250000  0.250000  0.250000  1.0  1.2376
  Er  Er14  1  0.750000  0.500000  0.000000  1.0  1.2376
  Er  Er15  1  0.250000  0.000000  0.000000  1.0  1.2376
  Er  Er16  1  0.750000  0.250000  0.750000  1.0  1.2376
  Er  Er17  1  0.000000  0.750000  0.000000  1.0  1.2376
  Er  Er18  1  0.750000  0.500000  0.500000  1.0  1.2376
  Er  Er19  1  0.250000  0.250000  0.750000  1.0  1.2376
  Er  Er20  1  0.750000  0.750000  0.750000  1.0  1.2376
  Er  Er21  1  0.500000  0.000000  0.250000  1.0  1.2376
  Er  Er22  1  0.000000  0.000000  0.750000  1.0  1.2376
  Er  Er23  1  0.000000  0.500000  0.250000  1.0  1.2376
  Er  Er24  1  0.500000  0.750000  0.500000  1.0  1.2376
  Er  Er25  1  0.500000  0.250000  0.000000  1.0  1.2376
  Er  Er26  1  0.750000  0.250000  0.250000  1.0  1.2376
  Er  Er27  1  0.250000  0.500000  0.000000  1.0  1.2376
  Er  Er28  1  0.250000  0.000000  0.500000  1.0  1.2376
  Er  Er29  1  0.750000  0.000000  0.000000  1.0  1.2376
  Er  Er30  1  0.500000  0.500000  0.750000  1.0  1.2376
  Er  Er31  1  0.250000  0.750000  0.250000  1.0  1.2376
  Er  Er32  1  0.000000  0.250000  0.500000  1.0  1.2376
  Cd  Cd33  1  0.000000  0.500000  0.000000  1.0  1.0808
  Cd  Cd34  1  0.500000  0.500000  0.500000  1.0  1.0808
  Cd  Cd35  1  0.250000  0.250000  0.500000  1.0  1.0808
  Cd  Cd36  1  0.250000  0.750000  0.000000  1.0  1.0808
  Cd  Cd37  1  0.750000  0.000000  0.250000  1.0  1.0808
  Cd  Cd38  1  0.500000  0.750000  0.750000  1.0  1.0808
  Cd  Cd39  1  0.000000  0.250000  0.750000  1.0  1.0808
  Cd  Cd40  1  0.000000  0.000000  0.500000  1.0  1.0808
  Cd  Cd41  1  0.500000  0.250000  0.250000  1.0  1.0808
  Cd  Cd42  1  0.750000  0.500000  0.750000  1.0  1.0808
  Cd  Cd43  1  0.500000  0.000000  0.000000  1.0  1.0808
  Cd  Cd44  1  0.250000  0.500000  0.250000  1.0  1.0808
  Cd  Cd45  1  0.750000  0.750000  0.500000  1.0  1.0808
  Cd  Cd46  1  0.250000  0.250000  0.000000  1.0  1.0808
  Cd  Cd47  1  0.000000  0.500000  0.500000  1.0  1.0808
  Cd  Cd48  1  0.000000  0.000000  0.000000  1.0  1.0808
  Cd  Cd49  1  0.750000  0.000000  0.750000  1.0  1.0808
  Cd  Cd50  1  0.500000  0.750000  0.250000  1.0  1.0808
  Cd  Cd51  1  0.000000  0.750000  0.750000  1.0  1.0808
  Cd  Cd52  1  0.000000  0.250000  0.250000  1.0  1.0808
  Cd  Cd53  1  0.750000  0.250000  0.500000  1.0  1.0808
  Cd  Cd54  1  0.750000  0.750000  0.000000  1.0  1.0808
  Cd  Cd55  1  0.500000  0.500000  0.000000  1.0  1.0808
  Cd  Cd56  1  0.250000  0.000000  0.250000  1.0  1.0808
  Cd  Cd57  1  0.250000  0.500000  0.750000  1.0  1.0808
  Cd  Cd58  1  0.500000  0.000000  0.500000  1.0  1.0808
  Cd  Cd59  1  0.250000  0.000000  0.750000  1.0  1.0808
  Cd  Cd60  1  0.750000  0.250000  0.000000  1.0  1.0808
  Cd  Cd61  1  0.000000  0.750000  0.250000  1.0  1.0808
  Cd  Cd62  1  0.250000  0.750000  0.500000  1.0  1.0808
  Cd  Cd63  1  0.750000  0.500000  0.250000  1.0  1.0808
  Cd  Cd64  1  0.500000  0.250000  0.750000  1.0  1.0808
  H  H65  1  0.032800  0.381900  0.071400  1.0  0.1282
  H  H66  1  0.973000  0.384800  0.066000  1.0  0.1241
  H  H67  1  0.032800  0.881900  0.571400  1.0  0.1282
  H  H68  1  0.973000  0.884800  0.566000  1.0  0.1241
  H  H69  1  0.532800  0.381900  0.571400  1.0  0.1282
  H  H70  1  0.473000  0.384800  0.566000  1.0  0.1241
  H  H71  1  0.532800  0.881900  0.071400  1.0  0.1282
  H  H72  1  0.473000  0.884800  0.066000  1.0  0.1241
  H  H73  1  0.217200  0.368100  0.571400  1.0  0.1287
  H  H74  1  0.277000  0.365200  0.566000  1.0  0.123
  H  H75  1  0.217200  0.868100  0.071400  1.0  0.1287
  H  H76  1  0.277000  0.865200  0.066000  1.0  0.123
  H  H77  1  0.717200  0.368100  0.071400  1.0  0.1287
  H  H78  1  0.777000  0.365200  0.066000  1.0  0.123
  H  H79  1  0.717200  0.868100  0.571400  1.0  0.1287
  H  H80  1  0.777000  0.865200  0.566000  1.0  0.123
  H  H81  1  0.717200  0.881900  0.178600  1.0  0.1287
  H  H82  1  0.777000  0.884800  0.184000  1.0  0.1227
  H  H83  1  0.717200  0.381900  0.678600  1.0  0.1287
  H  H84  1  0.777000  0.384800  0.684000  1.0  0.1227
  H  H85  1  0.217200  0.881900  0.678600  1.0  0.1287
  H  H86  1  0.277000  0.884800  0.684000  1.0  0.1227
  H  H87  1  0.217200  0.381900  0.178600  1.0  0.1287
  H  H88  1  0.277000  0.384800  0.184000  1.0  0.1227
  H  H89  1  0.532800  0.868100  0.678600  1.0  0.1283
  H  H90  1  0.473000  0.865200  0.684000  1.0  0.1245
  H  H91  1  0.532800  0.368100  0.178600  1.0  0.1283
  H  H92  1  0.473000  0.365200  0.184000  1.0  0.1245
  H  H93  1  0.032800  0.868100  0.178600  1.0  0.1283
  H  H94  1  0.973000  0.865200  0.184000  1.0  0.1245
  H  H95  1  0.032800  0.368100  0.678600  1.0  0.1283
  H  H96  1  0.973000  0.365200  0.684000  1.0  0.1245
  H  H97  1  0.071400  0.032800  0.381900  1.0  0.1285
  H  H98  1  0.066000  0.973000  0.384800  1.0  0.126
  H  H99  1  0.071400  0.532800  0.881900  1.0  0.1285
  H  H100  1  0.066000  0.473000  0.884800  1.0  0.126
  H  H101  1  0.571400  0.032800  0.881900  1.0  0.1285
  H  H102  1  0.566000  0.973000  0.884800  1.0  0.126
  H  H103  1  0.571400  0.532800  0.381900  1.0  0.1285
  H  H104  1  0.566000  0.473000  0.384800  1.0  0.126
  H  H105  1  0.571400  0.217200  0.368100  1.0  0.1291
  H  H106  1  0.566000  0.277000  0.365200  1.0  0.1251
  H  H107  1  0.571400  0.717200  0.868100  1.0  0.1291
  H  H108  1  0.566000  0.777000  0.865200  1.0  0.1251
  H  H109  1  0.071400  0.217200  0.868100  1.0  0.1291
  H  H110  1  0.066000  0.277000  0.865200  1.0  0.1251
  H  H111  1  0.071400  0.717200  0.368100  1.0  0.1291
  H  H112  1  0.066000  0.777000  0.365200  1.0  0.1251
  H  H113  1  0.178600  0.717200  0.881900  1.0  0.1293
  H  H114  1  0.184000  0.777000  0.884800  1.0  0.1245
  H  H115  1  0.178600  0.217200  0.381900  1.0  0.1293
  H  H116  1  0.184000  0.277000  0.384800  1.0  0.1245
  H  H117  1  0.678600  0.717200  0.381900  1.0  0.1293
  H  H118  1  0.684000  0.777000  0.384800  1.0  0.1245
  H  H119  1  0.678600  0.217200  0.881900  1.0  0.1293
  H  H120  1  0.684000  0.277000  0.884800  1.0  0.1245
  H  H121  1  0.678600  0.532800  0.868100  1.0  0.1287
  H  H122  1  0.684000  0.473000  0.865200  1.0  0.1255
  H  H123  1  0.678600  0.032800  0.368100  1.0  0.1287
  H  H124  1  0.684000  0.973000  0.365200  1.0  0.1255
  H  H125  1  0.178600  0.532800  0.368100  1.0  0.1287
  H  H126  1  0.184000  0.473000  0.365200  1.0  0.1255
  H  H127  1  0.178600  0.032800  0.868100  1.0  0.1287
  H  H128  1  0.184000  0.973000  0.865200  1.0  0.1255
  H  H129  1  0.381900  0.071400  0.032800  1.0  0.1285
  H  H130  1  0.384800  0.066000  0.973000  1.0  0.1249
  H  H131  1  0.381900  0.571400  0.532800  1.0  0.1285
  H  H132  1  0.384800  0.566000  0.473000  1.0  0.1249
  H  H133  1  0.881900  0.071400  0.532800  1.0  0.1285
  H  H134  1  0.884800  0.066000  0.473000  1.0  0.1249
  H  H135  1  0.881900  0.571400  0.032800  1.0  0.1285
  H  H136  1  0.884800  0.566000  0.973000  1.0  0.1249
  H  H137  1  0.368100  0.571400  0.217200  1.0  0.1283
  H  H138  1  0.365200  0.566000  0.277000  1.0  0.1253
  H  H139  1  0.368100  0.071400  0.717200  1.0  0.1283
  H  H140  1  0.365200  0.066000  0.777000  1.0  0.1253
  H  H141  1  0.868100  0.571400  0.717200  1.0  0.1283
  H  H142  1  0.865200  0.566000  0.777000  1.0  0.1253
  H  H143  1  0.868100  0.071400  0.217200  1.0  0.1283
  H  H144  1  0.865200  0.066000  0.277000  1.0  0.1253
  H  H145  1  0.881900  0.178600  0.717200  1.0  0.1284
  H  H146  1  0.884800  0.184000  0.777000  1.0  0.1251
  H  H147  1  0.881900  0.678600  0.217200  1.0  0.1284
  H  H148  1  0.884800  0.684000  0.277000  1.0  0.1251
  H  H149  1  0.381900  0.178600  0.217200  1.0  0.1284
  H  H150  1  0.384800  0.184000  0.277000  1.0  0.1251
  H  H151  1  0.381900  0.678600  0.717200  1.0  0.1284
  H  H152  1  0.384800  0.684000  0.777000  1.0  0.1251
  H  H153  1  0.868100  0.678600  0.532800  1.0  0.1287
  H  H154  1  0.865200  0.684000  0.473000  1.0  0.1249
  H  H155  1  0.868100  0.178600  0.032800  1.0  0.1287
  H  H156  1  0.865200  0.184000  0.973000  1.0  0.1249
  H  H157  1  0.368100  0.678600  0.032800  1.0  0.1287
  H  H158  1  0.365200  0.684000  0.973000  1.0  0.1249
  H  H159  1  0.368100  0.178600  0.532800  1.0  0.1287
  H  H160  1  0.365200  0.184000  0.473000  1.0  0.1249
  H  H161  1  0.131900  0.282800  0.928600  1.0  0.1289
  H  H162  1  0.134800  0.223000  0.934000  1.0  0.1267
  H  H163  1  0.131900  0.782800  0.428600  1.0  0.1289
  H  H164  1  0.134800  0.723000  0.434000  1.0  0.1267
  H  H165  1  0.631900  0.282800  0.428600  1.0  0.1289
  H  H166  1  0.634800  0.223000  0.434000  1.0  0.1267
  H  H167  1  0.631900  0.782800  0.928600  1.0  0.1289
  H  H168  1  0.634800  0.723000  0.934000  1.0  0.1267
  H  H169  1  0.118100  0.467200  0.428600  1.0  0.1293
  H  H170  1  0.115200  0.527000  0.434000  1.0  0.1262
  H  H171  1  0.118100  0.967200  0.928600  1.0  0.1293
  H  H172  1  0.115200  0.027000  0.934000  1.0  0.1262
  H  H173  1  0.618100  0.467200  0.928600  1.0  0.1293
  H  H174  1  0.615200  0.527000  0.934000  1.0  0.1262
  H  H175  1  0.618100  0.967200  0.428600  1.0  0.1293
  H  H176  1  0.615200  0.027000  0.434000  1.0  0.1262
  H  H177  1  0.631900  0.967200  0.821400  1.0  0.1293
  H  H178  1  0.634800  0.027000  0.816000  1.0  0.1256
  H  H179  1  0.631900  0.467200  0.321400  1.0  0.1293
  H  H180  1  0.634800  0.527000  0.316000  1.0  0.1256
  H  H181  1  0.131900  0.967200  0.321400  1.0  0.1293
  H  H182  1  0.134800  0.027000  0.316000  1.0  0.1256
  H  H183  1  0.131900  0.467200  0.821400  1.0  0.1293
  H  H184  1  0.134800  0.527000  0.816000  1.0  0.1256
  H  H185  1  0.618100  0.782800  0.321400  1.0  0.1286
  H  H186  1  0.615200  0.723000  0.316000  1.0  0.1268
  H  H187  1  0.618100  0.282800  0.821400  1.0  0.1286
  H  H188  1  0.615200  0.223000  0.816000  1.0  0.1268
  H  H189  1  0.118100  0.782800  0.821400  1.0  0.1286
  H  H190  1  0.115200  0.723000  0.816000  1.0  0.1268
  H  H191  1  0.118100  0.282800  0.321400  1.0  0.1286
  H  H192  1  0.115200  0.223000  0.316000  1.0  0.1268
  H  H193  1  0.782800  0.321400  0.618100  1.0  0.1282
  H  H194  1  0.723000  0.316000  0.615200  1.0  0.1233
  H  H195  1  0.782800  0.821400  0.118100  1.0  0.1282
  H  H196  1  0.723000  0.816000  0.115200  1.0  0.1233
  H  H197  1  0.282800  0.321400  0.118100  1.0  0.1282
  H  H198  1  0.223000  0.316000  0.115200  1.0  0.1233
  H  H199  1  0.282800  0.821400  0.618100  1.0  0.1282
  H  H200  1  0.223000  0.816000  0.615200  1.0  0.1233
  H  H201  1  0.967200  0.821400  0.631900  1.0  0.1282
  H  H202  1  0.027000  0.816000  0.634800  1.0  0.1218
  H  H203  1  0.967200  0.321400  0.131900  1.0  0.1282
  H  H204  1  0.027000  0.316000  0.134800  1.0  0.1218
  H  H205  1  0.467200  0.821400  0.131900  1.0  0.1282
  H  H206  1  0.527000  0.816000  0.134800  1.0  0.1218
  H  H207  1  0.467200  0.321400  0.631900  1.0  0.1282
  H  H208  1  0.527000  0.316000  0.634800  1.0  0.1218
  H  H209  1  0.467200  0.428600  0.118100  1.0  0.1285
  H  H210  1  0.527000  0.434000  0.115200  1.0  0.122
  H  H211  1  0.467200  0.928600  0.618100  1.0  0.1285
  H  H212  1  0.527000  0.934000  0.615200  1.0  0.122
  H  H213  1  0.967200  0.428600  0.618100  1.0  0.1285
  H  H214  1  0.027000  0.434000  0.615200  1.0  0.122
  H  H215  1  0.967200  0.928600  0.118100  1.0  0.1285
  H  H216  1  0.027000  0.934000  0.115200  1.0  0.122
  H  H217  1  0.282800  0.928600  0.131900  1.0  0.1282
  H  H218  1  0.223000  0.934000  0.134800  1.0  0.1233
  H  H219  1  0.282800  0.428600  0.631900  1.0  0.1282
  H  H220  1  0.223000  0.434000  0.634800  1.0  0.1233
  H  H221  1  0.782800  0.928600  0.631900  1.0  0.1282
  H  H222  1  0.723000  0.934000  0.634800  1.0  0.1233
  H  H223  1  0.782800  0.428600  0.131900  1.0  0.1282
  H  H224  1  0.723000  0.434000  0.134800  1.0  0.1233
  H  H225  1  0.821400  0.631900  0.967200  1.0  0.1284
  H  H226  1  0.816000  0.634800  0.027000  1.0  0.1251
  H  H227  1  0.821400  0.131900  0.467200  1.0  0.1284
  H  H228  1  0.816000  0.134800  0.527000  1.0  0.1251
  H  H229  1  0.321400  0.631900  0.467200  1.0  0.1284
  H  H230  1  0.316000  0.634800  0.527000  1.0  0.1251
  H  H231  1  0.321400  0.131900  0.967200  1.0  0.1284
  H  H232  1  0.316000  0.134800  0.027000  1.0  0.1251
  H  H233  1  0.321400  0.618100  0.782800  1.0  0.1288
  H  H234  1  0.316000  0.615200  0.723000  1.0  0.1255
  H  H235  1  0.321400  0.118100  0.282800  1.0  0.1288
  H  H236  1  0.316000  0.115200  0.223000  1.0  0.1255
  H  H237  1  0.821400  0.618100  0.282800  1.0  0.1288
  H  H238  1  0.816000  0.615200  0.223000  1.0  0.1255
  H  H239  1  0.821400  0.118100  0.782800  1.0  0.1288
  H  H240  1  0.816000  0.115200  0.723000  1.0  0.1255
  H  H241  1  0.928600  0.131900  0.282800  1.0  0.1283
  H  H242  1  0.934000  0.134800  0.223000  1.0  0.125
  H  H243  1  0.928600  0.631900  0.782800  1.0  0.1283
  H  H244  1  0.934000  0.634800  0.723000  1.0  0.125
  H  H245  1  0.428600  0.131900  0.782800  1.0  0.1283
  H  H246  1  0.434000  0.134800  0.723000  1.0  0.125
  H  H247  1  0.428600  0.631900  0.282800  1.0  0.1283
  H  H248  1  0.434000  0.634800  0.223000  1.0  0.125
  H  H249  1  0.428600  0.118100  0.467200  1.0  0.1285
  H  H250  1  0.434000  0.115200  0.527000  1.0  0.1255
  H  H251  1  0.428600  0.618100  0.967200  1.0  0.1285
  H  H252  1  0.434000  0.615200  0.027000  1.0  0.1255
  H  H253  1  0.928600  0.118100  0.967200  1.0  0.1285
  H  H254  1  0.934000  0.115200  0.027000  1.0  0.1255
  H  H255  1  0.928600  0.618100  0.467200  1.0  0.1285
  H  H256  1  0.934000  0.615200  0.527000  1.0  0.1255
  H  H257  1  0.967200  0.618100  0.928600  1.0  0.1285
  H  H258  1  0.027000  0.615200  0.934000  1.0  0.123
  H  H259  1  0.967200  0.118100  0.428600  1.0  0.1285
  H  H260  1  0.027000  0.115200  0.434000  1.0  0.123
  H  H261  1  0.467200  0.618100  0.428600  1.0  0.1285
  H  H262  1  0.527000  0.615200  0.434000  1.0  0.123
  H  H263  1  0.467200  0.118100  0.928600  1.0  0.1285
  H  H264  1  0.527000  0.115200  0.934000  1.0  0.123
  H  H265  1  0.782800  0.631900  0.428600  1.0  0.1284
  H  H266  1  0.723000  0.634800  0.434000  1.0  0.1244
  H  H267  1  0.782800  0.131900  0.928600  1.0  0.1284
  H  H268  1  0.723000  0.134800  0.934000  1.0  0.1244
  H  H269  1  0.282800  0.631900  0.928600  1.0  0.1284
  H  H270  1  0.223000  0.634800  0.934000  1.0  0.1244
  H  H271  1  0.282800  0.131900  0.428600  1.0  0.1284
  H  H272  1  0.223000  0.134800  0.434000  1.0  0.1244
  H  H273  1  0.282800  0.118100  0.821400  1.0  0.1285
  H  H274  1  0.223000  0.115200  0.816000  1.0  0.1243
  H  H275  1  0.282800  0.618100  0.321400  1.0  0.1285
  H  H276  1  0.223000  0.615200  0.316000  1.0  0.1243
  H  H277  1  0.782800  0.118100  0.321400  1.0  0.1285
  H  H278  1  0.723000  0.115200  0.316000  1.0  0.1243
  H  H279  1  0.782800  0.618100  0.821400  1.0  0.1285
  H  H280  1  0.723000  0.615200  0.816000  1.0  0.1243
  H  H281  1  0.467200  0.131900  0.321400  1.0  0.1285
  H  H282  1  0.527000  0.134800  0.316000  1.0  0.1228
  H  H283  1  0.467200  0.631900  0.821400  1.0  0.1285
  H  H284  1  0.527000  0.634800  0.816000  1.0  0.1228
  H  H285  1  0.967200  0.131900  0.821400  1.0  0.1285
  H  H286  1  0.027000  0.134800  0.816000  1.0  0.1228
  H  H287  1  0.967200  0.631900  0.321400  1.0  0.1285
  H  H288  1  0.027000  0.634800  0.316000  1.0  0.1228
  H  H289  1  0.928600  0.967200  0.618100  1.0  0.1291
  H  H290  1  0.934000  0.027000  0.615200  1.0  0.1251
  H  H291  1  0.928600  0.467200  0.118100  1.0  0.1291
  H  H292  1  0.934000  0.527000  0.115200  1.0  0.1251
  H  H293  1  0.428600  0.967200  0.118100  1.0  0.1291
  H  H294  1  0.434000  0.027000  0.115200  1.0  0.1251
  H  H295  1  0.428600  0.467200  0.618100  1.0  0.1291
  H  H296  1  0.434000  0.527000  0.615200  1.0  0.1251
  H  H297  1  0.428600  0.782800  0.631900  1.0  0.1284
  H  H298  1  0.434000  0.723000  0.634800  1.0  0.1257
  H  H299  1  0.428600  0.282800  0.131900  1.0  0.1284
  H  H300  1  0.434000  0.223000  0.134800  1.0  0.1257
  H  H301  1  0.928600  0.782800  0.131900  1.0  0.1284
  H  H302  1  0.934000  0.723000  0.134800  1.0  0.1257
  H  H303  1  0.928600  0.282800  0.631900  1.0  0.1284
  H  H304  1  0.934000  0.223000  0.634800  1.0  0.1257
  H  H305  1  0.821400  0.282800  0.118100  1.0  0.1288
  H  H306  1  0.816000  0.223000  0.115200  1.0  0.1257
  H  H307  1  0.821400  0.782800  0.618100  1.0  0.1288
  H  H308  1  0.816000  0.723000  0.615200  1.0  0.1257
  H  H309  1  0.321400  0.282800  0.618100  1.0  0.1288
  H  H310  1  0.316000  0.223000  0.615200  1.0  0.1257
  H  H311  1  0.321400  0.782800  0.118100  1.0  0.1288
  H  H312  1  0.316000  0.723000  0.115200  1.0  0.1257
  H  H313  1  0.321400  0.467200  0.131900  1.0  0.1292
  H  H314  1  0.316000  0.527000  0.134800  1.0  0.1245
  H  H315  1  0.321400  0.967200  0.631900  1.0  0.1292
  H  H316  1  0.316000  0.027000  0.634800  1.0  0.1245
  H  H317  1  0.821400  0.467200  0.631900  1.0  0.1292
  H  H318  1  0.816000  0.527000  0.634800  1.0  0.1245
  H  H319  1  0.821400  0.967200  0.131900  1.0  0.1292
  H  H320  1  0.816000  0.027000  0.134800  1.0  0.1245
  H  H321  1  0.618100  0.928600  0.967200  1.0  0.1285
  H  H322  1  0.615200  0.934000  0.027000  1.0  0.125
  H  H323  1  0.618100  0.428600  0.467200  1.0  0.1285
  H  H324  1  0.615200  0.434000  0.527000  1.0  0.125
  H  H325  1  0.118100  0.928600  0.467200  1.0  0.1285
  H  H326  1  0.115200  0.934000  0.527000  1.0  0.125
  H  H327  1  0.118100  0.428600  0.967200  1.0  0.1285
  H  H328  1  0.115200  0.434000  0.027000  1.0  0.125
  H  H329  1  0.631900  0.428600  0.782800  1.0  0.1286
  H  H330  1  0.634800  0.434000  0.723000  1.0  0.1249
  H  H331  1  0.631900  0.928600  0.282800  1.0  0.1286
  H  H332  1  0.634800  0.934000  0.223000  1.0  0.1249
  H  H333  1  0.131900  0.428600  0.282800  1.0  0.1286
  H  H334  1  0.134800  0.434000  0.223000  1.0  0.1249
  H  H335  1  0.131900  0.928600  0.782800  1.0  0.1286
  H  H336  1  0.134800  0.934000  0.723000  1.0  0.1249
  H  H337  1  0.118100  0.821400  0.282800  1.0  0.1284
  H  H338  1  0.115200  0.816000  0.223000  1.0  0.1248
  H  H339  1  0.118100  0.321400  0.782800  1.0  0.1284
  H  H340  1  0.115200  0.316000  0.723000  1.0  0.1248
  H  H341  1  0.618100  0.821400  0.782800  1.0  0.1284
  H  H342  1  0.615200  0.816000  0.723000  1.0  0.1248
  H  H343  1  0.618100  0.321400  0.282800  1.0  0.1284
  H  H344  1  0.615200  0.316000  0.223000  1.0  0.1248
  H  H345  1  0.131900  0.321400  0.467200  1.0  0.1283
  H  H346  1  0.134800  0.316000  0.527000  1.0  0.1253
  H  H347  1  0.131900  0.821400  0.967200  1.0  0.1283
  H  H348  1  0.134800  0.816000  0.027000  1.0  0.1253
  H  H349  1  0.631900  0.321400  0.967200  1.0  0.1283
  H  H350  1  0.634800  0.316000  0.027000  1.0  0.1253
  H  H351  1  0.631900  0.821400  0.467200  1.0  0.1283
  H  H352  1  0.634800  0.816000  0.527000  1.0  0.1253
  H  H353  1  0.868100  0.717200  0.071400  1.0  0.1295
  H  H354  1  0.865200  0.777000  0.066000  1.0  0.1259
  H  H355  1  0.868100  0.217200  0.571400  1.0  0.1295
  H  H356  1  0.865200  0.277000  0.566000  1.0  0.1259
  H  H357  1  0.368100  0.717200  0.571400  1.0  0.1295
  H  H358  1  0.365200  0.777000  0.566000  1.0  0.1259
  H  H359  1  0.368100  0.217200  0.071400  1.0  0.1295
  H  H360  1  0.365200  0.277000  0.066000  1.0  0.1259
  H  H361  1  0.881900  0.532800  0.571400  1.0  0.1286
  H  H362  1  0.884800  0.473000  0.566000  1.0  0.1267
  H  H363  1  0.881900  0.032800  0.071400  1.0  0.1286
  H  H364  1  0.884800  0.973000  0.066000  1.0  0.1267
  H  H365  1  0.381900  0.532800  0.071400  1.0  0.1286
  H  H366  1  0.384800  0.473000  0.066000  1.0  0.1267
  H  H367  1  0.381900  0.032800  0.571400  1.0  0.1286
  H  H368  1  0.384800  0.973000  0.566000  1.0  0.1267
  H  H369  1  0.368100  0.032800  0.178600  1.0  0.129
  H  H370  1  0.365200  0.973000  0.184000  1.0  0.1269
  H  H371  1  0.368100  0.532800  0.678600  1.0  0.129
  H  H372  1  0.365200  0.473000  0.684000  1.0  0.1269
  H  H373  1  0.868100  0.032800  0.678600  1.0  0.129
  H  H374  1  0.865200  0.973000  0.684000  1.0  0.1269
  H  H375  1  0.868100  0.532800  0.178600  1.0  0.129
  H  H376  1  0.865200  0.473000  0.184000  1.0  0.1269
  H  H377  1  0.381900  0.217200  0.678600  1.0  0.1291
  H  H378  1  0.384800  0.277000  0.684000  1.0  0.1258
  H  H379  1  0.381900  0.717200  0.178600  1.0  0.1291
  H  H380  1  0.384800  0.777000  0.184000  1.0  0.1258
  H  H381  1  0.881900  0.217200  0.178600  1.0  0.1291
  H  H382  1  0.884800  0.277000  0.184000  1.0  0.1258
  H  H383  1  0.881900  0.717200  0.678600  1.0  0.1291
  H  H384  1  0.884800  0.777000  0.684000  1.0  0.1258
  H  H385  1  0.217200  0.678600  0.381900  1.0  0.1284
  H  H386  1  0.277000  0.684000  0.384800  1.0  0.1218
  H  H387  1  0.217200  0.178600  0.881900  1.0  0.1284
  H  H388  1  0.277000  0.184000  0.884800  1.0  0.1218
  H  H389  1  0.717200  0.678600  0.881900  1.0  0.1284
  H  H390  1  0.777000  0.684000  0.884800  1.0  0.1218
  H  H391  1  0.717200  0.178600  0.381900  1.0  0.1284
  H  H392  1  0.777000  0.184000  0.384800  1.0  0.1218
  H  H393  1  0.032800  0.178600  0.368100  1.0  0.1282
  H  H394  1  0.973000  0.184000  0.365200  1.0  0.1235
  H  H395  1  0.032800  0.678600  0.868100  1.0  0.1282
  H  H396  1  0.973000  0.684000  0.865200  1.0  0.1235
  H  H397  1  0.532800  0.178600  0.868100  1.0  0.1282
  H  H398  1  0.473000  0.184000  0.865200  1.0  0.1235
  H  H399  1  0.532800  0.678600  0.368100  1.0  0.1282
  H  H400  1  0.473000  0.684000  0.365200  1.0  0.1235
  H  H401  1  0.532800  0.571400  0.881900  1.0  0.128
  H  H402  1  0.473000  0.566000  0.884800  1.0  0.1233
  H  H403  1  0.532800  0.071400  0.381900  1.0  0.128
  H  H404  1  0.473000  0.066000  0.384800  1.0  0.1233
  H  H405  1  0.032800  0.571400  0.381900  1.0  0.128
  H  H406  1  0.973000  0.566000  0.384800  1.0  0.1233
  H  H407  1  0.032800  0.071400  0.881900  1.0  0.128
  H  H408  1  0.973000  0.066000  0.884800  1.0  0.1233
  H  H409  1  0.717200  0.071400  0.868100  1.0  0.1285
  H  H410  1  0.777000  0.066000  0.865200  1.0  0.122
  H  H411  1  0.717200  0.571400  0.368100  1.0  0.1285
  H  H412  1  0.777000  0.566000  0.365200  1.0  0.122
  H  H413  1  0.217200  0.071400  0.368100  1.0  0.1285
  H  H414  1  0.277000  0.066000  0.365200  1.0  0.122
  H  H415  1  0.217200  0.571400  0.868100  1.0  0.1285
  H  H416  1  0.277000  0.566000  0.865200  1.0  0.122
  H  H417  1  0.178600  0.368100  0.032800  1.0  0.1286
  H  H418  1  0.184000  0.365200  0.973000  1.0  0.1252
  H  H419  1  0.178600  0.868100  0.532800  1.0  0.1286
  H  H420  1  0.184000  0.865200  0.473000  1.0  0.1252
  H  H421  1  0.678600  0.368100  0.532800  1.0  0.1286
  H  H422  1  0.684000  0.365200  0.473000  1.0  0.1252
  H  H423  1  0.678600  0.868100  0.032800  1.0  0.1286
  H  H424  1  0.684000  0.865200  0.973000  1.0  0.1252
  H  H425  1  0.678600  0.381900  0.217200  1.0  0.1283
  H  H426  1  0.684000  0.384800  0.277000  1.0  0.125
  H  H427  1  0.678600  0.881900  0.717200  1.0  0.1283
  H  H428  1  0.684000  0.884800  0.777000  1.0  0.125
  H  H429  1  0.178600  0.381900  0.717200  1.0  0.1283
  H  H430  1  0.184000  0.384800  0.777000  1.0  0.125
  H  H431  1  0.178600  0.881900  0.217200  1.0  0.1283
  H  H432  1  0.184000  0.884800  0.277000  1.0  0.125
  H  H433  1  0.071400  0.868100  0.717200  1.0  0.1286
  H  H434  1  0.066000  0.865200  0.777000  1.0  0.1258
  H  H435  1  0.071400  0.368100  0.217200  1.0  0.1286
  H  H436  1  0.066000  0.365200  0.277000  1.0  0.1258
  H  H437  1  0.571400  0.868100  0.217200  1.0  0.1286
  H  H438  1  0.566000  0.865200  0.277000  1.0  0.1258
  H  H439  1  0.571400  0.368100  0.717200  1.0  0.1286
  H  H440  1  0.566000  0.365200  0.777000  1.0  0.1258
  H  H441  1  0.571400  0.881900  0.532800  1.0  0.1286
  H  H442  1  0.566000  0.884800  0.473000  1.0  0.125
  H  H443  1  0.571400  0.381900  0.032800  1.0  0.1286
  H  H444  1  0.566000  0.384800  0.973000  1.0  0.125
  H  H445  1  0.071400  0.881900  0.032800  1.0  0.1286
  H  H446  1  0.066000  0.884800  0.973000  1.0  0.125
  H  H447  1  0.071400  0.381900  0.532800  1.0  0.1286
  H  H448  1  0.066000  0.384800  0.473000  1.0  0.125
  C  C449  1  0.008700  0.373300  0.998700  1.0  0.7615
  C  C450  1  0.003400  0.367200  0.054200  1.0  -0.0141
  C  C451  1  0.008700  0.873300  0.498700  1.0  0.7615
  C  C452  1  0.003400  0.867200  0.554200  1.0  -0.0141
  C  C453  1  0.508700  0.373300  0.498700  1.0  0.7615
  C  C454  1  0.503400  0.367200  0.554200  1.0  -0.0141
  C  C455  1  0.508700  0.873300  0.998700  1.0  0.7615
  C  C456  1  0.503400  0.867200  0.054200  1.0  -0.0141
  C  C457  1  0.241300  0.376700  0.498700  1.0  0.7627
  C  C458  1  0.246600  0.382800  0.554200  1.0  -0.0149
  C  C459  1  0.241300  0.876700  0.998700  1.0  0.7627
  C  C460  1  0.246600  0.882800  0.054200  1.0  -0.0149
  C  C461  1  0.741300  0.376700  0.998700  1.0  0.7627
  C  C462  1  0.746600  0.382800  0.054200  1.0  -0.0149
  C  C463  1  0.741300  0.876700  0.498700  1.0  0.7627
  C  C464  1  0.746600  0.882800  0.554200  1.0  -0.0149
  C  C465  1  0.741300  0.873300  0.251300  1.0  0.7614
  C  C466  1  0.746600  0.867200  0.195800  1.0  -0.0143
  C  C467  1  0.741300  0.373300  0.751300  1.0  0.7614
  C  C468  1  0.746600  0.367200  0.695800  1.0  -0.0143
  C  C469  1  0.241300  0.873300  0.751300  1.0  0.7614
  C  C470  1  0.246600  0.867200  0.695800  1.0  -0.0143
  C  C471  1  0.241300  0.373300  0.251300  1.0  0.7614
  C  C472  1  0.246600  0.367200  0.195800  1.0  -0.0143
  C  C473  1  0.508700  0.876700  0.751300  1.0  0.7604
  C  C474  1  0.503400  0.882800  0.695800  1.0  -0.0155
  C  C475  1  0.508700  0.376700  0.251300  1.0  0.7604
  C  C476  1  0.503400  0.382800  0.195800  1.0  -0.0155
  C  C477  1  0.008700  0.876700  0.251300  1.0  0.7604
  C  C478  1  0.003400  0.882800  0.195800  1.0  -0.0155
  C  C479  1  0.008700  0.376700  0.751300  1.0  0.7604
  C  C480  1  0.003400  0.382800  0.695800  1.0  -0.0155
  C  C481  1  0.998700  0.008700  0.373300  1.0  0.75
  C  C482  1  0.054200  0.003400  0.367200  1.0  -0.0151
  C  C483  1  0.998700  0.508700  0.873300  1.0  0.75
  C  C484  1  0.054200  0.503400  0.867200  1.0  -0.0151
  C  C485  1  0.498700  0.008700  0.873300  1.0  0.75
  C  C486  1  0.554200  0.003400  0.867200  1.0  -0.0151
  C  C487  1  0.498700  0.508700  0.373300  1.0  0.75
  C  C488  1  0.554200  0.503400  0.367200  1.0  -0.0151
  C  C489  1  0.498700  0.241300  0.376700  1.0  0.7497
  C  C490  1  0.554200  0.246600  0.382800  1.0  -0.0162
  C  C491  1  0.498700  0.741300  0.876700  1.0  0.7497
  C  C492  1  0.554200  0.746600  0.882800  1.0  -0.0162
  C  C493  1  0.998700  0.241300  0.876700  1.0  0.7497
  C  C494  1  0.054200  0.246600  0.882800  1.0  -0.0162
  C  C495  1  0.998700  0.741300  0.376700  1.0  0.7497
  C  C496  1  0.054200  0.746600  0.382800  1.0  -0.0162
  C  C497  1  0.251300  0.741300  0.873300  1.0  0.7495
  C  C498  1  0.195800  0.746600  0.867200  1.0  -0.0163
  C  C499  1  0.251300  0.241300  0.373300  1.0  0.7495
  C  C500  1  0.195800  0.246600  0.367200  1.0  -0.0163
  C  C501  1  0.751300  0.741300  0.373300  1.0  0.7495
  C  C502  1  0.695800  0.746600  0.367200  1.0  -0.0163
  C  C503  1  0.751300  0.241300  0.873300  1.0  0.7495
  C  C504  1  0.695800  0.246600  0.867200  1.0  -0.0163
  C  C505  1  0.751300  0.508700  0.876700  1.0  0.7494
  C  C506  1  0.695800  0.503400  0.882800  1.0  -0.0168
  C  C507  1  0.751300  0.008700  0.376700  1.0  0.7494
  C  C508  1  0.695800  0.003400  0.382800  1.0  -0.0168
  C  C509  1  0.251300  0.508700  0.376700  1.0  0.7494
  C  C510  1  0.195800  0.503400  0.382800  1.0  -0.0168
  C  C511  1  0.251300  0.008700  0.876700  1.0  0.7494
  C  C512  1  0.195800  0.003400  0.882800  1.0  -0.0168
  C  C513  1  0.373300  0.998700  0.008700  1.0  0.7515
  C  C514  1  0.367200  0.054200  0.003400  1.0  -0.0142
  C  C515  1  0.373300  0.498700  0.508700  1.0  0.7515
  C  C516  1  0.367200  0.554200  0.503400  1.0  -0.0142
  C  C517  1  0.873300  0.998700  0.508700  1.0  0.7515
  C  C518  1  0.867200  0.054200  0.503400  1.0  -0.0142
  C  C519  1  0.873300  0.498700  0.008700  1.0  0.7515
  C  C520  1  0.867200  0.554200  0.003400  1.0  -0.0142
  C  C521  1  0.376700  0.498700  0.241300  1.0  0.7516
  C  C522  1  0.382800  0.554200  0.246600  1.0  -0.0143
  C  C523  1  0.376700  0.998700  0.741300  1.0  0.7516
  C  C524  1  0.382800  0.054200  0.746600  1.0  -0.0143
  C  C525  1  0.876700  0.498700  0.741300  1.0  0.7516
  C  C526  1  0.882800  0.554200  0.746600  1.0  -0.0143
  C  C527  1  0.876700  0.998700  0.241300  1.0  0.7516
  C  C528  1  0.882800  0.054200  0.246600  1.0  -0.0143
  C  C529  1  0.873300  0.251300  0.741300  1.0  0.754
  C  C530  1  0.867200  0.195800  0.746600  1.0  -0.0151
  C  C531  1  0.873300  0.751300  0.241300  1.0  0.754
  C  C532  1  0.867200  0.695800  0.246600  1.0  -0.0151
  C  C533  1  0.373300  0.251300  0.241300  1.0  0.754
  C  C534  1  0.367200  0.195800  0.246600  1.0  -0.0151
  C  C535  1  0.373300  0.751300  0.741300  1.0  0.754
  C  C536  1  0.367200  0.695800  0.746600  1.0  -0.0151
  C  C537  1  0.876700  0.751300  0.508700  1.0  0.7536
  C  C538  1  0.882800  0.695800  0.503400  1.0  -0.0151
  C  C539  1  0.876700  0.251300  0.008700  1.0  0.7536
  C  C540  1  0.882800  0.195800  0.003400  1.0  -0.0151
  C  C541  1  0.376700  0.751300  0.008700  1.0  0.7536
  C  C542  1  0.382800  0.695800  0.003400  1.0  -0.0151
  C  C543  1  0.376700  0.251300  0.508700  1.0  0.7536
  C  C544  1  0.382800  0.195800  0.503400  1.0  -0.0151
  C  C545  1  0.123300  0.258700  0.001300  1.0  0.76
  C  C546  1  0.117200  0.253400  0.945800  1.0  -0.0151
  C  C547  1  0.123300  0.758700  0.501300  1.0  0.76
  C  C548  1  0.117200  0.753400  0.445800  1.0  -0.0151
  C  C549  1  0.623300  0.258700  0.501300  1.0  0.76
  C  C550  1  0.617200  0.253400  0.445800  1.0  -0.0151
  C  C551  1  0.623300  0.758700  0.001300  1.0  0.76
  C  C552  1  0.617200  0.753400  0.945800  1.0  -0.0151
  C  C553  1  0.126700  0.491300  0.501300  1.0  0.7605
  C  C554  1  0.132800  0.496600  0.445800  1.0  -0.0155
  C  C555  1  0.126700  0.991300  0.001300  1.0  0.7605
  C  C556  1  0.132800  0.996600  0.945800  1.0  -0.0155
  C  C557  1  0.626700  0.491300  0.001300  1.0  0.7605
  C  C558  1  0.632800  0.496600  0.945800  1.0  -0.0155
  C  C559  1  0.626700  0.991300  0.501300  1.0  0.7605
  C  C560  1  0.632800  0.996600  0.445800  1.0  -0.0155
  C  C561  1  0.623300  0.991300  0.748700  1.0  0.7611
  C  C562  1  0.617200  0.996600  0.804200  1.0  -0.0146
  C  C563  1  0.623300  0.491300  0.248700  1.0  0.7611
  C  C564  1  0.617200  0.496600  0.304200  1.0  -0.0146
  C  C565  1  0.123300  0.991300  0.248700  1.0  0.7611
  C  C566  1  0.117200  0.996600  0.304200  1.0  -0.0146
  C  C567  1  0.123300  0.491300  0.748700  1.0  0.7611
  C  C568  1  0.117200  0.496600  0.804200  1.0  -0.0146
  C  C569  1  0.626700  0.758700  0.248700  1.0  0.7612
  C  C570  1  0.632800  0.753400  0.304200  1.0  -0.0142
  C  C571  1  0.626700  0.258700  0.748700  1.0  0.7612
  C  C572  1  0.632800  0.253400  0.804200  1.0  -0.0142
  C  C573  1  0.126700  0.758700  0.748700  1.0  0.7612
  C  C574  1  0.132800  0.753400  0.804200  1.0  -0.0142
  C  C575  1  0.126700  0.258700  0.248700  1.0  0.7612
  C  C576  1  0.132800  0.253400  0.304200  1.0  -0.0142
  C  C577  1  0.758700  0.248700  0.626700  1.0  0.7511
  C  C578  1  0.753400  0.304200  0.632800  1.0  -0.014
  C  C579  1  0.758700  0.748700  0.126700  1.0  0.7511
  C  C580  1  0.753400  0.804200  0.132800  1.0  -0.014
  C  C581  1  0.258700  0.248700  0.126700  1.0  0.7511
  C  C582  1  0.253400  0.304200  0.132800  1.0  -0.014
  C  C583  1  0.258700  0.748700  0.626700  1.0  0.7511
  C  C584  1  0.253400  0.804200  0.632800  1.0  -0.014
  C  C585  1  0.991300  0.748700  0.623300  1.0  0.7515
  C  C586  1  0.996600  0.804200  0.617200  1.0  -0.0132
  C  C587  1  0.991300  0.248700  0.123300  1.0  0.7515
  C  C588  1  0.996600  0.304200  0.117200  1.0  -0.0132
  C  C589  1  0.491300  0.748700  0.123300  1.0  0.7515
  C  C590  1  0.496600  0.804200  0.117200  1.0  -0.0132
  C  C591  1  0.491300  0.248700  0.623300  1.0  0.7515
  C  C592  1  0.496600  0.304200  0.617200  1.0  -0.0132
  C  C593  1  0.491300  0.501300  0.126700  1.0  0.7536
  C  C594  1  0.496600  0.445800  0.132800  1.0  -0.0147
  C  C595  1  0.491300  0.001300  0.626700  1.0  0.7536
  C  C596  1  0.496600  0.945800  0.632800  1.0  -0.0147
  C  C597  1  0.991300  0.501300  0.626700  1.0  0.7536
  C  C598  1  0.996600  0.445800  0.632800  1.0  -0.0147
  C  C599  1  0.991300  0.001300  0.126700  1.0  0.7536
  C  C600  1  0.996600  0.945800  0.132800  1.0  -0.0147
  C  C601  1  0.258700  0.001300  0.123300  1.0  0.7537
  C  C602  1  0.253400  0.945800  0.117200  1.0  -0.0144
  C  C603  1  0.258700  0.501300  0.623300  1.0  0.7537
  C  C604  1  0.253400  0.445800  0.617200  1.0  -0.0144
  C  C605  1  0.758700  0.001300  0.623300  1.0  0.7537
  C  C606  1  0.753400  0.945800  0.617200  1.0  -0.0144
  C  C607  1  0.758700  0.501300  0.123300  1.0  0.7537
  C  C608  1  0.753400  0.445800  0.117200  1.0  -0.0144
  C  C609  1  0.748700  0.623300  0.991300  1.0  0.7507
  C  C610  1  0.804200  0.617200  0.996600  1.0  -0.0157
  C  C611  1  0.748700  0.123300  0.491300  1.0  0.7507
  C  C612  1  0.804200  0.117200  0.496600  1.0  -0.0157
  C  C613  1  0.248700  0.623300  0.491300  1.0  0.7507
  C  C614  1  0.304200  0.617200  0.496600  1.0  -0.0157
  C  C615  1  0.248700  0.123300  0.991300  1.0  0.7507
  C  C616  1  0.304200  0.117200  0.996600  1.0  -0.0157
  C  C617  1  0.248700  0.626700  0.758700  1.0  0.7506
  C  C618  1  0.304200  0.632800  0.753400  1.0  -0.0165
  C  C619  1  0.248700  0.126700  0.258700  1.0  0.7506
  C  C620  1  0.304200  0.132800  0.253400  1.0  -0.0165
  C  C621  1  0.748700  0.626700  0.258700  1.0  0.7506
  C  C622  1  0.804200  0.632800  0.253400  1.0  -0.0165
  C  C623  1  0.748700  0.126700  0.758700  1.0  0.7506
  C  C624  1  0.804200  0.132800  0.753400  1.0  -0.0165
  C  C625  1  0.001300  0.123300  0.258700  1.0  0.7502
  C  C626  1  0.945800  0.117200  0.253400  1.0  -0.0164
  C  C627  1  0.001300  0.623300  0.758700  1.0  0.7502
  C  C628  1  0.945800  0.617200  0.753400  1.0  -0.0164
  C  C629  1  0.501300  0.123300  0.758700  1.0  0.7502
  C  C630  1  0.445800  0.117200  0.753400  1.0  -0.0164
  C  C631  1  0.501300  0.623300  0.258700  1.0  0.7502
  C  C632  1  0.445800  0.617200  0.253400  1.0  -0.0164
  C  C633  1  0.501300  0.126700  0.491300  1.0  0.7505
  C  C634  1  0.445800  0.132800  0.496600  1.0  -0.0175
  C  C635  1  0.501300  0.626700  0.991300  1.0  0.7505
  C  C636  1  0.445800  0.632800  0.996600  1.0  -0.0175
  C  C637  1  0.001300  0.126700  0.991300  1.0  0.7505
  C  C638  1  0.945800  0.132800  0.996600  1.0  -0.0175
  C  C639  1  0.001300  0.626700  0.491300  1.0  0.7505
  C  C640  1  0.945800  0.632800  0.496600  1.0  -0.0175
  C  C641  1  0.991300  0.626700  0.001300  1.0  0.7609
  C  C642  1  0.996600  0.632800  0.945800  1.0  -0.0154
  C  C643  1  0.991300  0.126700  0.501300  1.0  0.7609
  C  C644  1  0.996600  0.132800  0.445800  1.0  -0.0154
  C  C645  1  0.491300  0.626700  0.501300  1.0  0.7609
  C  C646  1  0.496600  0.632800  0.445800  1.0  -0.0154
  C  C647  1  0.491300  0.126700  0.001300  1.0  0.7609
  C  C648  1  0.496600  0.132800  0.945800  1.0  -0.0154
  C  C649  1  0.758700  0.623300  0.501300  1.0  0.7609
  C  C650  1  0.753400  0.617200  0.445800  1.0  -0.0145
  C  C651  1  0.758700  0.123300  0.001300  1.0  0.7609
  C  C652  1  0.753400  0.117200  0.945800  1.0  -0.0145
  C  C653  1  0.258700  0.623300  0.001300  1.0  0.7609
  C  C654  1  0.253400  0.617200  0.945800  1.0  -0.0145
  C  C655  1  0.258700  0.123300  0.501300  1.0  0.7609
  C  C656  1  0.253400  0.117200  0.445800  1.0  -0.0145
  C  C657  1  0.258700  0.126700  0.748700  1.0  0.7616
  C  C658  1  0.253400  0.132800  0.804200  1.0  -0.0151
  C  C659  1  0.258700  0.626700  0.248700  1.0  0.7616
  C  C660  1  0.253400  0.632800  0.304200  1.0  -0.0151
  C  C661  1  0.758700  0.126700  0.248700  1.0  0.7616
  C  C662  1  0.753400  0.132800  0.304200  1.0  -0.0151
  C  C663  1  0.758700  0.626700  0.748700  1.0  0.7616
  C  C664  1  0.753400  0.632800  0.804200  1.0  -0.0151
  C  C665  1  0.491300  0.123300  0.248700  1.0  0.7623
  C  C666  1  0.496600  0.117200  0.304200  1.0  -0.014
  C  C667  1  0.491300  0.623300  0.748700  1.0  0.7623
  C  C668  1  0.496600  0.617200  0.804200  1.0  -0.014
  C  C669  1  0.991300  0.123300  0.748700  1.0  0.7623
  C  C670  1  0.996600  0.117200  0.804200  1.0  -0.014
  C  C671  1  0.991300  0.623300  0.248700  1.0  0.7623
  C  C672  1  0.996600  0.617200  0.304200  1.0  -0.014
  C  C673  1  0.001300  0.991300  0.626700  1.0  0.7496
  C  C674  1  0.945800  0.996600  0.632800  1.0  -0.0171
  C  C675  1  0.001300  0.491300  0.126700  1.0  0.7496
  C  C676  1  0.945800  0.496600  0.132800  1.0  -0.0171
  C  C677  1  0.501300  0.991300  0.126700  1.0  0.7496
  C  C678  1  0.445800  0.996600  0.132800  1.0  -0.0171
  C  C679  1  0.501300  0.491300  0.626700  1.0  0.7496
  C  C680  1  0.445800  0.496600  0.632800  1.0  -0.0171
  C  C681  1  0.501300  0.758700  0.623300  1.0  0.7496
  C  C682  1  0.445800  0.753400  0.617200  1.0  -0.0161
  C  C683  1  0.501300  0.258700  0.123300  1.0  0.7496
  C  C684  1  0.445800  0.253400  0.117200  1.0  -0.0161
  C  C685  1  0.001300  0.758700  0.123300  1.0  0.7496
  C  C686  1  0.945800  0.753400  0.117200  1.0  -0.0161
  C  C687  1  0.001300  0.258700  0.623300  1.0  0.7496
  C  C688  1  0.945800  0.253400  0.617200  1.0  -0.0161
  C  C689  1  0.748700  0.258700  0.126700  1.0  0.7499
  C  C690  1  0.804200  0.253400  0.132800  1.0  -0.016
  C  C691  1  0.748700  0.758700  0.626700  1.0  0.7499
  C  C692  1  0.804200  0.753400  0.632800  1.0  -0.016
  C  C693  1  0.248700  0.258700  0.626700  1.0  0.7499
  C  C694  1  0.304200  0.253400  0.632800  1.0  -0.016
  C  C695  1  0.248700  0.758700  0.126700  1.0  0.7499
  C  C696  1  0.304200  0.753400  0.132800  1.0  -0.016
  C  C697  1  0.248700  0.491300  0.123300  1.0  0.7497
  C  C698  1  0.304200  0.496600  0.117200  1.0  -0.0153
  C  C699  1  0.248700  0.991300  0.623300  1.0  0.7497
  C  C700  1  0.304200  0.996600  0.617200  1.0  -0.0153
  C  C701  1  0.748700  0.491300  0.623300  1.0  0.7497
  C  C702  1  0.804200  0.496600  0.617200  1.0  -0.0153
  C  C703  1  0.748700  0.991300  0.123300  1.0  0.7497
  C  C704  1  0.804200  0.996600  0.117200  1.0  -0.0153
  C  C705  1  0.626700  0.001300  0.991300  1.0  0.754
  C  C706  1  0.632800  0.945800  0.996600  1.0  -0.0154
  C  C707  1  0.626700  0.501300  0.491300  1.0  0.754
  C  C708  1  0.632800  0.445800  0.496600  1.0  -0.0154
  C  C709  1  0.126700  0.001300  0.491300  1.0  0.754
  C  C710  1  0.132800  0.945800  0.496600  1.0  -0.0154
  C  C711  1  0.126700  0.501300  0.991300  1.0  0.754
  C  C712  1  0.132800  0.445800  0.996600  1.0  -0.0154
  C  C713  1  0.623300  0.501300  0.758700  1.0  0.7537
  C  C714  1  0.617200  0.445800  0.753400  1.0  -0.0148
  C  C715  1  0.623300  0.001300  0.258700  1.0  0.7537
  C  C716  1  0.617200  0.945800  0.253400  1.0  -0.0148
  C  C717  1  0.123300  0.501300  0.258700  1.0  0.7537
  C  C718  1  0.117200  0.445800  0.253400  1.0  -0.0148
  C  C719  1  0.123300  0.001300  0.758700  1.0  0.7537
  C  C720  1  0.117200  0.945800  0.753400  1.0  -0.0148
  C  C721  1  0.126700  0.748700  0.258700  1.0  0.7515
  C  C722  1  0.132800  0.804200  0.253400  1.0  -0.0141
  C  C723  1  0.126700  0.248700  0.758700  1.0  0.7515
  C  C724  1  0.132800  0.304200  0.753400  1.0  -0.0141
  C  C725  1  0.626700  0.748700  0.758700  1.0  0.7515
  C  C726  1  0.632800  0.804200  0.753400  1.0  -0.0141
  C  C727  1  0.626700  0.248700  0.258700  1.0  0.7515
  C  C728  1  0.632800  0.304200  0.253400  1.0  -0.0141
  C  C729  1  0.123300  0.248700  0.491300  1.0  0.7514
  C  C730  1  0.117200  0.304200  0.496600  1.0  -0.0144
  C  C731  1  0.123300  0.748700  0.991300  1.0  0.7514
  C  C732  1  0.117200  0.804200  0.996600  1.0  -0.0144
  C  C733  1  0.623300  0.248700  0.991300  1.0  0.7514
  C  C734  1  0.617200  0.304200  0.996600  1.0  -0.0144
  C  C735  1  0.623300  0.748700  0.491300  1.0  0.7514
  C  C736  1  0.617200  0.804200  0.496600  1.0  -0.0144
  C  C737  1  0.876700  0.741300  0.998700  1.0  0.7608
  C  C738  1  0.882800  0.746600  0.054200  1.0  -0.0147
  C  C739  1  0.876700  0.241300  0.498700  1.0  0.7608
  C  C740  1  0.882800  0.246600  0.554200  1.0  -0.0147
  C  C741  1  0.376700  0.741300  0.498700  1.0  0.7608
  C  C742  1  0.382800  0.746600  0.554200  1.0  -0.0147
  C  C743  1  0.376700  0.241300  0.998700  1.0  0.7608
  C  C744  1  0.382800  0.246600  0.054200  1.0  -0.0147
  C  C745  1  0.873300  0.508700  0.498700  1.0  0.7616
  C  C746  1  0.867200  0.503400  0.554200  1.0  -0.0143
  C  C747  1  0.873300  0.008700  0.998700  1.0  0.7616
  C  C748  1  0.867200  0.003400  0.054200  1.0  -0.0143
  C  C749  1  0.373300  0.508700  0.998700  1.0  0.7616
  C  C750  1  0.367200  0.503400  0.054200  1.0  -0.0143
  C  C751  1  0.373300  0.008700  0.498700  1.0  0.7616
  C  C752  1  0.367200  0.003400  0.554200  1.0  -0.0143
  C  C753  1  0.376700  0.008700  0.251300  1.0  0.76
  C  C754  1  0.382800  0.003400  0.195800  1.0  -0.0151
  C  C755  1  0.376700  0.508700  0.751300  1.0  0.76
  C  C756  1  0.382800  0.503400  0.695800  1.0  -0.0151
  C  C757  1  0.876700  0.008700  0.751300  1.0  0.76
  C  C758  1  0.882800  0.003400  0.695800  1.0  -0.0151
  C  C759  1  0.876700  0.508700  0.251300  1.0  0.76
  C  C760  1  0.882800  0.503400  0.195800  1.0  -0.0151
  C  C761  1  0.373300  0.241300  0.751300  1.0  0.7608
  C  C762  1  0.367200  0.246600  0.695800  1.0  -0.0153
  C  C763  1  0.373300  0.741300  0.251300  1.0  0.7608
  C  C764  1  0.367200  0.746600  0.195800  1.0  -0.0153
  C  C765  1  0.873300  0.241300  0.251300  1.0  0.7608
  C  C766  1  0.867200  0.246600  0.195800  1.0  -0.0153
  C  C767  1  0.873300  0.741300  0.751300  1.0  0.7608
  C  C768  1  0.867200  0.746600  0.695800  1.0  -0.0153
  C  C769  1  0.241300  0.751300  0.373300  1.0  0.7537
  C  C770  1  0.246600  0.695800  0.367200  1.0  -0.0141
  C  C771  1  0.241300  0.251300  0.873300  1.0  0.7537
  C  C772  1  0.246600  0.195800  0.867200  1.0  -0.0141
  C  C773  1  0.741300  0.751300  0.873300  1.0  0.7537
  C  C774  1  0.746600  0.695800  0.867200  1.0  -0.0141
  C  C775  1  0.741300  0.251300  0.373300  1.0  0.7537
  C  C776  1  0.746600  0.195800  0.367200  1.0  -0.0141
  C  C777  1  0.008700  0.251300  0.376700  1.0  0.7535
  C  C778  1  0.003400  0.195800  0.382800  1.0  -0.0148
  C  C779  1  0.008700  0.751300  0.876700  1.0  0.7535
  C  C780  1  0.003400  0.695800  0.882800  1.0  -0.0148
  C  C781  1  0.508700  0.251300  0.876700  1.0  0.7535
  C  C782  1  0.503400  0.195800  0.882800  1.0  -0.0148
  C  C783  1  0.508700  0.751300  0.376700  1.0  0.7535
  C  C784  1  0.503400  0.695800  0.382800  1.0  -0.0148
  C  C785  1  0.508700  0.498700  0.873300  1.0  0.7513
  C  C786  1  0.503400  0.554200  0.867200  1.0  -0.0132
  C  C787  1  0.508700  0.998700  0.373300  1.0  0.7513
  C  C788  1  0.503400  0.054200  0.367200  1.0  -0.0132
  C  C789  1  0.008700  0.498700  0.373300  1.0  0.7513
  C  C790  1  0.003400  0.554200  0.367200  1.0  -0.0132
  C  C791  1  0.008700  0.998700  0.873300  1.0  0.7513
  C  C792  1  0.003400  0.054200  0.867200  1.0  -0.0132
  C  C793  1  0.741300  0.998700  0.876700  1.0  0.7515
  C  C794  1  0.746600  0.054200  0.882800  1.0  -0.0141
  C  C795  1  0.741300  0.498700  0.376700  1.0  0.7515
  C  C796  1  0.746600  0.554200  0.382800  1.0  -0.0141
  C  C797  1  0.241300  0.998700  0.376700  1.0  0.7515
  C  C798  1  0.246600  0.054200  0.382800  1.0  -0.0141
  C  C799  1  0.241300  0.498700  0.876700  1.0  0.7515
  C  C800  1  0.246600  0.554200  0.882800  1.0  -0.0141
  C  C801  1  0.251300  0.376700  0.008700  1.0  0.7506
  C  C802  1  0.195800  0.382800  0.003400  1.0  -0.0173
  C  C803  1  0.251300  0.876700  0.508700  1.0  0.7506
  C  C804  1  0.195800  0.882800  0.503400  1.0  -0.0173
  C  C805  1  0.751300  0.376700  0.508700  1.0  0.7506
  C  C806  1  0.695800  0.382800  0.503400  1.0  -0.0173
  C  C807  1  0.751300  0.876700  0.008700  1.0  0.7506
  C  C808  1  0.695800  0.882800  0.003400  1.0  -0.0173
  C  C809  1  0.751300  0.373300  0.241300  1.0  0.7502
  C  C810  1  0.695800  0.367200  0.246600  1.0  -0.0166
  C  C811  1  0.751300  0.873300  0.741300  1.0  0.7502
  C  C812  1  0.695800  0.867200  0.746600  1.0  -0.0166
  C  C813  1  0.251300  0.373300  0.741300  1.0  0.7502
  C  C814  1  0.195800  0.367200  0.746600  1.0  -0.0166
  C  C815  1  0.251300  0.873300  0.241300  1.0  0.7502
  C  C816  1  0.195800  0.867200  0.246600  1.0  -0.0166
  C  C817  1  0.998700  0.876700  0.741300  1.0  0.7508
  C  C818  1  0.054200  0.882800  0.746600  1.0  -0.0167
  C  C819  1  0.998700  0.376700  0.241300  1.0  0.7508
  C  C820  1  0.054200  0.382800  0.246600  1.0  -0.0167
  C  C821  1  0.498700  0.876700  0.241300  1.0  0.7508
  C  C822  1  0.554200  0.882800  0.246600  1.0  -0.0167
  C  C823  1  0.498700  0.376700  0.741300  1.0  0.7508
  C  C824  1  0.554200  0.382800  0.746600  1.0  -0.0167
  C  C825  1  0.498700  0.873300  0.508700  1.0  0.7505
  C  C826  1  0.554200  0.867200  0.503400  1.0  -0.0154
  C  C827  1  0.498700  0.373300  0.008700  1.0  0.7505
  C  C828  1  0.554200  0.367200  0.003400  1.0  -0.0154
  C  C829  1  0.998700  0.873300  0.008700  1.0  0.7505
  C  C830  1  0.054200  0.867200  0.003400  1.0  -0.0154
  C  C831  1  0.998700  0.373300  0.508700  1.0  0.7505
  C  C832  1  0.054200  0.367200  0.503400  1.0  -0.0154
  O  O833  1  0.014100  0.416900  0.977300  1.0  -0.6417
  O  O834  1  0.008900  0.334300  0.969900  1.0  -0.6179
  O  O835  1  0.014100  0.916900  0.477300  1.0  -0.6417
  O  O836  1  0.008900  0.834300  0.469900  1.0  -0.6179
  O  O837  1  0.514100  0.416900  0.477300  1.0  -0.6417
  O  O838  1  0.508900  0.334300  0.469900  1.0  -0.6179
  O  O839  1  0.514100  0.916900  0.977300  1.0  -0.6417
  O  O840  1  0.508900  0.834300  0.969900  1.0  -0.6179
  O  O841  1  0.235900  0.333100  0.477300  1.0  -0.6417
  O  O842  1  0.241100  0.415700  0.469900  1.0  -0.6175
  O  O843  1  0.235900  0.833100  0.977300  1.0  -0.6417
  O  O844  1  0.241100  0.915700  0.969900  1.0  -0.6175
  O  O845  1  0.735900  0.333100  0.977300  1.0  -0.6417
  O  O846  1  0.741100  0.415700  0.969900  1.0  -0.6175
  O  O847  1  0.735900  0.833100  0.477300  1.0  -0.6417
  O  O848  1  0.741100  0.915700  0.469900  1.0  -0.6175
  O  O849  1  0.735900  0.916900  0.272700  1.0  -0.6408
  O  O850  1  0.741100  0.834300  0.280100  1.0  -0.6195
  O  O851  1  0.735900  0.416900  0.772700  1.0  -0.6408
  O  O852  1  0.741100  0.334300  0.780100  1.0  -0.6195
  O  O853  1  0.235900  0.916900  0.772700  1.0  -0.6408
  O  O854  1  0.241100  0.834300  0.780100  1.0  -0.6195
  O  O855  1  0.235900  0.416900  0.272700  1.0  -0.6408
  O  O856  1  0.241100  0.334300  0.280100  1.0  -0.6195
  O  O857  1  0.514100  0.833100  0.772700  1.0  -0.6433
  O  O858  1  0.508900  0.915700  0.780100  1.0  -0.6188
  O  O859  1  0.514100  0.333100  0.272700  1.0  -0.6433
  O  O860  1  0.508900  0.415700  0.280100  1.0  -0.6188
  O  O861  1  0.014100  0.833100  0.272700  1.0  -0.6433
  O  O862  1  0.008900  0.915700  0.280100  1.0  -0.6188
  O  O863  1  0.014100  0.333100  0.772700  1.0  -0.6433
  O  O864  1  0.008900  0.415700  0.780100  1.0  -0.6188
  O  O865  1  0.977300  0.014100  0.416900  1.0  -0.6386
  O  O866  1  0.969900  0.008900  0.334300  1.0  -0.6141
  O  O867  1  0.977300  0.514100  0.916900  1.0  -0.6386
  O  O868  1  0.969900  0.508900  0.834300  1.0  -0.6141
  O  O869  1  0.477300  0.014100  0.916900  1.0  -0.6386
  O  O870  1  0.469900  0.008900  0.834300  1.0  -0.6141
  O  O871  1  0.477300  0.514100  0.416900  1.0  -0.6386
  O  O872  1  0.469900  0.508900  0.334300  1.0  -0.6141
  O  O873  1  0.477300  0.235900  0.333100  1.0  -0.6389
  O  O874  1  0.469900  0.241100  0.415700  1.0  -0.6143
  O  O875  1  0.477300  0.735900  0.833100  1.0  -0.6389
  O  O876  1  0.469900  0.741100  0.915700  1.0  -0.6143
  O  O877  1  0.977300  0.235900  0.833100  1.0  -0.6389
  O  O878  1  0.969900  0.241100  0.915700  1.0  -0.6143
  O  O879  1  0.977300  0.735900  0.333100  1.0  -0.6389
  O  O880  1  0.969900  0.741100  0.415700  1.0  -0.6143
  O  O881  1  0.272700  0.735900  0.916900  1.0  -0.6386
  O  O882  1  0.280100  0.741100  0.834300  1.0  -0.6146
  O  O883  1  0.272700  0.235900  0.416900  1.0  -0.6386
  O  O884  1  0.280100  0.241100  0.334300  1.0  -0.6146
  O  O885  1  0.772700  0.735900  0.416900  1.0  -0.6386
  O  O886  1  0.780100  0.741100  0.334300  1.0  -0.6146
  O  O887  1  0.772700  0.235900  0.916900  1.0  -0.6386
  O  O888  1  0.780100  0.241100  0.834300  1.0  -0.6146
  O  O889  1  0.772700  0.514100  0.833100  1.0  -0.6392
  O  O890  1  0.780100  0.508900  0.915700  1.0  -0.6161
  O  O891  1  0.772700  0.014100  0.333100  1.0  -0.6392
  O  O892  1  0.780100  0.008900  0.415700  1.0  -0.6161
  O  O893  1  0.272700  0.514100  0.333100  1.0  -0.6392
  O  O894  1  0.280100  0.508900  0.415700  1.0  -0.6161
  O  O895  1  0.272700  0.014100  0.833100  1.0  -0.6392
  O  O896  1  0.280100  0.008900  0.915700  1.0  -0.6161
  O  O897  1  0.416900  0.977300  0.014100  1.0  -0.6376
  O  O898  1  0.334300  0.969900  0.008900  1.0  -0.6126
  O  O899  1  0.416900  0.477300  0.514100  1.0  -0.6376
  O  O900  1  0.334300  0.469900  0.508900  1.0  -0.6126
  O  O901  1  0.916900  0.977300  0.514100  1.0  -0.6376
  O  O902  1  0.834300  0.969900  0.508900  1.0  -0.6126
  O  O903  1  0.916900  0.477300  0.014100  1.0  -0.6376
  O  O904  1  0.834300  0.469900  0.008900  1.0  -0.6126
  O  O905  1  0.333100  0.477300  0.235900  1.0  -0.637
  O  O906  1  0.415700  0.469900  0.241100  1.0  -0.6101
  O  O907  1  0.333100  0.977300  0.735900  1.0  -0.637
  O  O908  1  0.415700  0.969900  0.741100  1.0  -0.6101
  O  O909  1  0.833100  0.477300  0.735900  1.0  -0.637
  O  O910  1  0.915700  0.469900  0.741100  1.0  -0.6101
  O  O911  1  0.833100  0.977300  0.235900  1.0  -0.637
  O  O912  1  0.915700  0.969900  0.241100  1.0  -0.6101
  O  O913  1  0.916900  0.272700  0.735900  1.0  -0.6376
  O  O914  1  0.834300  0.280100  0.741100  1.0  -0.6109
  O  O915  1  0.916900  0.772700  0.235900  1.0  -0.6376
  O  O916  1  0.834300  0.780100  0.241100  1.0  -0.6109
  O  O917  1  0.416900  0.272700  0.235900  1.0  -0.6376
  O  O918  1  0.334300  0.280100  0.241100  1.0  -0.6109
  O  O919  1  0.416900  0.772700  0.735900  1.0  -0.6376
  O  O920  1  0.334300  0.780100  0.741100  1.0  -0.6109
  O  O921  1  0.833100  0.772700  0.514100  1.0  -0.6373
  O  O922  1  0.915700  0.780100  0.508900  1.0  -0.6116
  O  O923  1  0.833100  0.272700  0.014100  1.0  -0.6373
  O  O924  1  0.915700  0.280100  0.008900  1.0  -0.6116
  O  O925  1  0.333100  0.772700  0.014100  1.0  -0.6373
  O  O926  1  0.415700  0.780100  0.008900  1.0  -0.6116
  O  O927  1  0.333100  0.272700  0.514100  1.0  -0.6373
  O  O928  1  0.415700  0.280100  0.508900  1.0  -0.6116
  O  O929  1  0.166900  0.264100  0.022700  1.0  -0.6401
  O  O930  1  0.084300  0.258900  0.030100  1.0  -0.6188
  O  O931  1  0.166900  0.764100  0.522700  1.0  -0.6401
  O  O932  1  0.084300  0.758900  0.530100  1.0  -0.6188
  O  O933  1  0.666900  0.264100  0.522700  1.0  -0.6401
  O  O934  1  0.584300  0.258900  0.530100  1.0  -0.6188
  O  O935  1  0.666900  0.764100  0.022700  1.0  -0.6401
  O  O936  1  0.584300  0.758900  0.030100  1.0  -0.6188
  O  O937  1  0.083100  0.485900  0.522700  1.0  -0.6395
  O  O938  1  0.165700  0.491100  0.530100  1.0  -0.6186
  O  O939  1  0.083100  0.985900  0.022700  1.0  -0.6395
  O  O940  1  0.165700  0.991100  0.030100  1.0  -0.6186
  O  O941  1  0.583100  0.485900  0.022700  1.0  -0.6395
  O  O942  1  0.665700  0.491100  0.030100  1.0  -0.6186
  O  O943  1  0.583100  0.985900  0.522700  1.0  -0.6395
  O  O944  1  0.665700  0.991100  0.530100  1.0  -0.6186
  O  O945  1  0.666900  0.985900  0.727300  1.0  -0.6398
  O  O946  1  0.584300  0.991100  0.719900  1.0  -0.6178
  O  O947  1  0.666900  0.485900  0.227300  1.0  -0.6398
  O  O948  1  0.584300  0.491100  0.219900  1.0  -0.6178
  O  O949  1  0.166900  0.985900  0.227300  1.0  -0.6398
  O  O950  1  0.084300  0.991100  0.219900  1.0  -0.6178
  O  O951  1  0.166900  0.485900  0.727300  1.0  -0.6398
  O  O952  1  0.084300  0.491100  0.719900  1.0  -0.6178
  O  O953  1  0.583100  0.764100  0.227300  1.0  -0.6395
  O  O954  1  0.665700  0.758900  0.219900  1.0  -0.6165
  O  O955  1  0.583100  0.264100  0.727300  1.0  -0.6395
  O  O956  1  0.665700  0.258900  0.719900  1.0  -0.6165
  O  O957  1  0.083100  0.764100  0.727300  1.0  -0.6395
  O  O958  1  0.165700  0.758900  0.719900  1.0  -0.6165
  O  O959  1  0.083100  0.264100  0.227300  1.0  -0.6395
  O  O960  1  0.165700  0.258900  0.219900  1.0  -0.6165
  O  O961  1  0.764100  0.227300  0.583100  1.0  -0.64
  O  O962  1  0.758900  0.219900  0.665700  1.0  -0.6142
  O  O963  1  0.764100  0.727300  0.083100  1.0  -0.64
  O  O964  1  0.758900  0.719900  0.165700  1.0  -0.6142
  O  O965  1  0.264100  0.227300  0.083100  1.0  -0.64
  O  O966  1  0.258900  0.219900  0.165700  1.0  -0.6142
  O  O967  1  0.264100  0.727300  0.583100  1.0  -0.64
  O  O968  1  0.258900  0.719900  0.665700  1.0  -0.6142
  O  O969  1  0.985900  0.727300  0.666900  1.0  -0.6404
  O  O970  1  0.991100  0.719900  0.584300  1.0  -0.6146
  O  O971  1  0.985900  0.227300  0.166900  1.0  -0.6404
  O  O972  1  0.991100  0.219900  0.084300  1.0  -0.6146
  O  O973  1  0.485900  0.727300  0.166900  1.0  -0.6404
  O  O974  1  0.491100  0.719900  0.084300  1.0  -0.6146
  O  O975  1  0.485900  0.227300  0.666900  1.0  -0.6404
  O  O976  1  0.491100  0.219900  0.584300  1.0  -0.6146
  O  O977  1  0.485900  0.522700  0.083100  1.0  -0.6395
  O  O978  1  0.491100  0.530100  0.165700  1.0  -0.6147
  O  O979  1  0.485900  0.022700  0.583100  1.0  -0.6395
  O  O980  1  0.491100  0.030100  0.665700  1.0  -0.6147
  O  O981  1  0.985900  0.522700  0.583100  1.0  -0.6395
  O  O982  1  0.991100  0.530100  0.665700  1.0  -0.6147
  O  O983  1  0.985900  0.022700  0.083100  1.0  -0.6395
  O  O984  1  0.991100  0.030100  0.165700  1.0  -0.6147
  O  O985  1  0.264100  0.022700  0.166900  1.0  -0.6403
  O  O986  1  0.258900  0.030100  0.084300  1.0  -0.6142
  O  O987  1  0.264100  0.522700  0.666900  1.0  -0.6403
  O  O988  1  0.258900  0.530100  0.584300  1.0  -0.6142
  O  O989  1  0.764100  0.022700  0.666900  1.0  -0.6403
  O  O990  1  0.758900  0.030100  0.584300  1.0  -0.6142
  O  O991  1  0.764100  0.522700  0.166900  1.0  -0.6403
  O  O992  1  0.758900  0.530100  0.084300  1.0  -0.6142
  O  O993  1  0.727300  0.666900  0.985900  1.0  -0.6375
  O  O994  1  0.719900  0.584300  0.991100  1.0  -0.6116
  O  O995  1  0.727300  0.166900  0.485900  1.0  -0.6375
  O  O996  1  0.719900  0.084300  0.491100  1.0  -0.6116
  O  O997  1  0.227300  0.666900  0.485900  1.0  -0.6375
  O  O998  1  0.219900  0.584300  0.491100  1.0  -0.6116
  O  O999  1  0.227300  0.166900  0.985900  1.0  -0.6375
  O  O1000  1  0.219900  0.084300  0.991100  1.0  -0.6116
  O  O1001  1  0.227300  0.583100  0.764100  1.0  -0.6388
  O  O1002  1  0.219900  0.665700  0.758900  1.0  -0.6119
  O  O1003  1  0.227300  0.083100  0.264100  1.0  -0.6388
  O  O1004  1  0.219900  0.165700  0.258900  1.0  -0.6119
  O  O1005  1  0.727300  0.583100  0.264100  1.0  -0.6388
  O  O1006  1  0.719900  0.665700  0.258900  1.0  -0.6119
  O  O1007  1  0.727300  0.083100  0.764100  1.0  -0.6388
  O  O1008  1  0.719900  0.165700  0.758900  1.0  -0.6119
  O  O1009  1  0.022700  0.166900  0.264100  1.0  -0.6376
  O  O1010  1  0.030100  0.084300  0.258900  1.0  -0.6139
  O  O1011  1  0.022700  0.666900  0.764100  1.0  -0.6376
  O  O1012  1  0.030100  0.584300  0.758900  1.0  -0.6139
  O  O1013  1  0.522700  0.166900  0.764100  1.0  -0.6376
  O  O1014  1  0.530100  0.084300  0.758900  1.0  -0.6139
  O  O1015  1  0.522700  0.666900  0.264100  1.0  -0.6376
  O  O1016  1  0.530100  0.584300  0.258900  1.0  -0.6139
  O  O1017  1  0.522700  0.083100  0.485900  1.0  -0.6378
  O  O1018  1  0.530100  0.165700  0.491100  1.0  -0.6126
  O  O1019  1  0.522700  0.583100  0.985900  1.0  -0.6378
  O  O1020  1  0.530100  0.665700  0.991100  1.0  -0.6126
  O  O1021  1  0.022700  0.083100  0.985900  1.0  -0.6378
  O  O1022  1  0.030100  0.165700  0.991100  1.0  -0.6126
  O  O1023  1  0.022700  0.583100  0.485900  1.0  -0.6378
  O  O1024  1  0.030100  0.665700  0.491100  1.0  -0.6126
  O  O1025  1  0.985900  0.583100  0.022700  1.0  -0.6421
  O  O1026  1  0.991100  0.665700  0.030100  1.0  -0.6191
  O  O1027  1  0.985900  0.083100  0.522700  1.0  -0.6421
  O  O1028  1  0.991100  0.165700  0.530100  1.0  -0.6191
  O  O1029  1  0.485900  0.583100  0.522700  1.0  -0.6421
  O  O1030  1  0.491100  0.665700  0.530100  1.0  -0.6191
  O  O1031  1  0.485900  0.083100  0.022700  1.0  -0.6421
  O  O1032  1  0.491100  0.165700  0.030100  1.0  -0.6191
  O  O1033  1  0.764100  0.666900  0.522700  1.0  -0.6415
  O  O1034  1  0.758900  0.584300  0.530100  1.0  -0.6189
  O  O1035  1  0.764100  0.166900  0.022700  1.0  -0.6415
  O  O1036  1  0.758900  0.084300  0.030100  1.0  -0.6189
  O  O1037  1  0.264100  0.666900  0.022700  1.0  -0.6415
  O  O1038  1  0.258900  0.584300  0.030100  1.0  -0.6189
  O  O1039  1  0.264100  0.166900  0.522700  1.0  -0.6415
  O  O1040  1  0.258900  0.084300  0.530100  1.0  -0.6189
  O  O1041  1  0.264100  0.083100  0.727300  1.0  -0.6415
  O  O1042  1  0.258900  0.165700  0.719900  1.0  -0.616
  O  O1043  1  0.264100  0.583100  0.227300  1.0  -0.6415
  O  O1044  1  0.258900  0.665700  0.219900  1.0  -0.616
  O  O1045  1  0.764100  0.083100  0.227300  1.0  -0.6415
  O  O1046  1  0.758900  0.165700  0.219900  1.0  -0.616
  O  O1047  1  0.764100  0.583100  0.727300  1.0  -0.6415
  O  O1048  1  0.758900  0.665700  0.719900  1.0  -0.616
  O  O1049  1  0.485900  0.166900  0.227300  1.0  -0.6404
  O  O1050  1  0.491100  0.084300  0.219900  1.0  -0.6192
  O  O1051  1  0.485900  0.666900  0.727300  1.0  -0.6404
  O  O1052  1  0.491100  0.584300  0.719900  1.0  -0.6192
  O  O1053  1  0.985900  0.166900  0.727300  1.0  -0.6404
  O  O1054  1  0.991100  0.084300  0.719900  1.0  -0.6192
  O  O1055  1  0.985900  0.666900  0.227300  1.0  -0.6404
  O  O1056  1  0.991100  0.584300  0.219900  1.0  -0.6192
  O  O1057  1  0.022700  0.985900  0.583100  1.0  -0.6373
  O  O1058  1  0.030100  0.991100  0.665700  1.0  -0.6153
  O  O1059  1  0.022700  0.485900  0.083100  1.0  -0.6373
  O  O1060  1  0.030100  0.491100  0.165700  1.0  -0.6153
  O  O1061  1  0.522700  0.985900  0.083100  1.0  -0.6373
  O  O1062  1  0.530100  0.991100  0.165700  1.0  -0.6153
  O  O1063  1  0.522700  0.485900  0.583100  1.0  -0.6373
  O  O1064  1  0.530100  0.491100  0.665700  1.0  -0.6153
  O  O1065  1  0.522700  0.764100  0.666900  1.0  -0.6383
  O  O1066  1  0.530100  0.758900  0.584300  1.0  -0.6152
  O  O1067  1  0.522700  0.264100  0.166900  1.0  -0.6383
  O  O1068  1  0.530100  0.258900  0.084300  1.0  -0.6152
  O  O1069  1  0.022700  0.764100  0.166900  1.0  -0.6383
  O  O1070  1  0.030100  0.758900  0.084300  1.0  -0.6152
  O  O1071  1  0.022700  0.264100  0.666900  1.0  -0.6383
  O  O1072  1  0.030100  0.258900  0.584300  1.0  -0.6152
  O  O1073  1  0.727300  0.264100  0.083100  1.0  -0.6383
  O  O1074  1  0.719900  0.258900  0.165700  1.0  -0.6144
  O  O1075  1  0.727300  0.764100  0.583100  1.0  -0.6383
  O  O1076  1  0.719900  0.758900  0.665700  1.0  -0.6144
  O  O1077  1  0.227300  0.264100  0.583100  1.0  -0.6383
  O  O1078  1  0.219900  0.258900  0.665700  1.0  -0.6144
  O  O1079  1  0.227300  0.764100  0.083100  1.0  -0.6383
  O  O1080  1  0.219900  0.758900  0.165700  1.0  -0.6144
  O  O1081  1  0.227300  0.485900  0.166900  1.0  -0.6384
  O  O1082  1  0.219900  0.491100  0.084300  1.0  -0.6144
  O  O1083  1  0.227300  0.985900  0.666900  1.0  -0.6384
  O  O1084  1  0.219900  0.991100  0.584300  1.0  -0.6144
  O  O1085  1  0.727300  0.485900  0.666900  1.0  -0.6384
  O  O1086  1  0.719900  0.491100  0.584300  1.0  -0.6144
  O  O1087  1  0.727300  0.985900  0.166900  1.0  -0.6384
  O  O1088  1  0.719900  0.991100  0.084300  1.0  -0.6144
  O  O1089  1  0.583100  0.022700  0.985900  1.0  -0.6357
  O  O1090  1  0.665700  0.030100  0.991100  1.0  -0.6107
  O  O1091  1  0.583100  0.522700  0.485900  1.0  -0.6357
  O  O1092  1  0.665700  0.530100  0.491100  1.0  -0.6107
  O  O1093  1  0.083100  0.022700  0.485900  1.0  -0.6357
  O  O1094  1  0.165700  0.030100  0.491100  1.0  -0.6107
  O  O1095  1  0.083100  0.522700  0.985900  1.0  -0.6357
  O  O1096  1  0.165700  0.530100  0.991100  1.0  -0.6107
  O  O1097  1  0.666900  0.522700  0.764100  1.0  -0.6373
  O  O1098  1  0.584300  0.530100  0.758900  1.0  -0.6117
  O  O1099  1  0.666900  0.022700  0.264100  1.0  -0.6373
  O  O1100  1  0.584300  0.030100  0.258900  1.0  -0.6117
  O  O1101  1  0.166900  0.522700  0.264100  1.0  -0.6373
  O  O1102  1  0.084300  0.530100  0.258900  1.0  -0.6117
  O  O1103  1  0.166900  0.022700  0.764100  1.0  -0.6373
  O  O1104  1  0.084300  0.030100  0.758900  1.0  -0.6117
  O  O1105  1  0.083100  0.727300  0.264100  1.0  -0.6374
  O  O1106  1  0.165700  0.719900  0.258900  1.0  -0.6107
  O  O1107  1  0.083100  0.227300  0.764100  1.0  -0.6374
  O  O1108  1  0.165700  0.219900  0.758900  1.0  -0.6107
  O  O1109  1  0.583100  0.727300  0.764100  1.0  -0.6374
  O  O1110  1  0.665700  0.719900  0.758900  1.0  -0.6107
  O  O1111  1  0.583100  0.227300  0.264100  1.0  -0.6374
  O  O1112  1  0.665700  0.219900  0.258900  1.0  -0.6107
  O  O1113  1  0.166900  0.227300  0.485900  1.0  -0.6364
  O  O1114  1  0.084300  0.219900  0.491100  1.0  -0.612
  O  O1115  1  0.166900  0.727300  0.985900  1.0  -0.6364
  O  O1116  1  0.084300  0.719900  0.991100  1.0  -0.612
  O  O1117  1  0.666900  0.227300  0.985900  1.0  -0.6364
  O  O1118  1  0.584300  0.219900  0.991100  1.0  -0.612
  O  O1119  1  0.666900  0.727300  0.485900  1.0  -0.6364
  O  O1120  1  0.584300  0.719900  0.491100  1.0  -0.612
  O  O1121  1  0.833100  0.735900  0.977300  1.0  -0.6386
  O  O1122  1  0.915700  0.741100  0.969900  1.0  -0.6168
  O  O1123  1  0.833100  0.235900  0.477300  1.0  -0.6386
  O  O1124  1  0.915700  0.241100  0.469900  1.0  -0.6168
  O  O1125  1  0.333100  0.735900  0.477300  1.0  -0.6386
  O  O1126  1  0.415700  0.741100  0.469900  1.0  -0.6168
  O  O1127  1  0.333100  0.235900  0.977300  1.0  -0.6386
  O  O1128  1  0.415700  0.241100  0.969900  1.0  -0.6168
  O  O1129  1  0.916900  0.514100  0.477300  1.0  -0.6393
  O  O1130  1  0.834300  0.508900  0.469900  1.0  -0.6177
  O  O1131  1  0.916900  0.014100  0.977300  1.0  -0.6393
  O  O1132  1  0.834300  0.008900  0.969900  1.0  -0.6177
  O  O1133  1  0.416900  0.514100  0.977300  1.0  -0.6393
  O  O1134  1  0.334300  0.508900  0.969900  1.0  -0.6177
  O  O1135  1  0.416900  0.014100  0.477300  1.0  -0.6393
  O  O1136  1  0.334300  0.008900  0.469900  1.0  -0.6177
  O  O1137  1  0.333100  0.014100  0.272700  1.0  -0.6392
  O  O1138  1  0.415700  0.008900  0.280100  1.0  -0.6179
  O  O1139  1  0.333100  0.514100  0.772700  1.0  -0.6392
  O  O1140  1  0.415700  0.508900  0.780100  1.0  -0.6179
  O  O1141  1  0.833100  0.014100  0.772700  1.0  -0.6392
  O  O1142  1  0.915700  0.008900  0.780100  1.0  -0.6179
  O  O1143  1  0.833100  0.514100  0.272700  1.0  -0.6392
  O  O1144  1  0.915700  0.508900  0.280100  1.0  -0.6179
  O  O1145  1  0.416900  0.235900  0.772700  1.0  -0.6396
  O  O1146  1  0.334300  0.241100  0.780100  1.0  -0.6193
  O  O1147  1  0.416900  0.735900  0.272700  1.0  -0.6396
  O  O1148  1  0.334300  0.741100  0.280100  1.0  -0.6193
  O  O1149  1  0.916900  0.235900  0.272700  1.0  -0.6396
  O  O1150  1  0.834300  0.241100  0.280100  1.0  -0.6193
  O  O1151  1  0.916900  0.735900  0.772700  1.0  -0.6396
  O  O1152  1  0.834300  0.741100  0.780100  1.0  -0.6193
  O  O1153  1  0.235900  0.772700  0.416900  1.0  -0.6394
  O  O1154  1  0.241100  0.780100  0.334300  1.0  -0.6136
  O  O1155  1  0.235900  0.272700  0.916900  1.0  -0.6394
  O  O1156  1  0.241100  0.280100  0.834300  1.0  -0.6136
  O  O1157  1  0.735900  0.772700  0.916900  1.0  -0.6394
  O  O1158  1  0.741100  0.780100  0.834300  1.0  -0.6136
  O  O1159  1  0.735900  0.272700  0.416900  1.0  -0.6394
  O  O1160  1  0.741100  0.280100  0.334300  1.0  -0.6136
  O  O1161  1  0.014100  0.272700  0.333100  1.0  -0.6394
  O  O1162  1  0.008900  0.280100  0.415700  1.0  -0.6152
  O  O1163  1  0.014100  0.772700  0.833100  1.0  -0.6394
  O  O1164  1  0.008900  0.780100  0.915700  1.0  -0.6152
  O  O1165  1  0.514100  0.272700  0.833100  1.0  -0.6394
  O  O1166  1  0.508900  0.280100  0.915700  1.0  -0.6152
  O  O1167  1  0.514100  0.772700  0.333100  1.0  -0.6394
  O  O1168  1  0.508900  0.780100  0.415700  1.0  -0.6152
  O  O1169  1  0.514100  0.477300  0.916900  1.0  -0.639
  O  O1170  1  0.508900  0.469900  0.834300  1.0  -0.6133
  O  O1171  1  0.514100  0.977300  0.416900  1.0  -0.639
  O  O1172  1  0.508900  0.969900  0.334300  1.0  -0.6133
  O  O1173  1  0.014100  0.477300  0.416900  1.0  -0.639
  O  O1174  1  0.008900  0.469900  0.334300  1.0  -0.6133
  O  O1175  1  0.014100  0.977300  0.916900  1.0  -0.639
  O  O1176  1  0.008900  0.969900  0.834300  1.0  -0.6133
  O  O1177  1  0.735900  0.977300  0.833100  1.0  -0.6397
  O  O1178  1  0.741100  0.969900  0.915700  1.0  -0.6154
  O  O1179  1  0.735900  0.477300  0.333100  1.0  -0.6397
  O  O1180  1  0.741100  0.469900  0.415700  1.0  -0.6154
  O  O1181  1  0.235900  0.977300  0.333100  1.0  -0.6397
  O  O1182  1  0.241100  0.969900  0.415700  1.0  -0.6154
  O  O1183  1  0.235900  0.477300  0.833100  1.0  -0.6397
  O  O1184  1  0.241100  0.469900  0.915700  1.0  -0.6154
  O  O1185  1  0.272700  0.333100  0.014100  1.0  -0.6374
  O  O1186  1  0.280100  0.415700  0.008900  1.0  -0.6135
  O  O1187  1  0.272700  0.833100  0.514100  1.0  -0.6374
  O  O1188  1  0.280100  0.915700  0.508900  1.0  -0.6135
  O  O1189  1  0.772700  0.333100  0.514100  1.0  -0.6374
  O  O1190  1  0.780100  0.415700  0.508900  1.0  -0.6135
  O  O1191  1  0.772700  0.833100  0.014100  1.0  -0.6374
  O  O1192  1  0.780100  0.915700  0.008900  1.0  -0.6135
  O  O1193  1  0.772700  0.416900  0.235900  1.0  -0.6364
  O  O1194  1  0.780100  0.334300  0.241100  1.0  -0.613
  O  O1195  1  0.772700  0.916900  0.735900  1.0  -0.6364
  O  O1196  1  0.780100  0.834300  0.741100  1.0  -0.613
  O  O1197  1  0.272700  0.416900  0.735900  1.0  -0.6364
  O  O1198  1  0.280100  0.334300  0.741100  1.0  -0.613
  O  O1199  1  0.272700  0.916900  0.235900  1.0  -0.6364
  O  O1200  1  0.280100  0.834300  0.241100  1.0  -0.613
  O  O1201  1  0.977300  0.833100  0.735900  1.0  -0.6372
  O  O1202  1  0.969900  0.915700  0.741100  1.0  -0.6119
  O  O1203  1  0.977300  0.333100  0.235900  1.0  -0.6372
  O  O1204  1  0.969900  0.415700  0.241100  1.0  -0.6119
  O  O1205  1  0.477300  0.833100  0.235900  1.0  -0.6372
  O  O1206  1  0.469900  0.915700  0.241100  1.0  -0.6119
  O  O1207  1  0.477300  0.333100  0.735900  1.0  -0.6372
  O  O1208  1  0.469900  0.415700  0.741100  1.0  -0.6119
  O  O1209  1  0.477300  0.916900  0.514100  1.0  -0.6373
  O  O1210  1  0.469900  0.834300  0.508900  1.0  -0.6117
  O  O1211  1  0.477300  0.416900  0.014100  1.0  -0.6373
  O  O1212  1  0.469900  0.334300  0.008900  1.0  -0.6117
  O  O1213  1  0.977300  0.916900  0.014100  1.0  -0.6373
  O  O1214  1  0.969900  0.834300  0.008900  1.0  -0.6117
  O  O1215  1  0.977300  0.416900  0.514100  1.0  -0.6373
  O  O1216  1  0.969900  0.334300  0.508900  1.0  -0.6117
  O  O1217  1  0.000000  0.315400  0.065400  1.0  -0.2511
  O  O1218  1  0.000000  0.815400  0.565400  1.0  -0.2511
  O  O1219  1  0.500000  0.315400  0.565400  1.0  -0.2511
  O  O1220  1  0.250000  0.434600  0.565400  1.0  -0.2517
  O  O1221  1  0.750000  0.434600  0.065400  1.0  -0.2517
  O  O1222  1  0.750000  0.815400  0.184600  1.0  -0.251
  O  O1223  1  0.250000  0.815400  0.684600  1.0  -0.251
  O  O1224  1  0.500000  0.934600  0.684600  1.0  -0.2508
  O  O1225  1  0.000000  0.934600  0.184600  1.0  -0.2508
  O  O1226  1  0.000000  0.434600  0.684600  1.0  -0.2508
  O  O1227  1  0.065400  0.000000  0.315400  1.0  -0.2499
  O  O1228  1  0.065400  0.500000  0.815400  1.0  -0.2499
  O  O1229  1  0.565400  0.000000  0.815400  1.0  -0.2499
  O  O1230  1  0.565400  0.250000  0.434600  1.0  -0.2499
  O  O1231  1  0.565400  0.750000  0.934600  1.0  -0.2499
  O  O1232  1  0.065400  0.750000  0.434600  1.0  -0.2499
  O  O1233  1  0.184600  0.750000  0.815400  1.0  -0.2495
  O  O1234  1  0.184600  0.250000  0.315400  1.0  -0.2495
  O  O1235  1  0.684600  0.500000  0.934600  1.0  -0.2492
  O  O1236  1  0.684600  0.000000  0.434600  1.0  -0.2492
  O  O1237  1  0.315400  0.065400  0.000000  1.0  -0.2512
  O  O1238  1  0.315400  0.565400  0.500000  1.0  -0.2512
  O  O1239  1  0.815400  0.565400  0.000000  1.0  -0.2512
  O  O1240  1  0.434600  0.565400  0.250000  1.0  -0.2505
  O  O1241  1  0.434600  0.065400  0.750000  1.0  -0.2505
  O  O1242  1  0.815400  0.184600  0.750000  1.0  -0.2512
  O  O1243  1  0.815400  0.684600  0.250000  1.0  -0.2512
  O  O1244  1  0.934600  0.684600  0.500000  1.0  -0.2506
  O  O1245  1  0.934600  0.184600  0.000000  1.0  -0.2506
  O  O1246  1  0.434600  0.684600  0.000000  1.0  -0.2506
  O  O1247  1  0.065400  0.250000  0.934600  1.0  -0.2499
  O  O1248  1  0.184600  0.500000  0.434600  1.0  -0.2492
  O  O1249  1  0.184600  0.000000  0.934600  1.0  -0.2492
  O  O1250  1  0.565400  0.500000  0.315400  1.0  -0.2499
  O  O1251  1  0.684600  0.750000  0.315400  1.0  -0.2495
  O  O1252  1  0.684600  0.250000  0.815400  1.0  -0.2495
  O  O1253  1  0.750000  0.315400  0.684600  1.0  -0.251
  O  O1254  1  0.250000  0.315400  0.184600  1.0  -0.251
  O  O1255  1  0.500000  0.815400  0.065400  1.0  -0.2511
  O  O1256  1  0.500000  0.434600  0.184600  1.0  -0.2508
  O  O1257  1  0.250000  0.934600  0.065400  1.0  -0.2517
  O  O1258  1  0.750000  0.934600  0.565400  1.0  -0.2517
  O  O1259  1  0.815400  0.065400  0.500000  1.0  -0.2512
  O  O1260  1  0.315400  0.684600  0.750000  1.0  -0.2512
  O  O1261  1  0.315400  0.184600  0.250000  1.0  -0.2512
  O  O1262  1  0.934600  0.065400  0.250000  1.0  -0.2505
  O  O1263  1  0.934600  0.565400  0.750000  1.0  -0.2505
  O  O1264  1  0.434600  0.184600  0.500000  1.0  -0.2506
  O  O1265  1  0.000000  0.684600  0.934600  1.0  -0.2508
  O  O1266  1  0.000000  0.184600  0.434600  1.0  -0.2508
  O  O1267  1  0.500000  0.684600  0.434600  1.0  -0.2508
  O  O1268  1  0.750000  0.565400  0.434600  1.0  -0.251
  O  O1269  1  0.250000  0.565400  0.934600  1.0  -0.251
  O  O1270  1  0.250000  0.184600  0.815400  1.0  -0.2517
  O  O1271  1  0.750000  0.184600  0.315400  1.0  -0.2517
  O  O1272  1  0.750000  0.684600  0.815400  1.0  -0.2517
  O  O1273  1  0.500000  0.065400  0.315400  1.0  -0.2511
  O  O1274  1  0.000000  0.065400  0.815400  1.0  -0.2511
  O  O1275  1  0.934600  0.000000  0.684600  1.0  -0.2492
  O  O1276  1  0.934600  0.500000  0.184600  1.0  -0.2492
  O  O1277  1  0.434600  0.000000  0.184600  1.0  -0.2492
  O  O1278  1  0.434600  0.750000  0.565400  1.0  -0.2495
  O  O1279  1  0.434600  0.250000  0.065400  1.0  -0.2495
  O  O1280  1  0.815400  0.250000  0.184600  1.0  -0.2499
  O  O1281  1  0.815400  0.750000  0.684600  1.0  -0.2499
  O  O1282  1  0.315400  0.500000  0.065400  1.0  -0.2499
  O  O1283  1  0.315400  0.000000  0.565400  1.0  -0.2499
  O  O1284  1  0.815400  0.000000  0.065400  1.0  -0.2499
  O  O1285  1  0.684600  0.934600  0.000000  1.0  -0.2506
  O  O1286  1  0.684600  0.434600  0.500000  1.0  -0.2506
  O  O1287  1  0.184600  0.434600  0.000000  1.0  -0.2506
  O  O1288  1  0.565400  0.434600  0.750000  1.0  -0.2512
  O  O1289  1  0.565400  0.934600  0.250000  1.0  -0.2512
  O  O1290  1  0.184600  0.815400  0.250000  1.0  -0.2505
  O  O1291  1  0.184600  0.315400  0.750000  1.0  -0.2505
  O  O1292  1  0.684600  0.815400  0.750000  1.0  -0.2505
  O  O1293  1  0.065400  0.315400  0.500000  1.0  -0.2512
  O  O1294  1  0.065400  0.815400  0.000000  1.0  -0.2512
  O  O1295  1  0.934600  0.750000  0.065400  1.0  -0.2495
  O  O1296  1  0.934600  0.250000  0.565400  1.0  -0.2495
  O  O1297  1  0.815400  0.500000  0.565400  1.0  -0.2499
  O  O1298  1  0.434600  0.500000  0.684600  1.0  -0.2492
  O  O1299  1  0.315400  0.250000  0.684600  1.0  -0.2499
  O  O1300  1  0.315400  0.750000  0.184600  1.0  -0.2499
  O  O1301  1  0.250000  0.684600  0.315400  1.0  -0.2517
  O  O1302  1  0.500000  0.184600  0.934600  1.0  -0.2508
  O  O1303  1  0.500000  0.565400  0.815400  1.0  -0.2511
  O  O1304  1  0.000000  0.565400  0.315400  1.0  -0.2511
  O  O1305  1  0.750000  0.065400  0.934600  1.0  -0.251
  O  O1306  1  0.250000  0.065400  0.434600  1.0  -0.251
  O  O1307  1  0.184600  0.934600  0.500000  1.0  -0.2506
  O  O1308  1  0.684600  0.315400  0.250000  1.0  -0.2505
  O  O1309  1  0.065400  0.934600  0.750000  1.0  -0.2512
  O  O1310  1  0.065400  0.434600  0.250000  1.0  -0.2512
  O  O1311  1  0.565400  0.815400  0.500000  1.0  -0.2512
  O  O1312  1  0.565400  0.315400  0.000000  1.0  -0.2512
