# generated using pymatgen
data_CoH30(C22N3)2
_symmetry_space_group_name_H-M   'P 1'
_cell_length_a   32.72100000
_cell_length_b   32.72100000
_cell_length_c   9.31600000
_cell_angle_alpha   90.00000000
_cell_angle_beta   90.00000000
_cell_angle_gamma   120.00000000
_symmetry_Int_Tables_number   1
_chemical_formula_structural   CoH30(C22N3)2
_chemical_formula_sum   'Co9 H270 C396 N54'
_cell_volume   8638.00094590
_cell_formula_units_Z   9
loop_
 _symmetry_equiv_pos_site_id
 _symmetry_equiv_pos_as_xyz
  1  'x, y, z'
loop_
 _atom_site_type_symbol
 _atom_site_label
 _atom_site_symmetry_multiplicity
 _atom_site_fract_x
 _atom_site_fract_y
 _atom_site_fract_z
 _atom_site_occupancy
 _atom_site_charge
  Co  Co1  1  0.500000  0.000000  0.000000  1.0  0.8506
  Co  Co2  1  0.166670  0.333333  0.333333  1.0  0.8536
  Co  Co3  1  0.833330  0.666667  0.666667  1.0  0.8533
  Co  Co4  1  0.000000  0.500000  0.000000  1.0  0.8505
  Co  Co5  1  0.666667  0.833330  0.333333  1.0  0.8535
  Co  Co6  1  0.333333  0.166670  0.666667  1.0  0.8537
  Co  Co7  1  0.500000  0.500000  0.000000  1.0  0.8504
  Co  Co8  1  0.166670  0.833330  0.333333  1.0  0.8538
  Co  Co9  1  0.833330  0.166670  0.666667  1.0  0.8535
  H  H10  1  0.623700  0.021500  0.625900  1.0  0.1266
  H  H11  1  0.550100  0.954100  0.533200  1.0  0.1095
  H  H12  1  0.372500  0.860000  0.713400  1.0  0.1202
  H  H13  1  0.330800  0.866100  0.925400  1.0  0.1034
  H  H14  1  0.341200  0.873700  0.324700  1.0  0.1272
  H  H15  1  0.261800  0.833600  0.381000  1.0  0.0704
  H  H16  1  0.234400  0.900800  0.083800  1.0  0.0668
  H  H17  1  0.312800  0.943100  0.016900  1.0  0.124
  H  H18  1  0.441900  0.836500  0.677800  1.0  0.1109
  H  H19  1  0.420000  0.787300  0.476700  1.0  0.1101
  H  H20  1  0.442600  0.896500  0.224500  1.0  0.0871
  H  H21  1  0.465300  0.945800  0.422900  1.0  0.0948
  H  H22  1  0.403300  0.817400  0.123500  1.0  0.122
  H  H23  1  0.392200  0.773200  0.223000  1.0  0.1282
  H  H24  1  0.444200  0.805900  0.160500  1.0  0.1335
  H  H25  1  0.376300  0.978500  0.374100  1.0  0.127
  H  H26  1  0.449900  0.045900  0.466800  1.0  0.1095
  H  H27  1  0.627500  0.140000  0.286600  1.0  0.1202
  H  H28  1  0.669200  0.133900  0.074600  1.0  0.1039
  H  H29  1  0.658800  0.126300  0.675300  1.0  0.1277
  H  H30  1  0.738200  0.166400  0.619000  1.0  0.0699
  H  H31  1  0.765600  0.099200  0.916200  1.0  0.067
  H  H32  1  0.687200  0.056900  0.983100  1.0  0.1237
  H  H33  1  0.558100  0.163500  0.322200  1.0  0.1114
  H  H34  1  0.580000  0.212700  0.523300  1.0  0.1097
  H  H35  1  0.557400  0.103500  0.775500  1.0  0.0868
  H  H36  1  0.534700  0.054200  0.577100  1.0  0.095
  H  H37  1  0.596700  0.182600  0.876500  1.0  0.1226
  H  H38  1  0.607800  0.226800  0.777000  1.0  0.1306
  H  H39  1  0.555800  0.194100  0.839500  1.0  0.1328
  H  H40  1  0.290370  0.354830  0.959230  1.0  0.1267
  H  H41  1  0.216770  0.287430  0.866530  1.0  0.1095
  H  H42  1  0.039170  0.193330  0.046730  1.0  0.1201
  H  H43  1  0.997470  0.199430  0.258730  1.0  0.1034
  H  H44  1  0.007870  0.207030  0.658030  1.0  0.1272
  H  H45  1  0.928470  0.166930  0.714330  1.0  0.0705
  H  H46  1  0.901070  0.234130  0.417130  1.0  0.0668
  H  H47  1  0.979470  0.276430  0.350230  1.0  0.1241
  H  H48  1  0.108570  0.169830  0.011130  1.0  0.1108
  H  H49  1  0.086670  0.120630  0.810030  1.0  0.1101
  H  H50  1  0.109270  0.229830  0.557830  1.0  0.0876
  H  H51  1  0.131970  0.279130  0.756230  1.0  0.0948
  H  H52  1  0.069970  0.150730  0.456830  1.0  0.1221
  H  H53  1  0.058870  0.106530  0.556330  1.0  0.1282
  H  H54  1  0.110870  0.139230  0.493830  1.0  0.1336
  H  H55  1  0.042970  0.311830  0.707430  1.0  0.1272
  H  H56  1  0.116570  0.379230  0.800130  1.0  0.1095
  H  H57  1  0.294170  0.473330  0.619930  1.0  0.1202
  H  H58  1  0.335870  0.467230  0.407930  1.0  0.1039
  H  H59  1  0.325470  0.459630  0.008630  1.0  0.1277
  H  H60  1  0.404870  0.499730  0.952330  1.0  0.0699
  H  H61  1  0.432270  0.432530  0.249530  1.0  0.0669
  H  H62  1  0.353870  0.390230  0.316430  1.0  0.1236
  H  H63  1  0.224770  0.496830  0.655530  1.0  0.1114
  H  H64  1  0.246670  0.546030  0.856630  1.0  0.1097
  H  H65  1  0.224070  0.436830  0.108830  1.0  0.0868
  H  H66  1  0.201370  0.387530  0.910430  1.0  0.095
  H  H67  1  0.263370  0.515930  0.209830  1.0  0.1226
  H  H68  1  0.274470  0.560130  0.110330  1.0  0.1306
  H  H69  1  0.222470  0.527430  0.172830  1.0  0.1328
  H  H70  1  0.957030  0.688170  0.292570  1.0  0.1268
  H  H71  1  0.883430  0.620770  0.199870  1.0  0.1095
  H  H72  1  0.705830  0.526670  0.380070  1.0  0.1202
  H  H73  1  0.664130  0.532770  0.592070  1.0  0.1034
  H  H74  1  0.674530  0.540370  0.991370  1.0  0.1272
  H  H75  1  0.595130  0.500270  0.047670  1.0  0.0704
  H  H76  1  0.567730  0.567470  0.750470  1.0  0.0667
  H  H77  1  0.646130  0.609770  0.683570  1.0  0.124
  H  H78  1  0.775230  0.503170  0.344470  1.0  0.1109
  H  H79  1  0.753330  0.453970  0.143370  1.0  0.1101
  H  H80  1  0.775930  0.563170  0.891170  1.0  0.0871
  H  H81  1  0.798630  0.612470  0.089570  1.0  0.0948
  H  H82  1  0.736630  0.484070  0.790170  1.0  0.122
  H  H83  1  0.725530  0.439870  0.889670  1.0  0.1282
  H  H84  1  0.777530  0.472570  0.827170  1.0  0.1335
  H  H85  1  0.709630  0.645170  0.040770  1.0  0.127
  H  H86  1  0.783230  0.712570  0.133470  1.0  0.1095
  H  H87  1  0.960830  0.806670  0.953270  1.0  0.1201
  H  H88  1  0.002530  0.800570  0.741270  1.0  0.1038
  H  H89  1  0.992130  0.792970  0.341970  1.0  0.1277
  H  H90  1  0.071530  0.833070  0.285670  1.0  0.07
  H  H91  1  0.098930  0.765870  0.582870  1.0  0.067
  H  H92  1  0.020530  0.723570  0.649770  1.0  0.1237
  H  H93  1  0.891430  0.830170  0.988870  1.0  0.1114
  H  H94  1  0.913330  0.879370  0.189970  1.0  0.1097
  H  H95  1  0.890730  0.770170  0.442170  1.0  0.0871
  H  H96  1  0.868030  0.720870  0.243770  1.0  0.095
  H  H97  1  0.930030  0.849270  0.543170  1.0  0.1227
  H  H98  1  0.941130  0.893470  0.443670  1.0  0.1306
  H  H99  1  0.889130  0.860770  0.506170  1.0  0.1329
  H  H100  1  0.978500  0.602200  0.625900  1.0  0.1268
  H  H101  1  0.045900  0.596000  0.533200  1.0  0.1091
  H  H102  1  0.140000  0.512500  0.713400  1.0  0.1198
  H  H103  1  0.133900  0.464700  0.925400  1.0  0.1041
  H  H104  1  0.126300  0.467500  0.324700  1.0  0.1272
  H  H105  1  0.166400  0.428200  0.381000  1.0  0.0707
  H  H106  1  0.099200  0.333600  0.083800  1.0  0.0665
  H  H107  1  0.056900  0.369700  0.016900  1.0  0.1235
  H  H108  1  0.163500  0.605400  0.677800  1.0  0.1103
  H  H109  1  0.212700  0.632700  0.476700  1.0  0.1094
  H  H110  1  0.103500  0.546100  0.224500  1.0  0.0873
  H  H111  1  0.054200  0.519500  0.422900  1.0  0.0948
  H  H112  1  0.182600  0.585900  0.123500  1.0  0.1246
  H  H113  1  0.226800  0.619000  0.223000  1.0  0.1326
  H  H114  1  0.194100  0.638300  0.160500  1.0  0.134
  H  H115  1  0.021500  0.397800  0.374100  1.0  0.127
  H  H116  1  0.954100  0.404000  0.466800  1.0  0.1097
  H  H117  1  0.860000  0.487500  0.286600  1.0  0.1202
  H  H118  1  0.866100  0.535300  0.074600  1.0  0.104
  H  H119  1  0.873700  0.532500  0.675300  1.0  0.1275
  H  H120  1  0.833600  0.571800  0.619000  1.0  0.0706
  H  H121  1  0.900800  0.666400  0.916200  1.0  0.0664
  H  H122  1  0.943100  0.630300  0.983100  1.0  0.1233
  H  H123  1  0.836500  0.394600  0.322200  1.0  0.1116
  H  H124  1  0.787300  0.367300  0.523300  1.0  0.1138
  H  H125  1  0.896500  0.453900  0.775500  1.0  0.0874
  H  H126  1  0.945800  0.480500  0.577100  1.0  0.095
  H  H127  1  0.817400  0.414100  0.876500  1.0  0.1257
  H  H128  1  0.773200  0.381000  0.777000  1.0  0.1324
  H  H129  1  0.805900  0.361700  0.839500  1.0  0.1338
  H  H130  1  0.645170  0.935530  0.959230  1.0  0.1268
  H  H131  1  0.712570  0.929330  0.866530  1.0  0.1092
  H  H132  1  0.806670  0.845830  0.046730  1.0  0.1199
  H  H133  1  0.800570  0.798030  0.258730  1.0  0.104
  H  H134  1  0.792970  0.800830  0.658030  1.0  0.1272
  H  H135  1  0.833070  0.761530  0.714330  1.0  0.0708
  H  H136  1  0.765870  0.666930  0.417130  1.0  0.0667
  H  H137  1  0.723570  0.703030  0.350230  1.0  0.1235
  H  H138  1  0.830170  0.938730  0.011130  1.0  0.1103
  H  H139  1  0.879370  0.966030  0.810030  1.0  0.1098
  H  H140  1  0.770170  0.879430  0.557830  1.0  0.0868
  H  H141  1  0.720870  0.852830  0.756230  1.0  0.0948
  H  H142  1  0.849270  0.919230  0.456830  1.0  0.1247
  H  H143  1  0.893470  0.952330  0.556330  1.0  0.1309
  H  H144  1  0.860770  0.971630  0.493830  1.0  0.134
  H  H145  1  0.688170  0.731130  0.707430  1.0  0.1271
  H  H146  1  0.620770  0.737330  0.800130  1.0  0.1097
  H  H147  1  0.526670  0.820830  0.619930  1.0  0.1202
  H  H148  1  0.532770  0.868630  0.407930  1.0  0.104
  H  H149  1  0.540370  0.865830  0.008630  1.0  0.1275
  H  H150  1  0.500270  0.905130  0.952330  1.0  0.0706
  H  H151  1  0.567470  0.999730  0.249530  1.0  0.0664
  H  H152  1  0.609770  0.963630  0.316430  1.0  0.1239
  H  H153  1  0.503170  0.727930  0.655530  1.0  0.1116
  H  H154  1  0.453970  0.700630  0.856630  1.0  0.1138
  H  H155  1  0.563170  0.787230  0.108830  1.0  0.0874
  H  H156  1  0.612470  0.813830  0.910430  1.0  0.095
  H  H157  1  0.484070  0.747430  0.209830  1.0  0.1257
  H  H158  1  0.439870  0.714330  0.110330  1.0  0.1324
  H  H159  1  0.472570  0.695030  0.172830  1.0  0.1338
  H  H160  1  0.311830  0.268870  0.292570  1.0  0.1269
  H  H161  1  0.379230  0.262670  0.199870  1.0  0.1091
  H  H162  1  0.473330  0.179170  0.380070  1.0  0.1198
  H  H163  1  0.467230  0.131370  0.592070  1.0  0.1041
  H  H164  1  0.459630  0.134170  0.991370  1.0  0.1272
  H  H165  1  0.499730  0.094870  0.047670  1.0  0.0707
  H  H166  1  0.432530  0.000270  0.750470  1.0  0.0665
  H  H167  1  0.390230  0.036370  0.683570  1.0  0.1241
  H  H168  1  0.496830  0.272070  0.344470  1.0  0.1103
  H  H169  1  0.546030  0.299370  0.143370  1.0  0.1094
  H  H170  1  0.436830  0.212770  0.891170  1.0  0.0873
  H  H171  1  0.387530  0.186170  0.089570  1.0  0.0948
  H  H172  1  0.515930  0.252570  0.790170  1.0  0.1246
  H  H173  1  0.560130  0.285670  0.889670  1.0  0.1326
  H  H174  1  0.527430  0.304970  0.827170  1.0  0.134
  H  H175  1  0.354830  0.064470  0.040770  1.0  0.127
  H  H176  1  0.287430  0.070670  0.133470  1.0  0.1097
  H  H177  1  0.193330  0.154170  0.953270  1.0  0.1203
  H  H178  1  0.199430  0.201970  0.741270  1.0  0.104
  H  H179  1  0.207030  0.199170  0.341970  1.0  0.1275
  H  H180  1  0.166930  0.238470  0.285670  1.0  0.0706
  H  H181  1  0.234130  0.333070  0.582870  1.0  0.0666
  H  H182  1  0.276430  0.296970  0.649770  1.0  0.1232
  H  H183  1  0.169830  0.061270  0.988870  1.0  0.1116
  H  H184  1  0.120630  0.033970  0.189970  1.0  0.114
  H  H185  1  0.229830  0.120570  0.442170  1.0  0.0871
  H  H186  1  0.279130  0.147170  0.243770  1.0  0.095
  H  H187  1  0.150730  0.080770  0.543170  1.0  0.1258
  H  H188  1  0.106530  0.047670  0.443670  1.0  0.1309
  H  H189  1  0.139230  0.028370  0.506170  1.0  0.1337
  H  H190  1  0.397800  0.376300  0.625900  1.0  0.1269
  H  H191  1  0.404000  0.449900  0.533200  1.0  0.1089
  H  H192  1  0.487500  0.627500  0.713400  1.0  0.1208
  H  H193  1  0.535300  0.669200  0.925400  1.0  0.1041
  H  H194  1  0.532500  0.658800  0.324700  1.0  0.1271
  H  H195  1  0.571800  0.738200  0.381000  1.0  0.0712
  H  H196  1  0.666400  0.765600  0.083800  1.0  0.0662
  H  H197  1  0.630300  0.687200  0.016900  1.0  0.1245
  H  H198  1  0.394600  0.558100  0.677800  1.0  0.1109
  H  H199  1  0.367300  0.580000  0.476700  1.0  0.1097
  H  H200  1  0.453900  0.557400  0.224500  1.0  0.0873
  H  H201  1  0.480500  0.534700  0.422900  1.0  0.0949
  H  H202  1  0.414100  0.596700  0.123500  1.0  0.1251
  H  H203  1  0.381000  0.607800  0.223000  1.0  0.129
  H  H204  1  0.361700  0.555800  0.160500  1.0  0.1344
  H  H205  1  0.602200  0.623700  0.374100  1.0  0.1268
  H  H206  1  0.596000  0.550100  0.466800  1.0  0.1095
  H  H207  1  0.512500  0.372500  0.286600  1.0  0.1206
  H  H208  1  0.464700  0.330800  0.074600  1.0  0.1039
  H  H209  1  0.467500  0.341200  0.675300  1.0  0.1278
  H  H210  1  0.428200  0.261800  0.619000  1.0  0.071
  H  H211  1  0.333600  0.234400  0.916200  1.0  0.0668
  H  H212  1  0.369700  0.312800  0.983100  1.0  0.1239
  H  H213  1  0.605400  0.441900  0.322200  1.0  0.1116
  H  H214  1  0.632700  0.420000  0.523300  1.0  0.1101
  H  H215  1  0.546100  0.442600  0.775500  1.0  0.0874
  H  H216  1  0.519500  0.465300  0.577100  1.0  0.0948
  H  H217  1  0.585900  0.403300  0.876500  1.0  0.125
  H  H218  1  0.619000  0.392200  0.777000  1.0  0.1294
  H  H219  1  0.638300  0.444200  0.839500  1.0  0.1326
  H  H220  1  0.064470  0.709630  0.959230  1.0  0.1269
  H  H221  1  0.070670  0.783230  0.866530  1.0  0.1089
  H  H222  1  0.154170  0.960830  0.046730  1.0  0.1208
  H  H223  1  0.201970  0.002530  0.258730  1.0  0.1041
  H  H224  1  0.199170  0.992130  0.658030  1.0  0.1272
  H  H225  1  0.238470  0.071530  0.714330  1.0  0.0712
  H  H226  1  0.333070  0.098930  0.417130  1.0  0.0662
  H  H227  1  0.296970  0.020530  0.350230  1.0  0.1245
  H  H228  1  0.061270  0.891430  0.011130  1.0  0.1109
  H  H229  1  0.033970  0.913330  0.810030  1.0  0.1089
  H  H230  1  0.120570  0.890730  0.557830  1.0  0.0877
  H  H231  1  0.147170  0.868030  0.756230  1.0  0.0949
  H  H232  1  0.080770  0.930030  0.456830  1.0  0.125
  H  H233  1  0.047670  0.941130  0.556330  1.0  0.1293
  H  H234  1  0.028370  0.889130  0.493830  1.0  0.1344
  H  H235  1  0.268870  0.957030  0.707430  1.0  0.1269
  H  H236  1  0.262670  0.883430  0.800130  1.0  0.1095
  H  H237  1  0.179170  0.705830  0.619930  1.0  0.1206
  H  H238  1  0.131370  0.664130  0.407930  1.0  0.1039
  H  H239  1  0.134170  0.674530  0.008630  1.0  0.1278
  H  H240  1  0.094870  0.595130  0.952330  1.0  0.071
  H  H241  1  0.000270  0.567730  0.249530  1.0  0.0668
  H  H242  1  0.036370  0.646130  0.316430  1.0  0.124
  H  H243  1  0.272070  0.775230  0.655530  1.0  0.1116
  H  H244  1  0.299370  0.753330  0.856630  1.0  0.1101
  H  H245  1  0.212770  0.775930  0.108830  1.0  0.0874
  H  H246  1  0.186170  0.798630  0.910430  1.0  0.0948
  H  H247  1  0.252570  0.736630  0.209830  1.0  0.125
  H  H248  1  0.285670  0.725530  0.110330  1.0  0.1294
  H  H249  1  0.304970  0.777530  0.172830  1.0  0.1326
  H  H250  1  0.731130  0.042970  0.292570  1.0  0.127
  H  H251  1  0.737330  0.116570  0.199870  1.0  0.1089
  H  H252  1  0.820830  0.294170  0.380070  1.0  0.1208
  H  H253  1  0.868630  0.335870  0.592070  1.0  0.1041
  H  H254  1  0.865830  0.325470  0.991370  1.0  0.1271
  H  H255  1  0.905130  0.404870  0.047670  1.0  0.0712
  H  H256  1  0.999730  0.432270  0.750470  1.0  0.0662
  H  H257  1  0.963630  0.353870  0.683570  1.0  0.1245
  H  H258  1  0.727930  0.224770  0.344470  1.0  0.1109
  H  H259  1  0.700630  0.246670  0.143370  1.0  0.1097
  H  H260  1  0.787230  0.224070  0.891170  1.0  0.0872
  H  H261  1  0.813830  0.201370  0.089570  1.0  0.0949
  H  H262  1  0.747430  0.263370  0.790170  1.0  0.1251
  H  H263  1  0.714330  0.274470  0.889670  1.0  0.129
  H  H264  1  0.695030  0.222470  0.827170  1.0  0.1344
  H  H265  1  0.935530  0.290370  0.040770  1.0  0.1269
  H  H266  1  0.929330  0.216770  0.133470  1.0  0.1095
  H  H267  1  0.845830  0.039170  0.953270  1.0  0.1206
  H  H268  1  0.798030  0.997470  0.741270  1.0  0.1039
  H  H269  1  0.800830  0.007870  0.341970  1.0  0.1278
  H  H270  1  0.761530  0.928470  0.285670  1.0  0.071
  H  H271  1  0.666930  0.901070  0.582870  1.0  0.0667
  H  H272  1  0.703030  0.979470  0.649770  1.0  0.124
  H  H273  1  0.938730  0.108570  0.988870  1.0  0.1116
  H  H274  1  0.966030  0.086670  0.189970  1.0  0.1095
  H  H275  1  0.879430  0.109270  0.442170  1.0  0.0878
  H  H276  1  0.852830  0.131970  0.243770  1.0  0.0948
  H  H277  1  0.919230  0.069970  0.543170  1.0  0.1248
  H  H278  1  0.952330  0.058870  0.443670  1.0  0.1302
  H  H279  1  0.971630  0.110870  0.506170  1.0  0.1326
  C  C280  1  0.580790  0.025050  0.794800  1.0  0.1928
  C  C281  1  0.593080  0.008730  0.666800  1.0  -0.1686
  C  C282  1  0.553160  0.972080  0.616700  1.0  -0.1777
  C  C283  1  0.515750  0.965020  0.712800  1.0  0.1867
  C  C284  1  0.469360  0.927960  0.700600  1.0  -0.1194
  C  C285  1  0.434960  0.918470  0.803600  1.0  0.1868
  C  C286  1  0.386050  0.882020  0.789700  1.0  -0.1744
  C  C287  1  0.363460  0.885320  0.905000  1.0  -0.1746
  C  C288  1  0.397670  0.923270  0.992500  1.0  0.1594
  C  C289  1  0.386850  0.938370  0.119200  1.0  -0.1224
  C  C290  1  0.336150  0.913010  0.163300  1.0  0.075
  C  C291  1  0.319910  0.879960  0.272900  1.0  -0.2195
  C  C292  1  0.272360  0.856270  0.305700  1.0  0.1593
  C  C293  1  0.256420  0.895190  0.133400  1.0  0.1731
  C  C294  1  0.303250  0.920680  0.092500  1.0  -0.1996
  C  C295  1  0.455810  0.896200  0.571900  1.0  0.0251
  C  C296  1  0.442250  0.849050  0.585600  1.0  -0.0936
  C  C297  1  0.429050  0.819560  0.465200  1.0  -0.1179
  C  C298  1  0.428970  0.836820  0.329700  1.0  0.056
  C  C299  1  0.442510  0.884040  0.316700  1.0  -0.1205
  C  C300  1  0.455920  0.913480  0.435000  1.0  -0.1267
  C  C301  1  0.416040  0.805540  0.197400  1.0  -0.3909
  C  C302  1  0.419210  0.974950  0.205200  1.0  0.193
  C  C303  1  0.406920  0.991270  0.333200  1.0  -0.1694
  C  C304  1  0.446840  0.027920  0.383300  1.0  -0.1768
  C  C305  1  0.484250  0.034980  0.287200  1.0  0.1872
  C  C306  1  0.530640  0.072040  0.299400  1.0  -0.1192
  C  C307  1  0.565040  0.081530  0.196400  1.0  0.1864
  C  C308  1  0.613950  0.117980  0.210300  1.0  -0.1727
  C  C309  1  0.636540  0.114680  0.095000  1.0  -0.1753
  C  C310  1  0.602330  0.076730  0.007500  1.0  0.1603
  C  C311  1  0.613150  0.061630  0.880800  1.0  -0.1214
  C  C312  1  0.663850  0.086990  0.836700  1.0  0.0759
  C  C313  1  0.680090  0.120040  0.727100  1.0  -0.2205
  C  C314  1  0.727640  0.143730  0.694300  1.0  0.1595
  C  C315  1  0.743580  0.104810  0.866600  1.0  0.1728
  C  C316  1  0.696750  0.079320  0.907500  1.0  -0.2007
  C  C317  1  0.544190  0.103800  0.428100  1.0  0.0241
  C  C318  1  0.557750  0.150950  0.414400  1.0  -0.0941
  C  C319  1  0.570950  0.180440  0.534800  1.0  -0.117
  C  C320  1  0.571030  0.163180  0.670300  1.0  0.0568
  C  C321  1  0.557490  0.115960  0.683300  1.0  -0.1202
  C  C322  1  0.544080  0.086520  0.565000  1.0  -0.1275
  C  C323  1  0.583960  0.194460  0.802600  1.0  -0.3912
  C  C324  1  0.247460  0.358380  0.128130  1.0  0.1933
  C  C325  1  0.259750  0.342060  0.000130  1.0  -0.1688
  C  C326  1  0.219830  0.305410  0.950030  1.0  -0.1776
  C  C327  1  0.182420  0.298350  0.046130  1.0  0.1867
  C  C328  1  0.136030  0.261290  0.033930  1.0  -0.1194
  C  C329  1  0.101630  0.251800  0.136930  1.0  0.1868
  C  C330  1  0.052720  0.215350  0.123030  1.0  -0.1744
  C  C331  1  0.030130  0.218650  0.238330  1.0  -0.1746
  C  C332  1  0.064340  0.256600  0.325830  1.0  0.1594
  C  C333  1  0.053520  0.271700  0.452530  1.0  -0.1224
  C  C334  1  0.002820  0.246340  0.496630  1.0  0.0748
  C  C335  1  0.986580  0.213290  0.606230  1.0  -0.2195
  C  C336  1  0.939030  0.189600  0.639030  1.0  0.1593
  C  C337  1  0.923090  0.228520  0.466730  1.0  0.1731
  C  C338  1  0.969920  0.254010  0.425830  1.0  -0.1992
  C  C339  1  0.122480  0.229530  0.905230  1.0  0.0251
  C  C340  1  0.108920  0.182380  0.918930  1.0  -0.0935
  C  C341  1  0.095720  0.152890  0.798530  1.0  -0.1179
  C  C342  1  0.095640  0.170150  0.663030  1.0  0.0559
  C  C343  1  0.109180  0.217370  0.650030  1.0  -0.1205
  C  C344  1  0.122590  0.246810  0.768330  1.0  -0.1266
  C  C345  1  0.082710  0.138870  0.530730  1.0  -0.391
  C  C346  1  0.085880  0.308280  0.538530  1.0  0.193
  C  C347  1  0.073590  0.324600  0.666530  1.0  -0.1694
  C  C348  1  0.113510  0.361250  0.716630  1.0  -0.1768
  C  C349  1  0.150920  0.368310  0.620530  1.0  0.1872
  C  C350  1  0.197310  0.405370  0.632730  1.0  -0.1191
  C  C351  1  0.231710  0.414860  0.529730  1.0  0.1864
  C  C352  1  0.280620  0.451310  0.543630  1.0  -0.1727
  C  C353  1  0.303210  0.448010  0.428330  1.0  -0.1753
  C  C354  1  0.269000  0.410060  0.340830  1.0  0.1603
  C  C355  1  0.279820  0.394960  0.214130  1.0  -0.1216
  C  C356  1  0.330520  0.420320  0.170030  1.0  0.0759
  C  C357  1  0.346760  0.453370  0.060430  1.0  -0.2206
  C  C358  1  0.394310  0.477060  0.027630  1.0  0.1595
  C  C359  1  0.410250  0.438140  0.199930  1.0  0.1728
  C  C360  1  0.363420  0.412650  0.240830  1.0  -0.2007
  C  C361  1  0.210860  0.437130  0.761430  1.0  0.0241
  C  C362  1  0.224420  0.484280  0.747730  1.0  -0.0941
  C  C363  1  0.237620  0.513770  0.868130  1.0  -0.117
  C  C364  1  0.237700  0.496510  0.003630  1.0  0.0568
  C  C365  1  0.224160  0.449290  0.016630  1.0  -0.1202
  C  C366  1  0.210750  0.419850  0.898330  1.0  -0.1275
  C  C367  1  0.250630  0.527790  0.135930  1.0  -0.3912
  C  C368  1  0.914120  0.691720  0.461470  1.0  0.1928
  C  C369  1  0.926410  0.675400  0.333470  1.0  -0.1687
  C  C370  1  0.886490  0.638750  0.283370  1.0  -0.1777
  C  C371  1  0.849080  0.631690  0.379470  1.0  0.1867
  C  C372  1  0.802690  0.594630  0.367270  1.0  -0.1193
  C  C373  1  0.768290  0.585140  0.470270  1.0  0.1868
  C  C374  1  0.719380  0.548690  0.456370  1.0  -0.1744
  C  C375  1  0.696790  0.551990  0.571670  1.0  -0.1746
  C  C376  1  0.731000  0.589940  0.659170  1.0  0.1594
  C  C377  1  0.720180  0.605040  0.785870  1.0  -0.1225
  C  C378  1  0.669480  0.579680  0.829970  1.0  0.075
  C  C379  1  0.653240  0.546630  0.939570  1.0  -0.2196
  C  C380  1  0.605690  0.522940  0.972370  1.0  0.1593
  C  C381  1  0.589750  0.561860  0.800070  1.0  0.1731
  C  C382  1  0.636580  0.587350  0.759170  1.0  -0.1996
  C  C383  1  0.789140  0.562870  0.238570  1.0  0.0251
  C  C384  1  0.775580  0.515720  0.252270  1.0  -0.0936
  C  C385  1  0.762380  0.486230  0.131870  1.0  -0.1179
  C  C386  1  0.762300  0.503490  0.996370  1.0  0.056
  C  C387  1  0.775840  0.550710  0.983370  1.0  -0.1205
  C  C388  1  0.789250  0.580150  0.101670  1.0  -0.1267
  C  C389  1  0.749370  0.472210  0.864070  1.0  -0.3909
  C  C390  1  0.752540  0.641620  0.871870  1.0  0.1936
  C  C391  1  0.740250  0.657940  0.999870  1.0  -0.1695
  C  C392  1  0.780170  0.694590  0.049970  1.0  -0.1767
  C  C393  1  0.817580  0.701650  0.953870  1.0  0.1872
  C  C394  1  0.863970  0.738710  0.966070  1.0  -0.1192
  C  C395  1  0.898370  0.748200  0.863070  1.0  0.1864
  C  C396  1  0.947280  0.784650  0.876970  1.0  -0.1727
  C  C397  1  0.969870  0.781350  0.761670  1.0  -0.1753
  C  C398  1  0.935660  0.743400  0.674170  1.0  0.1603
  C  C399  1  0.946480  0.728300  0.547470  1.0  -0.1214
  C  C400  1  0.997180  0.753660  0.503370  1.0  0.0757
  C  C401  1  0.013420  0.786710  0.393770  1.0  -0.2205
  C  C402  1  0.060970  0.810400  0.360970  1.0  0.1595
  C  C403  1  0.076910  0.771480  0.533270  1.0  0.1728
  C  C404  1  0.030080  0.745990  0.574170  1.0  -0.2004
  C  C405  1  0.877520  0.770470  0.094770  1.0  0.0241
  C  C406  1  0.891080  0.817620  0.081070  1.0  -0.0941
  C  C407  1  0.904280  0.847110  0.201470  1.0  -0.117
  C  C408  1  0.904360  0.829850  0.336970  1.0  0.0568
  C  C409  1  0.890820  0.782630  0.349970  1.0  -0.1202
  C  C410  1  0.877410  0.753190  0.231670  1.0  -0.1274
  C  C411  1  0.917290  0.861130  0.469270  1.0  -0.3914
  C  C412  1  0.974950  0.555740  0.794800  1.0  0.1924
  C  C413  1  0.991270  0.584350  0.666800  1.0  -0.1692
  C  C414  1  0.027920  0.581080  0.616700  1.0  -0.1786
  C  C415  1  0.034980  0.550730  0.712800  1.0  0.1872
  C  C416  1  0.072040  0.541400  0.700600  1.0  -0.1189
  C  C417  1  0.081530  0.516490  0.803600  1.0  0.188
  C  C418  1  0.117980  0.504030  0.789700  1.0  -0.1729
  C  C419  1  0.114680  0.478140  0.905000  1.0  -0.1762
  C  C420  1  0.076730  0.474400  0.992500  1.0  0.1591
  C  C421  1  0.061630  0.448480  0.119200  1.0  -0.1223
  C  C422  1  0.086990  0.423140  0.163300  1.0  0.0745
  C  C423  1  0.120040  0.439950  0.272900  1.0  -0.2186
  C  C424  1  0.143730  0.416090  0.305700  1.0  0.1591
  C  C425  1  0.104810  0.361230  0.133400  1.0  0.172
  C  C426  1  0.079320  0.382570  0.092500  1.0  -0.2011
  C  C427  1  0.103800  0.559610  0.571900  1.0  0.0227
  C  C428  1  0.150950  0.593200  0.585600  1.0  -0.0904
  C  C429  1  0.180440  0.609490  0.465200  1.0  -0.1206
  C  C430  1  0.163180  0.592150  0.329700  1.0  0.0568
  C  C431  1  0.115960  0.558470  0.316700  1.0  -0.1207
  C  C432  1  0.086520  0.542440  0.435000  1.0  -0.1232
  C  C433  1  0.194460  0.610500  0.197400  1.0  -0.3918
  C  C434  1  0.025050  0.444260  0.205200  1.0  0.193
  C  C435  1  0.008730  0.415650  0.333200  1.0  -0.1715
  C  C436  1  0.972080  0.418920  0.383300  1.0  -0.1799
  C  C437  1  0.965020  0.449270  0.287200  1.0  0.187
  C  C438  1  0.927960  0.458600  0.299400  1.0  -0.1191
  C  C439  1  0.918470  0.483510  0.196400  1.0  0.1865
  C  C440  1  0.882020  0.495970  0.210300  1.0  -0.1722
  C  C441  1  0.885320  0.521860  0.095000  1.0  -0.1764
  C  C442  1  0.923270  0.525600  0.007500  1.0  0.1597
  C  C443  1  0.938370  0.551520  0.880800  1.0  -0.1221
  C  C444  1  0.913010  0.576860  0.836700  1.0  0.076
  C  C445  1  0.879960  0.560050  0.727100  1.0  -0.2183
  C  C446  1  0.856270  0.583910  0.694300  1.0  0.1593
  C  C447  1  0.895190  0.638770  0.866600  1.0  0.1709
  C  C448  1  0.920680  0.617430  0.907500  1.0  -0.2019
  C  C449  1  0.896200  0.440390  0.428100  1.0  0.0218
  C  C450  1  0.849050  0.406800  0.414400  1.0  -0.0883
  C  C451  1  0.819560  0.390510  0.534800  1.0  -0.1201
  C  C452  1  0.836820  0.407850  0.670300  1.0  0.0565
  C  C453  1  0.884040  0.441530  0.683300  1.0  -0.1201
  C  C454  1  0.913480  0.457560  0.565000  1.0  -0.1243
  C  C455  1  0.805540  0.389500  0.802600  1.0  -0.3921
  C  C456  1  0.641620  0.889070  0.128130  1.0  0.1919
  C  C457  1  0.657940  0.917680  0.000130  1.0  -0.1691
  C  C458  1  0.694590  0.914410  0.950030  1.0  -0.1786
  C  C459  1  0.701650  0.884060  0.046130  1.0  0.1872
  C  C460  1  0.738710  0.874730  0.033930  1.0  -0.1189
  C  C461  1  0.748200  0.849820  0.136930  1.0  0.188
  C  C462  1  0.784650  0.837360  0.123030  1.0  -0.1729
  C  C463  1  0.781350  0.811470  0.238330  1.0  -0.1761
  C  C464  1  0.743400  0.807730  0.325830  1.0  0.1591
  C  C465  1  0.728300  0.781810  0.452530  1.0  -0.1223
  C  C466  1  0.753660  0.756470  0.496630  1.0  0.0746
  C  C467  1  0.786710  0.773280  0.606230  1.0  -0.2186
  C  C468  1  0.810400  0.749420  0.639030  1.0  0.1591
  C  C469  1  0.771480  0.694560  0.466730  1.0  0.172
  C  C470  1  0.745990  0.715900  0.425830  1.0  -0.2015
  C  C471  1  0.770470  0.892940  0.905230  1.0  0.0227
  C  C472  1  0.817620  0.926530  0.918930  1.0  -0.0901
  C  C473  1  0.847110  0.942820  0.798530  1.0  -0.1206
  C  C474  1  0.829850  0.925480  0.663030  1.0  0.0568
  C  C475  1  0.782630  0.891800  0.650030  1.0  -0.1207
  C  C476  1  0.753190  0.875770  0.768330  1.0  -0.1232
  C  C477  1  0.861130  0.943830  0.530730  1.0  -0.3916
  C  C478  1  0.691720  0.777590  0.538530  1.0  0.193
  C  C479  1  0.675400  0.748980  0.666530  1.0  -0.1715
  C  C480  1  0.638750  0.752250  0.716630  1.0  -0.1799
  C  C481  1  0.631690  0.782600  0.620530  1.0  0.187
  C  C482  1  0.594630  0.791930  0.632730  1.0  -0.1191
  C  C483  1  0.585140  0.816840  0.529730  1.0  0.1865
  C  C484  1  0.548690  0.829300  0.543630  1.0  -0.1722
  C  C485  1  0.551990  0.855190  0.428330  1.0  -0.1764
  C  C486  1  0.589940  0.858930  0.340830  1.0  0.1597
  C  C487  1  0.605040  0.884850  0.214130  1.0  -0.1218
  C  C488  1  0.579680  0.910190  0.170030  1.0  0.076
  C  C489  1  0.546630  0.893380  0.060430  1.0  -0.2183
  C  C490  1  0.522940  0.917240  0.027630  1.0  0.1593
  C  C491  1  0.561860  0.972100  0.199930  1.0  0.1709
  C  C492  1  0.587350  0.950760  0.240830  1.0  -0.2019
  C  C493  1  0.562870  0.773720  0.761430  1.0  0.0218
  C  C494  1  0.515720  0.740130  0.747730  1.0  -0.0883
  C  C495  1  0.486230  0.723840  0.868130  1.0  -0.1201
  C  C496  1  0.503490  0.741180  0.003630  1.0  0.0565
  C  C497  1  0.550710  0.774860  0.016630  1.0  -0.1201
  C  C498  1  0.580150  0.790890  0.898330  1.0  -0.1243
  C  C499  1  0.472210  0.722830  0.135930  1.0  -0.3921
  C  C500  1  0.308280  0.222410  0.461470  1.0  0.1924
  C  C501  1  0.324600  0.251020  0.333470  1.0  -0.1692
  C  C502  1  0.361250  0.247750  0.283370  1.0  -0.1786
  C  C503  1  0.368310  0.217400  0.379470  1.0  0.1872
  C  C504  1  0.405370  0.208070  0.367270  1.0  -0.1189
  C  C505  1  0.414860  0.183160  0.470270  1.0  0.188
  C  C506  1  0.451310  0.170700  0.456370  1.0  -0.1729
  C  C507  1  0.448010  0.144810  0.571670  1.0  -0.1762
  C  C508  1  0.410060  0.141070  0.659170  1.0  0.1592
  C  C509  1  0.394960  0.115150  0.785870  1.0  -0.1221
  C  C510  1  0.420320  0.089810  0.829970  1.0  0.0745
  C  C511  1  0.453370  0.106620  0.939570  1.0  -0.2186
  C  C512  1  0.477060  0.082760  0.972370  1.0  0.1591
  C  C513  1  0.438140  0.027900  0.800070  1.0  0.1719
  C  C514  1  0.412650  0.049240  0.759170  1.0  -0.2011
  C  C515  1  0.437130  0.226280  0.238570  1.0  0.0227
  C  C516  1  0.484280  0.259870  0.252270  1.0  -0.0904
  C  C517  1  0.513770  0.276160  0.131870  1.0  -0.1206
  C  C518  1  0.496510  0.258820  0.996370  1.0  0.0568
  C  C519  1  0.449290  0.225140  0.983370  1.0  -0.1207
  C  C520  1  0.419850  0.209110  0.101670  1.0  -0.1232
  C  C521  1  0.527790  0.277170  0.864070  1.0  -0.3918
  C  C522  1  0.358380  0.110930  0.871870  1.0  0.1925
  C  C523  1  0.342060  0.082320  0.999870  1.0  -0.1713
  C  C524  1  0.305410  0.085590  0.049970  1.0  -0.1799
  C  C525  1  0.298350  0.115940  0.953870  1.0  0.187
  C  C526  1  0.261290  0.125270  0.966070  1.0  -0.1191
  C  C527  1  0.251800  0.150180  0.863070  1.0  0.1865
  C  C528  1  0.215350  0.162640  0.876970  1.0  -0.1722
  C  C529  1  0.218650  0.188530  0.761670  1.0  -0.1763
  C  C530  1  0.256600  0.192270  0.674170  1.0  0.1597
  C  C531  1  0.271700  0.218190  0.547470  1.0  -0.1221
  C  C532  1  0.246340  0.243530  0.503370  1.0  0.0761
  C  C533  1  0.213290  0.226720  0.393770  1.0  -0.2184
  C  C534  1  0.189600  0.250580  0.360970  1.0  0.1592
  C  C535  1  0.228520  0.305440  0.533270  1.0  0.1709
  C  C536  1  0.254010  0.284100  0.574170  1.0  -0.2025
  C  C537  1  0.229530  0.107060  0.094770  1.0  0.0218
  C  C538  1  0.182380  0.073470  0.081070  1.0  -0.088
  C  C539  1  0.152890  0.057180  0.201470  1.0  -0.12
  C  C540  1  0.170150  0.074520  0.336970  1.0  0.0564
  C  C541  1  0.217370  0.108200  0.349970  1.0  -0.1202
  C  C542  1  0.246810  0.124230  0.231670  1.0  -0.1243
  C  C543  1  0.138870  0.056170  0.469270  1.0  -0.392
  C  C544  1  0.444260  0.419210  0.794800  1.0  0.1915
  C  C545  1  0.415650  0.406920  0.666800  1.0  -0.1685
  C  C546  1  0.418920  0.446840  0.616700  1.0  -0.1783
  C  C547  1  0.449270  0.484250  0.712800  1.0  0.1882
  C  C548  1  0.458600  0.530640  0.700600  1.0  -0.1185
  C  C549  1  0.483510  0.565040  0.803600  1.0  0.1875
  C  C550  1  0.495970  0.613950  0.789700  1.0  -0.1745
  C  C551  1  0.521860  0.636540  0.905000  1.0  -0.173
  C  C552  1  0.525600  0.602330  0.992500  1.0  0.1603
  C  C553  1  0.551520  0.613150  0.119200  1.0  -0.1214
  C  C554  1  0.576860  0.663850  0.163300  1.0  0.0761
  C  C555  1  0.560050  0.680090  0.272900  1.0  -0.2182
  C  C556  1  0.583910  0.727640  0.305700  1.0  0.1611
  C  C557  1  0.638770  0.743580  0.133400  1.0  0.1718
  C  C558  1  0.617430  0.696750  0.092500  1.0  -0.1986
  C  C559  1  0.440390  0.544190  0.571900  1.0  0.022
  C  C560  1  0.406800  0.557750  0.585600  1.0  -0.0912
  C  C561  1  0.390510  0.570950  0.465200  1.0  -0.1213
  C  C562  1  0.407850  0.571030  0.329700  1.0  0.0564
  C  C563  1  0.441530  0.557490  0.316700  1.0  -0.1185
  C  C564  1  0.457560  0.544080  0.435000  1.0  -0.1288
  C  C565  1  0.389500  0.583960  0.197400  1.0  -0.3895
  C  C566  1  0.555740  0.580790  0.205200  1.0  0.1921
  C  C567  1  0.584350  0.593080  0.333200  1.0  -0.1679
  C  C568  1  0.581080  0.553160  0.383300  1.0  -0.1761
  C  C569  1  0.550730  0.515750  0.287200  1.0  0.1876
  C  C570  1  0.541400  0.469360  0.299400  1.0  -0.1193
  C  C571  1  0.516490  0.434960  0.196400  1.0  0.1884
  C  C572  1  0.504030  0.386050  0.210300  1.0  -0.1744
  C  C573  1  0.478140  0.363460  0.095000  1.0  -0.1755
  C  C574  1  0.474400  0.397670  0.007500  1.0  0.1609
  C  C575  1  0.448480  0.386850  0.880800  1.0  -0.1222
  C  C576  1  0.423140  0.336150  0.836700  1.0  0.0752
  C  C577  1  0.439950  0.319910  0.727100  1.0  -0.2195
  C  C578  1  0.416090  0.272360  0.694300  1.0  0.1609
  C  C579  1  0.361230  0.256420  0.866600  1.0  0.1728
  C  C580  1  0.382570  0.303250  0.907500  1.0  -0.1975
  C  C581  1  0.559610  0.455810  0.428100  1.0  0.0225
  C  C582  1  0.593200  0.442250  0.414400  1.0  -0.0897
  C  C583  1  0.609490  0.429050  0.534800  1.0  -0.1214
  C  C584  1  0.592150  0.428970  0.670300  1.0  0.0564
  C  C585  1  0.558470  0.442510  0.683300  1.0  -0.1193
  C  C586  1  0.542440  0.455920  0.565000  1.0  -0.128
  C  C587  1  0.610500  0.416040  0.802600  1.0  -0.392
  C  C588  1  0.110930  0.752540  0.128130  1.0  0.1921
  C  C589  1  0.082320  0.740250  0.000130  1.0  -0.1686
  C  C590  1  0.085590  0.780170  0.950030  1.0  -0.1783
  C  C591  1  0.115940  0.817580  0.046130  1.0  0.1882
  C  C592  1  0.125270  0.863970  0.033930  1.0  -0.1185
  C  C593  1  0.150180  0.898370  0.136930  1.0  0.1875
  C  C594  1  0.162640  0.947280  0.123030  1.0  -0.1745
  C  C595  1  0.188530  0.969870  0.238330  1.0  -0.1732
  C  C596  1  0.192270  0.935660  0.325830  1.0  0.1603
  C  C597  1  0.218190  0.946480  0.452530  1.0  -0.1214
  C  C598  1  0.243530  0.997180  0.496630  1.0  0.076
  C  C599  1  0.226720  0.013420  0.606230  1.0  -0.2182
  C  C600  1  0.250580  0.060970  0.639030  1.0  0.1611
  C  C601  1  0.305440  0.076910  0.466730  1.0  0.1718
  C  C602  1  0.284100  0.030080  0.425830  1.0  -0.1982
  C  C603  1  0.107060  0.877520  0.905230  1.0  0.022
  C  C604  1  0.073470  0.891080  0.918930  1.0  -0.0915
  C  C605  1  0.057180  0.904280  0.798530  1.0  -0.1213
  C  C606  1  0.074520  0.904360  0.663030  1.0  0.0564
  C  C607  1  0.108200  0.890820  0.650030  1.0  -0.1184
  C  C608  1  0.124230  0.877410  0.768330  1.0  -0.1288
  C  C609  1  0.056170  0.917290  0.530730  1.0  -0.3895
  C  C610  1  0.222410  0.914120  0.538530  1.0  0.1921
  C  C611  1  0.251020  0.926410  0.666530  1.0  -0.1679
  C  C612  1  0.247750  0.886490  0.716630  1.0  -0.1761
  C  C613  1  0.217400  0.849080  0.620530  1.0  0.1876
  C  C614  1  0.208070  0.802690  0.632730  1.0  -0.1193
  C  C615  1  0.183160  0.768290  0.529730  1.0  0.1884
  C  C616  1  0.170700  0.719380  0.543630  1.0  -0.1745
  C  C617  1  0.144810  0.696790  0.428330  1.0  -0.1755
  C  C618  1  0.141070  0.731000  0.340830  1.0  0.1608
  C  C619  1  0.115150  0.720180  0.214130  1.0  -0.1225
  C  C620  1  0.089810  0.669480  0.170030  1.0  0.0752
  C  C621  1  0.106620  0.653240  0.060430  1.0  -0.2194
  C  C622  1  0.082760  0.605690  0.027630  1.0  0.1609
  C  C623  1  0.027900  0.589750  0.199930  1.0  0.1728
  C  C624  1  0.049240  0.636580  0.240830  1.0  -0.1975
  C  C625  1  0.226280  0.789140  0.761430  1.0  0.0225
  C  C626  1  0.259870  0.775580  0.747730  1.0  -0.0897
  C  C627  1  0.276160  0.762380  0.868130  1.0  -0.1214
  C  C628  1  0.258820  0.762300  0.003630  1.0  0.0564
  C  C629  1  0.225140  0.775840  0.016630  1.0  -0.1193
  C  C630  1  0.209110  0.789250  0.898330  1.0  -0.128
  C  C631  1  0.277170  0.749370  0.135930  1.0  -0.392
  C  C632  1  0.777590  0.085880  0.461470  1.0  0.1915
  C  C633  1  0.748980  0.073590  0.333470  1.0  -0.1685
  C  C634  1  0.752250  0.113510  0.283370  1.0  -0.1783
  C  C635  1  0.782600  0.150920  0.379470  1.0  0.1882
  C  C636  1  0.791930  0.197310  0.367270  1.0  -0.1185
  C  C637  1  0.816840  0.231710  0.470270  1.0  0.1875
  C  C638  1  0.829300  0.280620  0.456370  1.0  -0.1745
  C  C639  1  0.855190  0.303210  0.571670  1.0  -0.173
  C  C640  1  0.858930  0.269000  0.659170  1.0  0.1602
  C  C641  1  0.884850  0.279820  0.785870  1.0  -0.1216
  C  C642  1  0.910190  0.330520  0.829970  1.0  0.0761
  C  C643  1  0.893380  0.346760  0.939570  1.0  -0.2181
  C  C644  1  0.917240  0.394310  0.972370  1.0  0.1611
  C  C645  1  0.972100  0.410250  0.800070  1.0  0.1718
  C  C646  1  0.950760  0.363420  0.759170  1.0  -0.1986
  C  C647  1  0.773720  0.210860  0.238570  1.0  0.022
  C  C648  1  0.740130  0.224420  0.252270  1.0  -0.0912
  C  C649  1  0.723840  0.237620  0.131870  1.0  -0.1213
  C  C650  1  0.741180  0.237700  0.996370  1.0  0.0564
  C  C651  1  0.774860  0.224160  0.983370  1.0  -0.1185
  C  C652  1  0.790890  0.210750  0.101670  1.0  -0.1288
  C  C653  1  0.722830  0.250630  0.864070  1.0  -0.3895
  C  C654  1  0.889070  0.247460  0.871870  1.0  0.1927
  C  C655  1  0.917680  0.259750  0.999870  1.0  -0.168
  C  C656  1  0.914410  0.219830  0.049970  1.0  -0.1761
  C  C657  1  0.884060  0.182420  0.953870  1.0  0.1876
  C  C658  1  0.874730  0.136030  0.966070  1.0  -0.1193
  C  C659  1  0.849820  0.101630  0.863070  1.0  0.1884
  C  C660  1  0.837360  0.052720  0.876970  1.0  -0.1744
  C  C661  1  0.811470  0.030130  0.761670  1.0  -0.1756
  C  C662  1  0.807730  0.064340  0.674170  1.0  0.1609
  C  C663  1  0.781810  0.053520  0.547470  1.0  -0.1222
  C  C664  1  0.756470  0.002820  0.503370  1.0  0.0751
  C  C665  1  0.773280  0.986580  0.393770  1.0  -0.2195
  C  C666  1  0.749420  0.939030  0.360970  1.0  0.1609
  C  C667  1  0.694560  0.923090  0.533270  1.0  0.1728
  C  C668  1  0.715900  0.969920  0.574170  1.0  -0.1971
  C  C669  1  0.892940  0.122480  0.094770  1.0  0.0225
  C  C670  1  0.926530  0.108920  0.081070  1.0  -0.0901
  C  C671  1  0.942820  0.095720  0.201470  1.0  -0.1214
  C  C672  1  0.925480  0.095640  0.336970  1.0  0.0564
  C  C673  1  0.891800  0.109180  0.349970  1.0  -0.1193
  C  C674  1  0.875770  0.122590  0.231670  1.0  -0.128
  C  C675  1  0.943830  0.082710  0.469270  1.0  -0.392
  N  N676  1  0.533160  0.997860  0.821200  1.0  -0.374
  N  N677  1  0.441740  0.943250  0.929100  1.0  -0.369
  N  N678  1  0.240450  0.863210  0.238200  1.0  -0.3355
  N  N679  1  0.466840  0.002140  0.178800  1.0  -0.3746
  N  N680  1  0.558260  0.056750  0.070900  1.0  -0.3687
  N  N681  1  0.759550  0.136790  0.761800  1.0  -0.3347
  N  N682  1  0.199830  0.331190  0.154530  1.0  -0.374
  N  N683  1  0.108410  0.276580  0.262430  1.0  -0.3689
  N  N684  1  0.907120  0.196540  0.571530  1.0  -0.3351
  N  N685  1  0.133510  0.335470  0.512130  1.0  -0.3746
  N  N686  1  0.224930  0.390080  0.404230  1.0  -0.3684
  N  N687  1  0.426220  0.470120  0.095130  1.0  -0.3347
  N  N688  1  0.866490  0.664530  0.487870  1.0  -0.374
  N  N689  1  0.775070  0.609920  0.595770  1.0  -0.3688
  N  N690  1  0.573780  0.529880  0.904870  1.0  -0.3355
  N  N691  1  0.800170  0.668810  0.845470  1.0  -0.3746
  N  N692  1  0.891590  0.723420  0.737570  1.0  -0.3685
  N  N693  1  0.092880  0.803460  0.428470  1.0  -0.3345
  N  N694  1  0.002140  0.535300  0.821200  1.0  -0.3724
  N  N695  1  0.056750  0.498490  0.929100  1.0  -0.3705
  N  N696  1  0.136790  0.377240  0.238200  1.0  -0.3345
  N  N697  1  0.997860  0.464700  0.178800  1.0  -0.3709
  N  N698  1  0.943250  0.501510  0.070900  1.0  -0.3701
  N  N699  1  0.863210  0.622760  0.761800  1.0  -0.3354
  N  N700  1  0.668810  0.868630  0.154530  1.0  -0.3724
  N  N701  1  0.723420  0.831820  0.262430  1.0  -0.3706
  N  N702  1  0.803460  0.710570  0.571530  1.0  -0.3342
  N  N703  1  0.664530  0.798030  0.512130  1.0  -0.3709
  N  N704  1  0.609920  0.834840  0.404230  1.0  -0.3701
  N  N705  1  0.529880  0.956090  0.095130  1.0  -0.3354
  N  N706  1  0.335470  0.201970  0.487870  1.0  -0.3724
  N  N707  1  0.390080  0.165160  0.595770  1.0  -0.3705
  N  N708  1  0.470120  0.043910  0.904870  1.0  -0.3345
  N  N709  1  0.331190  0.131370  0.845470  1.0  -0.3709
  N  N710  1  0.276580  0.168180  0.737570  1.0  -0.3703
  N  N711  1  0.196540  0.289430  0.428470  1.0  -0.3353
  N  N712  1  0.464700  0.466840  0.821200  1.0  -0.3734
  N  N713  1  0.501510  0.558260  0.929100  1.0  -0.3694
  N  N714  1  0.622760  0.759550  0.238200  1.0  -0.3334
  N  N715  1  0.535300  0.533160  0.178800  1.0  -0.3718
  N  N716  1  0.498490  0.441740  0.070900  1.0  -0.3679
  N  N717  1  0.377240  0.240450  0.761800  1.0  -0.3344
  N  N718  1  0.131370  0.800170  0.154530  1.0  -0.3734
  N  N719  1  0.168180  0.891590  0.262430  1.0  -0.3695
  N  N720  1  0.289430  0.092880  0.571530  1.0  -0.3336
  N  N721  1  0.201970  0.866490  0.512130  1.0  -0.3718
  N  N722  1  0.165160  0.775070  0.404230  1.0  -0.3681
  N  N723  1  0.043910  0.573780  0.095130  1.0  -0.3344
  N  N724  1  0.798030  0.133510  0.487870  1.0  -0.3734
  N  N725  1  0.834840  0.224930  0.595770  1.0  -0.3696
  N  N726  1  0.956090  0.426220  0.904870  1.0  -0.3334
  N  N727  1  0.868630  0.199830  0.845470  1.0  -0.3718
  N  N728  1  0.831820  0.108410  0.737570  1.0  -0.368
  N  N729  1  0.710570  0.907120  0.428470  1.0  -0.3346
