# generated using pymatgen
data_CoH30(C22N3)2
_symmetry_space_group_name_H-M   'P 1'
_cell_length_a   32.42500000
_cell_length_b   32.42500000
_cell_length_c   9.34000000
_cell_angle_alpha   90.00000000
_cell_angle_beta   90.00000000
_cell_angle_gamma   120.00000000
_symmetry_Int_Tables_number   1
_chemical_formula_structural   CoH30(C22N3)2
_chemical_formula_sum   'Co9 H270 C396 N54'
_cell_volume   8504.27856497
_cell_formula_units_Z   9
loop_
 _symmetry_equiv_pos_site_id
 _symmetry_equiv_pos_as_xyz
  1  'x, y, z'
loop_
 _atom_site_type_symbol
 _atom_site_label
 _atom_site_symmetry_multiplicity
 _atom_site_fract_x
 _atom_site_fract_y
 _atom_site_fract_z
 _atom_site_occupancy
 _atom_site_charge
  Co  Co1  1  0.500000  0.000000  0.000000  1.0  0.8353
  Co  Co2  1  0.166670  0.333333  0.333333  1.0  0.8398
  Co  Co3  1  0.833330  0.666667  0.666667  1.0  0.8399
  Co  Co4  1  0.000000  0.500000  0.000000  1.0  0.8366
  Co  Co5  1  0.666667  0.833330  0.333333  1.0  0.8384
  Co  Co6  1  0.333333  0.166670  0.666667  1.0  0.8384
  Co  Co7  1  0.500000  0.500000  0.000000  1.0  0.8353
  Co  Co8  1  0.166670  0.833330  0.333333  1.0  0.8399
  Co  Co9  1  0.833330  0.166670  0.666667  1.0  0.8399
  H  H10  1  0.601700  0.978000  0.376000  1.0  0.1266
  H  H11  1  0.596700  0.046800  0.465000  1.0  0.1102
  H  H12  1  0.513100  0.141700  0.285100  1.0  0.119
  H  H13  1  0.465700  0.136000  0.070000  1.0  0.1091
  H  H14  1  0.467300  0.126900  0.674500  1.0  0.1222
  H  H15  1  0.427600  0.166800  0.617700  1.0  0.0663
  H  H16  1  0.333000  0.100200  0.916400  1.0  0.0731
  H  H17  1  0.369800  0.057900  0.982000  1.0  0.1279
  H  H18  1  0.519700  0.054800  0.574100  1.0  0.0883
  H  H19  1  0.548100  0.102900  0.775400  1.0  0.0839
  H  H20  1  0.630600  0.214000  0.526200  1.0  0.1062
  H  H21  1  0.605500  0.165800  0.324000  1.0  0.1229
  H  H22  1  0.582700  0.184800  0.874700  1.0  0.1255
  H  H23  1  0.620800  0.228100  0.779000  1.0  0.1305
  H  H24  1  0.634600  0.191600  0.848800  1.0  0.1328
  H  H25  1  0.268370  0.311330  0.709330  1.0  0.1266
  H  H26  1  0.263370  0.380130  0.798330  1.0  0.1102
  H  H27  1  0.179770  0.475030  0.618430  1.0  0.119
  H  H28  1  0.132370  0.469330  0.403330  1.0  0.1091
  H  H29  1  0.133970  0.460230  0.007830  1.0  0.1222
  H  H30  1  0.094270  0.500130  0.951030  1.0  0.0663
  H  H31  1  0.999670  0.433530  0.249730  1.0  0.0731
  H  H32  1  0.036470  0.391230  0.315330  1.0  0.1278
  H  H33  1  0.186370  0.388130  0.907430  1.0  0.0883
  H  H34  1  0.214770  0.436230  0.108730  1.0  0.0839
  H  H35  1  0.297270  0.547330  0.859530  1.0  0.1062
  H  H36  1  0.272170  0.499130  0.657330  1.0  0.1229
  H  H37  1  0.249370  0.518130  0.208030  1.0  0.1255
  H  H38  1  0.287470  0.561430  0.112330  1.0  0.1305
  H  H39  1  0.301270  0.524930  0.182130  1.0  0.1328
  H  H40  1  0.935030  0.644670  0.042670  1.0  0.1266
  H  H41  1  0.930030  0.713470  0.131670  1.0  0.1102
  H  H42  1  0.846430  0.808370  0.951770  1.0  0.119
  H  H43  1  0.799030  0.802670  0.736670  1.0  0.1091
  H  H44  1  0.800630  0.793570  0.341170  1.0  0.1222
  H  H45  1  0.760930  0.833470  0.284370  1.0  0.0664
  H  H46  1  0.666330  0.766870  0.583070  1.0  0.073
  H  H47  1  0.703130  0.724570  0.648670  1.0  0.1278
  H  H48  1  0.853030  0.721470  0.240770  1.0  0.0883
  H  H49  1  0.881430  0.769570  0.442070  1.0  0.0839
  H  H50  1  0.963930  0.880670  0.192870  1.0  0.1083
  H  H51  1  0.938830  0.832470  0.990670  1.0  0.1229
  H  H52  1  0.916030  0.851470  0.541370  1.0  0.1254
  H  H53  1  0.954130  0.894770  0.445670  1.0  0.132
  H  H54  1  0.967930  0.858270  0.515470  1.0  0.1329
  H  H55  1  0.022000  0.623700  0.376000  1.0  0.1263
  H  H56  1  0.953200  0.549900  0.465000  1.0  0.1107
  H  H57  1  0.858300  0.371400  0.285100  1.0  0.1206
  H  H58  1  0.864000  0.329700  0.070000  1.0  0.1089
  H  H59  1  0.873100  0.340400  0.674500  1.0  0.1219
  H  H60  1  0.833200  0.260800  0.617700  1.0  0.067
  H  H61  1  0.899800  0.232800  0.916400  1.0  0.073
  H  H62  1  0.942100  0.311900  0.982000  1.0  0.1278
  H  H63  1  0.945200  0.464900  0.574100  1.0  0.0883
  H  H64  1  0.897100  0.445200  0.775400  1.0  0.0842
  H  H65  1  0.786000  0.416600  0.526200  1.0  0.1066
  H  H66  1  0.834200  0.439700  0.324000  1.0  0.1227
  H  H67  1  0.815200  0.397900  0.874700  1.0  0.1281
  H  H68  1  0.771900  0.392700  0.779000  1.0  0.1301
  H  H69  1  0.808400  0.443000  0.848800  1.0  0.1351
  H  H70  1  0.688670  0.957030  0.709330  1.0  0.1263
  H  H71  1  0.619870  0.883230  0.798330  1.0  0.1107
  H  H72  1  0.524970  0.704730  0.618430  1.0  0.1206
  H  H73  1  0.530670  0.663030  0.403330  1.0  0.1086
  H  H74  1  0.539770  0.673730  0.007830  1.0  0.1219
  H  H75  1  0.499870  0.594130  0.951030  1.0  0.067
  H  H76  1  0.566470  0.566130  0.249730  1.0  0.073
  H  H77  1  0.608770  0.645230  0.315330  1.0  0.1278
  H  H78  1  0.611870  0.798230  0.907430  1.0  0.0883
  H  H79  1  0.563770  0.778530  0.108730  1.0  0.0842
  H  H80  1  0.452670  0.749930  0.859530  1.0  0.1066
  H  H81  1  0.500870  0.773030  0.657330  1.0  0.1227
  H  H82  1  0.481870  0.731230  0.208030  1.0  0.1281
  H  H83  1  0.438570  0.726030  0.112330  1.0  0.1301
  H  H84  1  0.475070  0.776330  0.182130  1.0  0.1351
  H  H85  1  0.355330  0.290370  0.042670  1.0  0.1263
  H  H86  1  0.286530  0.216570  0.131670  1.0  0.1107
  H  H87  1  0.191630  0.038070  0.951770  1.0  0.1205
  H  H88  1  0.197330  0.996370  0.736670  1.0  0.1086
  H  H89  1  0.206430  0.007070  0.341170  1.0  0.1228
  H  H90  1  0.166530  0.927470  0.284370  1.0  0.067
  H  H91  1  0.233130  0.899470  0.583070  1.0  0.0731
  H  H92  1  0.275430  0.978570  0.648670  1.0  0.1277
  H  H93  1  0.278530  0.131570  0.240770  1.0  0.0883
  H  H94  1  0.230430  0.111870  0.442070  1.0  0.0842
  H  H95  1  0.119330  0.083270  0.192870  1.0  0.1066
  H  H96  1  0.167530  0.106370  0.990670  1.0  0.1226
  H  H97  1  0.148530  0.064570  0.541370  1.0  0.1283
  H  H98  1  0.105230  0.059370  0.445670  1.0  0.1299
  H  H99  1  0.141730  0.109670  0.515470  1.0  0.135
  H  H100  1  0.376300  0.398300  0.376000  1.0  0.1257
  H  H101  1  0.450100  0.403300  0.465000  1.0  0.1105
  H  H102  1  0.628600  0.486900  0.285100  1.0  0.1188
  H  H103  1  0.670300  0.534300  0.070000  1.0  0.109
  H  H104  1  0.659600  0.532700  0.674500  1.0  0.1227
  H  H105  1  0.739200  0.572400  0.617700  1.0  0.0666
  H  H106  1  0.767200  0.667000  0.916400  1.0  0.0731
  H  H107  1  0.688100  0.630200  0.982000  1.0  0.1283
  H  H108  1  0.535100  0.480300  0.574100  1.0  0.0885
  H  H109  1  0.554800  0.451900  0.775400  1.0  0.0835
  H  H110  1  0.583400  0.369400  0.526200  1.0  0.1074
  H  H111  1  0.560300  0.394500  0.324000  1.0  0.1229
  H  H112  1  0.602100  0.417300  0.874700  1.0  0.1275
  H  H113  1  0.607300  0.379200  0.779000  1.0  0.1331
  H  H114  1  0.557000  0.365400  0.848800  1.0  0.1341
  H  H115  1  0.042970  0.731630  0.709330  1.0  0.1257
  H  H116  1  0.116770  0.736630  0.798330  1.0  0.1105
  H  H117  1  0.295270  0.820230  0.618430  1.0  0.1188
  H  H118  1  0.336970  0.867630  0.403330  1.0  0.109
  H  H119  1  0.326270  0.866030  0.007830  1.0  0.1227
  H  H120  1  0.405870  0.905730  0.951030  1.0  0.0666
  H  H121  1  0.433870  0.000330  0.249730  1.0  0.0731
  H  H122  1  0.354770  0.963530  0.315330  1.0  0.1283
  H  H123  1  0.201770  0.813630  0.907430  1.0  0.0885
  H  H124  1  0.221470  0.785230  0.108730  1.0  0.0835
  H  H125  1  0.250070  0.702730  0.859530  1.0  0.1074
  H  H126  1  0.226970  0.727830  0.657330  1.0  0.1229
  H  H127  1  0.268770  0.750630  0.208030  1.0  0.1275
  H  H128  1  0.273970  0.712530  0.112330  1.0  0.1331
  H  H129  1  0.223670  0.698730  0.182130  1.0  0.1341
  H  H130  1  0.709630  0.064970  0.042670  1.0  0.1257
  H  H131  1  0.783430  0.069970  0.131670  1.0  0.1105
  H  H132  1  0.961930  0.153570  0.951770  1.0  0.1187
  H  H133  1  0.003630  0.200970  0.736670  1.0  0.109
  H  H134  1  0.992930  0.199370  0.341170  1.0  0.1227
  H  H135  1  0.072530  0.239070  0.284370  1.0  0.0666
  H  H136  1  0.100530  0.333670  0.583070  1.0  0.0732
  H  H137  1  0.021430  0.296870  0.648670  1.0  0.1284
  H  H138  1  0.868430  0.146970  0.240770  1.0  0.0885
  H  H139  1  0.888130  0.118570  0.442070  1.0  0.0835
  H  H140  1  0.916730  0.036070  0.192870  1.0  0.1065
  H  H141  1  0.893630  0.061170  0.990670  1.0  0.123
  H  H142  1  0.935430  0.083970  0.541370  1.0  0.1276
  H  H143  1  0.940630  0.045870  0.445670  1.0  0.1332
  H  H144  1  0.890330  0.032070  0.515470  1.0  0.1341
  H  H145  1  0.398300  0.022000  0.624000  1.0  0.1254
  H  H146  1  0.403300  0.953200  0.535000  1.0  0.1105
  H  H147  1  0.486900  0.858300  0.714900  1.0  0.1186
  H  H148  1  0.534300  0.864000  0.930000  1.0  0.1084
  H  H149  1  0.532700  0.873100  0.325500  1.0  0.1213
  H  H150  1  0.572400  0.833200  0.382300  1.0  0.0676
  H  H151  1  0.667000  0.899800  0.083600  1.0  0.0728
  H  H152  1  0.630200  0.942100  0.018000  1.0  0.1283
  H  H153  1  0.480300  0.945200  0.425900  1.0  0.0876
  H  H154  1  0.451900  0.897100  0.224600  1.0  0.0836
  H  H155  1  0.369400  0.786000  0.473800  1.0  0.1071
  H  H156  1  0.394500  0.834200  0.676000  1.0  0.1224
  H  H157  1  0.417300  0.815200  0.125300  1.0  0.1251
  H  H158  1  0.379200  0.771900  0.221000  1.0  0.1287
  H  H159  1  0.365400  0.808400  0.151200  1.0  0.1333
  H  H160  1  0.064970  0.355330  0.957330  1.0  0.1254
  H  H161  1  0.069970  0.286530  0.868330  1.0  0.1105
  H  H162  1  0.153570  0.191630  0.048230  1.0  0.1187
  H  H163  1  0.200970  0.197330  0.263330  1.0  0.1085
  H  H164  1  0.199370  0.206430  0.658830  1.0  0.1213
  H  H165  1  0.239070  0.166530  0.715630  1.0  0.0677
  H  H166  1  0.333670  0.233130  0.416930  1.0  0.0727
  H  H167  1  0.296870  0.275430  0.351330  1.0  0.1283
  H  H168  1  0.146970  0.278530  0.759230  1.0  0.0876
  H  H169  1  0.118570  0.230430  0.557930  1.0  0.0836
  H  H170  1  0.036070  0.119330  0.807130  1.0  0.1077
  H  H171  1  0.061170  0.167530  0.009330  1.0  0.1224
  H  H172  1  0.083970  0.148530  0.458630  1.0  0.1249
  H  H173  1  0.045870  0.105230  0.554330  1.0  0.1302
  H  H174  1  0.032070  0.141730  0.484530  1.0  0.1333
  H  H175  1  0.731630  0.688670  0.290670  1.0  0.1253
  H  H176  1  0.736630  0.619870  0.201670  1.0  0.1105
  H  H177  1  0.820230  0.524970  0.381570  1.0  0.1187
  H  H178  1  0.867630  0.530670  0.596670  1.0  0.1084
  H  H179  1  0.866030  0.539770  0.992170  1.0  0.1213
  H  H180  1  0.905730  0.499870  0.048970  1.0  0.0676
  H  H181  1  0.000330  0.566470  0.750270  1.0  0.0728
  H  H182  1  0.963530  0.608770  0.684670  1.0  0.1282
  H  H183  1  0.813630  0.611870  0.092570  1.0  0.0876
  H  H184  1  0.785230  0.563770  0.891270  1.0  0.0836
  H  H185  1  0.702730  0.452670  0.140470  1.0  0.1071
  H  H186  1  0.727830  0.500870  0.342670  1.0  0.1224
  H  H187  1  0.750630  0.481870  0.791970  1.0  0.1251
  H  H188  1  0.712530  0.438570  0.887670  1.0  0.1287
  H  H189  1  0.698730  0.475070  0.817870  1.0  0.1333
  H  H190  1  0.978000  0.376300  0.624000  1.0  0.1252
  H  H191  1  0.046800  0.450100  0.535000  1.0  0.1102
  H  H192  1  0.141700  0.628600  0.714900  1.0  0.1193
  H  H193  1  0.136000  0.670300  0.930000  1.0  0.1086
  H  H194  1  0.126900  0.659600  0.325500  1.0  0.1221
  H  H195  1  0.166800  0.739200  0.382300  1.0  0.0659
  H  H196  1  0.100200  0.767200  0.083600  1.0  0.073
  H  H197  1  0.057900  0.688100  0.018000  1.0  0.1291
  H  H198  1  0.054800  0.535100  0.425900  1.0  0.0877
  H  H199  1  0.102900  0.554800  0.224600  1.0  0.084
  H  H200  1  0.214000  0.583400  0.473800  1.0  0.1066
  H  H201  1  0.165800  0.560300  0.676000  1.0  0.1236
  H  H202  1  0.184800  0.602100  0.125300  1.0  0.1289
  H  H203  1  0.228100  0.607300  0.221000  1.0  0.131
  H  H204  1  0.191600  0.557000  0.151200  1.0  0.1344
  H  H205  1  0.644670  0.709630  0.957330  1.0  0.1252
  H  H206  1  0.713470  0.783430  0.868330  1.0  0.1102
  H  H207  1  0.808370  0.961930  0.048230  1.0  0.1172
  H  H208  1  0.802670  0.003630  0.263330  1.0  0.1086
  H  H209  1  0.793570  0.992930  0.658830  1.0  0.1222
  H  H210  1  0.833470  0.072530  0.715630  1.0  0.0658
  H  H211  1  0.766870  0.100530  0.416930  1.0  0.073
  H  H212  1  0.724570  0.021430  0.351330  1.0  0.1291
  H  H213  1  0.721470  0.868430  0.759230  1.0  0.0877
  H  H214  1  0.769570  0.888130  0.557930  1.0  0.084
  H  H215  1  0.880670  0.916730  0.807130  1.0  0.1066
  H  H216  1  0.832470  0.893630  0.009330  1.0  0.1235
  H  H217  1  0.851470  0.935430  0.458630  1.0  0.129
  H  H218  1  0.894770  0.940630  0.554330  1.0  0.1309
  H  H219  1  0.858270  0.890330  0.484530  1.0  0.1343
  H  H220  1  0.311330  0.042970  0.290670  1.0  0.1252
  H  H221  1  0.380130  0.116770  0.201670  1.0  0.1102
  H  H222  1  0.475030  0.295270  0.381570  1.0  0.1193
  H  H223  1  0.469330  0.336970  0.596670  1.0  0.1086
  H  H224  1  0.460230  0.326270  0.992170  1.0  0.1221
  H  H225  1  0.500130  0.405870  0.048970  1.0  0.0659
  H  H226  1  0.433530  0.433870  0.750270  1.0  0.073
  H  H227  1  0.391230  0.354770  0.684670  1.0  0.1292
  H  H228  1  0.388130  0.201770  0.092570  1.0  0.0877
  H  H229  1  0.436230  0.221470  0.891270  1.0  0.084
  H  H230  1  0.547330  0.250070  0.140470  1.0  0.1066
  H  H231  1  0.499130  0.226970  0.342670  1.0  0.1236
  H  H232  1  0.518130  0.268770  0.791970  1.0  0.1289
  H  H233  1  0.561430  0.273970  0.887670  1.0  0.131
  H  H234  1  0.524930  0.223670  0.817870  1.0  0.1344
  H  H235  1  0.623700  0.601700  0.624000  1.0  0.1251
  H  H236  1  0.549900  0.596700  0.535000  1.0  0.1106
  H  H237  1  0.371400  0.513100  0.714900  1.0  0.1193
  H  H238  1  0.329700  0.465700  0.930000  1.0  0.1087
  H  H239  1  0.340400  0.467300  0.325500  1.0  0.1216
  H  H240  1  0.260800  0.427600  0.382300  1.0  0.0664
  H  H241  1  0.232800  0.333000  0.083600  1.0  0.0725
  H  H242  1  0.311900  0.369800  0.018000  1.0  0.1268
  H  H243  1  0.464900  0.519700  0.425900  1.0  0.0878
  H  H244  1  0.445200  0.548100  0.224600  1.0  0.0837
  H  H245  1  0.416600  0.630600  0.473800  1.0  0.107
  H  H246  1  0.439700  0.605500  0.676000  1.0  0.1227
  H  H247  1  0.397900  0.582700  0.125300  1.0  0.1279
  H  H248  1  0.392700  0.620800  0.221000  1.0  0.1325
  H  H249  1  0.443000  0.634600  0.151200  1.0  0.1342
  H  H250  1  0.290370  0.935030  0.957330  1.0  0.1251
  H  H251  1  0.216570  0.930030  0.868330  1.0  0.1106
  H  H252  1  0.038070  0.846430  0.048230  1.0  0.1192
  H  H253  1  0.996370  0.799030  0.263330  1.0  0.1087
  H  H254  1  0.007070  0.800630  0.658830  1.0  0.1216
  H  H255  1  0.927470  0.760930  0.715630  1.0  0.0668
  H  H256  1  0.899470  0.666330  0.416930  1.0  0.0725
  H  H257  1  0.978570  0.703130  0.351330  1.0  0.1279
  H  H258  1  0.131570  0.853030  0.759230  1.0  0.0878
  H  H259  1  0.111870  0.881430  0.557930  1.0  0.0837
  H  H260  1  0.083270  0.963930  0.807130  1.0  0.1063
  H  H261  1  0.106370  0.938830  0.009330  1.0  0.1227
  H  H262  1  0.064570  0.916030  0.458630  1.0  0.1278
  H  H263  1  0.059370  0.954130  0.554330  1.0  0.1321
  H  H264  1  0.109670  0.967930  0.484530  1.0  0.1342
  H  H265  1  0.957030  0.268370  0.290670  1.0  0.1251
  H  H266  1  0.883230  0.263370  0.201670  1.0  0.1106
  H  H267  1  0.704730  0.179770  0.381570  1.0  0.1193
  H  H268  1  0.663030  0.132370  0.596670  1.0  0.1087
  H  H269  1  0.673730  0.133970  0.992170  1.0  0.1216
  H  H270  1  0.594130  0.094270  0.048970  1.0  0.0664
  H  H271  1  0.566130  0.999670  0.750270  1.0  0.0725
  H  H272  1  0.645230  0.036470  0.684670  1.0  0.1268
  H  H273  1  0.798230  0.186370  0.092570  1.0  0.0878
  H  H274  1  0.778530  0.214770  0.891270  1.0  0.0837
  H  H275  1  0.749930  0.297270  0.140470  1.0  0.107
  H  H276  1  0.773030  0.272170  0.342670  1.0  0.1227
  H  H277  1  0.731230  0.249370  0.791970  1.0  0.1279
  H  H278  1  0.726030  0.287470  0.887670  1.0  0.1325
  H  H279  1  0.776330  0.301270  0.817870  1.0  0.1342
  C  C280  1  0.556210  0.975210  0.204300  1.0  0.1957
  C  C281  1  0.584300  0.991300  0.333700  1.0  -0.1712
  C  C282  1  0.581300  0.028300  0.382500  1.0  -0.1732
  C  C283  1  0.550630  0.034960  0.287400  1.0  0.1568
  C  C284  1  0.541960  0.073510  0.297900  1.0  -0.1203
  C  C285  1  0.516740  0.082230  0.196000  1.0  0.1958
  C  C286  1  0.504570  0.119400  0.209100  1.0  -0.1708
  C  C287  1  0.478750  0.116200  0.091900  1.0  -0.1871
  C  C288  1  0.474610  0.077700  0.006600  1.0  0.1678
  C  C289  1  0.448120  0.062090  0.879400  1.0  -0.1182
  C  C290  1  0.423380  0.088130  0.835300  1.0  0.1005
  C  C291  1  0.439600  0.120600  0.726500  1.0  -0.2172
  C  C292  1  0.415400  0.144080  0.693100  1.0  0.1571
  C  C293  1  0.360700  0.105600  0.865800  1.0  0.1623
  C  C294  1  0.382550  0.080400  0.906100  1.0  -0.201
  C  C295  1  0.559820  0.104660  0.427800  1.0  0.0445
  C  C296  1  0.543030  0.087400  0.562900  1.0  -0.1369
  C  C297  1  0.559300  0.116500  0.683500  1.0  -0.1685
  C  C298  1  0.590600  0.163700  0.672900  1.0  0.1036
  C  C299  1  0.607800  0.181200  0.536700  1.0  -0.1006
  C  C300  1  0.592900  0.152500  0.415200  1.0  -0.1566
  C  C301  1  0.608800  0.194800  0.805600  1.0  -0.3734
  C  C302  1  0.222880  0.308540  0.537630  1.0  0.1957
  C  C303  1  0.250970  0.324630  0.667030  1.0  -0.1712
  C  C304  1  0.247970  0.361630  0.715830  1.0  -0.1731
  C  C305  1  0.217300  0.368290  0.620730  1.0  0.1568
  C  C306  1  0.208630  0.406840  0.631230  1.0  -0.1203
  C  C307  1  0.183410  0.415560  0.529330  1.0  0.1958
  C  C308  1  0.171240  0.452730  0.542430  1.0  -0.1708
  C  C309  1  0.145420  0.449530  0.425230  1.0  -0.1871
  C  C310  1  0.141280  0.411030  0.339930  1.0  0.1678
  C  C311  1  0.114790  0.395420  0.212730  1.0  -0.1182
  C  C312  1  0.090050  0.421460  0.168630  1.0  0.1005
  C  C313  1  0.106270  0.453930  0.059830  1.0  -0.2172
  C  C314  1  0.082070  0.477410  0.026430  1.0  0.1571
  C  C315  1  0.027370  0.438930  0.199130  1.0  0.1623
  C  C316  1  0.049220  0.413730  0.239430  1.0  -0.201
  C  C317  1  0.226490  0.437990  0.761130  1.0  0.0445
  C  C318  1  0.209700  0.420730  0.896230  1.0  -0.1369
  C  C319  1  0.225970  0.449830  0.016830  1.0  -0.1716
  C  C320  1  0.257270  0.497030  0.006230  1.0  0.1036
  C  C321  1  0.274470  0.514530  0.870030  1.0  -0.1006
  C  C322  1  0.259570  0.485830  0.748530  1.0  -0.1566
  C  C323  1  0.275470  0.528130  0.138930  1.0  -0.3734
  C  C324  1  0.889540  0.641880  0.870970  1.0  0.1958
  C  C325  1  0.917630  0.657970  0.000370  1.0  -0.1713
  C  C326  1  0.914630  0.694970  0.049170  1.0  -0.1731
  C  C327  1  0.883960  0.701630  0.954070  1.0  0.1569
  C  C328  1  0.875290  0.740180  0.964570  1.0  -0.1203
  C  C329  1  0.850070  0.748900  0.862670  1.0  0.1958
  C  C330  1  0.837900  0.786070  0.875770  1.0  -0.1708
  C  C331  1  0.812080  0.782870  0.758570  1.0  -0.1867
  C  C332  1  0.807940  0.744370  0.673270  1.0  0.1678
  C  C333  1  0.781450  0.728760  0.546070  1.0  -0.1182
  C  C334  1  0.756710  0.754800  0.501970  1.0  0.1005
  C  C335  1  0.772930  0.787270  0.393170  1.0  -0.2171
  C  C336  1  0.748730  0.810750  0.359770  1.0  0.1572
  C  C337  1  0.694030  0.772270  0.532470  1.0  0.1616
  C  C338  1  0.715880  0.747070  0.572770  1.0  -0.2008
  C  C339  1  0.893150  0.771330  0.094470  1.0  0.0444
  C  C340  1  0.876360  0.754070  0.229570  1.0  -0.1368
  C  C341  1  0.892630  0.783170  0.350170  1.0  -0.1685
  C  C342  1  0.923930  0.830370  0.339570  1.0  0.1037
  C  C343  1  0.941130  0.847870  0.203370  1.0  -0.1005
  C  C344  1  0.926230  0.819170  0.081870  1.0  -0.1566
  C  C345  1  0.942130  0.861470  0.472270  1.0  -0.3734
  C  C346  1  0.024790  0.581000  0.204300  1.0  0.1952
  C  C347  1  0.008700  0.593000  0.333700  1.0  -0.1709
  C  C348  1  0.971700  0.553000  0.382500  1.0  -0.172
  C  C349  1  0.965040  0.515670  0.287400  1.0  0.1571
  C  C350  1  0.926490  0.468450  0.297900  1.0  -0.1193
  C  C351  1  0.917770  0.434510  0.196000  1.0  0.1967
  C  C352  1  0.880600  0.385170  0.209100  1.0  -0.1711
  C  C353  1  0.883800  0.362550  0.091900  1.0  -0.1829
  C  C354  1  0.922300  0.396910  0.006600  1.0  0.1689
  C  C355  1  0.937910  0.386030  0.879400  1.0  -0.1171
  C  C356  1  0.911870  0.335250  0.835300  1.0  0.1017
  C  C357  1  0.879400  0.319000  0.726500  1.0  -0.2162
  C  C358  1  0.855920  0.271320  0.693100  1.0  0.1602
  C  C359  1  0.894400  0.255100  0.865800  1.0  0.1603
  C  C360  1  0.919600  0.302150  0.906100  1.0  -0.1979
  C  C361  1  0.895340  0.455160  0.427800  1.0  0.0428
  C  C362  1  0.912600  0.455630  0.562900  1.0  -0.1338
  C  C363  1  0.883500  0.442800  0.683500  1.0  -0.1717
  C  C364  1  0.836300  0.426900  0.672900  1.0  0.1013
  C  C365  1  0.818800  0.426600  0.536700  1.0  -0.1063
  C  C366  1  0.847500  0.440400  0.415200  1.0  -0.155
  C  C367  1  0.805200  0.414000  0.805600  1.0  -0.3745
  C  C368  1  0.691460  0.914330  0.537630  1.0  0.1951
  C  C369  1  0.675370  0.926330  0.667030  1.0  -0.1705
  C  C370  1  0.638370  0.886330  0.715830  1.0  -0.172
  C  C371  1  0.631710  0.849000  0.620730  1.0  0.1574
  C  C372  1  0.593160  0.801780  0.631230  1.0  -0.1193
  C  C373  1  0.584440  0.767840  0.529330  1.0  0.1967
  C  C374  1  0.547270  0.718500  0.542430  1.0  -0.1711
  C  C375  1  0.550470  0.695880  0.425230  1.0  -0.1827
  C  C376  1  0.588970  0.730240  0.339930  1.0  0.1689
  C  C377  1  0.604580  0.719360  0.212730  1.0  -0.1171
  C  C378  1  0.578540  0.668580  0.168630  1.0  0.1017
  C  C379  1  0.546070  0.652330  0.059830  1.0  -0.2162
  C  C380  1  0.522590  0.604650  0.026430  1.0  0.1602
  C  C381  1  0.561070  0.588430  0.199130  1.0  0.1603
  C  C382  1  0.586270  0.635480  0.239430  1.0  -0.1976
  C  C383  1  0.562010  0.788490  0.761130  1.0  0.0428
  C  C384  1  0.579270  0.788960  0.896230  1.0  -0.1338
  C  C385  1  0.550170  0.776130  0.016830  1.0  -0.1712
  C  C386  1  0.502970  0.760230  0.006230  1.0  0.1013
  C  C387  1  0.485470  0.759930  0.870030  1.0  -0.1063
  C  C388  1  0.514170  0.773730  0.748530  1.0  -0.155
  C  C389  1  0.471870  0.747330  0.138930  1.0  -0.3733
  C  C390  1  0.358120  0.247670  0.870970  1.0  0.1952
  C  C391  1  0.342030  0.259670  0.000370  1.0  -0.1704
  C  C392  1  0.305030  0.219670  0.049170  1.0  -0.172
  C  C393  1  0.298370  0.182340  0.954070  1.0  0.1575
  C  C394  1  0.259820  0.135120  0.964570  1.0  -0.1193
  C  C395  1  0.251100  0.101180  0.862670  1.0  0.1967
  C  C396  1  0.213930  0.051840  0.875770  1.0  -0.1711
  C  C397  1  0.217130  0.029220  0.758570  1.0  -0.183
  C  C398  1  0.255630  0.063580  0.673270  1.0  0.1689
  C  C399  1  0.271240  0.052700  0.546070  1.0  -0.1171
  C  C400  1  0.245200  0.001920  0.501970  1.0  0.1017
  C  C401  1  0.212730  0.985670  0.393170  1.0  -0.2164
  C  C402  1  0.189250  0.937990  0.359770  1.0  0.1602
  C  C403  1  0.227730  0.921770  0.532470  1.0  0.1602
  C  C404  1  0.252930  0.968820  0.572770  1.0  -0.1995
  C  C405  1  0.228670  0.121830  0.094470  1.0  0.0429
  C  C406  1  0.245930  0.122300  0.229570  1.0  -0.1338
  C  C407  1  0.216830  0.109470  0.350170  1.0  -0.1717
  C  C408  1  0.169630  0.093570  0.339570  1.0  0.1012
  C  C409  1  0.152130  0.093270  0.203370  1.0  -0.1064
  C  C410  1  0.180830  0.107070  0.081870  1.0  -0.1551
  C  C411  1  0.138530  0.080670  0.472270  1.0  -0.3745
  C  C412  1  0.419000  0.443790  0.204300  1.0  0.1943
  C  C413  1  0.407000  0.415700  0.333700  1.0  -0.1728
  C  C414  1  0.447000  0.418700  0.382500  1.0  -0.174
  C  C415  1  0.484330  0.449370  0.287400  1.0  0.1572
  C  C416  1  0.531550  0.458040  0.297900  1.0  -0.1193
  C  C417  1  0.565490  0.483260  0.196000  1.0  0.1959
  C  C418  1  0.614830  0.495430  0.209100  1.0  -0.1701
  C  C419  1  0.637450  0.521250  0.091900  1.0  -0.1854
  C  C420  1  0.603090  0.525390  0.006600  1.0  0.168
  C  C421  1  0.613970  0.551880  0.879400  1.0  -0.1164
  C  C422  1  0.664750  0.576620  0.835300  1.0  0.0994
  C  C423  1  0.681000  0.560400  0.726500  1.0  -0.2195
  C  C424  1  0.728680  0.584600  0.693100  1.0  0.1574
  C  C425  1  0.744900  0.639300  0.865800  1.0  0.1603
  C  C426  1  0.697850  0.617450  0.906100  1.0  -0.2026
  C  C427  1  0.544840  0.440180  0.427800  1.0  0.0427
  C  C428  1  0.544370  0.456970  0.562900  1.0  -0.1348
  C  C429  1  0.557200  0.440700  0.683500  1.0  -0.1657
  C  C430  1  0.573100  0.409400  0.672900  1.0  0.1035
  C  C431  1  0.573400  0.392200  0.536700  1.0  -0.1046
  C  C432  1  0.559600  0.407100  0.415200  1.0  -0.1523
  C  C433  1  0.586000  0.391200  0.805600  1.0  -0.3771
  C  C434  1  0.085670  0.777120  0.537630  1.0  0.1943
  C  C435  1  0.073670  0.749030  0.667030  1.0  -0.1728
  C  C436  1  0.113670  0.752030  0.715830  1.0  -0.174
  C  C437  1  0.151000  0.782700  0.620730  1.0  0.1572
  C  C438  1  0.198220  0.791370  0.631230  1.0  -0.1193
  C  C439  1  0.232160  0.816590  0.529330  1.0  0.1959
  C  C440  1  0.281500  0.828760  0.542430  1.0  -0.1701
  C  C441  1  0.304120  0.854580  0.425230  1.0  -0.1842
  C  C442  1  0.269760  0.858720  0.339930  1.0  0.1679
  C  C443  1  0.280640  0.885210  0.212730  1.0  -0.1164
  C  C444  1  0.331420  0.909950  0.168630  1.0  0.0994
  C  C445  1  0.347670  0.893730  0.059830  1.0  -0.2195
  C  C446  1  0.395350  0.917930  0.026430  1.0  0.1574
  C  C447  1  0.411570  0.972630  0.199130  1.0  0.1603
  C  C448  1  0.364520  0.950780  0.239430  1.0  -0.2029
  C  C449  1  0.211510  0.773510  0.761130  1.0  0.0427
  C  C450  1  0.211040  0.790300  0.896230  1.0  -0.1348
  C  C451  1  0.223870  0.774030  0.016830  1.0  -0.1683
  C  C452  1  0.239770  0.742730  0.006230  1.0  0.1035
  C  C453  1  0.240070  0.725530  0.870030  1.0  -0.1046
  C  C454  1  0.226270  0.740430  0.748530  1.0  -0.1523
  C  C455  1  0.252670  0.724530  0.138930  1.0  -0.3796
  C  C456  1  0.752330  0.110460  0.870970  1.0  0.1944
  C  C457  1  0.740330  0.082370  0.000370  1.0  -0.1729
  C  C458  1  0.780330  0.085370  0.049170  1.0  -0.1739
  C  C459  1  0.817660  0.116040  0.954070  1.0  0.1572
  C  C460  1  0.864880  0.124710  0.964570  1.0  -0.1193
  C  C461  1  0.898820  0.149930  0.862670  1.0  0.1959
  C  C462  1  0.948160  0.162100  0.875770  1.0  -0.172
  C  C463  1  0.970780  0.187920  0.758570  1.0  -0.1846
  C  C464  1  0.936420  0.192060  0.673270  1.0  0.1679
  C  C465  1  0.947300  0.218550  0.546070  1.0  -0.1164
  C  C466  1  0.998080  0.243290  0.501970  1.0  0.0994
  C  C467  1  0.014330  0.227070  0.393170  1.0  -0.2195
  C  C468  1  0.062010  0.251270  0.359770  1.0  0.1574
  C  C469  1  0.078230  0.305970  0.532470  1.0  0.1602
  C  C470  1  0.031180  0.284120  0.572770  1.0  -0.2029
  C  C471  1  0.878170  0.106850  0.094470  1.0  0.0427
  C  C472  1  0.877700  0.123640  0.229570  1.0  -0.1348
  C  C473  1  0.890530  0.107370  0.350170  1.0  -0.1661
  C  C474  1  0.906430  0.076070  0.339570  1.0  0.1035
  C  C475  1  0.906730  0.058870  0.203370  1.0  -0.1046
  C  C476  1  0.892930  0.073770  0.081870  1.0  -0.1523
  C  C477  1  0.919330  0.057870  0.472270  1.0  -0.3771
  C  C478  1  0.443790  0.024790  0.795700  1.0  0.1958
  C  C479  1  0.415700  0.008700  0.666300  1.0  -0.1724
  C  C480  1  0.418700  0.971700  0.617500  1.0  -0.1734
  C  C481  1  0.449370  0.965040  0.712600  1.0  0.1563
  C  C482  1  0.458040  0.926490  0.702100  1.0  -0.1209
  C  C483  1  0.483260  0.917770  0.804000  1.0  0.1956
  C  C484  1  0.495430  0.880600  0.790900  1.0  -0.171
  C  C485  1  0.521250  0.883800  0.908100  1.0  -0.1832
  C  C486  1  0.525390  0.922300  0.993400  1.0  0.1686
  C  C487  1  0.551880  0.937910  0.120600  1.0  -0.1175
  C  C488  1  0.576620  0.911870  0.164700  1.0  0.0998
  C  C489  1  0.560400  0.879400  0.273500  1.0  -0.2197
  C  C490  1  0.584600  0.855920  0.306900  1.0  0.1586
  C  C491  1  0.639300  0.894400  0.134200  1.0  0.1616
  C  C492  1  0.617450  0.919600  0.093900  1.0  -0.198
  C  C493  1  0.440180  0.895340  0.572200  1.0  0.0466
  C  C494  1  0.456970  0.912600  0.437100  1.0  -0.1315
  C  C495  1  0.440700  0.883500  0.316500  1.0  -0.1672
  C  C496  1  0.409400  0.836300  0.327100  1.0  0.1032
  C  C497  1  0.392200  0.818800  0.463300  1.0  -0.1055
  C  C498  1  0.407100  0.847500  0.584800  1.0  -0.157
  C  C499  1  0.391200  0.805200  0.194400  1.0  -0.3719
  C  C500  1  0.110460  0.358120  0.129030  1.0  0.1958
  C  C501  1  0.082370  0.342030  0.999630  1.0  -0.1724
  C  C502  1  0.085370  0.305030  0.950830  1.0  -0.1725
  C  C503  1  0.116040  0.298370  0.045930  1.0  0.1594
  C  C504  1  0.124710  0.259820  0.035430  1.0  -0.1209
  C  C505  1  0.149930  0.251100  0.137330  1.0  0.1955
  C  C506  1  0.162100  0.213930  0.124230  1.0  -0.177
  C  C507  1  0.187920  0.217130  0.241430  1.0  -0.1829
  C  C508  1  0.192060  0.255630  0.326730  1.0  0.1686
  C  C509  1  0.218550  0.271240  0.453930  1.0  -0.1175
  C  C510  1  0.243290  0.245200  0.498030  1.0  0.0998
  C  C511  1  0.227070  0.212730  0.606830  1.0  -0.2196
  C  C512  1  0.251270  0.189250  0.640230  1.0  0.1586
  C  C513  1  0.305970  0.227730  0.467530  1.0  0.161
  C  C514  1  0.284120  0.252930  0.427230  1.0  -0.1977
  C  C515  1  0.106850  0.228670  0.905530  1.0  0.0465
  C  C516  1  0.123640  0.245930  0.770430  1.0  -0.1314
  C  C517  1  0.107370  0.216830  0.649830  1.0  -0.1672
  C  C518  1  0.076070  0.169630  0.660430  1.0  0.1032
  C  C519  1  0.058870  0.152130  0.796630  1.0  -0.1054
  C  C520  1  0.073770  0.180830  0.918130  1.0  -0.157
  C  C521  1  0.057870  0.138530  0.527730  1.0  -0.3719
  C  C522  1  0.777120  0.691460  0.462370  1.0  0.1958
  C  C523  1  0.749030  0.675370  0.332970  1.0  -0.1723
  C  C524  1  0.752030  0.638370  0.284170  1.0  -0.1734
  C  C525  1  0.782700  0.631710  0.379270  1.0  0.1615
  C  C526  1  0.791370  0.593160  0.368770  1.0  -0.1209
  C  C527  1  0.816590  0.584440  0.470670  1.0  0.1955
  C  C528  1  0.828760  0.547270  0.457570  1.0  -0.171
  C  C529  1  0.854580  0.550470  0.574770  1.0  -0.1832
  C  C530  1  0.858720  0.588970  0.660070  1.0  0.1686
  C  C531  1  0.885210  0.604580  0.787270  1.0  -0.1175
  C  C532  1  0.909950  0.578540  0.831370  1.0  0.0998
  C  C533  1  0.893730  0.546070  0.940170  1.0  -0.2186
  C  C534  1  0.917930  0.522590  0.973570  1.0  0.1586
  C  C535  1  0.972630  0.561070  0.800870  1.0  0.1616
  C  C536  1  0.950780  0.586270  0.760570  1.0  -0.198
  C  C537  1  0.773510  0.562010  0.238870  1.0  0.0466
  C  C538  1  0.790300  0.579270  0.103770  1.0  -0.1315
  C  C539  1  0.774030  0.550170  0.983170  1.0  -0.1672
  C  C540  1  0.742730  0.502970  0.993770  1.0  0.1032
  C  C541  1  0.725530  0.485470  0.129970  1.0  -0.1055
  C  C542  1  0.740430  0.514170  0.251470  1.0  -0.157
  C  C543  1  0.724530  0.471870  0.861070  1.0  -0.3719
  C  C544  1  0.975210  0.419000  0.795700  1.0  0.1951
  C  C545  1  0.991300  0.407000  0.666300  1.0  -0.173
  C  C546  1  0.028300  0.447000  0.617500  1.0  -0.1746
  C  C547  1  0.034960  0.484330  0.712600  1.0  0.1585
  C  C548  1  0.073510  0.531550  0.702100  1.0  -0.1195
  C  C549  1  0.082230  0.565490  0.804000  1.0  0.1971
  C  C550  1  0.119400  0.614830  0.790900  1.0  -0.1728
  C  C551  1  0.116200  0.637450  0.908100  1.0  -0.1839
  C  C552  1  0.077700  0.603090  0.993400  1.0  0.1679
  C  C553  1  0.062090  0.613970  0.120600  1.0  -0.1181
  C  C554  1  0.088130  0.664750  0.164700  1.0  0.0992
  C  C555  1  0.120600  0.681000  0.273500  1.0  -0.2166
  C  C556  1  0.144080  0.728680  0.306900  1.0  0.1604
  C  C557  1  0.105600  0.744900  0.134200  1.0  0.1611
  C  C558  1  0.080400  0.697850  0.093900  1.0  -0.2026
  C  C559  1  0.104660  0.544840  0.572200  1.0  0.0441
  C  C560  1  0.087400  0.544370  0.437100  1.0  -0.1392
  C  C561  1  0.116500  0.557200  0.316500  1.0  -0.1668
  C  C562  1  0.163700  0.573100  0.327100  1.0  0.1048
  C  C563  1  0.181200  0.573400  0.463300  1.0  -0.1064
  C  C564  1  0.152500  0.559600  0.584800  1.0  -0.1547
  C  C565  1  0.194800  0.586000  0.194400  1.0  -0.3749
  C  C566  1  0.641880  0.752330  0.129030  1.0  0.1953
  C  C567  1  0.657970  0.740330  0.999630  1.0  -0.173
  C  C568  1  0.694970  0.780330  0.950830  1.0  -0.1728
  C  C569  1  0.701630  0.817660  0.045930  1.0  0.1589
  C  C570  1  0.740180  0.864880  0.035430  1.0  -0.1195
  C  C571  1  0.748900  0.898820  0.137330  1.0  0.1973
  C  C572  1  0.786070  0.948160  0.124230  1.0  -0.1728
  C  C573  1  0.782870  0.970780  0.241430  1.0  -0.1831
  C  C574  1  0.744370  0.936420  0.326730  1.0  0.1677
  C  C575  1  0.728760  0.947300  0.453930  1.0  -0.1181
  C  C576  1  0.754800  0.998080  0.498030  1.0  0.0993
  C  C577  1  0.787270  0.014330  0.606830  1.0  -0.2167
  C  C578  1  0.810750  0.062010  0.640230  1.0  0.1603
  C  C579  1  0.772270  0.078230  0.467530  1.0  0.161
  C  C580  1  0.747070  0.031180  0.427230  1.0  -0.2026
  C  C581  1  0.771330  0.878170  0.905530  1.0  0.0442
  C  C582  1  0.754070  0.877700  0.770430  1.0  -0.1392
  C  C583  1  0.783170  0.890530  0.649830  1.0  -0.1668
  C  C584  1  0.830370  0.906430  0.660430  1.0  0.1047
  C  C585  1  0.847870  0.906730  0.796630  1.0  -0.1063
  C  C586  1  0.819170  0.892930  0.918130  1.0  -0.1547
  C  C587  1  0.861470  0.919330  0.527730  1.0  -0.3749
  C  C588  1  0.308540  0.085670  0.462370  1.0  0.1953
  C  C589  1  0.324630  0.073670  0.332970  1.0  -0.1731
  C  C590  1  0.361630  0.113670  0.284170  1.0  -0.1746
  C  C591  1  0.368290  0.151000  0.379270  1.0  0.1585
  C  C592  1  0.406840  0.198220  0.368770  1.0  -0.1195
  C  C593  1  0.415560  0.232160  0.470670  1.0  0.1971
  C  C594  1  0.452730  0.281500  0.457570  1.0  -0.1728
  C  C595  1  0.449530  0.304120  0.574770  1.0  -0.1828
  C  C596  1  0.411030  0.269760  0.660070  1.0  0.1679
  C  C597  1  0.395420  0.280640  0.787270  1.0  -0.1181
  C  C598  1  0.421460  0.331420  0.831370  1.0  0.0992
  C  C599  1  0.453930  0.347670  0.940170  1.0  -0.2166
  C  C600  1  0.477410  0.395350  0.973570  1.0  0.1604
  C  C601  1  0.438930  0.411570  0.800870  1.0  0.1611
  C  C602  1  0.413730  0.364520  0.760570  1.0  -0.2023
  C  C603  1  0.437990  0.211510  0.238870  1.0  0.0441
  C  C604  1  0.420730  0.211040  0.103770  1.0  -0.1392
  C  C605  1  0.449830  0.223870  0.983170  1.0  -0.1668
  C  C606  1  0.497030  0.239770  0.993770  1.0  0.1048
  C  C607  1  0.514530  0.240070  0.129970  1.0  -0.1064
  C  C608  1  0.485830  0.226270  0.251470  1.0  -0.1547
  C  C609  1  0.528130  0.252670  0.861070  1.0  -0.3749
  C  C610  1  0.581000  0.556210  0.795700  1.0  0.1941
  C  C611  1  0.593000  0.584300  0.666300  1.0  -0.1728
  C  C612  1  0.553000  0.581300  0.617500  1.0  -0.1746
  C  C613  1  0.515670  0.550630  0.712600  1.0  0.1581
  C  C614  1  0.468450  0.541960  0.702100  1.0  -0.1193
  C  C615  1  0.434510  0.516740  0.804000  1.0  0.196
  C  C616  1  0.385170  0.504570  0.790900  1.0  -0.1711
  C  C617  1  0.362550  0.478750  0.908100  1.0  -0.1849
  C  C618  1  0.396910  0.474610  0.993400  1.0  0.167
  C  C619  1  0.386030  0.448120  0.120600  1.0  -0.1181
  C  C620  1  0.335250  0.423380  0.164700  1.0  0.1006
  C  C621  1  0.319000  0.439600  0.273500  1.0  -0.2144
  C  C622  1  0.271320  0.415400  0.306900  1.0  0.1587
  C  C623  1  0.255100  0.360700  0.134200  1.0  0.1601
  C  C624  1  0.302150  0.382550  0.093900  1.0  -0.1985
  C  C625  1  0.455160  0.559820  0.572200  1.0  0.0434
  C  C626  1  0.455630  0.543030  0.437100  1.0  -0.1336
  C  C627  1  0.442800  0.559300  0.316500  1.0  -0.1713
  C  C628  1  0.426900  0.590600  0.327100  1.0  0.1011
  C  C629  1  0.426600  0.607800  0.463300  1.0  -0.1047
  C  C630  1  0.440400  0.592900  0.584800  1.0  -0.1547
  C  C631  1  0.414000  0.608800  0.194400  1.0  -0.3781
  C  C632  1  0.247670  0.889540  0.129030  1.0  0.1942
  C  C633  1  0.259670  0.917630  0.999630  1.0  -0.173
  C  C634  1  0.219670  0.914630  0.950830  1.0  -0.1746
  C  C635  1  0.182340  0.883960  0.045930  1.0  0.1581
  C  C636  1  0.135120  0.875290  0.035430  1.0  -0.1193
  C  C637  1  0.101180  0.850070  0.137330  1.0  0.1961
  C  C638  1  0.051840  0.837900  0.124230  1.0  -0.171
  C  C639  1  0.029220  0.812080  0.241430  1.0  -0.1852
  C  C640  1  0.063580  0.807940  0.326730  1.0  0.1669
  C  C641  1  0.052700  0.781450  0.453930  1.0  -0.1181
  C  C642  1  0.001920  0.756710  0.498030  1.0  0.1006
  C  C643  1  0.985670  0.772930  0.606830  1.0  -0.2144
  C  C644  1  0.937990  0.748730  0.640230  1.0  0.1593
  C  C645  1  0.921770  0.694030  0.467530  1.0  0.1601
  C  C646  1  0.968820  0.715880  0.427230  1.0  -0.1988
  C  C647  1  0.121830  0.893150  0.905530  1.0  0.0434
  C  C648  1  0.122300  0.876360  0.770430  1.0  -0.1336
  C  C649  1  0.109470  0.892630  0.649830  1.0  -0.1717
  C  C650  1  0.093570  0.923930  0.660430  1.0  0.1011
  C  C651  1  0.093270  0.941130  0.796630  1.0  -0.1048
  C  C652  1  0.107070  0.926230  0.918130  1.0  -0.1547
  C  C653  1  0.080670  0.942130  0.527730  1.0  -0.3781
  C  C654  1  0.914330  0.222880  0.462370  1.0  0.1941
  C  C655  1  0.926330  0.250970  0.332970  1.0  -0.1728
  C  C656  1  0.886330  0.247970  0.284170  1.0  -0.1746
  C  C657  1  0.849000  0.217300  0.379270  1.0  0.1581
  C  C658  1  0.801780  0.208630  0.368770  1.0  -0.1193
  C  C659  1  0.767840  0.183410  0.470670  1.0  0.1961
  C  C660  1  0.718500  0.171240  0.457570  1.0  -0.1711
  C  C661  1  0.695880  0.145420  0.574770  1.0  -0.1849
  C  C662  1  0.730240  0.141280  0.660070  1.0  0.1669
  C  C663  1  0.719360  0.114790  0.787270  1.0  -0.1181
  C  C664  1  0.668580  0.090050  0.831370  1.0  0.1006
  C  C665  1  0.652330  0.106270  0.940170  1.0  -0.2144
  C  C666  1  0.604650  0.082070  0.973570  1.0  0.1587
  C  C667  1  0.588430  0.027370  0.800870  1.0  0.1601
  C  C668  1  0.635480  0.049220  0.760570  1.0  -0.1989
  C  C669  1  0.788490  0.226490  0.238870  1.0  0.0434
  C  C670  1  0.788960  0.209700  0.103770  1.0  -0.1336
  C  C671  1  0.776130  0.225970  0.983170  1.0  -0.1713
  C  C672  1  0.760230  0.257270  0.993770  1.0  0.1011
  C  C673  1  0.759930  0.274470  0.129970  1.0  -0.1047
  C  C674  1  0.773730  0.259570  0.251470  1.0  -0.1547
  C  C675  1  0.747330  0.275470  0.861070  1.0  -0.3781
  N  N676  1  0.535130  0.002090  0.178300  1.0  -0.3855
  N  N677  1  0.498890  0.057600  0.069500  1.0  -0.3558
  N  N678  1  0.376400  0.137280  0.758300  1.0  -0.3147
  N  N679  1  0.201800  0.335420  0.511630  1.0  -0.3855
  N  N680  1  0.165560  0.390930  0.402830  1.0  -0.3563
  N  N681  1  0.043070  0.470610  0.091630  1.0  -0.3147
  N  N682  1  0.868460  0.668760  0.844970  1.0  -0.3855
  N  N683  1  0.832220  0.724270  0.736170  1.0  -0.3563
  N  N684  1  0.709730  0.803950  0.424970  1.0  -0.3147
  N  N685  1  0.997910  0.533040  0.178300  1.0  -0.3851
  N  N686  1  0.942400  0.441290  0.069500  1.0  -0.3562
  N  N687  1  0.862720  0.239120  0.758300  1.0  -0.3131
  N  N688  1  0.664580  0.866370  0.511630  1.0  -0.3851
  N  N689  1  0.609070  0.774620  0.402830  1.0  -0.3563
  N  N690  1  0.529390  0.572450  0.091630  1.0  -0.3131
  N  N691  1  0.331240  0.199710  0.844970  1.0  -0.3851
  N  N692  1  0.275730  0.107960  0.736170  1.0  -0.3563
  N  N693  1  0.196050  0.905790  0.424970  1.0  -0.3132
  N  N694  1  0.466960  0.464870  0.178300  1.0  -0.3842
  N  N695  1  0.558710  0.501110  0.069500  1.0  -0.358
  N  N696  1  0.760880  0.623600  0.758300  1.0  -0.3141
  N  N697  1  0.133630  0.798200  0.511630  1.0  -0.3842
  N  N698  1  0.225380  0.834440  0.402830  1.0  -0.358
  N  N699  1  0.427550  0.956930  0.091630  1.0  -0.3141
  N  N700  1  0.800290  0.131540  0.844970  1.0  -0.3842
  N  N701  1  0.892040  0.167780  0.736170  1.0  -0.358
  N  N702  1  0.094210  0.290270  0.424970  1.0  -0.3142
  N  N703  1  0.464870  0.997910  0.821700  1.0  -0.3851
  N  N704  1  0.501110  0.942400  0.930500  1.0  -0.3564
  N  N705  1  0.623600  0.862720  0.241700  1.0  -0.3135
  N  N706  1  0.131540  0.331240  0.155030  1.0  -0.3851
  N  N707  1  0.167780  0.275730  0.263830  1.0  -0.3564
  N  N708  1  0.290270  0.196050  0.575030  1.0  -0.3134
  N  N709  1  0.798200  0.664580  0.488370  1.0  -0.3851
  N  N710  1  0.834440  0.609070  0.597170  1.0  -0.3564
  N  N711  1  0.956930  0.529390  0.908370  1.0  -0.3135
  N  N712  1  0.002090  0.466960  0.821700  1.0  -0.3833
  N  N713  1  0.057600  0.558710  0.930500  1.0  -0.3572
  N  N714  1  0.137280  0.760880  0.241700  1.0  -0.3137
  N  N715  1  0.668760  0.800290  0.155030  1.0  -0.3833
  N  N716  1  0.724270  0.892040  0.263830  1.0  -0.3572
  N  N717  1  0.803950  0.094210  0.575030  1.0  -0.3139
  N  N718  1  0.335420  0.133630  0.488370  1.0  -0.3833
  N  N719  1  0.390930  0.225380  0.597170  1.0  -0.3572
  N  N720  1  0.470610  0.427550  0.908370  1.0  -0.3137
  N  N721  1  0.533040  0.535130  0.821700  1.0  -0.3832
  N  N722  1  0.441290  0.498890  0.930500  1.0  -0.3587
  N  N723  1  0.239120  0.376400  0.241700  1.0  -0.3152
  N  N724  1  0.199710  0.868460  0.155030  1.0  -0.3832
  N  N725  1  0.107960  0.832220  0.263830  1.0  -0.3587
  N  N726  1  0.905790  0.709730  0.575030  1.0  -0.3152
  N  N727  1  0.866370  0.201800  0.488370  1.0  -0.3832
  N  N728  1  0.774620  0.165560  0.597170  1.0  -0.3586
  N  N729  1  0.572450  0.043070  0.908370  1.0  -0.3152
