# generated using pymatgen
data_LiBH20(C2N)8
_symmetry_space_group_name_H-M   'P 1'
_cell_length_a   26.29200000
_cell_length_b   26.29200000
_cell_length_c   26.29200000
_cell_angle_alpha   90.00000000
_cell_angle_beta   90.00000000
_cell_angle_gamma   90.00000000
_symmetry_Int_Tables_number   1
_chemical_formula_structural   LiBH20(C2N)8
_chemical_formula_sum   'Li24 B24 H480 C384 N192'
_cell_volume   18174.85148909
_cell_formula_units_Z   24
loop_
 _symmetry_equiv_pos_site_id
 _symmetry_equiv_pos_as_xyz
  1  'x, y, z'
loop_
 _atom_site_type_symbol
 _atom_site_label
 _atom_site_symmetry_multiplicity
 _atom_site_fract_x
 _atom_site_fract_y
 _atom_site_fract_z
 _atom_site_occupancy
 _atom_site_charge
  Li  Li1  1  0.744640  0.609600  0.891290  1.0  0.8018
  Li  Li2  1  0.255360  0.390400  0.891290  1.0  0.8029
  Li  Li3  1  0.255360  0.609600  0.108710  1.0  0.8024
  Li  Li4  1  0.744640  0.390400  0.108710  1.0  0.8029
  Li  Li5  1  0.891290  0.744640  0.609600  1.0  0.8011
  Li  Li6  1  0.891290  0.255360  0.390400  1.0  0.8007
  Li  Li7  1  0.108710  0.255360  0.609600  1.0  0.7997
  Li  Li8  1  0.108710  0.744640  0.390400  1.0  0.8006
  Li  Li9  1  0.609600  0.891290  0.744640  1.0  0.8007
  Li  Li10  1  0.390400  0.891290  0.255360  1.0  0.8022
  Li  Li11  1  0.609600  0.108710  0.255360  1.0  0.8009
  Li  Li12  1  0.390400  0.108710  0.744640  1.0  0.8021
  Li  Li13  1  0.609600  0.744640  0.108710  1.0  0.8021
  Li  Li14  1  0.390400  0.255360  0.108710  1.0  0.8029
  Li  Li15  1  0.609600  0.255360  0.891290  1.0  0.8011
  Li  Li16  1  0.390400  0.744640  0.891290  1.0  0.8033
  Li  Li17  1  0.744640  0.891290  0.390400  1.0  0.8016
  Li  Li18  1  0.255360  0.891290  0.609600  1.0  0.8015
  Li  Li19  1  0.255360  0.108710  0.390400  1.0  0.8019
  Li  Li20  1  0.744640  0.108710  0.609600  1.0  0.8014
  Li  Li21  1  0.891290  0.609600  0.255360  1.0  0.8005
  Li  Li22  1  0.891290  0.390400  0.744640  1.0  0.8013
  Li  Li23  1  0.108710  0.609600  0.744640  1.0  0.7998
  Li  Li24  1  0.108710  0.390400  0.255360  1.0  0.8005
  B  B25  1  0.748940  0.599990  0.101980  1.0  0.485
  B  B26  1  0.251060  0.400010  0.101980  1.0  0.4852
  B  B27  1  0.251060  0.599990  0.898020  1.0  0.4838
  B  B28  1  0.748940  0.400010  0.898020  1.0  0.4839
  B  B29  1  0.101980  0.748940  0.599990  1.0  0.4829
  B  B30  1  0.101980  0.251060  0.400010  1.0  0.483
  B  B31  1  0.898020  0.251060  0.599990  1.0  0.4822
  B  B32  1  0.898020  0.748940  0.400010  1.0  0.4823
  B  B33  1  0.599990  0.101980  0.748940  1.0  0.4842
  B  B34  1  0.400010  0.101980  0.251060  1.0  0.4845
  B  B35  1  0.599990  0.898020  0.251060  1.0  0.4837
  B  B36  1  0.400010  0.898020  0.748940  1.0  0.4837
  B  B37  1  0.599990  0.748940  0.898020  1.0  0.4835
  B  B38  1  0.400010  0.251060  0.898020  1.0  0.4836
  B  B39  1  0.599990  0.251060  0.101980  1.0  0.4848
  B  B40  1  0.400010  0.748940  0.101980  1.0  0.4848
  B  B41  1  0.748940  0.101980  0.400010  1.0  0.4843
  B  B42  1  0.251060  0.101980  0.599990  1.0  0.4842
  B  B43  1  0.251060  0.898020  0.400010  1.0  0.4837
  B  B44  1  0.748940  0.898020  0.599990  1.0  0.4836
  B  B45  1  0.101980  0.599990  0.251060  1.0  0.4832
  B  B46  1  0.101980  0.400010  0.748940  1.0  0.4834
  B  B47  1  0.898020  0.599990  0.748940  1.0  0.4824
  B  B48  1  0.898020  0.400010  0.251060  1.0  0.4828
  H  H49  1  0.717800  0.575400  0.000200  1.0  0.0771
  H  H50  1  0.801900  0.686700  0.059800  1.0  0.1025
  H  H51  1  0.777400  0.728500  0.933300  1.0  0.1041
  H  H52  1  0.830500  0.698800  0.931900  1.0  0.1116
  H  H53  1  0.819200  0.738900  0.976300  1.0  0.102
  H  H54  1  0.780900  0.498100  0.119000  1.0  0.0763
  H  H55  1  0.649600  0.558200  0.076700  1.0  0.0979
  H  H56  1  0.631800  0.428800  0.047800  1.0  0.1086
  H  H57  1  0.595100  0.471600  0.070700  1.0  0.1202
  H  H58  1  0.618200  0.428700  0.107100  1.0  0.1159
  H  H59  1  0.790900  0.623300  0.198600  1.0  0.0589
  H  H60  1  0.848600  0.565200  0.071800  1.0  0.1028
  H  H61  1  0.958900  0.597700  0.131900  1.0  0.1126
  H  H62  1  0.942300  0.545800  0.104900  1.0  0.1211
  H  H63  1  0.949200  0.547800  0.165300  1.0  0.1072
  H  H64  1  0.698100  0.691900  0.082100  1.0  0.0652
  H  H65  1  0.695300  0.598300  0.200500  1.0  0.1002
  H  H66  1  0.627700  0.646000  0.255100  1.0  0.0999
  H  H67  1  0.588700  0.676800  0.220000  1.0  0.0916
  H  H68  1  0.634700  0.705900  0.247300  1.0  0.1062
  H  H69  1  0.282200  0.424600  0.000200  1.0  0.0772
  H  H70  1  0.198100  0.313300  0.059800  1.0  0.1038
  H  H71  1  0.222600  0.271500  0.933300  1.0  0.1005
  H  H72  1  0.169500  0.301200  0.931900  1.0  0.1114
  H  H73  1  0.180800  0.261100  0.976300  1.0  0.1012
  H  H74  1  0.219100  0.501900  0.119000  1.0  0.0759
  H  H75  1  0.350400  0.441800  0.076700  1.0  0.0985
  H  H76  1  0.368200  0.571200  0.047800  1.0  0.1075
  H  H77  1  0.404900  0.528400  0.070700  1.0  0.1203
  H  H78  1  0.381800  0.571300  0.107100  1.0  0.1156
  H  H79  1  0.209100  0.376700  0.198600  1.0  0.0593
  H  H80  1  0.151400  0.434800  0.071800  1.0  0.1035
  H  H81  1  0.041100  0.402300  0.131900  1.0  0.1123
  H  H82  1  0.057700  0.454200  0.104900  1.0  0.1207
  H  H83  1  0.050800  0.452200  0.165300  1.0  0.107
  H  H84  1  0.301900  0.308100  0.082100  1.0  0.0657
  H  H85  1  0.304700  0.401700  0.200500  1.0  0.0997
  H  H86  1  0.372300  0.354000  0.255100  1.0  0.1
  H  H87  1  0.411300  0.323200  0.220000  1.0  0.0913
  H  H88  1  0.365300  0.294100  0.247300  1.0  0.1078
  H  H89  1  0.282200  0.575400  0.999800  1.0  0.0775
  H  H90  1  0.198100  0.686700  0.940200  1.0  0.1033
  H  H91  1  0.222600  0.728500  0.066700  1.0  0.101
  H  H92  1  0.169500  0.698800  0.068100  1.0  0.1122
  H  H93  1  0.180800  0.738900  0.023700  1.0  0.1025
  H  H94  1  0.219100  0.498100  0.881000  1.0  0.0756
  H  H95  1  0.350400  0.558200  0.923300  1.0  0.0977
  H  H96  1  0.368200  0.428800  0.952200  1.0  0.1076
  H  H97  1  0.404900  0.471600  0.929300  1.0  0.1213
  H  H98  1  0.381800  0.428700  0.892900  1.0  0.1163
  H  H99  1  0.209100  0.623300  0.801400  1.0  0.0588
  H  H100  1  0.151400  0.565200  0.928200  1.0  0.1027
  H  H101  1  0.041100  0.597700  0.868100  1.0  0.1134
  H  H102  1  0.057700  0.545800  0.895100  1.0  0.1218
  H  H103  1  0.050800  0.547800  0.834700  1.0  0.1075
  H  H104  1  0.301900  0.691900  0.917900  1.0  0.0651
  H  H105  1  0.304700  0.598300  0.799500  1.0  0.0993
  H  H106  1  0.372300  0.646000  0.744900  1.0  0.0991
  H  H107  1  0.411300  0.676800  0.780000  1.0  0.0923
  H  H108  1  0.365300  0.705900  0.752700  1.0  0.1069
  H  H109  1  0.717800  0.424600  0.999800  1.0  0.0774
  H  H110  1  0.801900  0.313300  0.940200  1.0  0.1038
  H  H111  1  0.777400  0.271500  0.066700  1.0  0.1023
  H  H112  1  0.830500  0.301200  0.068100  1.0  0.1105
  H  H113  1  0.819200  0.261100  0.023700  1.0  0.1025
  H  H114  1  0.780900  0.501900  0.881000  1.0  0.0762
  H  H115  1  0.649600  0.441800  0.923300  1.0  0.0987
  H  H116  1  0.631800  0.571200  0.952200  1.0  0.1079
  H  H117  1  0.595100  0.528400  0.929300  1.0  0.1206
  H  H118  1  0.618200  0.571300  0.892900  1.0  0.1162
  H  H119  1  0.790900  0.376700  0.801400  1.0  0.0591
  H  H120  1  0.848600  0.434800  0.928200  1.0  0.1006
  H  H121  1  0.958900  0.402300  0.868100  1.0  0.1126
  H  H122  1  0.942300  0.454200  0.895100  1.0  0.1202
  H  H123  1  0.949200  0.452200  0.834700  1.0  0.1065
  H  H124  1  0.698100  0.308100  0.917900  1.0  0.0655
  H  H125  1  0.695300  0.401700  0.799500  1.0  0.0994
  H  H126  1  0.627700  0.354000  0.744900  1.0  0.0994
  H  H127  1  0.588700  0.323200  0.780000  1.0  0.0881
  H  H128  1  0.634700  0.294100  0.752700  1.0  0.107
  H  H129  1  0.000200  0.717800  0.575400  1.0  0.0767
  H  H130  1  0.059800  0.801900  0.686700  1.0  0.1033
  H  H131  1  0.933300  0.777400  0.728500  1.0  0.1013
  H  H132  1  0.931900  0.830500  0.698800  1.0  0.1096
  H  H133  1  0.976300  0.819200  0.738900  1.0  0.1028
  H  H134  1  0.119000  0.780900  0.498100  1.0  0.0752
  H  H135  1  0.076700  0.649600  0.558200  1.0  0.0989
  H  H136  1  0.047800  0.631800  0.428800  1.0  0.1073
  H  H137  1  0.070700  0.595100  0.471600  1.0  0.1215
  H  H138  1  0.107100  0.618200  0.428700  1.0  0.1151
  H  H139  1  0.198600  0.790900  0.623300  1.0  0.06
  H  H140  1  0.071800  0.848600  0.565200  1.0  0.1022
  H  H141  1  0.131900  0.958900  0.597700  1.0  0.1129
  H  H142  1  0.104900  0.942300  0.545800  1.0  0.1207
  H  H143  1  0.165300  0.949200  0.547800  1.0  0.1083
  H  H144  1  0.082100  0.698100  0.691900  1.0  0.0652
  H  H145  1  0.200500  0.695300  0.598300  1.0  0.0982
  H  H146  1  0.255100  0.627700  0.646000  1.0  0.0992
  H  H147  1  0.220000  0.588700  0.676800  1.0  0.0987
  H  H148  1  0.247300  0.634700  0.705900  1.0  0.1088
  H  H149  1  0.000200  0.282200  0.424600  1.0  0.0762
  H  H150  1  0.059800  0.198100  0.313300  1.0  0.1039
  H  H151  1  0.933300  0.222600  0.271500  1.0  0.1027
  H  H152  1  0.931900  0.169500  0.301200  1.0  0.1074
  H  H153  1  0.976300  0.180800  0.261100  1.0  0.1019
  H  H154  1  0.119000  0.219100  0.501900  1.0  0.0749
  H  H155  1  0.076700  0.350400  0.441800  1.0  0.0991
  H  H156  1  0.047800  0.368200  0.571200  1.0  0.1061
  H  H157  1  0.070700  0.404900  0.528400  1.0  0.1217
  H  H158  1  0.107100  0.381800  0.571300  1.0  0.1153
  H  H159  1  0.198600  0.209100  0.376700  1.0  0.0596
  H  H160  1  0.071800  0.151400  0.434800  1.0  0.1027
  H  H161  1  0.131900  0.041100  0.402300  1.0  0.1128
  H  H162  1  0.104900  0.057700  0.454200  1.0  0.1202
  H  H163  1  0.165300  0.050800  0.452200  1.0  0.1086
  H  H164  1  0.082100  0.301900  0.308100  1.0  0.0648
  H  H165  1  0.200500  0.304700  0.401700  1.0  0.0978
  H  H166  1  0.255100  0.372300  0.354000  1.0  0.0997
  H  H167  1  0.220000  0.411300  0.323200  1.0  0.0994
  H  H168  1  0.247300  0.365300  0.294100  1.0  0.1089
  H  H169  1  0.999800  0.282200  0.575400  1.0  0.0765
  H  H170  1  0.940200  0.198100  0.686700  1.0  0.1044
  H  H171  1  0.066700  0.222600  0.728500  1.0  0.1029
  H  H172  1  0.068100  0.169500  0.698800  1.0  0.1088
  H  H173  1  0.023700  0.180800  0.738900  1.0  0.1031
  H  H174  1  0.881000  0.219100  0.498100  1.0  0.0745
  H  H175  1  0.923300  0.350400  0.558200  1.0  0.0985
  H  H176  1  0.952200  0.368200  0.428800  1.0  0.1071
  H  H177  1  0.929300  0.404900  0.471600  1.0  0.1218
  H  H178  1  0.892900  0.381800  0.428700  1.0  0.1151
  H  H179  1  0.801400  0.209100  0.623300  1.0  0.0597
  H  H180  1  0.928200  0.151400  0.565200  1.0  0.1028
  H  H181  1  0.868100  0.041100  0.597700  1.0  0.1122
  H  H182  1  0.895100  0.057700  0.545800  1.0  0.1202
  H  H183  1  0.834700  0.050800  0.547800  1.0  0.109
  H  H184  1  0.917900  0.301900  0.691900  1.0  0.0646
  H  H185  1  0.799500  0.304700  0.598300  1.0  0.099
  H  H186  1  0.744900  0.372300  0.646000  1.0  0.0988
  H  H187  1  0.780000  0.411300  0.676800  1.0  0.0989
  H  H188  1  0.752700  0.365300  0.705900  1.0  0.1088
  H  H189  1  0.999800  0.717800  0.424600  1.0  0.076
  H  H190  1  0.940200  0.801900  0.313300  1.0  0.1032
  H  H191  1  0.066700  0.777400  0.271500  1.0  0.1018
  H  H192  1  0.068100  0.830500  0.301200  1.0  0.1085
  H  H193  1  0.023700  0.819200  0.261100  1.0  0.1022
  H  H194  1  0.881000  0.780900  0.501900  1.0  0.0756
  H  H195  1  0.923300  0.649600  0.441800  1.0  0.0984
  H  H196  1  0.952200  0.631800  0.571200  1.0  0.107
  H  H197  1  0.929300  0.595100  0.528400  1.0  0.1218
  H  H198  1  0.892900  0.618200  0.571300  1.0  0.1148
  H  H199  1  0.801400  0.790900  0.376700  1.0  0.0594
  H  H200  1  0.928200  0.848600  0.434800  1.0  0.1028
  H  H201  1  0.868100  0.958900  0.402300  1.0  0.1126
  H  H202  1  0.895100  0.942300  0.454200  1.0  0.1207
  H  H203  1  0.834700  0.949200  0.452200  1.0  0.1079
  H  H204  1  0.917900  0.698100  0.308100  1.0  0.0643
  H  H205  1  0.799500  0.695300  0.401700  1.0  0.0985
  H  H206  1  0.744900  0.627700  0.354000  1.0  0.1002
  H  H207  1  0.780000  0.588700  0.323200  1.0  0.0976
  H  H208  1  0.752700  0.634700  0.294100  1.0  0.1081
  H  H209  1  0.575400  0.000200  0.717800  1.0  0.0764
  H  H210  1  0.686700  0.059800  0.801900  1.0  0.1014
  H  H211  1  0.728500  0.933300  0.777400  1.0  0.0984
  H  H212  1  0.698800  0.931900  0.830500  1.0  0.1082
  H  H213  1  0.738900  0.976300  0.819200  1.0  0.103
  H  H214  1  0.498100  0.119000  0.780900  1.0  0.0768
  H  H215  1  0.558200  0.076700  0.649600  1.0  0.0957
  H  H216  1  0.428800  0.047800  0.631800  1.0  0.1101
  H  H217  1  0.471600  0.070700  0.595100  1.0  0.1219
  H  H218  1  0.428700  0.107100  0.618200  1.0  0.1174
  H  H219  1  0.623300  0.198600  0.790900  1.0  0.0583
  H  H220  1  0.565200  0.071800  0.848600  1.0  0.1029
  H  H221  1  0.597700  0.131900  0.958900  1.0  0.113
  H  H222  1  0.545800  0.104900  0.942300  1.0  0.1204
  H  H223  1  0.547800  0.165300  0.949200  1.0  0.1078
  H  H224  1  0.691900  0.082100  0.698100  1.0  0.0652
  H  H225  1  0.598300  0.200500  0.695300  1.0  0.0995
  H  H226  1  0.646000  0.255100  0.627700  1.0  0.1008
  H  H227  1  0.676800  0.220000  0.588700  1.0  0.0956
  H  H228  1  0.705900  0.247300  0.634700  1.0  0.1083
  H  H229  1  0.424600  0.000200  0.282200  1.0  0.0765
  H  H230  1  0.313300  0.059800  0.198100  1.0  0.1019
  H  H231  1  0.271500  0.933300  0.222600  1.0  0.0983
  H  H232  1  0.301200  0.931900  0.169500  1.0  0.1068
  H  H233  1  0.261100  0.976300  0.180800  1.0  0.1038
  H  H234  1  0.501900  0.119000  0.219100  1.0  0.0742
  H  H235  1  0.441800  0.076700  0.350400  1.0  0.0972
  H  H236  1  0.571200  0.047800  0.368200  1.0  0.1108
  H  H237  1  0.528400  0.070700  0.404900  1.0  0.1225
  H  H238  1  0.571300  0.107100  0.381800  1.0  0.1179
  H  H239  1  0.376700  0.198600  0.209100  1.0  0.0586
  H  H240  1  0.434800  0.071800  0.151400  1.0  0.1026
  H  H241  1  0.402300  0.131900  0.041100  1.0  0.1123
  H  H242  1  0.454200  0.104900  0.057700  1.0  0.1204
  H  H243  1  0.452200  0.165300  0.050800  1.0  0.1065
  H  H244  1  0.308100  0.082100  0.301900  1.0  0.0654
  H  H245  1  0.401700  0.200500  0.304700  1.0  0.0994
  H  H246  1  0.354000  0.255100  0.372300  1.0  0.1002
  H  H247  1  0.323200  0.220000  0.411300  1.0  0.096
  H  H248  1  0.294100  0.247300  0.365300  1.0  0.1094
  H  H249  1  0.575400  0.999800  0.282200  1.0  0.0769
  H  H250  1  0.686700  0.940200  0.198100  1.0  0.1019
  H  H251  1  0.728500  0.066700  0.222600  1.0  0.1006
  H  H252  1  0.698800  0.068100  0.169500  1.0  0.1077
  H  H253  1  0.738900  0.023700  0.180800  1.0  0.1051
  H  H254  1  0.498100  0.881000  0.219100  1.0  0.0748
  H  H255  1  0.558200  0.923300  0.350400  1.0  0.0968
  H  H256  1  0.428800  0.952200  0.368200  1.0  0.1106
  H  H257  1  0.471600  0.929300  0.404900  1.0  0.1218
  H  H258  1  0.428700  0.892900  0.381800  1.0  0.1169
  H  H259  1  0.623300  0.801400  0.209100  1.0  0.059
  H  H260  1  0.565200  0.928200  0.151400  1.0  0.1025
  H  H261  1  0.597700  0.868100  0.041100  1.0  0.1125
  H  H262  1  0.545800  0.895100  0.057700  1.0  0.1218
  H  H263  1  0.547800  0.834700  0.050800  1.0  0.1088
  H  H264  1  0.691900  0.917900  0.301900  1.0  0.0647
  H  H265  1  0.598300  0.799500  0.304700  1.0  0.0994
  H  H266  1  0.646000  0.744900  0.372300  1.0  0.0994
  H  H267  1  0.676800  0.780000  0.411300  1.0  0.0958
  H  H268  1  0.705900  0.752700  0.365300  1.0  0.109
  H  H269  1  0.424600  0.999800  0.717800  1.0  0.0765
  H  H270  1  0.313300  0.940200  0.801900  1.0  0.1022
  H  H271  1  0.271500  0.066700  0.777400  1.0  0.0994
  H  H272  1  0.301200  0.068100  0.830500  1.0  0.1086
  H  H273  1  0.261100  0.023700  0.819200  1.0  0.1042
  H  H274  1  0.501900  0.881000  0.780900  1.0  0.0765
  H  H275  1  0.441800  0.923300  0.649600  1.0  0.0961
  H  H276  1  0.571200  0.952200  0.631800  1.0  0.1109
  H  H277  1  0.528400  0.929300  0.595100  1.0  0.122
  H  H278  1  0.571300  0.892900  0.618200  1.0  0.117
  H  H279  1  0.376700  0.801400  0.790900  1.0  0.0581
  H  H280  1  0.434800  0.928200  0.848600  1.0  0.1021
  H  H281  1  0.402300  0.868100  0.958900  1.0  0.1119
  H  H282  1  0.454200  0.895100  0.942300  1.0  0.1194
  H  H283  1  0.452200  0.834700  0.949200  1.0  0.1076
  H  H284  1  0.308100  0.917900  0.698100  1.0  0.0655
  H  H285  1  0.401700  0.799500  0.695300  1.0  0.0993
  H  H286  1  0.354000  0.744900  0.627700  1.0  0.1008
  H  H287  1  0.323200  0.780000  0.588700  1.0  0.0979
  H  H288  1  0.294100  0.752700  0.634700  1.0  0.1099
  H  H289  1  0.575400  0.717800  0.999800  1.0  0.077
  H  H290  1  0.686700  0.801900  0.940200  1.0  0.1028
  H  H291  1  0.728500  0.777400  0.066700  1.0  0.1025
  H  H292  1  0.698800  0.830500  0.068100  1.0  0.1082
  H  H293  1  0.738900  0.819200  0.023700  1.0  0.1043
  H  H294  1  0.498100  0.780900  0.881000  1.0  0.0762
  H  H295  1  0.558200  0.649600  0.923300  1.0  0.0987
  H  H296  1  0.428800  0.631800  0.952200  1.0  0.1075
  H  H297  1  0.471600  0.595100  0.929300  1.0  0.1211
  H  H298  1  0.428700  0.618200  0.892900  1.0  0.1161
  H  H299  1  0.623300  0.790900  0.801400  1.0  0.059
  H  H300  1  0.565200  0.848600  0.928200  1.0  0.1017
  H  H301  1  0.597700  0.958900  0.868100  1.0  0.111
  H  H302  1  0.545800  0.942300  0.895100  1.0  0.1208
  H  H303  1  0.547800  0.949200  0.834700  1.0  0.1076
  H  H304  1  0.691900  0.698100  0.917900  1.0  0.0649
  H  H305  1  0.598300  0.695300  0.799500  1.0  0.0981
  H  H306  1  0.646000  0.627700  0.744900  1.0  0.0992
  H  H307  1  0.676800  0.588700  0.780000  1.0  0.0964
  H  H308  1  0.705900  0.634700  0.752700  1.0  0.1068
  H  H309  1  0.424600  0.282200  0.999800  1.0  0.0767
  H  H310  1  0.313300  0.198100  0.940200  1.0  0.1039
  H  H311  1  0.271500  0.222600  0.066700  1.0  0.1036
  H  H312  1  0.301200  0.169500  0.068100  1.0  0.1086
  H  H313  1  0.261100  0.180800  0.023700  1.0  0.1022
  H  H314  1  0.501900  0.219100  0.881000  1.0  0.0751
  H  H315  1  0.441800  0.350400  0.923300  1.0  0.0994
  H  H316  1  0.571200  0.368200  0.952200  1.0  0.1073
  H  H317  1  0.528400  0.404900  0.929300  1.0  0.1227
  H  H318  1  0.571300  0.381800  0.892900  1.0  0.1161
  H  H319  1  0.376700  0.209100  0.801400  1.0  0.059
  H  H320  1  0.434800  0.151400  0.928200  1.0  0.102
  H  H321  1  0.402300  0.041100  0.868100  1.0  0.1121
  H  H322  1  0.454200  0.057700  0.895100  1.0  0.1216
  H  H323  1  0.452200  0.050800  0.834700  1.0  0.1067
  H  H324  1  0.308100  0.301900  0.917900  1.0  0.0653
  H  H325  1  0.401700  0.304700  0.799500  1.0  0.0985
  H  H326  1  0.354000  0.372300  0.744900  1.0  0.1006
  H  H327  1  0.323200  0.411300  0.780000  1.0  0.0988
  H  H328  1  0.294100  0.365300  0.752700  1.0  0.1078
  H  H329  1  0.575400  0.282200  0.000200  1.0  0.0769
  H  H330  1  0.686700  0.198100  0.059800  1.0  0.1036
  H  H331  1  0.728500  0.222600  0.933300  1.0  0.1034
  H  H332  1  0.698800  0.169500  0.931900  1.0  0.1081
  H  H333  1  0.738900  0.180800  0.976300  1.0  0.1029
  H  H334  1  0.498100  0.219100  0.119000  1.0  0.0756
  H  H335  1  0.558200  0.350400  0.076700  1.0  0.0987
  H  H336  1  0.428800  0.368200  0.047800  1.0  0.1068
  H  H337  1  0.471600  0.404900  0.070700  1.0  0.121
  H  H338  1  0.428700  0.381800  0.107100  1.0  0.1164
  H  H339  1  0.623300  0.209100  0.198600  1.0  0.059
  H  H340  1  0.565200  0.151400  0.071800  1.0  0.1031
  H  H341  1  0.597700  0.041100  0.131900  1.0  0.1128
  H  H342  1  0.545800  0.057700  0.104900  1.0  0.1211
  H  H343  1  0.547800  0.050800  0.165300  1.0  0.1076
  H  H344  1  0.691900  0.301900  0.082100  1.0  0.0649
  H  H345  1  0.598300  0.304700  0.200500  1.0  0.0987
  H  H346  1  0.646000  0.372300  0.255100  1.0  0.1011
  H  H347  1  0.676800  0.411300  0.220000  1.0  0.0976
  H  H348  1  0.705900  0.365300  0.247300  1.0  0.1071
  H  H349  1  0.424600  0.717800  0.000200  1.0  0.0764
  H  H350  1  0.313300  0.801900  0.059800  1.0  0.1031
  H  H351  1  0.271500  0.777400  0.933300  1.0  0.1008
  H  H352  1  0.301200  0.830500  0.931900  1.0  0.1086
  H  H353  1  0.261100  0.819200  0.976300  1.0  0.1014
  H  H354  1  0.501900  0.780900  0.119000  1.0  0.0751
  H  H355  1  0.441800  0.649600  0.076700  1.0  0.0992
  H  H356  1  0.571200  0.631800  0.047800  1.0  0.1077
  H  H357  1  0.528400  0.595100  0.070700  1.0  0.1218
  H  H358  1  0.571300  0.618200  0.107100  1.0  0.1172
  H  H359  1  0.376700  0.790900  0.198600  1.0  0.0593
  H  H360  1  0.434800  0.848600  0.071800  1.0  0.1031
  H  H361  1  0.402300  0.958900  0.131900  1.0  0.1104
  H  H362  1  0.454200  0.942300  0.104900  1.0  0.1205
  H  H363  1  0.452200  0.949200  0.165300  1.0  0.1067
  H  H364  1  0.308100  0.698100  0.082100  1.0  0.0658
  H  H365  1  0.401700  0.695300  0.200500  1.0  0.0985
  H  H366  1  0.354000  0.627700  0.255100  1.0  0.1
  H  H367  1  0.323200  0.588700  0.220000  1.0  0.0972
  H  H368  1  0.294100  0.634700  0.247300  1.0  0.1075
  H  H369  1  0.717800  0.000200  0.424600  1.0  0.0765
  H  H370  1  0.801900  0.059800  0.313300  1.0  0.1017
  H  H371  1  0.777400  0.933300  0.271500  1.0  0.1027
  H  H372  1  0.830500  0.931900  0.301200  1.0  0.1088
  H  H373  1  0.819200  0.976300  0.261100  1.0  0.1029
  H  H374  1  0.780900  0.119000  0.501900  1.0  0.0753
  H  H375  1  0.649600  0.076700  0.441800  1.0  0.0978
  H  H376  1  0.631800  0.047800  0.571200  1.0  0.1087
  H  H377  1  0.595100  0.070700  0.528400  1.0  0.1208
  H  H378  1  0.618200  0.107100  0.571300  1.0  0.1152
  H  H379  1  0.790900  0.198600  0.376700  1.0  0.0598
  H  H380  1  0.848600  0.071800  0.434800  1.0  0.1022
  H  H381  1  0.958900  0.131900  0.402300  1.0  0.1127
  H  H382  1  0.942300  0.104900  0.454200  1.0  0.12
  H  H383  1  0.949200  0.165300  0.452200  1.0  0.1066
  H  H384  1  0.698100  0.082100  0.308100  1.0  0.0654
  H  H385  1  0.695300  0.200500  0.401700  1.0  0.0997
  H  H386  1  0.627700  0.255100  0.354000  1.0  0.0994
  H  H387  1  0.588700  0.220000  0.323200  1.0  0.0938
  H  H388  1  0.634700  0.247300  0.294100  1.0  0.1083
  H  H389  1  0.282200  0.000200  0.575400  1.0  0.0768
  H  H390  1  0.198100  0.059800  0.686700  1.0  0.1024
  H  H391  1  0.222600  0.933300  0.728500  1.0  0.1018
  H  H392  1  0.169500  0.931900  0.698800  1.0  0.1097
  H  H393  1  0.180800  0.976300  0.738900  1.0  0.1036
  H  H394  1  0.219100  0.119000  0.498100  1.0  0.0754
  H  H395  1  0.350400  0.076700  0.558200  1.0  0.0974
  H  H396  1  0.368200  0.047800  0.428800  1.0  0.108
  H  H397  1  0.404900  0.070700  0.471600  1.0  0.1205
  H  H398  1  0.381800  0.107100  0.428700  1.0  0.1154
  H  H399  1  0.209100  0.198600  0.623300  1.0  0.0596
  H  H400  1  0.151400  0.071800  0.565200  1.0  0.1031
  H  H401  1  0.041100  0.131900  0.597700  1.0  0.1134
  H  H402  1  0.057700  0.104900  0.545800  1.0  0.1198
  H  H403  1  0.050800  0.165300  0.547800  1.0  0.107
  H  H404  1  0.301900  0.082100  0.691900  1.0  0.0656
  H  H405  1  0.304700  0.200500  0.598300  1.0  0.1
  H  H406  1  0.372300  0.255100  0.646000  1.0  0.0986
  H  H407  1  0.411300  0.220000  0.676800  1.0  0.0949
  H  H408  1  0.365300  0.247300  0.705900  1.0  0.1092
  H  H409  1  0.282200  0.999800  0.424600  1.0  0.0766
  H  H410  1  0.198100  0.940200  0.313300  1.0  0.101
  H  H411  1  0.222600  0.066700  0.271500  1.0  0.1011
  H  H412  1  0.169500  0.068100  0.301200  1.0  0.1089
  H  H413  1  0.180800  0.023700  0.261100  1.0  0.1016
  H  H414  1  0.219100  0.881000  0.501900  1.0  0.0752
  H  H415  1  0.350400  0.923300  0.441800  1.0  0.097
  H  H416  1  0.368200  0.952200  0.571200  1.0  0.1079
  H  H417  1  0.404900  0.929300  0.528400  1.0  0.1214
  H  H418  1  0.381800  0.892900  0.571300  1.0  0.1153
  H  H419  1  0.209100  0.801400  0.376700  1.0  0.0598
  H  H420  1  0.151400  0.928200  0.434800  1.0  0.1029
  H  H421  1  0.041100  0.868100  0.402300  1.0  0.112
  H  H422  1  0.057700  0.895100  0.454200  1.0  0.1198
  H  H423  1  0.050800  0.834700  0.452200  1.0  0.1077
  H  H424  1  0.301900  0.917900  0.308100  1.0  0.0655
  H  H425  1  0.304700  0.799500  0.401700  1.0  0.0996
  H  H426  1  0.372300  0.744900  0.354000  1.0  0.0993
  H  H427  1  0.411300  0.780000  0.323200  1.0  0.0944
  H  H428  1  0.365300  0.752700  0.294100  1.0  0.1098
  H  H429  1  0.717800  0.999800  0.575400  1.0  0.0773
  H  H430  1  0.801900  0.940200  0.686700  1.0  0.1016
  H  H431  1  0.777400  0.066700  0.728500  1.0  0.1024
  H  H432  1  0.830500  0.068100  0.698800  1.0  0.1092
  H  H433  1  0.819200  0.023700  0.738900  1.0  0.1032
  H  H434  1  0.780900  0.881000  0.498100  1.0  0.0752
  H  H435  1  0.649600  0.923300  0.558200  1.0  0.0976
  H  H436  1  0.631800  0.952200  0.428800  1.0  0.1097
  H  H437  1  0.595100  0.929300  0.471600  1.0  0.1207
  H  H438  1  0.618200  0.892900  0.428700  1.0  0.1152
  H  H439  1  0.790900  0.801400  0.623300  1.0  0.0601
  H  H440  1  0.848600  0.928200  0.565200  1.0  0.1015
  H  H441  1  0.958900  0.868100  0.597700  1.0  0.112
  H  H442  1  0.942300  0.895100  0.545800  1.0  0.1203
  H  H443  1  0.949200  0.834700  0.547800  1.0  0.1079
  H  H444  1  0.698100  0.917900  0.691900  1.0  0.0651
  H  H445  1  0.695300  0.799500  0.598300  1.0  0.0998
  H  H446  1  0.627700  0.744900  0.646000  1.0  0.0981
  H  H447  1  0.588700  0.780000  0.676800  1.0  0.0948
  H  H448  1  0.634700  0.752700  0.705900  1.0  0.1097
  H  H449  1  0.000200  0.575400  0.282200  1.0  0.0772
  H  H450  1  0.059800  0.686700  0.198100  1.0  0.1029
  H  H451  1  0.933300  0.728500  0.222600  1.0  0.0987
  H  H452  1  0.931900  0.698800  0.169500  1.0  0.1098
  H  H453  1  0.976300  0.738900  0.180800  1.0  0.1037
  H  H454  1  0.119000  0.498100  0.219100  1.0  0.0747
  H  H455  1  0.076700  0.558200  0.350400  1.0  0.0974
  H  H456  1  0.047800  0.428800  0.368200  1.0  0.1087
  H  H457  1  0.070700  0.471600  0.404900  1.0  0.1214
  H  H458  1  0.107100  0.428700  0.381800  1.0  0.1158
  H  H459  1  0.198600  0.623300  0.209100  1.0  0.0585
  H  H460  1  0.071800  0.565200  0.151400  1.0  0.1017
  H  H461  1  0.131900  0.597700  0.041100  1.0  0.1132
  H  H462  1  0.104900  0.545800  0.057700  1.0  0.1192
  H  H463  1  0.165300  0.547800  0.050800  1.0  0.108
  H  H464  1  0.082100  0.691900  0.301900  1.0  0.0651
  H  H465  1  0.200500  0.598300  0.304700  1.0  0.0991
  H  H466  1  0.255100  0.646000  0.372300  1.0  0.1003
  H  H467  1  0.220000  0.676800  0.411300  1.0  0.0943
  H  H468  1  0.247300  0.705900  0.365300  1.0  0.1071
  H  H469  1  0.000200  0.424600  0.717800  1.0  0.077
  H  H470  1  0.059800  0.313300  0.801900  1.0  0.1043
  H  H471  1  0.933300  0.271500  0.777400  1.0  0.0982
  H  H472  1  0.931900  0.301200  0.830500  1.0  0.1108
  H  H473  1  0.976300  0.261100  0.819200  1.0  0.1036
  H  H474  1  0.119000  0.501900  0.780900  1.0  0.0769
  H  H475  1  0.076700  0.441800  0.649600  1.0  0.0971
  H  H476  1  0.047800  0.571200  0.631800  1.0  0.107
  H  H477  1  0.070700  0.528400  0.595100  1.0  0.1219
  H  H478  1  0.107100  0.571300  0.618200  1.0  0.1166
  H  H479  1  0.198600  0.376700  0.790900  1.0  0.0581
  H  H480  1  0.071800  0.434800  0.848600  1.0  0.1018
  H  H481  1  0.131900  0.402300  0.958900  1.0  0.1134
  H  H482  1  0.104900  0.454200  0.942300  1.0  0.1197
  H  H483  1  0.165300  0.452200  0.949200  1.0  0.1083
  H  H484  1  0.082100  0.308100  0.698100  1.0  0.0652
  H  H485  1  0.200500  0.401700  0.695300  1.0  0.0993
  H  H486  1  0.255100  0.354000  0.627700  1.0  0.1015
  H  H487  1  0.220000  0.323200  0.588700  1.0  0.0965
  H  H488  1  0.247300  0.294100  0.634700  1.0  0.1081
  H  H489  1  0.999800  0.575400  0.717800  1.0  0.0763
  H  H490  1  0.940200  0.686700  0.801900  1.0  0.1033
  H  H491  1  0.066700  0.728500  0.777400  1.0  0.099
  H  H492  1  0.068100  0.698800  0.830500  1.0  0.1112
  H  H493  1  0.023700  0.738900  0.819200  1.0  0.1025
  H  H494  1  0.881000  0.498100  0.780900  1.0  0.0773
  H  H495  1  0.923300  0.558200  0.649600  1.0  0.0959
  H  H496  1  0.952200  0.428800  0.631800  1.0  0.1091
  H  H497  1  0.929300  0.471600  0.595100  1.0  0.1222
  H  H498  1  0.892900  0.428700  0.618200  1.0  0.1146
  H  H499  1  0.801400  0.623300  0.790900  1.0  0.0582
  H  H500  1  0.928200  0.565200  0.848600  1.0  0.1021
  H  H501  1  0.868100  0.597700  0.958900  1.0  0.1124
  H  H502  1  0.895100  0.545800  0.942300  1.0  0.1195
  H  H503  1  0.834700  0.547800  0.949200  1.0  0.1088
  H  H504  1  0.917900  0.691900  0.698100  1.0  0.0644
  H  H505  1  0.799500  0.598300  0.695300  1.0  0.0993
  H  H506  1  0.744900  0.646000  0.627700  1.0  0.0996
  H  H507  1  0.780000  0.676800  0.588700  1.0  0.095
  H  H508  1  0.752700  0.705900  0.634700  1.0  0.1078
  H  H509  1  0.999800  0.424600  0.282200  1.0  0.0765
  H  H510  1  0.940200  0.313300  0.198100  1.0  0.1034
  H  H511  1  0.066700  0.271500  0.222600  1.0  0.0987
  H  H512  1  0.068100  0.301200  0.169500  1.0  0.1089
  H  H513  1  0.023700  0.261100  0.180800  1.0  0.103
  H  H514  1  0.881000  0.501900  0.219100  1.0  0.0758
  H  H515  1  0.923300  0.441800  0.350400  1.0  0.0978
  H  H516  1  0.952200  0.571200  0.368200  1.0  0.1079
  H  H517  1  0.929300  0.528400  0.404900  1.0  0.1229
  H  H518  1  0.892900  0.571300  0.381800  1.0  0.1162
  H  H519  1  0.801400  0.376700  0.209100  1.0  0.059
  H  H520  1  0.928200  0.434800  0.151400  1.0  0.1024
  H  H521  1  0.868100  0.402300  0.041100  1.0  0.113
  H  H522  1  0.895100  0.454200  0.057700  1.0  0.1215
  H  H523  1  0.834700  0.452200  0.050800  1.0  0.1086
  H  H524  1  0.917900  0.308100  0.301900  1.0  0.0643
  H  H525  1  0.799500  0.401700  0.304700  1.0  0.0998
  H  H526  1  0.744900  0.354000  0.372300  1.0  0.101
  H  H527  1  0.780000  0.323200  0.411300  1.0  0.0955
  H  H528  1  0.752700  0.294100  0.365300  1.0  0.1079
  C  C529  1  0.738680  0.604700  0.003340  1.0  0.1625
  C  C530  1  0.782110  0.672090  0.985360  1.0  0.1882
  C  C531  1  0.784590  0.665330  0.036310  1.0  -0.0599
  C  C532  1  0.804160  0.713010  0.954100  1.0  -0.4478
  C  C533  1  0.746460  0.501320  0.108590  1.0  0.1927
  C  C534  1  0.670140  0.483410  0.087950  1.0  0.1326
  C  C535  1  0.675470  0.534560  0.085580  1.0  -0.0795
  C  C536  1  0.624890  0.450260  0.077470  1.0  -0.429
  C  C537  1  0.814180  0.609410  0.174750  1.0  0.1975
  C  C538  1  0.883680  0.581420  0.141060  1.0  0.1427
  C  C539  1  0.845300  0.577930  0.105420  1.0  -0.0273
  C  C540  1  0.938190  0.566940  0.135290  1.0  -0.4616
  C  C541  1  0.690290  0.677190  0.114150  1.0  0.1528
  C  C542  1  0.656610  0.664570  0.186760  1.0  0.2277
  C  C543  1  0.689080  0.626110  0.178270  1.0  -0.0814
  C  C544  1  0.624270  0.674110  0.230930  1.0  -0.427
  C  C545  1  0.261320  0.395300  0.003340  1.0  0.1617
  C  C546  1  0.217890  0.327910  0.985360  1.0  0.1863
  C  C547  1  0.215410  0.334670  0.036310  1.0  -0.0593
  C  C548  1  0.195840  0.286990  0.954100  1.0  -0.4466
  C  C549  1  0.253540  0.498680  0.108590  1.0  0.1929
  C  C550  1  0.329860  0.516590  0.087950  1.0  0.1329
  C  C551  1  0.324530  0.465440  0.085580  1.0  -0.0787
  C  C552  1  0.375110  0.549740  0.077470  1.0  -0.4294
  C  C553  1  0.185820  0.390590  0.174750  1.0  0.1977
  C  C554  1  0.116320  0.418580  0.141060  1.0  0.1413
  C  C555  1  0.154700  0.422070  0.105420  1.0  -0.0279
  C  C556  1  0.061810  0.433060  0.135290  1.0  -0.4608
  C  C557  1  0.309710  0.322810  0.114150  1.0  0.1525
  C  C558  1  0.343390  0.335430  0.186760  1.0  0.2294
  C  C559  1  0.310920  0.373890  0.178270  1.0  -0.082
  C  C560  1  0.375730  0.325890  0.230930  1.0  -0.4289
  C  C561  1  0.261320  0.604700  0.996660  1.0  0.1629
  C  C562  1  0.217890  0.672090  0.014640  1.0  0.1866
  C  C563  1  0.215410  0.665330  0.963690  1.0  -0.061
  C  C564  1  0.195840  0.713010  0.045900  1.0  -0.4463
  C  C565  1  0.253540  0.501320  0.891410  1.0  0.1929
  C  C566  1  0.329860  0.483410  0.912050  1.0  0.1324
  C  C567  1  0.324530  0.534560  0.914420  1.0  -0.078
  C  C568  1  0.375110  0.450260  0.922530  1.0  -0.4307
  C  C569  1  0.185820  0.609410  0.825250  1.0  0.1987
  C  C570  1  0.116320  0.581420  0.858940  1.0  0.1419
  C  C571  1  0.154700  0.577930  0.894580  1.0  -0.0261
  C  C572  1  0.061810  0.566940  0.864710  1.0  -0.4614
  C  C573  1  0.309710  0.677190  0.885850  1.0  0.1519
  C  C574  1  0.343390  0.664570  0.813240  1.0  0.2288
  C  C575  1  0.310920  0.626110  0.821730  1.0  -0.0833
  C  C576  1  0.375730  0.674110  0.769070  1.0  -0.4278
  C  C577  1  0.738680  0.395300  0.996660  1.0  0.1624
  C  C578  1  0.782110  0.327910  0.014640  1.0  0.1866
  C  C579  1  0.784590  0.334670  0.963690  1.0  -0.0603
  C  C580  1  0.804160  0.286990  0.045900  1.0  -0.4454
  C  C581  1  0.746460  0.498680  0.891410  1.0  0.1934
  C  C582  1  0.670140  0.516590  0.912050  1.0  0.1321
  C  C583  1  0.675470  0.465440  0.914420  1.0  -0.0796
  C  C584  1  0.624890  0.549740  0.922530  1.0  -0.4291
  C  C585  1  0.814180  0.390590  0.825250  1.0  0.1991
  C  C586  1  0.883680  0.418580  0.858940  1.0  0.1419
  C  C587  1  0.845300  0.422070  0.894580  1.0  -0.0263
  C  C588  1  0.938190  0.433060  0.864710  1.0  -0.4608
  C  C589  1  0.690290  0.322810  0.885850  1.0  0.1534
  C  C590  1  0.656610  0.335430  0.813240  1.0  0.2289
  C  C591  1  0.689080  0.373890  0.821730  1.0  -0.0824
  C  C592  1  0.624270  0.325890  0.769070  1.0  -0.4263
  C  C593  1  0.003340  0.738680  0.604700  1.0  0.1623
  C  C594  1  0.985360  0.782110  0.672090  1.0  0.1878
  C  C595  1  0.036310  0.784590  0.665330  1.0  -0.0588
  C  C596  1  0.954100  0.804160  0.713010  1.0  -0.4446
  C  C597  1  0.108590  0.746460  0.501320  1.0  0.1916
  C  C598  1  0.087950  0.670140  0.483410  1.0  0.1307
  C  C599  1  0.085580  0.675470  0.534560  1.0  -0.0786
  C  C600  1  0.077470  0.624890  0.450260  1.0  -0.429
  C  C601  1  0.174750  0.814180  0.609410  1.0  0.1958
  C  C602  1  0.141060  0.883680  0.581420  1.0  0.1428
  C  C603  1  0.105420  0.845300  0.577930  1.0  -0.0291
  C  C604  1  0.135290  0.938190  0.566940  1.0  -0.4604
  C  C605  1  0.114150  0.690290  0.677190  1.0  0.1537
  C  C606  1  0.186760  0.656610  0.664570  1.0  0.2311
  C  C607  1  0.178270  0.689080  0.626110  1.0  -0.0874
  C  C608  1  0.230930  0.624270  0.674110  1.0  -0.4254
  C  C609  1  0.003340  0.261320  0.395300  1.0  0.1626
  C  C610  1  0.985360  0.217890  0.327910  1.0  0.1873
  C  C611  1  0.036310  0.215410  0.334670  1.0  -0.0608
  C  C612  1  0.954100  0.195840  0.286990  1.0  -0.4417
  C  C613  1  0.108590  0.253540  0.498680  1.0  0.1906
  C  C614  1  0.087950  0.329860  0.516590  1.0  0.1307
  C  C615  1  0.085580  0.324530  0.465440  1.0  -0.0795
  C  C616  1  0.077470  0.375110  0.549740  1.0  -0.429
  C  C617  1  0.174750  0.185820  0.390590  1.0  0.1977
  C  C618  1  0.141060  0.116320  0.418580  1.0  0.1418
  C  C619  1  0.105420  0.154700  0.422070  1.0  -0.0295
  C  C620  1  0.135290  0.061810  0.433060  1.0  -0.4623
  C  C621  1  0.114150  0.309710  0.322810  1.0  0.1538
  C  C622  1  0.186760  0.343390  0.335430  1.0  0.2306
  C  C623  1  0.178270  0.310920  0.373890  1.0  -0.087
  C  C624  1  0.230930  0.375730  0.325890  1.0  -0.4249
  C  C625  1  0.996660  0.261320  0.604700  1.0  0.1617
  C  C626  1  0.014640  0.217890  0.672090  1.0  0.1871
  C  C627  1  0.963690  0.215410  0.665330  1.0  -0.0576
  C  C628  1  0.045900  0.195840  0.713010  1.0  -0.4442
  C  C629  1  0.891410  0.253540  0.501320  1.0  0.1907
  C  C630  1  0.912050  0.329860  0.483410  1.0  0.1311
  C  C631  1  0.914420  0.324530  0.534560  1.0  -0.0793
  C  C632  1  0.922530  0.375110  0.450260  1.0  -0.4289
  C  C633  1  0.825250  0.185820  0.609410  1.0  0.1961
  C  C634  1  0.858940  0.116320  0.581420  1.0  0.1419
  C  C635  1  0.894580  0.154700  0.577930  1.0  -0.029
  C  C636  1  0.864710  0.061810  0.566940  1.0  -0.4625
  C  C637  1  0.885850  0.309710  0.677190  1.0  0.1532
  C  C638  1  0.813240  0.343390  0.664570  1.0  0.2297
  C  C639  1  0.821730  0.310920  0.626110  1.0  -0.0862
  C  C640  1  0.769070  0.375730  0.674110  1.0  -0.4253
  C  C641  1  0.996660  0.738680  0.395300  1.0  0.1636
  C  C642  1  0.014640  0.782110  0.327910  1.0  0.1881
  C  C643  1  0.963690  0.784590  0.334670  1.0  -0.0599
  C  C644  1  0.045900  0.804160  0.286990  1.0  -0.4442
  C  C645  1  0.891410  0.746460  0.498680  1.0  0.1901
  C  C646  1  0.912050  0.670140  0.516590  1.0  0.1308
  C  C647  1  0.914420  0.675470  0.465440  1.0  -0.0787
  C  C648  1  0.922530  0.624890  0.549740  1.0  -0.4275
  C  C649  1  0.825250  0.814180  0.390590  1.0  0.1983
  C  C650  1  0.858940  0.883680  0.418580  1.0  0.1427
  C  C651  1  0.894580  0.845300  0.422070  1.0  -0.0293
  C  C652  1  0.864710  0.938190  0.433060  1.0  -0.462
  C  C653  1  0.885850  0.690290  0.322810  1.0  0.1523
  C  C654  1  0.813240  0.656610  0.335430  1.0  0.2302
  C  C655  1  0.821730  0.689080  0.373890  1.0  -0.0854
  C  C656  1  0.769070  0.624270  0.325890  1.0  -0.4258
  C  C657  1  0.604700  0.003340  0.738680  1.0  0.1637
  C  C658  1  0.672090  0.985360  0.782110  1.0  0.1864
  C  C659  1  0.665330  0.036310  0.784590  1.0  -0.0562
  C  C660  1  0.713010  0.954100  0.804160  1.0  -0.4447
  C  C661  1  0.501320  0.108590  0.746460  1.0  0.1922
  C  C662  1  0.483410  0.087950  0.670140  1.0  0.1286
  C  C663  1  0.534560  0.085580  0.675470  1.0  -0.0778
  C  C664  1  0.450260  0.077470  0.624890  1.0  -0.4304
  C  C665  1  0.609410  0.174750  0.814180  1.0  0.1964
  C  C666  1  0.581420  0.141060  0.883680  1.0  0.142
  C  C667  1  0.577930  0.105420  0.845300  1.0  -0.0307
  C  C668  1  0.566940  0.135290  0.938190  1.0  -0.4684
  C  C669  1  0.677190  0.114150  0.690290  1.0  0.1496
  C  C670  1  0.664570  0.186760  0.656610  1.0  0.2286
  C  C671  1  0.626110  0.178270  0.689080  1.0  -0.0844
  C  C672  1  0.674110  0.230930  0.624270  1.0  -0.425
  C  C673  1  0.395300  0.003340  0.261320  1.0  0.1637
  C  C674  1  0.327910  0.985360  0.217890  1.0  0.1865
  C  C675  1  0.334670  0.036310  0.215410  1.0  -0.0569
  C  C676  1  0.286990  0.954100  0.195840  1.0  -0.4448
  C  C677  1  0.498680  0.108590  0.253540  1.0  0.1925
  C  C678  1  0.516590  0.087950  0.329860  1.0  0.1293
  C  C679  1  0.465440  0.085580  0.324530  1.0  -0.078
  C  C680  1  0.549740  0.077470  0.375110  1.0  -0.4309
  C  C681  1  0.390590  0.174750  0.185820  1.0  0.1966
  C  C682  1  0.418580  0.141060  0.116320  1.0  0.1419
  C  C683  1  0.422070  0.105420  0.154700  1.0  -0.0315
  C  C684  1  0.433060  0.135290  0.061810  1.0  -0.4664
  C  C685  1  0.322810  0.114150  0.309710  1.0  0.1501
  C  C686  1  0.335430  0.186760  0.343390  1.0  0.2284
  C  C687  1  0.373890  0.178270  0.310920  1.0  -0.0852
  C  C688  1  0.325890  0.230930  0.375730  1.0  -0.4267
  C  C689  1  0.604700  0.996660  0.261320  1.0  0.1643
  C  C690  1  0.672090  0.014640  0.217890  1.0  0.1874
  C  C691  1  0.665330  0.963690  0.215410  1.0  -0.058
  C  C692  1  0.713010  0.045900  0.195840  1.0  -0.4467
  C  C693  1  0.501320  0.891410  0.253540  1.0  0.1922
  C  C694  1  0.483410  0.912050  0.329860  1.0  0.1299
  C  C695  1  0.534560  0.914420  0.324530  1.0  -0.0777
  C  C696  1  0.450260  0.922530  0.375110  1.0  -0.4301
  C  C697  1  0.609410  0.825250  0.185820  1.0  0.1964
  C  C698  1  0.581420  0.858940  0.116320  1.0  0.1427
  C  C699  1  0.577930  0.894580  0.154700  1.0  -0.0305
  C  C700  1  0.566940  0.864710  0.061810  1.0  -0.4686
  C  C701  1  0.677190  0.885850  0.309710  1.0  0.1495
  C  C702  1  0.664570  0.813240  0.343390  1.0  0.2279
  C  C703  1  0.626110  0.821730  0.310920  1.0  -0.0821
  C  C704  1  0.674110  0.769070  0.375730  1.0  -0.425
  C  C705  1  0.395300  0.996660  0.738680  1.0  0.1636
  C  C706  1  0.327910  0.014640  0.782110  1.0  0.1857
  C  C707  1  0.334670  0.963690  0.784590  1.0  -0.0559
  C  C708  1  0.286990  0.045900  0.804160  1.0  -0.4434
  C  C709  1  0.498680  0.891410  0.746460  1.0  0.1942
  C  C710  1  0.516590  0.912050  0.670140  1.0  0.1283
  C  C711  1  0.465440  0.914420  0.675470  1.0  -0.0789
  C  C712  1  0.549740  0.922530  0.624890  1.0  -0.4304
  C  C713  1  0.390590  0.825250  0.814180  1.0  0.196
  C  C714  1  0.418580  0.858940  0.883680  1.0  0.1418
  C  C715  1  0.422070  0.894580  0.845300  1.0  -0.0296
  C  C716  1  0.433060  0.864710  0.938190  1.0  -0.4675
  C  C717  1  0.322810  0.885850  0.690290  1.0  0.1491
  C  C718  1  0.335430  0.813240  0.656610  1.0  0.2286
  C  C719  1  0.373890  0.821730  0.689080  1.0  -0.0851
  C  C720  1  0.325890  0.769070  0.624270  1.0  -0.4268
  C  C721  1  0.604700  0.738680  0.996660  1.0  0.1637
  C  C722  1  0.672090  0.782110  0.014640  1.0  0.1864
  C  C723  1  0.665330  0.784590  0.963690  1.0  -0.0598
  C  C724  1  0.713010  0.804160  0.045900  1.0  -0.447
  C  C725  1  0.501320  0.746460  0.891410  1.0  0.1929
  C  C726  1  0.483410  0.670140  0.912050  1.0  0.1308
  C  C727  1  0.534560  0.675470  0.914420  1.0  -0.0803
  C  C728  1  0.450260  0.624890  0.922530  1.0  -0.4292
  C  C729  1  0.609410  0.814180  0.825250  1.0  0.1986
  C  C730  1  0.581420  0.883680  0.858940  1.0  0.1431
  C  C731  1  0.577930  0.845300  0.894580  1.0  -0.0268
  C  C732  1  0.566940  0.938190  0.864710  1.0  -0.4644
  C  C733  1  0.677190  0.690290  0.885850  1.0  0.1512
  C  C734  1  0.664570  0.656610  0.813240  1.0  0.2293
  C  C735  1  0.626110  0.689080  0.821730  1.0  -0.0831
  C  C736  1  0.674110  0.624270  0.769070  1.0  -0.4263
  C  C737  1  0.395300  0.261320  0.996660  1.0  0.1623
  C  C738  1  0.327910  0.217890  0.014640  1.0  0.1847
  C  C739  1  0.334670  0.215410  0.963690  1.0  -0.0592
  C  C740  1  0.286990  0.195840  0.045900  1.0  -0.4444
  C  C741  1  0.498680  0.253540  0.891410  1.0  0.1936
  C  C742  1  0.516590  0.329860  0.912050  1.0  0.1314
  C  C743  1  0.465440  0.324530  0.914420  1.0  -0.0804
  C  C744  1  0.549740  0.375110  0.922530  1.0  -0.4296
  C  C745  1  0.390590  0.185820  0.825250  1.0  0.1984
  C  C746  1  0.418580  0.116320  0.858940  1.0  0.1423
  C  C747  1  0.422070  0.154700  0.894580  1.0  -0.026
  C  C748  1  0.433060  0.061810  0.864710  1.0  -0.4646
  C  C749  1  0.322810  0.309710  0.885850  1.0  0.1524
  C  C750  1  0.335430  0.343390  0.813240  1.0  0.2285
  C  C751  1  0.373890  0.310920  0.821730  1.0  -0.0844
  C  C752  1  0.325890  0.375730  0.769070  1.0  -0.4268
  C  C753  1  0.604700  0.261320  0.003340  1.0  0.1624
  C  C754  1  0.672090  0.217890  0.985360  1.0  0.1861
  C  C755  1  0.665330  0.215410  0.036310  1.0  -0.0587
  C  C756  1  0.713010  0.195840  0.954100  1.0  -0.4474
  C  C757  1  0.501320  0.253540  0.108590  1.0  0.1926
  C  C758  1  0.483410  0.329860  0.087950  1.0  0.1316
  C  C759  1  0.534560  0.324530  0.085580  1.0  -0.0807
  C  C760  1  0.450260  0.375110  0.077470  1.0  -0.4299
  C  C761  1  0.609410  0.185820  0.174750  1.0  0.1973
  C  C762  1  0.581420  0.116320  0.141060  1.0  0.1427
  C  C763  1  0.577930  0.154700  0.105420  1.0  -0.0284
  C  C764  1  0.566940  0.061810  0.135290  1.0  -0.4655
  C  C765  1  0.677190  0.309710  0.114150  1.0  0.1521
  C  C766  1  0.664570  0.343390  0.186760  1.0  0.2283
  C  C767  1  0.626110  0.310920  0.178270  1.0  -0.0824
  C  C768  1  0.674110  0.375730  0.230930  1.0  -0.4272
  C  C769  1  0.395300  0.738680  0.003340  1.0  0.1621
  C  C770  1  0.327910  0.782110  0.985360  1.0  0.1854
  C  C771  1  0.334670  0.784590  0.036310  1.0  -0.0593
  C  C772  1  0.286990  0.804160  0.954100  1.0  -0.4455
  C  C773  1  0.498680  0.746460  0.108590  1.0  0.1938
  C  C774  1  0.516590  0.670140  0.087950  1.0  0.1315
  C  C775  1  0.465440  0.675470  0.085580  1.0  -0.0803
  C  C776  1  0.549740  0.624890  0.077470  1.0  -0.4293
  C  C777  1  0.390590  0.814180  0.174750  1.0  0.1967
  C  C778  1  0.418580  0.883680  0.141060  1.0  0.1428
  C  C779  1  0.422070  0.845300  0.105420  1.0  -0.027
  C  C780  1  0.433060  0.938190  0.135290  1.0  -0.4628
  C  C781  1  0.322810  0.690290  0.114150  1.0  0.1518
  C  C782  1  0.335430  0.656610  0.186760  1.0  0.2289
  C  C783  1  0.373890  0.689080  0.178270  1.0  -0.0832
  C  C784  1  0.325890  0.624270  0.230930  1.0  -0.4281
  C  C785  1  0.738680  0.003340  0.395300  1.0  0.164
  C  C786  1  0.782110  0.985360  0.327910  1.0  0.1902
  C  C787  1  0.784590  0.036310  0.334670  1.0  -0.0592
  C  C788  1  0.804160  0.954100  0.286990  1.0  -0.4457
  C  C789  1  0.746460  0.108590  0.498680  1.0  0.1902
  C  C790  1  0.670140  0.087950  0.516590  1.0  0.131
  C  C791  1  0.675470  0.085580  0.465440  1.0  -0.0782
  C  C792  1  0.624890  0.077470  0.549740  1.0  -0.4277
  C  C793  1  0.814180  0.174750  0.390590  1.0  0.1996
  C  C794  1  0.883680  0.141060  0.418580  1.0  0.1421
  C  C795  1  0.845300  0.105420  0.422070  1.0  -0.0302
  C  C796  1  0.938190  0.135290  0.433060  1.0  -0.46
  C  C797  1  0.690290  0.114150  0.322810  1.0  0.1526
  C  C798  1  0.656610  0.186760  0.335430  1.0  0.2296
  C  C799  1  0.689080  0.178270  0.373890  1.0  -0.0838
  C  C800  1  0.624270  0.230930  0.325890  1.0  -0.425
  C  C801  1  0.261320  0.003340  0.604700  1.0  0.1625
  C  C802  1  0.217890  0.985360  0.672090  1.0  0.1891
  C  C803  1  0.215410  0.036310  0.665330  1.0  -0.0583
  C  C804  1  0.195840  0.954100  0.713010  1.0  -0.445
  C  C805  1  0.253540  0.108590  0.501320  1.0  0.1909
  C  C806  1  0.329860  0.087950  0.483410  1.0  0.1312
  C  C807  1  0.324530  0.085580  0.534560  1.0  -0.0768
  C  C808  1  0.375110  0.077470  0.450260  1.0  -0.4291
  C  C809  1  0.185820  0.174750  0.609410  1.0  0.197
  C  C810  1  0.116320  0.141060  0.581420  1.0  0.1416
  C  C811  1  0.154700  0.105420  0.577930  1.0  -0.031
  C  C812  1  0.061810  0.135290  0.566940  1.0  -0.4592
  C  C813  1  0.309710  0.114150  0.677190  1.0  0.1516
  C  C814  1  0.343390  0.186760  0.664570  1.0  0.2303
  C  C815  1  0.310920  0.178270  0.626110  1.0  -0.0844
  C  C816  1  0.375730  0.230930  0.674110  1.0  -0.4261
  C  C817  1  0.261320  0.996660  0.395300  1.0  0.1638
  C  C818  1  0.217890  0.014640  0.327910  1.0  0.1888
  C  C819  1  0.215410  0.963690  0.334670  1.0  -0.0592
  C  C820  1  0.195840  0.045900  0.286990  1.0  -0.4446
  C  C821  1  0.253540  0.891410  0.498680  1.0  0.1908
  C  C822  1  0.329860  0.912050  0.516590  1.0  0.1311
  C  C823  1  0.324530  0.914420  0.465440  1.0  -0.0781
  C  C824  1  0.375110  0.922530  0.549740  1.0  -0.4289
  C  C825  1  0.185820  0.825250  0.390590  1.0  0.1978
  C  C826  1  0.116320  0.858940  0.418580  1.0  0.1417
  C  C827  1  0.154700  0.894580  0.422070  1.0  -0.03
  C  C828  1  0.061810  0.864710  0.433060  1.0  -0.4591
  C  C829  1  0.309710  0.885850  0.322810  1.0  0.1514
  C  C830  1  0.343390  0.813240  0.335430  1.0  0.2293
  C  C831  1  0.310920  0.821730  0.373890  1.0  -0.0826
  C  C832  1  0.375730  0.769070  0.325890  1.0  -0.4272
  C  C833  1  0.738680  0.996660  0.604700  1.0  0.1635
  C  C834  1  0.782110  0.014640  0.672090  1.0  0.1894
  C  C835  1  0.784590  0.963690  0.665330  1.0  -0.0577
  C  C836  1  0.804160  0.045900  0.713010  1.0  -0.4448
  C  C837  1  0.746460  0.891410  0.501320  1.0  0.1905
  C  C838  1  0.670140  0.912050  0.483410  1.0  0.1311
  C  C839  1  0.675470  0.914420  0.534560  1.0  -0.0786
  C  C840  1  0.624890  0.922530  0.450260  1.0  -0.4281
  C  C841  1  0.814180  0.825250  0.609410  1.0  0.1969
  C  C842  1  0.883680  0.858940  0.581420  1.0  0.1424
  C  C843  1  0.845300  0.894580  0.577930  1.0  -0.0294
  C  C844  1  0.938190  0.864710  0.566940  1.0  -0.4602
  C  C845  1  0.690290  0.885850  0.677190  1.0  0.1527
  C  C846  1  0.656610  0.813240  0.664570  1.0  0.2291
  C  C847  1  0.689080  0.821730  0.626110  1.0  -0.0836
  C  C848  1  0.624270  0.769070  0.674110  1.0  -0.4252
  C  C849  1  0.003340  0.604700  0.261320  1.0  0.1631
  C  C850  1  0.985360  0.672090  0.217890  1.0  0.187
  C  C851  1  0.036310  0.665330  0.215410  1.0  -0.06
  C  C852  1  0.954100  0.713010  0.195840  1.0  -0.4443
  C  C853  1  0.108590  0.501320  0.253540  1.0  0.1928
  C  C854  1  0.087950  0.483410  0.329860  1.0  0.1297
  C  C855  1  0.085580  0.534560  0.324530  1.0  -0.0777
  C  C856  1  0.077470  0.450260  0.375110  1.0  -0.4304
  C  C857  1  0.174750  0.609410  0.185820  1.0  0.1965
  C  C858  1  0.141060  0.581420  0.116320  1.0  0.1422
  C  C859  1  0.105420  0.577930  0.154700  1.0  -0.0296
  C  C860  1  0.135290  0.566940  0.061810  1.0  -0.4656
  C  C861  1  0.114150  0.677190  0.309710  1.0  0.1514
  C  C862  1  0.186760  0.664570  0.343390  1.0  0.2293
  C  C863  1  0.178270  0.626110  0.310920  1.0  -0.0878
  C  C864  1  0.230930  0.674110  0.375730  1.0  -0.4253
  C  C865  1  0.003340  0.395300  0.738680  1.0  0.1622
  C  C866  1  0.985360  0.327910  0.782110  1.0  0.186
  C  C867  1  0.036310  0.334670  0.784590  1.0  -0.0574
  C  C868  1  0.954100  0.286990  0.804160  1.0  -0.4432
  C  C869  1  0.108590  0.498680  0.746460  1.0  0.1933
  C  C870  1  0.087950  0.516590  0.670140  1.0  0.1294
  C  C871  1  0.085580  0.465440  0.675470  1.0  -0.0782
  C  C872  1  0.077470  0.549740  0.624890  1.0  -0.4306
  C  C873  1  0.174750  0.390590  0.814180  1.0  0.195
  C  C874  1  0.141060  0.418580  0.883680  1.0  0.1411
  C  C875  1  0.105420  0.422070  0.845300  1.0  -0.0294
  C  C876  1  0.135290  0.433060  0.938190  1.0  -0.4658
  C  C877  1  0.114150  0.322810  0.690290  1.0  0.1525
  C  C878  1  0.186760  0.335430  0.656610  1.0  0.23
  C  C879  1  0.178270  0.373890  0.689080  1.0  -0.0874
  C  C880  1  0.230930  0.325890  0.624270  1.0  -0.426
  C  C881  1  0.996660  0.604700  0.738680  1.0  0.1621
  C  C882  1  0.014640  0.672090  0.782110  1.0  0.1863
  C  C883  1  0.963690  0.665330  0.784590  1.0  -0.0595
  C  C884  1  0.045900  0.713010  0.804160  1.0  -0.4456
  C  C885  1  0.891410  0.501320  0.746460  1.0  0.1931
  C  C886  1  0.912050  0.483410  0.670140  1.0  0.1288
  C  C887  1  0.914420  0.534560  0.675470  1.0  -0.0778
  C  C888  1  0.922530  0.450260  0.624890  1.0  -0.4294
  C  C889  1  0.825250  0.609410  0.814180  1.0  0.1959
  C  C890  1  0.858940  0.581420  0.883680  1.0  0.1418
  C  C891  1  0.894580  0.577930  0.845300  1.0  -0.0286
  C  C892  1  0.864710  0.566940  0.938190  1.0  -0.4666
  C  C893  1  0.885850  0.677190  0.690290  1.0  0.1505
  C  C894  1  0.813240  0.664570  0.656610  1.0  0.2286
  C  C895  1  0.821730  0.626110  0.689080  1.0  -0.0865
  C  C896  1  0.769070  0.674110  0.624270  1.0  -0.4257
  C  C897  1  0.996660  0.395300  0.261320  1.0  0.1627
  C  C898  1  0.014640  0.327910  0.217890  1.0  0.1863
  C  C899  1  0.963690  0.334670  0.215410  1.0  -0.0586
  C  C900  1  0.045900  0.286990  0.195840  1.0  -0.4457
  C  C901  1  0.891410  0.498680  0.253540  1.0  0.1921
  C  C902  1  0.912050  0.516590  0.329860  1.0  0.1299
  C  C903  1  0.914420  0.465440  0.324530  1.0  -0.0774
  C  C904  1  0.922530  0.549740  0.375110  1.0  -0.4297
  C  C905  1  0.825250  0.390590  0.185820  1.0  0.1968
  C  C906  1  0.858940  0.418580  0.116320  1.0  0.1416
  C  C907  1  0.894580  0.422070  0.154700  1.0  -0.0297
  C  C908  1  0.864710  0.433060  0.061810  1.0  -0.4669
  C  C909  1  0.885850  0.322810  0.309710  1.0  0.151
  C  C910  1  0.813240  0.335430  0.343390  1.0  0.2289
  C  C911  1  0.821730  0.373890  0.310920  1.0  -0.086
  C  C912  1  0.769070  0.325890  0.375730  1.0  -0.4259
  N  N913  1  0.757520  0.621820  0.048090  1.0  -0.2045
  N  N914  1  0.752760  0.633730  0.964300  1.0  -0.4594
  N  N915  1  0.724680  0.546290  0.098240  1.0  -0.207
  N  N916  1  0.715940  0.462140  0.103000  1.0  -0.4505
  N  N917  1  0.800940  0.596500  0.127660  1.0  -0.2208
  N  N918  1  0.862930  0.601210  0.185380  1.0  -0.4608
  N  N919  1  0.712220  0.634270  0.130780  1.0  -0.2097
  N  N920  1  0.657090  0.697250  0.145610  1.0  -0.4251
  N  N921  1  0.242480  0.378180  0.048090  1.0  -0.2051
  N  N922  1  0.247240  0.366270  0.964300  1.0  -0.4601
  N  N923  1  0.275320  0.453710  0.098240  1.0  -0.2072
  N  N924  1  0.284060  0.537860  0.103000  1.0  -0.4504
  N  N925  1  0.199060  0.403500  0.127660  1.0  -0.2201
  N  N926  1  0.137070  0.398790  0.185380  1.0  -0.4615
  N  N927  1  0.287780  0.365730  0.130780  1.0  -0.2101
  N  N928  1  0.342910  0.302750  0.145610  1.0  -0.4273
  N  N929  1  0.242480  0.621820  0.951910  1.0  -0.2057
  N  N930  1  0.247240  0.633730  0.035700  1.0  -0.4593
  N  N931  1  0.275320  0.546290  0.901760  1.0  -0.2071
  N  N932  1  0.284060  0.462140  0.897000  1.0  -0.451
  N  N933  1  0.199060  0.596500  0.872340  1.0  -0.2198
  N  N934  1  0.137070  0.601210  0.814620  1.0  -0.4616
  N  N935  1  0.287780  0.634270  0.869220  1.0  -0.2103
  N  N936  1  0.342910  0.697250  0.854390  1.0  -0.4267
  N  N937  1  0.757520  0.378180  0.951910  1.0  -0.205
  N  N938  1  0.752760  0.366270  0.035700  1.0  -0.459
  N  N939  1  0.724680  0.453710  0.901760  1.0  -0.2075
  N  N940  1  0.715940  0.537860  0.897000  1.0  -0.4515
  N  N941  1  0.800940  0.403500  0.872340  1.0  -0.2202
  N  N942  1  0.862930  0.398790  0.814620  1.0  -0.4627
  N  N943  1  0.712220  0.365730  0.869220  1.0  -0.2096
  N  N944  1  0.657090  0.302750  0.854390  1.0  -0.4271
  N  N945  1  0.048090  0.757520  0.621820  1.0  -0.2063
  N  N946  1  0.964300  0.752760  0.633730  1.0  -0.4627
  N  N947  1  0.098240  0.724680  0.546290  1.0  -0.2088
  N  N948  1  0.103000  0.715940  0.462140  1.0  -0.4502
  N  N949  1  0.127660  0.800940  0.596500  1.0  -0.2181
  N  N950  1  0.185380  0.862930  0.601210  1.0  -0.4618
  N  N951  1  0.130780  0.712220  0.634270  1.0  -0.2134
  N  N952  1  0.145610  0.657090  0.697250  1.0  -0.426
  N  N953  1  0.048090  0.242480  0.378180  1.0  -0.2065
  N  N954  1  0.964300  0.247240  0.366270  1.0  -0.4629
  N  N955  1  0.098240  0.275320  0.453710  1.0  -0.209
  N  N956  1  0.103000  0.284060  0.537860  1.0  -0.449
  N  N957  1  0.127660  0.199060  0.403500  1.0  -0.2185
  N  N958  1  0.185380  0.137070  0.398790  1.0  -0.4615
  N  N959  1  0.130780  0.287780  0.365730  1.0  -0.2127
  N  N960  1  0.145610  0.342910  0.302750  1.0  -0.4269
  N  N961  1  0.951910  0.242480  0.621820  1.0  -0.2068
  N  N962  1  0.035700  0.247240  0.633730  1.0  -0.4622
  N  N963  1  0.901760  0.275320  0.546290  1.0  -0.2087
  N  N964  1  0.897000  0.284060  0.462140  1.0  -0.4499
  N  N965  1  0.872340  0.199060  0.596500  1.0  -0.2185
  N  N966  1  0.814620  0.137070  0.601210  1.0  -0.4613
  N  N967  1  0.869220  0.287780  0.634270  1.0  -0.2129
  N  N968  1  0.854390  0.342910  0.697250  1.0  -0.4255
  N  N969  1  0.951910  0.757520  0.378180  1.0  -0.2068
  N  N970  1  0.035700  0.752760  0.366270  1.0  -0.462
  N  N971  1  0.901760  0.724680  0.453710  1.0  -0.2088
  N  N972  1  0.897000  0.715940  0.537860  1.0  -0.4482
  N  N973  1  0.872340  0.800940  0.403500  1.0  -0.2191
  N  N974  1  0.814620  0.862930  0.398790  1.0  -0.4619
  N  N975  1  0.869220  0.712220  0.365730  1.0  -0.2127
  N  N976  1  0.854390  0.657090  0.302750  1.0  -0.4273
  N  N977  1  0.621820  0.048090  0.757520  1.0  -0.2051
  N  N978  1  0.633730  0.964300  0.752760  1.0  -0.4595
  N  N979  1  0.546290  0.098240  0.724680  1.0  -0.2102
  N  N980  1  0.462140  0.103000  0.715940  1.0  -0.4519
  N  N981  1  0.596500  0.127660  0.800940  1.0  -0.2194
  N  N982  1  0.601210  0.185380  0.862930  1.0  -0.4592
  N  N983  1  0.634270  0.130780  0.712220  1.0  -0.2141
  N  N984  1  0.697250  0.145610  0.657090  1.0  -0.4286
  N  N985  1  0.378180  0.048090  0.242480  1.0  -0.2055
  N  N986  1  0.366270  0.964300  0.247240  1.0  -0.4606
  N  N987  1  0.453710  0.098240  0.275320  1.0  -0.2091
  N  N988  1  0.537860  0.103000  0.284060  1.0  -0.4516
  N  N989  1  0.403500  0.127660  0.199060  1.0  -0.2189
  N  N990  1  0.398790  0.185380  0.137070  1.0  -0.4595
  N  N991  1  0.365730  0.130780  0.287780  1.0  -0.2142
  N  N992  1  0.302750  0.145610  0.342910  1.0  -0.4287
  N  N993  1  0.621820  0.951910  0.242480  1.0  -0.2053
  N  N994  1  0.633730  0.035700  0.247240  1.0  -0.4601
  N  N995  1  0.546290  0.901760  0.275320  1.0  -0.2105
  N  N996  1  0.462140  0.897000  0.284060  1.0  -0.4518
  N  N997  1  0.596500  0.872340  0.199060  1.0  -0.2187
  N  N998  1  0.601210  0.814620  0.137070  1.0  -0.4585
  N  N999  1  0.634270  0.869220  0.287780  1.0  -0.2135
  N  N1000  1  0.697250  0.854390  0.342910  1.0  -0.4283
  N  N1001  1  0.378180  0.951910  0.757520  1.0  -0.2058
  N  N1002  1  0.366270  0.035700  0.752760  1.0  -0.461
  N  N1003  1  0.453710  0.901760  0.724680  1.0  -0.2096
  N  N1004  1  0.537860  0.897000  0.715940  1.0  -0.4517
  N  N1005  1  0.403500  0.872340  0.800940  1.0  -0.2191
  N  N1006  1  0.398790  0.814620  0.862930  1.0  -0.4589
  N  N1007  1  0.365730  0.869220  0.712220  1.0  -0.2136
  N  N1008  1  0.302750  0.854390  0.657090  1.0  -0.4291
  N  N1009  1  0.621820  0.757520  0.951910  1.0  -0.2052
  N  N1010  1  0.633730  0.752760  0.035700  1.0  -0.459
  N  N1011  1  0.546290  0.724680  0.901760  1.0  -0.2095
  N  N1012  1  0.462140  0.715940  0.897000  1.0  -0.4515
  N  N1013  1  0.596500  0.800940  0.872340  1.0  -0.2191
  N  N1014  1  0.601210  0.862930  0.814620  1.0  -0.4594
  N  N1015  1  0.634270  0.712220  0.869220  1.0  -0.2117
  N  N1016  1  0.697250  0.657090  0.854390  1.0  -0.4284
  N  N1017  1  0.378180  0.242480  0.951910  1.0  -0.2057
  N  N1018  1  0.366270  0.247240  0.035700  1.0  -0.4599
  N  N1019  1  0.453710  0.275320  0.901760  1.0  -0.2084
  N  N1020  1  0.537860  0.284060  0.897000  1.0  -0.4518
  N  N1021  1  0.403500  0.199060  0.872340  1.0  -0.2187
  N  N1022  1  0.398790  0.137070  0.814620  1.0  -0.4595
  N  N1023  1  0.365730  0.287780  0.869220  1.0  -0.2113
  N  N1024  1  0.302750  0.342910  0.854390  1.0  -0.4277
  N  N1025  1  0.621820  0.242480  0.048090  1.0  -0.205
  N  N1026  1  0.633730  0.247240  0.964300  1.0  -0.4596
  N  N1027  1  0.546290  0.275320  0.098240  1.0  -0.2097
  N  N1028  1  0.462140  0.284060  0.103000  1.0  -0.4512
  N  N1029  1  0.596500  0.199060  0.127660  1.0  -0.2193
  N  N1030  1  0.601210  0.137070  0.185380  1.0  -0.4585
  N  N1031  1  0.634270  0.287780  0.130780  1.0  -0.211
  N  N1032  1  0.697250  0.342910  0.145610  1.0  -0.4276
  N  N1033  1  0.378180  0.757520  0.048090  1.0  -0.2052
  N  N1034  1  0.366270  0.752760  0.964300  1.0  -0.4604
  N  N1035  1  0.453710  0.724680  0.098240  1.0  -0.2086
  N  N1036  1  0.537860  0.715940  0.103000  1.0  -0.4512
  N  N1037  1  0.403500  0.800940  0.127660  1.0  -0.2194
  N  N1038  1  0.398790  0.862930  0.185380  1.0  -0.4591
  N  N1039  1  0.365730  0.712220  0.130780  1.0  -0.2114
  N  N1040  1  0.302750  0.657090  0.145610  1.0  -0.4286
  N  N1041  1  0.757520  0.048090  0.378180  1.0  -0.2056
  N  N1042  1  0.752760  0.964300  0.366270  1.0  -0.4597
  N  N1043  1  0.724680  0.098240  0.453710  1.0  -0.2096
  N  N1044  1  0.715940  0.103000  0.537860  1.0  -0.4496
  N  N1045  1  0.800940  0.127660  0.403500  1.0  -0.2193
  N  N1046  1  0.862930  0.185380  0.398790  1.0  -0.4603
  N  N1047  1  0.712220  0.130780  0.365730  1.0  -0.2133
  N  N1048  1  0.657090  0.145610  0.302750  1.0  -0.4269
  N  N1049  1  0.242480  0.048090  0.621820  1.0  -0.206
  N  N1050  1  0.247240  0.964300  0.633730  1.0  -0.4595
  N  N1051  1  0.275320  0.098240  0.546290  1.0  -0.2089
  N  N1052  1  0.284060  0.103000  0.462140  1.0  -0.4516
  N  N1053  1  0.199060  0.127660  0.596500  1.0  -0.2184
  N  N1054  1  0.137070  0.185380  0.601210  1.0  -0.4597
  N  N1055  1  0.287780  0.130780  0.634270  1.0  -0.2142
  N  N1056  1  0.342910  0.145610  0.697250  1.0  -0.4258
  N  N1057  1  0.242480  0.951910  0.378180  1.0  -0.2066
  N  N1058  1  0.247240  0.035700  0.366270  1.0  -0.4605
  N  N1059  1  0.275320  0.901760  0.453710  1.0  -0.2092
  N  N1060  1  0.284060  0.897000  0.537860  1.0  -0.4507
  N  N1061  1  0.199060  0.872340  0.403500  1.0  -0.2187
  N  N1062  1  0.137070  0.814620  0.398790  1.0  -0.46
  N  N1063  1  0.287780  0.869220  0.365730  1.0  -0.2134
  N  N1064  1  0.342910  0.854390  0.302750  1.0  -0.4279
  N  N1065  1  0.757520  0.951910  0.621820  1.0  -0.2057
  N  N1066  1  0.752760  0.035700  0.633730  1.0  -0.4597
  N  N1067  1  0.724680  0.901760  0.546290  1.0  -0.2089
  N  N1068  1  0.715940  0.897000  0.462140  1.0  -0.4521
  N  N1069  1  0.800940  0.872340  0.596500  1.0  -0.2186
  N  N1070  1  0.862930  0.814620  0.601210  1.0  -0.4596
  N  N1071  1  0.712220  0.869220  0.634270  1.0  -0.2132
  N  N1072  1  0.657090  0.854390  0.697250  1.0  -0.4262
  N  N1073  1  0.048090  0.621820  0.242480  1.0  -0.2057
  N  N1074  1  0.964300  0.633730  0.247240  1.0  -0.4629
  N  N1075  1  0.098240  0.546290  0.275320  1.0  -0.2078
  N  N1076  1  0.103000  0.462140  0.284060  1.0  -0.4496
  N  N1077  1  0.127660  0.596500  0.199060  1.0  -0.2193
  N  N1078  1  0.185380  0.601210  0.137070  1.0  -0.4624
  N  N1079  1  0.130780  0.634270  0.287780  1.0  -0.212
  N  N1080  1  0.145610  0.697250  0.342910  1.0  -0.4276
  N  N1081  1  0.048090  0.378180  0.757520  1.0  -0.2056
  N  N1082  1  0.964300  0.366270  0.752760  1.0  -0.4631
  N  N1083  1  0.098240  0.453710  0.724680  1.0  -0.2079
  N  N1084  1  0.103000  0.537860  0.715940  1.0  -0.4502
  N  N1085  1  0.127660  0.403500  0.800940  1.0  -0.2196
  N  N1086  1  0.185380  0.398790  0.862930  1.0  -0.4627
  N  N1087  1  0.130780  0.365730  0.712220  1.0  -0.2118
  N  N1088  1  0.145610  0.302750  0.657090  1.0  -0.4283
  N  N1089  1  0.951910  0.621820  0.757520  1.0  -0.2061
  N  N1090  1  0.035700  0.633730  0.752760  1.0  -0.4617
  N  N1091  1  0.901760  0.546290  0.724680  1.0  -0.2075
  N  N1092  1  0.897000  0.462140  0.715940  1.0  -0.4494
  N  N1093  1  0.872340  0.596500  0.800940  1.0  -0.2205
  N  N1094  1  0.814620  0.601210  0.862930  1.0  -0.4626
  N  N1095  1  0.869220  0.634270  0.712220  1.0  -0.2116
  N  N1096  1  0.854390  0.697250  0.657090  1.0  -0.4262
  N  N1097  1  0.951910  0.378180  0.242480  1.0  -0.206
  N  N1098  1  0.035700  0.366270  0.247240  1.0  -0.4622
  N  N1099  1  0.901760  0.453710  0.275320  1.0  -0.2078
  N  N1100  1  0.897000  0.537860  0.284060  1.0  -0.4498
  N  N1101  1  0.872340  0.403500  0.199060  1.0  -0.2199
  N  N1102  1  0.814620  0.398790  0.137070  1.0  -0.4631
  N  N1103  1  0.869220  0.365730  0.287780  1.0  -0.2119
  N  N1104  1  0.854390  0.302750  0.342910  1.0  -0.4273
