# generated using pymatgen
data_CuBH20(C2N)8
_symmetry_space_group_name_H-M   'P 1'
_cell_length_a   26.81520000
_cell_length_b   26.81520000
_cell_length_c   26.81520000
_cell_angle_alpha   90.00000000
_cell_angle_beta   90.00000000
_cell_angle_gamma   90.00000000
_symmetry_Int_Tables_number   1
_chemical_formula_structural   CuBH20(C2N)8
_chemical_formula_sum   'Cu24 B24 H480 C384 N192'
_cell_volume   19281.60232313
_cell_formula_units_Z   24
loop_
 _symmetry_equiv_pos_site_id
 _symmetry_equiv_pos_as_xyz
  1  'x, y, z'
loop_
 _atom_site_type_symbol
 _atom_site_label
 _atom_site_symmetry_multiplicity
 _atom_site_fract_x
 _atom_site_fract_y
 _atom_site_fract_z
 _atom_site_occupancy
 _atom_site_charge
  Cu  Cu1  1  0.753280  0.610490  0.891580  1.0  0.3713
  Cu  Cu2  1  0.246720  0.389510  0.891580  1.0  0.37
  Cu  Cu3  1  0.246720  0.610490  0.108420  1.0  0.3713
  Cu  Cu4  1  0.753280  0.389510  0.108420  1.0  0.3702
  Cu  Cu5  1  0.891580  0.753280  0.610490  1.0  0.3686
  Cu  Cu6  1  0.891580  0.246720  0.389510  1.0  0.3692
  Cu  Cu7  1  0.108420  0.246720  0.610490  1.0  0.3701
  Cu  Cu8  1  0.108420  0.753280  0.389510  1.0  0.3705
  Cu  Cu9  1  0.610490  0.891580  0.753280  1.0  0.3698
  Cu  Cu10  1  0.389510  0.891580  0.246720  1.0  0.3678
  Cu  Cu11  1  0.610490  0.108420  0.246720  1.0  0.3694
  Cu  Cu12  1  0.389510  0.108420  0.753280  1.0  0.3672
  Cu  Cu13  1  0.610490  0.753280  0.108420  1.0  0.3689
  Cu  Cu14  1  0.389510  0.246720  0.108420  1.0  0.3669
  Cu  Cu15  1  0.610490  0.246720  0.891580  1.0  0.3691
  Cu  Cu16  1  0.389510  0.753280  0.891580  1.0  0.3668
  Cu  Cu17  1  0.753280  0.891580  0.389510  1.0  0.3728
  Cu  Cu18  1  0.246720  0.891580  0.610490  1.0  0.3722
  Cu  Cu19  1  0.246720  0.108420  0.389510  1.0  0.3724
  Cu  Cu20  1  0.753280  0.108420  0.610490  1.0  0.3717
  Cu  Cu21  1  0.891580  0.610490  0.246720  1.0  0.3683
  Cu  Cu22  1  0.891580  0.389510  0.753280  1.0  0.3676
  Cu  Cu23  1  0.108420  0.610490  0.753280  1.0  0.3699
  Cu  Cu24  1  0.108420  0.389510  0.246720  1.0  0.3686
  B  B25  1  0.901100  0.598860  0.750920  1.0  0.4591
  B  B26  1  0.098900  0.401140  0.750920  1.0  0.4585
  B  B27  1  0.098900  0.598860  0.249080  1.0  0.4589
  B  B28  1  0.901100  0.401140  0.249080  1.0  0.4587
  B  B29  1  0.750920  0.901100  0.598860  1.0  0.4606
  B  B30  1  0.750920  0.098900  0.401140  1.0  0.4594
  B  B31  1  0.249080  0.098900  0.598860  1.0  0.4605
  B  B32  1  0.249080  0.901100  0.401140  1.0  0.4593
  B  B33  1  0.598860  0.750920  0.901100  1.0  0.4576
  B  B34  1  0.401140  0.750920  0.098900  1.0  0.4576
  B  B35  1  0.598860  0.249080  0.098900  1.0  0.4578
  B  B36  1  0.401140  0.249080  0.901100  1.0  0.4574
  B  B37  1  0.598860  0.901100  0.249080  1.0  0.4579
  B  B38  1  0.401140  0.098900  0.249080  1.0  0.4578
  B  B39  1  0.598860  0.098900  0.750920  1.0  0.4581
  B  B40  1  0.401140  0.901100  0.750920  1.0  0.4578
  B  B41  1  0.901100  0.750920  0.401140  1.0  0.459
  B  B42  1  0.098900  0.750920  0.598860  1.0  0.4601
  B  B43  1  0.098900  0.249080  0.401140  1.0  0.4588
  B  B44  1  0.901100  0.249080  0.598860  1.0  0.46
  B  B45  1  0.750920  0.598860  0.098900  1.0  0.4594
  B  B46  1  0.750920  0.401140  0.901100  1.0  0.4587
  B  B47  1  0.249080  0.598860  0.901100  1.0  0.4591
  B  B48  1  0.249080  0.401140  0.098900  1.0  0.4588
  H  H49  1  0.813900  0.573200  0.804100  1.0  0.0874
  H  H50  1  0.896900  0.695900  0.801800  1.0  0.1148
  H  H51  1  0.837800  0.752700  0.861700  1.0  0.1221
  H  H52  1  0.785100  0.728000  0.874900  1.0  0.1453
  H  H53  1  0.832700  0.717000  0.909300  1.0  0.1231
  H  H54  1  0.929200  0.499000  0.775600  1.0  0.0898
  H  H55  1  0.816200  0.557300  0.699300  1.0  0.1046
  H  H56  1  0.766900  0.474000  0.680200  1.0  0.1231
  H  H57  1  0.806300  0.429800  0.672100  1.0  0.1141
  H  H58  1  0.775900  0.433700  0.723300  1.0  0.1145
  H  H59  1  0.877900  0.697100  0.712200  1.0  0.0741
  H  H60  1  0.931300  0.572900  0.651400  1.0  0.1122
  H  H61  1  0.946800  0.604200  0.560700  1.0  0.1338
  H  H62  1  0.902000  0.640800  0.545900  1.0  0.1212
  H  H63  1  0.956000  0.663100  0.558200  1.0  0.1198
  H  H64  1  0.999300  0.620300  0.717200  1.0  0.0883
  H  H65  1  0.945400  0.574300  0.847000  1.0  0.1096
  H  H66  1  0.071200  0.606200  0.876100  1.0  0.1254
  H  H67  1  0.030500  0.568500  0.897800  1.0  0.1366
  H  H68  1  0.072800  0.548600  0.860800  1.0  0.1152
  H  H69  1  0.186100  0.426800  0.804100  1.0  0.0875
  H  H70  1  0.103100  0.304100  0.801800  1.0  0.1146
  H  H71  1  0.162200  0.247300  0.861700  1.0  0.1214
  H  H72  1  0.214900  0.272000  0.874900  1.0  0.1427
  H  H73  1  0.167300  0.283000  0.909300  1.0  0.1243
  H  H74  1  0.070800  0.501000  0.775600  1.0  0.0899
  H  H75  1  0.183800  0.442700  0.699300  1.0  0.1045
  H  H76  1  0.233100  0.526000  0.680200  1.0  0.1246
  H  H77  1  0.193700  0.570200  0.672100  1.0  0.116
  H  H78  1  0.224100  0.566300  0.723300  1.0  0.1164
  H  H79  1  0.122100  0.302900  0.712200  1.0  0.0744
  H  H80  1  0.068700  0.427100  0.651400  1.0  0.1119
  H  H81  1  0.053200  0.395800  0.560700  1.0  0.1326
  H  H82  1  0.098000  0.359200  0.545900  1.0  0.1213
  H  H83  1  0.044000  0.336900  0.558200  1.0  0.1217
  H  H84  1  0.000700  0.379700  0.717200  1.0  0.0887
  H  H85  1  0.054600  0.425700  0.847000  1.0  0.11
  H  H86  1  0.928800  0.393800  0.876100  1.0  0.1258
  H  H87  1  0.969500  0.431500  0.897800  1.0  0.1368
  H  H88  1  0.927200  0.451400  0.860800  1.0  0.116
  H  H89  1  0.186100  0.573200  0.195900  1.0  0.0873
  H  H90  1  0.103100  0.695900  0.198200  1.0  0.114
  H  H91  1  0.162200  0.752700  0.138300  1.0  0.1223
  H  H92  1  0.214900  0.728000  0.125100  1.0  0.1423
  H  H93  1  0.167300  0.717000  0.090700  1.0  0.1231
  H  H94  1  0.070800  0.499000  0.224400  1.0  0.0896
  H  H95  1  0.183800  0.557300  0.300700  1.0  0.105
  H  H96  1  0.233100  0.474000  0.319800  1.0  0.1245
  H  H97  1  0.193700  0.429800  0.327900  1.0  0.1154
  H  H98  1  0.224100  0.433700  0.276700  1.0  0.1157
  H  H99  1  0.122100  0.697100  0.287800  1.0  0.0738
  H  H100  1  0.068700  0.572900  0.348600  1.0  0.1127
  H  H101  1  0.053200  0.604200  0.439300  1.0  0.1348
  H  H102  1  0.098000  0.640800  0.454100  1.0  0.1212
  H  H103  1  0.044000  0.663100  0.441800  1.0  0.121
  H  H104  1  0.000700  0.620300  0.282800  1.0  0.0895
  H  H105  1  0.054600  0.574300  0.153000  1.0  0.1099
  H  H106  1  0.928800  0.606200  0.123900  1.0  0.1256
  H  H107  1  0.969500  0.568500  0.102200  1.0  0.1359
  H  H108  1  0.927200  0.548600  0.139200  1.0  0.1159
  H  H109  1  0.813900  0.426800  0.195900  1.0  0.088
  H  H110  1  0.896900  0.304100  0.198200  1.0  0.1153
  H  H111  1  0.837800  0.247300  0.138300  1.0  0.1224
  H  H112  1  0.785100  0.272000  0.125100  1.0  0.1445
  H  H113  1  0.832700  0.283000  0.090700  1.0  0.1261
  H  H114  1  0.929200  0.501000  0.224400  1.0  0.0897
  H  H115  1  0.816200  0.442700  0.300700  1.0  0.1058
  H  H116  1  0.766900  0.526000  0.319800  1.0  0.1245
  H  H117  1  0.806300  0.570200  0.327900  1.0  0.1165
  H  H118  1  0.775900  0.566300  0.276700  1.0  0.1155
  H  H119  1  0.877900  0.302900  0.287800  1.0  0.073
  H  H120  1  0.931300  0.427100  0.348600  1.0  0.112
  H  H121  1  0.946800  0.395800  0.439300  1.0  0.1322
  H  H122  1  0.902000  0.359200  0.454100  1.0  0.1213
  H  H123  1  0.956000  0.336900  0.441800  1.0  0.1205
  H  H124  1  0.999300  0.379700  0.282800  1.0  0.0899
  H  H125  1  0.945400  0.425700  0.153000  1.0  0.1091
  H  H126  1  0.071200  0.393800  0.123900  1.0  0.1249
  H  H127  1  0.030500  0.431500  0.102200  1.0  0.1358
  H  H128  1  0.072800  0.451400  0.139200  1.0  0.1158
  H  H129  1  0.804100  0.813900  0.573200  1.0  0.0877
  H  H130  1  0.801800  0.896900  0.695900  1.0  0.1137
  H  H131  1  0.861700  0.837800  0.752700  1.0  0.1242
  H  H132  1  0.874900  0.785100  0.728000  1.0  0.1437
  H  H133  1  0.909300  0.832700  0.717000  1.0  0.1208
  H  H134  1  0.775600  0.929200  0.499000  1.0  0.0906
  H  H135  1  0.699300  0.816200  0.557300  1.0  0.107
  H  H136  1  0.680200  0.766900  0.474000  1.0  0.122
  H  H137  1  0.672100  0.806300  0.429800  1.0  0.1171
  H  H138  1  0.723300  0.775900  0.433700  1.0  0.1164
  H  H139  1  0.712200  0.877900  0.697100  1.0  0.0746
  H  H140  1  0.651400  0.931300  0.572900  1.0  0.1126
  H  H141  1  0.560700  0.946800  0.604200  1.0  0.1285
  H  H142  1  0.545900  0.902000  0.640800  1.0  0.1207
  H  H143  1  0.558200  0.956000  0.663100  1.0  0.1197
  H  H144  1  0.717200  0.999300  0.620300  1.0  0.0896
  H  H145  1  0.847000  0.945400  0.574300  1.0  0.1111
  H  H146  1  0.876100  0.071200  0.606200  1.0  0.1238
  H  H147  1  0.897800  0.030500  0.568500  1.0  0.1357
  H  H148  1  0.860800  0.072800  0.548600  1.0  0.1136
  H  H149  1  0.804100  0.186100  0.426800  1.0  0.088
  H  H150  1  0.801800  0.103100  0.304100  1.0  0.1148
  H  H151  1  0.861700  0.162200  0.247300  1.0  0.1255
  H  H152  1  0.874900  0.214900  0.272000  1.0  0.1433
  H  H153  1  0.909300  0.167300  0.283000  1.0  0.1214
  H  H154  1  0.775600  0.070800  0.501000  1.0  0.0906
  H  H155  1  0.699300  0.183800  0.442700  1.0  0.1059
  H  H156  1  0.680200  0.233100  0.526000  1.0  0.1231
  H  H157  1  0.672100  0.193700  0.570200  1.0  0.1197
  H  H158  1  0.723300  0.224100  0.566300  1.0  0.1167
  H  H159  1  0.712200  0.122100  0.302900  1.0  0.0746
  H  H160  1  0.651400  0.068700  0.427100  1.0  0.1117
  H  H161  1  0.560700  0.053200  0.395800  1.0  0.1309
  H  H162  1  0.545900  0.098000  0.359200  1.0  0.122
  H  H163  1  0.558200  0.044000  0.336900  1.0  0.1194
  H  H164  1  0.717200  0.000700  0.379700  1.0  0.0898
  H  H165  1  0.847000  0.054600  0.425700  1.0  0.1109
  H  H166  1  0.876100  0.928800  0.393800  1.0  0.1252
  H  H167  1  0.897800  0.969500  0.431500  1.0  0.1362
  H  H168  1  0.860800  0.927200  0.451400  1.0  0.1139
  H  H169  1  0.195900  0.186100  0.573200  1.0  0.0877
  H  H170  1  0.198200  0.103100  0.695900  1.0  0.1142
  H  H171  1  0.138300  0.162200  0.752700  1.0  0.1243
  H  H172  1  0.125100  0.214900  0.728000  1.0  0.143
  H  H173  1  0.090700  0.167300  0.717000  1.0  0.1195
  H  H174  1  0.224400  0.070800  0.499000  1.0  0.0902
  H  H175  1  0.300700  0.183800  0.557300  1.0  0.106
  H  H176  1  0.319800  0.233100  0.474000  1.0  0.1225
  H  H177  1  0.327900  0.193700  0.429800  1.0  0.1188
  H  H178  1  0.276700  0.224100  0.433700  1.0  0.1195
  H  H179  1  0.287800  0.122100  0.697100  1.0  0.0745
  H  H180  1  0.348600  0.068700  0.572900  1.0  0.1129
  H  H181  1  0.439300  0.053200  0.604200  1.0  0.131
  H  H182  1  0.454100  0.098000  0.640800  1.0  0.1214
  H  H183  1  0.441800  0.044000  0.663100  1.0  0.1204
  H  H184  1  0.282800  0.000700  0.620300  1.0  0.09
  H  H185  1  0.153000  0.054600  0.574300  1.0  0.111
  H  H186  1  0.123900  0.928800  0.606200  1.0  0.1248
  H  H187  1  0.102200  0.969500  0.568500  1.0  0.1343
  H  H188  1  0.139200  0.927200  0.548600  1.0  0.1134
  H  H189  1  0.195900  0.813900  0.426800  1.0  0.0889
  H  H190  1  0.198200  0.896900  0.304100  1.0  0.1152
  H  H191  1  0.138300  0.837800  0.247300  1.0  0.125
  H  H192  1  0.125100  0.785100  0.272000  1.0  0.1436
  H  H193  1  0.090700  0.832700  0.283000  1.0  0.1175
  H  H194  1  0.224400  0.929200  0.501000  1.0  0.0913
  H  H195  1  0.300700  0.816200  0.442700  1.0  0.1063
  H  H196  1  0.319800  0.766900  0.526000  1.0  0.1238
  H  H197  1  0.327900  0.806300  0.570200  1.0  0.1174
  H  H198  1  0.276700  0.775900  0.566300  1.0  0.1185
  H  H199  1  0.287800  0.877900  0.302900  1.0  0.0735
  H  H200  1  0.348600  0.931300  0.427100  1.0  0.1108
  H  H201  1  0.439300  0.946800  0.395800  1.0  0.1292
  H  H202  1  0.454100  0.902000  0.359200  1.0  0.122
  H  H203  1  0.441800  0.956000  0.336900  1.0  0.1185
  H  H204  1  0.282800  0.999300  0.379700  1.0  0.0897
  H  H205  1  0.153000  0.945400  0.425700  1.0  0.1113
  H  H206  1  0.123900  0.071200  0.393800  1.0  0.1245
  H  H207  1  0.102200  0.030500  0.431500  1.0  0.1342
  H  H208  1  0.139200  0.072800  0.451400  1.0  0.1136
  H  H209  1  0.573200  0.804100  0.813900  1.0  0.0877
  H  H210  1  0.695900  0.801800  0.896900  1.0  0.1137
  H  H211  1  0.752700  0.861700  0.837800  1.0  0.123
  H  H212  1  0.728000  0.874900  0.785100  1.0  0.1438
  H  H213  1  0.717000  0.909300  0.832700  1.0  0.1233
  H  H214  1  0.499000  0.775600  0.929200  1.0  0.0911
  H  H215  1  0.557300  0.699300  0.816200  1.0  0.1068
  H  H216  1  0.474000  0.680200  0.766900  1.0  0.123
  H  H217  1  0.429800  0.672100  0.806300  1.0  0.1158
  H  H218  1  0.433700  0.723300  0.775900  1.0  0.118
  H  H219  1  0.697100  0.712200  0.877900  1.0  0.0744
  H  H220  1  0.572900  0.651400  0.931300  1.0  0.1145
  H  H221  1  0.604200  0.560700  0.946800  1.0  0.1273
  H  H222  1  0.640800  0.545900  0.902000  1.0  0.1207
  H  H223  1  0.663100  0.558200  0.956000  1.0  0.121
  H  H224  1  0.620300  0.717200  0.999300  1.0  0.0888
  H  H225  1  0.574300  0.847000  0.945400  1.0  0.112
  H  H226  1  0.606200  0.876100  0.071200  1.0  0.122
  H  H227  1  0.568500  0.897800  0.030500  1.0  0.1369
  H  H228  1  0.548600  0.860800  0.072800  1.0  0.1121
  H  H229  1  0.426800  0.804100  0.186100  1.0  0.088
  H  H230  1  0.304100  0.801800  0.103100  1.0  0.1153
  H  H231  1  0.247300  0.861700  0.162200  1.0  0.1218
  H  H232  1  0.272000  0.874900  0.214900  1.0  0.142
  H  H233  1  0.283000  0.909300  0.167300  1.0  0.1232
  H  H234  1  0.501000  0.775600  0.070800  1.0  0.0906
  H  H235  1  0.442700  0.699300  0.183800  1.0  0.1074
  H  H236  1  0.526000  0.680200  0.233100  1.0  0.1236
  H  H237  1  0.570200  0.672100  0.193700  1.0  0.1169
  H  H238  1  0.566300  0.723300  0.224100  1.0  0.1188
  H  H239  1  0.302900  0.712200  0.122100  1.0  0.0747
  H  H240  1  0.427100  0.651400  0.068700  1.0  0.1128
  H  H241  1  0.395800  0.560700  0.053200  1.0  0.1319
  H  H242  1  0.359200  0.545900  0.098000  1.0  0.1208
  H  H243  1  0.336900  0.558200  0.044000  1.0  0.1193
  H  H244  1  0.379700  0.717200  0.000700  1.0  0.0885
  H  H245  1  0.425700  0.847000  0.054600  1.0  0.1121
  H  H246  1  0.393800  0.876100  0.928800  1.0  0.1221
  H  H247  1  0.431500  0.897800  0.969500  1.0  0.1366
  H  H248  1  0.451400  0.860800  0.927200  1.0  0.1126
  H  H249  1  0.573200  0.195900  0.186100  1.0  0.0884
  H  H250  1  0.695900  0.198200  0.103100  1.0  0.1157
  H  H251  1  0.752700  0.138300  0.162200  1.0  0.1243
  H  H252  1  0.728000  0.125100  0.214900  1.0  0.1425
  H  H253  1  0.717000  0.090700  0.167300  1.0  0.1232
  H  H254  1  0.499000  0.224400  0.070800  1.0  0.0905
  H  H255  1  0.557300  0.300700  0.183800  1.0  0.1066
  H  H256  1  0.474000  0.319800  0.233100  1.0  0.1235
  H  H257  1  0.429800  0.327900  0.193700  1.0  0.1175
  H  H258  1  0.433700  0.276700  0.224100  1.0  0.1169
  H  H259  1  0.697100  0.287800  0.122100  1.0  0.0745
  H  H260  1  0.572900  0.348600  0.068700  1.0  0.114
  H  H261  1  0.604200  0.439300  0.053200  1.0  0.1278
  H  H262  1  0.640800  0.454100  0.098000  1.0  0.1213
  H  H263  1  0.663100  0.441800  0.044000  1.0  0.1184
  H  H264  1  0.620300  0.282800  0.000700  1.0  0.0886
  H  H265  1  0.574300  0.153000  0.054600  1.0  0.1114
  H  H266  1  0.606200  0.123900  0.928800  1.0  0.1225
  H  H267  1  0.568500  0.102200  0.969500  1.0  0.136
  H  H268  1  0.548600  0.139200  0.927200  1.0  0.113
  H  H269  1  0.426800  0.195900  0.813900  1.0  0.088
  H  H270  1  0.304100  0.198200  0.896900  1.0  0.1135
  H  H271  1  0.247300  0.138300  0.837800  1.0  0.1222
  H  H272  1  0.272000  0.125100  0.785100  1.0  0.1435
  H  H273  1  0.283000  0.090700  0.832700  1.0  0.1247
  H  H274  1  0.501000  0.224400  0.929200  1.0  0.0908
  H  H275  1  0.442700  0.300700  0.816200  1.0  0.1059
  H  H276  1  0.526000  0.319800  0.766900  1.0  0.1226
  H  H277  1  0.570200  0.327900  0.806300  1.0  0.1164
  H  H278  1  0.566300  0.276700  0.775900  1.0  0.1177
  H  H279  1  0.302900  0.287800  0.877900  1.0  0.074
  H  H280  1  0.427100  0.348600  0.931300  1.0  0.1135
  H  H281  1  0.395800  0.439300  0.946800  1.0  0.1323
  H  H282  1  0.359200  0.454100  0.902000  1.0  0.121
  H  H283  1  0.336900  0.441800  0.956000  1.0  0.1204
  H  H284  1  0.379700  0.282800  0.999300  1.0  0.0888
  H  H285  1  0.425700  0.153000  0.945400  1.0  0.1118
  H  H286  1  0.393800  0.123900  0.071200  1.0  0.1228
  H  H287  1  0.431500  0.102200  0.030500  1.0  0.1355
  H  H288  1  0.451400  0.139200  0.072800  1.0  0.1126
  H  H289  1  0.573200  0.813900  0.195900  1.0  0.0877
  H  H290  1  0.695900  0.896900  0.198200  1.0  0.1141
  H  H291  1  0.752700  0.837800  0.138300  1.0  0.1249
  H  H292  1  0.728000  0.785100  0.125100  1.0  0.1447
  H  H293  1  0.717000  0.832700  0.090700  1.0  0.1239
  H  H294  1  0.499000  0.929200  0.224400  1.0  0.0905
  H  H295  1  0.557300  0.816200  0.300700  1.0  0.1076
  H  H296  1  0.474000  0.766900  0.319800  1.0  0.1249
  H  H297  1  0.429800  0.806300  0.327900  1.0  0.1176
  H  H298  1  0.433700  0.775900  0.276700  1.0  0.1156
  H  H299  1  0.697100  0.877900  0.287800  1.0  0.073
  H  H300  1  0.572900  0.931300  0.348600  1.0  0.1134
  H  H301  1  0.604200  0.946800  0.439300  1.0  0.1264
  H  H302  1  0.640800  0.902000  0.454100  1.0  0.1207
  H  H303  1  0.663100  0.956000  0.441800  1.0  0.1212
  H  H304  1  0.620300  0.999300  0.282800  1.0  0.0905
  H  H305  1  0.574300  0.945400  0.153000  1.0  0.1103
  H  H306  1  0.606200  0.071200  0.123900  1.0  0.1228
  H  H307  1  0.568500  0.030500  0.102200  1.0  0.1357
  H  H308  1  0.548600  0.072800  0.139200  1.0  0.1149
  H  H309  1  0.426800  0.186100  0.195900  1.0  0.0877
  H  H310  1  0.304100  0.103100  0.198200  1.0  0.1133
  H  H311  1  0.247300  0.162200  0.138300  1.0  0.1223
  H  H312  1  0.272000  0.214900  0.125100  1.0  0.143
  H  H313  1  0.283000  0.167300  0.090700  1.0  0.1235
  H  H314  1  0.501000  0.070800  0.224400  1.0  0.0895
  H  H315  1  0.442700  0.183800  0.300700  1.0  0.1065
  H  H316  1  0.526000  0.233100  0.319800  1.0  0.1233
  H  H317  1  0.570200  0.193700  0.327900  1.0  0.1188
  H  H318  1  0.566300  0.224100  0.276700  1.0  0.1156
  H  H319  1  0.302900  0.122100  0.287800  1.0  0.0731
  H  H320  1  0.427100  0.068700  0.348600  1.0  0.112
  H  H321  1  0.395800  0.053200  0.439300  1.0  0.1311
  H  H322  1  0.359200  0.098000  0.454100  1.0  0.1199
  H  H323  1  0.336900  0.044000  0.441800  1.0  0.1222
  H  H324  1  0.379700  0.000700  0.282800  1.0  0.0912
  H  H325  1  0.425700  0.054600  0.153000  1.0  0.1101
  H  H326  1  0.393800  0.928800  0.123900  1.0  0.1214
  H  H327  1  0.431500  0.969500  0.102200  1.0  0.1352
  H  H328  1  0.451400  0.927200  0.139200  1.0  0.1149
  H  H329  1  0.573200  0.186100  0.804100  1.0  0.088
  H  H330  1  0.695900  0.103100  0.801800  1.0  0.1146
  H  H331  1  0.752700  0.162200  0.861700  1.0  0.1242
  H  H332  1  0.728000  0.214900  0.874900  1.0  0.1433
  H  H333  1  0.717000  0.167300  0.909300  1.0  0.1212
  H  H334  1  0.499000  0.070800  0.775600  1.0  0.0903
  H  H335  1  0.557300  0.183800  0.699300  1.0  0.1061
  H  H336  1  0.474000  0.233100  0.680200  1.0  0.1229
  H  H337  1  0.429800  0.193700  0.672100  1.0  0.1171
  H  H338  1  0.433700  0.224100  0.723300  1.0  0.1146
  H  H339  1  0.697100  0.122100  0.712200  1.0  0.0739
  H  H340  1  0.572900  0.068700  0.651400  1.0  0.1131
  H  H341  1  0.604200  0.053200  0.560700  1.0  0.1253
  H  H342  1  0.640800  0.098000  0.545900  1.0  0.1209
  H  H343  1  0.663100  0.044000  0.558200  1.0  0.1213
  H  H344  1  0.620300  0.000700  0.717200  1.0  0.0892
  H  H345  1  0.574300  0.054600  0.847000  1.0  0.1099
  H  H346  1  0.606200  0.928800  0.876100  1.0  0.1221
  H  H347  1  0.568500  0.969500  0.897800  1.0  0.1356
  H  H348  1  0.548600  0.927200  0.860800  1.0  0.1154
  H  H349  1  0.426800  0.813900  0.804100  1.0  0.0876
  H  H350  1  0.304100  0.896900  0.801800  1.0  0.1137
  H  H351  1  0.247300  0.837800  0.861700  1.0  0.1221
  H  H352  1  0.272000  0.785100  0.874900  1.0  0.1439
  H  H353  1  0.283000  0.832700  0.909300  1.0  0.1222
  H  H354  1  0.501000  0.929200  0.775600  1.0  0.0899
  H  H355  1  0.442700  0.816200  0.699300  1.0  0.1056
  H  H356  1  0.526000  0.766900  0.680200  1.0  0.123
  H  H357  1  0.570200  0.806300  0.672100  1.0  0.1158
  H  H358  1  0.566300  0.775900  0.723300  1.0  0.1148
  H  H359  1  0.302900  0.877900  0.712200  1.0  0.0738
  H  H360  1  0.427100  0.931300  0.651400  1.0  0.1125
  H  H361  1  0.395800  0.946800  0.560700  1.0  0.1319
  H  H362  1  0.359200  0.902000  0.545900  1.0  0.1203
  H  H363  1  0.336900  0.956000  0.558200  1.0  0.1219
  H  H364  1  0.379700  0.999300  0.717200  1.0  0.0899
  H  H365  1  0.425700  0.945400  0.847000  1.0  0.111
  H  H366  1  0.393800  0.071200  0.876100  1.0  0.123
  H  H367  1  0.431500  0.030500  0.897800  1.0  0.1369
  H  H368  1  0.451400  0.072800  0.860800  1.0  0.1142
  H  H369  1  0.813900  0.804100  0.426800  1.0  0.0885
  H  H370  1  0.896900  0.801800  0.304100  1.0  0.1156
  H  H371  1  0.837800  0.861700  0.247300  1.0  0.1251
  H  H372  1  0.785100  0.874900  0.272000  1.0  0.1456
  H  H373  1  0.832700  0.909300  0.283000  1.0  0.127
  H  H374  1  0.929200  0.775600  0.501000  1.0  0.0903
  H  H375  1  0.816200  0.699300  0.442700  1.0  0.1061
  H  H376  1  0.766900  0.680200  0.526000  1.0  0.1233
  H  H377  1  0.806300  0.672100  0.570200  1.0  0.1168
  H  H378  1  0.775900  0.723300  0.566300  1.0  0.1187
  H  H379  1  0.877900  0.712200  0.302900  1.0  0.0741
  H  H380  1  0.931300  0.651400  0.427100  1.0  0.1113
  H  H381  1  0.946800  0.560700  0.395800  1.0  0.1299
  H  H382  1  0.902000  0.545900  0.359200  1.0  0.1222
  H  H383  1  0.956000  0.558200  0.336900  1.0  0.1179
  H  H384  1  0.999300  0.717200  0.379700  1.0  0.0893
  H  H385  1  0.945400  0.847000  0.425700  1.0  0.1111
  H  H386  1  0.071200  0.876100  0.393800  1.0  0.125
  H  H387  1  0.030500  0.897800  0.431500  1.0  0.1361
  H  H388  1  0.072800  0.860800  0.451400  1.0  0.1115
  H  H389  1  0.186100  0.804100  0.573200  1.0  0.0874
  H  H390  1  0.103100  0.801800  0.695900  1.0  0.1134
  H  H391  1  0.162200  0.861700  0.752700  1.0  0.1233
  H  H392  1  0.214900  0.874900  0.728000  1.0  0.1425
  H  H393  1  0.167300  0.909300  0.717000  1.0  0.1249
  H  H394  1  0.070800  0.775600  0.499000  1.0  0.0903
  H  H395  1  0.183800  0.699300  0.557300  1.0  0.1066
  H  H396  1  0.233100  0.680200  0.474000  1.0  0.1238
  H  H397  1  0.193700  0.672100  0.429800  1.0  0.1163
  H  H398  1  0.224100  0.723300  0.433700  1.0  0.1193
  H  H399  1  0.122100  0.712200  0.697100  1.0  0.0746
  H  H400  1  0.068700  0.651400  0.572900  1.0  0.112
  H  H401  1  0.053200  0.560700  0.604200  1.0  0.128
  H  H402  1  0.098000  0.545900  0.640800  1.0  0.1216
  H  H403  1  0.044000  0.558200  0.663100  1.0  0.1199
  H  H404  1  0.000700  0.717200  0.620300  1.0  0.0893
  H  H405  1  0.054600  0.847000  0.574300  1.0  0.1114
  H  H406  1  0.928800  0.876100  0.606200  1.0  0.1255
  H  H407  1  0.969500  0.897800  0.568500  1.0  0.1352
  H  H408  1  0.927200  0.860800  0.548600  1.0  0.1123
  H  H409  1  0.186100  0.195900  0.426800  1.0  0.0883
  H  H410  1  0.103100  0.198200  0.304100  1.0  0.1144
  H  H411  1  0.162200  0.138300  0.247300  1.0  0.1248
  H  H412  1  0.214900  0.125100  0.272000  1.0  0.1433
  H  H413  1  0.167300  0.090700  0.283000  1.0  0.1261
  H  H414  1  0.070800  0.224400  0.501000  1.0  0.0902
  H  H415  1  0.183800  0.300700  0.442700  1.0  0.1056
  H  H416  1  0.233100  0.319800  0.526000  1.0  0.1246
  H  H417  1  0.193700  0.327900  0.570200  1.0  0.1161
  H  H418  1  0.224100  0.276700  0.566300  1.0  0.1173
  H  H419  1  0.122100  0.287800  0.302900  1.0  0.0746
  H  H420  1  0.068700  0.348600  0.427100  1.0  0.1112
  H  H421  1  0.053200  0.439300  0.395800  1.0  0.1288
  H  H422  1  0.098000  0.454100  0.359200  1.0  0.1216
  H  H423  1  0.044000  0.441800  0.336900  1.0  0.1193
  H  H424  1  0.000700  0.282800  0.379700  1.0  0.0893
  H  H425  1  0.054600  0.153000  0.425700  1.0  0.1109
  H  H426  1  0.928800  0.123900  0.393800  1.0  0.1252
  H  H427  1  0.969500  0.102200  0.431500  1.0  0.1353
  H  H428  1  0.927200  0.139200  0.451400  1.0  0.1123
  H  H429  1  0.813900  0.195900  0.573200  1.0  0.0882
  H  H430  1  0.896900  0.198200  0.695900  1.0  0.114
  H  H431  1  0.837800  0.138300  0.752700  1.0  0.1238
  H  H432  1  0.785100  0.125100  0.728000  1.0  0.1448
  H  H433  1  0.832700  0.090700  0.717000  1.0  0.1268
  H  H434  1  0.929200  0.224400  0.499000  1.0  0.0897
  H  H435  1  0.816200  0.300700  0.557300  1.0  0.1058
  H  H436  1  0.766900  0.319800  0.474000  1.0  0.123
  H  H437  1  0.806300  0.327900  0.429800  1.0  0.1157
  H  H438  1  0.775900  0.276700  0.433700  1.0  0.1168
  H  H439  1  0.877900  0.287800  0.697100  1.0  0.0747
  H  H440  1  0.931300  0.348600  0.572900  1.0  0.1123
  H  H441  1  0.946800  0.439300  0.604200  1.0  0.1288
  H  H442  1  0.902000  0.454100  0.640800  1.0  0.1213
  H  H443  1  0.956000  0.441800  0.663100  1.0  0.1189
  H  H444  1  0.999300  0.282800  0.620300  1.0  0.0886
  H  H445  1  0.945400  0.153000  0.574300  1.0  0.1102
  H  H446  1  0.071200  0.123900  0.606200  1.0  0.1262
  H  H447  1  0.030500  0.102200  0.568500  1.0  0.1344
  H  H448  1  0.072800  0.139200  0.548600  1.0  0.1116
  H  H449  1  0.804100  0.573200  0.186100  1.0  0.0877
  H  H450  1  0.801800  0.695900  0.103100  1.0  0.1159
  H  H451  1  0.861700  0.752700  0.162200  1.0  0.1234
  H  H452  1  0.874900  0.728000  0.214900  1.0  0.1418
  H  H453  1  0.909300  0.717000  0.167300  1.0  0.1202
  H  H454  1  0.775600  0.499000  0.070800  1.0  0.0906
  H  H455  1  0.699300  0.557300  0.183800  1.0  0.1058
  H  H456  1  0.680200  0.474000  0.233100  1.0  0.1237
  H  H457  1  0.672100  0.429800  0.193700  1.0  0.1175
  H  H458  1  0.723300  0.433700  0.224100  1.0  0.1182
  H  H459  1  0.712200  0.697100  0.122100  1.0  0.0752
  H  H460  1  0.651400  0.572900  0.068700  1.0  0.113
  H  H461  1  0.560700  0.604200  0.053200  1.0  0.1319
  H  H462  1  0.545900  0.640800  0.098000  1.0  0.1207
  H  H463  1  0.558200  0.663100  0.044000  1.0  0.1181
  H  H464  1  0.717200  0.620300  0.000700  1.0  0.0887
  H  H465  1  0.847000  0.574300  0.054600  1.0  0.1114
  H  H466  1  0.876100  0.606200  0.928800  1.0  0.1231
  H  H467  1  0.897800  0.568500  0.969500  1.0  0.1358
  H  H468  1  0.860800  0.548600  0.927200  1.0  0.1141
  H  H469  1  0.804100  0.426800  0.813900  1.0  0.088
  H  H470  1  0.801800  0.304100  0.896900  1.0  0.1152
  H  H471  1  0.861700  0.247300  0.837800  1.0  0.1221
  H  H472  1  0.874900  0.272000  0.785100  1.0  0.143
  H  H473  1  0.909300  0.283000  0.832700  1.0  0.1198
  H  H474  1  0.775600  0.501000  0.929200  1.0  0.0911
  H  H475  1  0.699300  0.442700  0.816200  1.0  0.1045
  H  H476  1  0.680200  0.526000  0.766900  1.0  0.1216
  H  H477  1  0.672100  0.570200  0.806300  1.0  0.1171
  H  H478  1  0.723300  0.566300  0.775900  1.0  0.116
  H  H479  1  0.712200  0.302900  0.877900  1.0  0.075
  H  H480  1  0.651400  0.427100  0.931300  1.0  0.1129
  H  H481  1  0.560700  0.395800  0.946800  1.0  0.1315
  H  H482  1  0.545900  0.359200  0.902000  1.0  0.1201
  H  H483  1  0.558200  0.336900  0.956000  1.0  0.1206
  H  H484  1  0.717200  0.379700  0.999300  1.0  0.0887
  H  H485  1  0.847000  0.425700  0.945400  1.0  0.1111
  H  H486  1  0.876100  0.393800  0.071200  1.0  0.1238
  H  H487  1  0.897800  0.431500  0.030500  1.0  0.1357
  H  H488  1  0.860800  0.451400  0.072800  1.0  0.1143
  H  H489  1  0.195900  0.573200  0.813900  1.0  0.0879
  H  H490  1  0.198200  0.695900  0.896900  1.0  0.1153
  H  H491  1  0.138300  0.752700  0.837800  1.0  0.1222
  H  H492  1  0.125100  0.728000  0.785100  1.0  0.1424
  H  H493  1  0.090700  0.717000  0.832700  1.0  0.118
  H  H494  1  0.224400  0.499000  0.929200  1.0  0.0913
  H  H495  1  0.300700  0.557300  0.816200  1.0  0.1058
  H  H496  1  0.319800  0.474000  0.766900  1.0  0.1231
  H  H497  1  0.327900  0.429800  0.806300  1.0  0.1169
  H  H498  1  0.276700  0.433700  0.775900  1.0  0.1193
  H  H499  1  0.287800  0.697100  0.877900  1.0  0.0746
  H  H500  1  0.348600  0.572900  0.931300  1.0  0.1131
  H  H501  1  0.439300  0.604200  0.946800  1.0  0.1333
  H  H502  1  0.454100  0.640800  0.902000  1.0  0.1207
  H  H503  1  0.441800  0.663100  0.956000  1.0  0.1192
  H  H504  1  0.282800  0.620300  0.999300  1.0  0.0884
  H  H505  1  0.153000  0.574300  0.945400  1.0  0.1118
  H  H506  1  0.123900  0.606200  0.071200  1.0  0.1235
  H  H507  1  0.102200  0.568500  0.030500  1.0  0.1341
  H  H508  1  0.139200  0.548600  0.072800  1.0  0.1141
  H  H509  1  0.195900  0.426800  0.186100  1.0  0.0881
  H  H510  1  0.198200  0.304100  0.103100  1.0  0.1171
  H  H511  1  0.138300  0.247300  0.162200  1.0  0.1219
  H  H512  1  0.125100  0.272000  0.214900  1.0  0.141
  H  H513  1  0.090700  0.283000  0.167300  1.0  0.1192
  H  H514  1  0.224400  0.501000  0.070800  1.0  0.0909
  H  H515  1  0.300700  0.442700  0.183800  1.0  0.1053
  H  H516  1  0.319800  0.526000  0.233100  1.0  0.1233
  H  H517  1  0.327900  0.570200  0.193700  1.0  0.1173
  H  H518  1  0.276700  0.566300  0.224100  1.0  0.1181
  H  H519  1  0.287800  0.302900  0.122100  1.0  0.0743
  H  H520  1  0.348600  0.427100  0.068700  1.0  0.1123
  H  H521  1  0.439300  0.395800  0.053200  1.0  0.1317
  H  H522  1  0.454100  0.359200  0.098000  1.0  0.1206
  H  H523  1  0.441800  0.336900  0.044000  1.0  0.1184
  H  H524  1  0.282800  0.379700  0.000700  1.0  0.0884
  H  H525  1  0.153000  0.425700  0.054600  1.0  0.1114
  H  H526  1  0.123900  0.393800  0.928800  1.0  0.1234
  H  H527  1  0.102200  0.431500  0.969500  1.0  0.1341
  H  H528  1  0.139200  0.451400  0.927200  1.0  0.1151
  C  C529  1  0.826230  0.605620  0.811310  1.0  0.1753
  C  C530  1  0.834140  0.678550  0.843190  1.0  0.1555
  C  C531  1  0.871630  0.672290  0.809440  1.0  -0.0771
  C  C532  1  0.821300  0.722900  0.875100  1.0  -0.4254
  C  C533  1  0.899120  0.502250  0.757060  1.0  0.1823
  C  C534  1  0.831970  0.484710  0.718010  1.0  0.2055
  C  C535  1  0.837790  0.534420  0.715600  1.0  -0.0498
  C  C536  1  0.791800  0.452800  0.696600  1.0  -0.4272
  C  C537  1  0.890820  0.674020  0.688640  1.0  0.1882
  C  C538  1  0.917680  0.641640  0.620790  1.0  0.1876
  C  C539  1  0.919850  0.606150  0.656000  1.0  -0.0359
  C  C540  1  0.931900  0.637000  0.566680  1.0  -0.4624
  C  C541  1  0.997130  0.609120  0.750790  1.0  0.1598
  C  C542  1  0.017410  0.587530  0.824600  1.0  0.1642
  C  C543  1  0.967510  0.584160  0.821140  1.0  -0.0836
  C  C544  1  0.050900  0.576800  0.868700  1.0  -0.4565
  C  C545  1  0.173770  0.394380  0.811310  1.0  0.1757
  C  C546  1  0.165860  0.321450  0.843190  1.0  0.1566
  C  C547  1  0.128370  0.327710  0.809440  1.0  -0.0769
  C  C548  1  0.178700  0.277100  0.875100  1.0  -0.4227
  C  C549  1  0.100880  0.497750  0.757060  1.0  0.1813
  C  C550  1  0.168030  0.515290  0.718010  1.0  0.2068
  C  C551  1  0.162210  0.465580  0.715600  1.0  -0.0504
  C  C552  1  0.208200  0.547200  0.696600  1.0  -0.4299
  C  C553  1  0.109180  0.325980  0.688640  1.0  0.1887
  C  C554  1  0.082320  0.358360  0.620790  1.0  0.1881
  C  C555  1  0.080150  0.393850  0.656000  1.0  -0.0355
  C  C556  1  0.068100  0.363000  0.566680  1.0  -0.4649
  C  C557  1  0.002870  0.390880  0.750790  1.0  0.1598
  C  C558  1  0.982590  0.412470  0.824600  1.0  0.1652
  C  C559  1  0.032490  0.415840  0.821140  1.0  -0.0829
  C  C560  1  0.949100  0.423200  0.868700  1.0  -0.455
  C  C561  1  0.173770  0.605620  0.188690  1.0  0.176
  C  C562  1  0.165860  0.678550  0.156810  1.0  0.1552
  C  C563  1  0.128370  0.672290  0.190560  1.0  -0.079
  C  C564  1  0.178700  0.722900  0.124900  1.0  -0.4235
  C  C565  1  0.100880  0.502250  0.242940  1.0  0.1814
  C  C566  1  0.168030  0.484710  0.281990  1.0  0.2044
  C  C567  1  0.162210  0.534420  0.284400  1.0  -0.0478
  C  C568  1  0.208200  0.452800  0.303400  1.0  -0.4276
  C  C569  1  0.109180  0.674020  0.311360  1.0  0.1885
  C  C570  1  0.082320  0.641640  0.379210  1.0  0.1875
  C  C571  1  0.080150  0.606150  0.344000  1.0  -0.0355
  C  C572  1  0.068100  0.637000  0.433320  1.0  -0.4625
  C  C573  1  0.002870  0.609120  0.249210  1.0  0.1592
  C  C574  1  0.982590  0.587530  0.175400  1.0  0.1653
  C  C575  1  0.032490  0.584160  0.178860  1.0  -0.0828
  C  C576  1  0.949100  0.576800  0.131300  1.0  -0.457
  C  C577  1  0.826230  0.394380  0.188690  1.0  0.1748
  C  C578  1  0.834140  0.321450  0.156810  1.0  0.1563
  C  C579  1  0.871630  0.327710  0.190560  1.0  -0.0782
  C  C580  1  0.821300  0.277100  0.124900  1.0  -0.4239
  C  C581  1  0.899120  0.497750  0.242940  1.0  0.1811
  C  C582  1  0.831970  0.515290  0.281990  1.0  0.2032
  C  C583  1  0.837790  0.465580  0.284400  1.0  -0.0481
  C  C584  1  0.791800  0.547200  0.303400  1.0  -0.4269
  C  C585  1  0.890820  0.325980  0.311360  1.0  0.1878
  C  C586  1  0.917680  0.358360  0.379210  1.0  0.1875
  C  C587  1  0.919850  0.393850  0.344000  1.0  -0.0355
  C  C588  1  0.931900  0.363000  0.433320  1.0  -0.4633
  C  C589  1  0.997130  0.390880  0.249210  1.0  0.1618
  C  C590  1  0.017410  0.412470  0.175400  1.0  0.1647
  C  C591  1  0.967510  0.415840  0.178860  1.0  -0.0835
  C  C592  1  0.050900  0.423200  0.131300  1.0  -0.4549
  C  C593  1  0.811310  0.826230  0.605620  1.0  0.1792
  C  C594  1  0.843190  0.834140  0.678550  1.0  0.1537
  C  C595  1  0.809440  0.871630  0.672290  1.0  -0.0746
  C  C596  1  0.875100  0.821300  0.722900  1.0  -0.4218
  C  C597  1  0.757060  0.899120  0.502250  1.0  0.1804
  C  C598  1  0.718010  0.831970  0.484710  1.0  0.2036
  C  C599  1  0.715600  0.837790  0.534420  1.0  -0.0507
  C  C600  1  0.696600  0.791800  0.452800  1.0  -0.4303
  C  C601  1  0.688640  0.890820  0.674020  1.0  0.1895
  C  C602  1  0.620790  0.917680  0.641640  1.0  0.1852
  C  C603  1  0.656000  0.919850  0.606150  1.0  -0.0323
  C  C604  1  0.566680  0.931900  0.637000  1.0  -0.4545
  C  C605  1  0.750790  0.997130  0.609120  1.0  0.1604
  C  C606  1  0.824600  0.017410  0.587530  1.0  0.1686
  C  C607  1  0.821140  0.967510  0.584160  1.0  -0.0875
  C  C608  1  0.868700  0.050900  0.576800  1.0  -0.4552
  C  C609  1  0.811310  0.173770  0.394380  1.0  0.177
  C  C610  1  0.843190  0.165860  0.321450  1.0  0.1542
  C  C611  1  0.809440  0.128370  0.327710  1.0  -0.0742
  C  C612  1  0.875100  0.178700  0.277100  1.0  -0.422
  C  C613  1  0.757060  0.100880  0.497750  1.0  0.1805
  C  C614  1  0.718010  0.168030  0.515290  1.0  0.2041
  C  C615  1  0.715600  0.162210  0.465580  1.0  -0.0513
  C  C616  1  0.696600  0.208200  0.547200  1.0  -0.4295
  C  C617  1  0.688640  0.109180  0.325980  1.0  0.1892
  C  C618  1  0.620790  0.082320  0.358360  1.0  0.1861
  C  C619  1  0.656000  0.080150  0.393850  1.0  -0.0326
  C  C620  1  0.566680  0.068100  0.363000  1.0  -0.4539
  C  C621  1  0.750790  0.002870  0.390880  1.0  0.1611
  C  C622  1  0.824600  0.982590  0.412470  1.0  0.1683
  C  C623  1  0.821140  0.032490  0.415840  1.0  -0.0877
  C  C624  1  0.868700  0.949100  0.423200  1.0  -0.4534
  C  C625  1  0.188690  0.173770  0.605620  1.0  0.1795
  C  C626  1  0.156810  0.165860  0.678550  1.0  0.1526
  C  C627  1  0.190560  0.128370  0.672290  1.0  -0.0739
  C  C628  1  0.124900  0.178700  0.722900  1.0  -0.4214
  C  C629  1  0.242940  0.100880  0.502250  1.0  0.1804
  C  C630  1  0.281990  0.168030  0.484710  1.0  0.2058
  C  C631  1  0.284400  0.162210  0.534420  1.0  -0.0505
  C  C632  1  0.303400  0.208200  0.452800  1.0  -0.4304
  C  C633  1  0.311360  0.109180  0.674020  1.0  0.1877
  C  C634  1  0.379210  0.082320  0.641640  1.0  0.1879
  C  C635  1  0.344000  0.080150  0.606150  1.0  -0.0331
  C  C636  1  0.433320  0.068100  0.637000  1.0  -0.4558
  C  C637  1  0.249210  0.002870  0.609120  1.0  0.1616
  C  C638  1  0.175400  0.982590  0.587530  1.0  0.1685
  C  C639  1  0.178860  0.032490  0.584160  1.0  -0.0868
  C  C640  1  0.131300  0.949100  0.576800  1.0  -0.4551
  C  C641  1  0.188690  0.826230  0.394380  1.0  0.1789
  C  C642  1  0.156810  0.834140  0.321450  1.0  0.1524
  C  C643  1  0.190560  0.871630  0.327710  1.0  -0.0733
  C  C644  1  0.124900  0.821300  0.277100  1.0  -0.4204
  C  C645  1  0.242940  0.899120  0.497750  1.0  0.1793
  C  C646  1  0.281990  0.831970  0.515290  1.0  0.2045
  C  C647  1  0.284400  0.837790  0.465580  1.0  -0.0518
  C  C648  1  0.303400  0.791800  0.547200  1.0  -0.4285
  C  C649  1  0.311360  0.890820  0.325980  1.0  0.1887
  C  C650  1  0.379210  0.917680  0.358360  1.0  0.1879
  C  C651  1  0.344000  0.919850  0.393850  1.0  -0.0323
  C  C652  1  0.433320  0.931900  0.363000  1.0  -0.4532
  C  C653  1  0.249210  0.997130  0.390880  1.0  0.1603
  C  C654  1  0.175400  0.017410  0.412470  1.0  0.1688
  C  C655  1  0.178860  0.967510  0.415840  1.0  -0.0875
  C  C656  1  0.131300  0.050900  0.423200  1.0  -0.4531
  C  C657  1  0.605620  0.811310  0.826230  1.0  0.1787
  C  C658  1  0.678550  0.843190  0.834140  1.0  0.1563
  C  C659  1  0.672290  0.809440  0.871630  1.0  -0.0772
  C  C660  1  0.722900  0.875100  0.821300  1.0  -0.4233
  C  C661  1  0.502250  0.757060  0.899120  1.0  0.18
  C  C662  1  0.484710  0.718010  0.831970  1.0  0.2026
  C  C663  1  0.534420  0.715600  0.837790  1.0  -0.0511
  C  C664  1  0.452800  0.696600  0.791800  1.0  -0.4256
  C  C665  1  0.674020  0.688640  0.890820  1.0  0.1886
  C  C666  1  0.641640  0.620790  0.917680  1.0  0.1878
  C  C667  1  0.606150  0.656000  0.919850  1.0  -0.0353
  C  C668  1  0.637000  0.566680  0.931900  1.0  -0.4568
  C  C669  1  0.609120  0.750790  0.997130  1.0  0.1601
  C  C670  1  0.587530  0.824600  0.017410  1.0  0.1653
  C  C671  1  0.584160  0.821140  0.967510  1.0  -0.0853
  C  C672  1  0.576800  0.868700  0.050900  1.0  -0.458
  C  C673  1  0.394380  0.811310  0.173770  1.0  0.1778
  C  C674  1  0.321450  0.843190  0.165860  1.0  0.154
  C  C675  1  0.327710  0.809440  0.128370  1.0  -0.0775
  C  C676  1  0.277100  0.875100  0.178700  1.0  -0.4232
  C  C677  1  0.497750  0.757060  0.100880  1.0  0.1795
  C  C678  1  0.515290  0.718010  0.168030  1.0  0.2011
  C  C679  1  0.465580  0.715600  0.162210  1.0  -0.0483
  C  C680  1  0.547200  0.696600  0.208200  1.0  -0.4264
  C  C681  1  0.325980  0.688640  0.109180  1.0  0.187
  C  C682  1  0.358360  0.620790  0.082320  1.0  0.1882
  C  C683  1  0.393850  0.656000  0.080150  1.0  -0.0348
  C  C684  1  0.363000  0.566680  0.068100  1.0  -0.4564
  C  C685  1  0.390880  0.750790  0.002870  1.0  0.1603
  C  C686  1  0.412470  0.824600  0.982590  1.0  0.1647
  C  C687  1  0.415840  0.821140  0.032490  1.0  -0.0859
  C  C688  1  0.423200  0.868700  0.949100  1.0  -0.4568
  C  C689  1  0.605620  0.188690  0.173770  1.0  0.1786
  C  C690  1  0.678550  0.156810  0.165860  1.0  0.1567
  C  C691  1  0.672290  0.190560  0.128370  1.0  -0.0771
  C  C692  1  0.722900  0.124900  0.178700  1.0  -0.4226
  C  C693  1  0.502250  0.242940  0.100880  1.0  0.1812
  C  C694  1  0.484710  0.281990  0.168030  1.0  0.2014
  C  C695  1  0.534420  0.284400  0.162210  1.0  -0.0482
  C  C696  1  0.452800  0.303400  0.208200  1.0  -0.4288
  C  C697  1  0.674020  0.311360  0.109180  1.0  0.1883
  C  C698  1  0.641640  0.379210  0.082320  1.0  0.1884
  C  C699  1  0.606150  0.344000  0.080150  1.0  -0.0351
  C  C700  1  0.637000  0.433320  0.068100  1.0  -0.4552
  C  C701  1  0.609120  0.249210  0.002870  1.0  0.1605
  C  C702  1  0.587530  0.175400  0.982590  1.0  0.1662
  C  C703  1  0.584160  0.178860  0.032490  1.0  -0.0837
  C  C704  1  0.576800  0.131300  0.949100  1.0  -0.4573
  C  C705  1  0.394380  0.188690  0.826230  1.0  0.1779
  C  C706  1  0.321450  0.156810  0.834140  1.0  0.1543
  C  C707  1  0.327710  0.190560  0.871630  1.0  -0.0775
  C  C708  1  0.277100  0.124900  0.821300  1.0  -0.4236
  C  C709  1  0.497750  0.242940  0.899120  1.0  0.1798
  C  C710  1  0.515290  0.281990  0.831970  1.0  0.2034
  C  C711  1  0.465580  0.284400  0.837790  1.0  -0.05
  C  C712  1  0.547200  0.303400  0.791800  1.0  -0.4281
  C  C713  1  0.325980  0.311360  0.890820  1.0  0.1883
  C  C714  1  0.358360  0.379210  0.917680  1.0  0.188
  C  C715  1  0.393850  0.344000  0.919850  1.0  -0.035
  C  C716  1  0.363000  0.433320  0.931900  1.0  -0.4565
  C  C717  1  0.390880  0.249210  0.997130  1.0  0.159
  C  C718  1  0.412470  0.175400  0.017410  1.0  0.1667
  C  C719  1  0.415840  0.178860  0.967510  1.0  -0.0845
  C  C720  1  0.423200  0.131300  0.050900  1.0  -0.4525
  C  C721  1  0.605620  0.826230  0.188690  1.0  0.178
  C  C722  1  0.678550  0.834140  0.156810  1.0  0.1556
  C  C723  1  0.672290  0.871630  0.190560  1.0  -0.0782
  C  C724  1  0.722900  0.821300  0.124900  1.0  -0.4221
  C  C725  1  0.502250  0.899120  0.242940  1.0  0.1805
  C  C726  1  0.484710  0.831970  0.281990  1.0  0.2033
  C  C727  1  0.534420  0.837790  0.284400  1.0  -0.0481
  C  C728  1  0.452800  0.791800  0.303400  1.0  -0.427
  C  C729  1  0.674020  0.890820  0.311360  1.0  0.1885
  C  C730  1  0.641640  0.917680  0.379210  1.0  0.1878
  C  C731  1  0.606150  0.919850  0.344000  1.0  -0.0343
  C  C732  1  0.637000  0.931900  0.433320  1.0  -0.4601
  C  C733  1  0.609120  0.997130  0.249210  1.0  0.1623
  C  C734  1  0.587530  0.017410  0.175400  1.0  0.1651
  C  C735  1  0.584160  0.967510  0.178860  1.0  -0.0833
  C  C736  1  0.576800  0.050900  0.131300  1.0  -0.4574
  C  C737  1  0.394380  0.173770  0.188690  1.0  0.1768
  C  C738  1  0.321450  0.165860  0.156810  1.0  0.1535
  C  C739  1  0.327710  0.128370  0.190560  1.0  -0.0785
  C  C740  1  0.277100  0.178700  0.124900  1.0  -0.4228
  C  C741  1  0.497750  0.100880  0.242940  1.0  0.1797
  C  C742  1  0.515290  0.168030  0.281990  1.0  0.2031
  C  C743  1  0.465580  0.162210  0.284400  1.0  -0.0506
  C  C744  1  0.547200  0.208200  0.303400  1.0  -0.4286
  C  C745  1  0.325980  0.109180  0.311360  1.0  0.1875
  C  C746  1  0.358360  0.082320  0.379210  1.0  0.1877
  C  C747  1  0.393850  0.080150  0.344000  1.0  -0.0339
  C  C748  1  0.363000  0.068100  0.433320  1.0  -0.4604
  C  C749  1  0.390880  0.002870  0.249210  1.0  0.1625
  C  C750  1  0.412470  0.982590  0.175400  1.0  0.1638
  C  C751  1  0.415840  0.032490  0.178860  1.0  -0.0828
  C  C752  1  0.423200  0.949100  0.131300  1.0  -0.4547
  C  C753  1  0.605620  0.173770  0.811310  1.0  0.1766
  C  C754  1  0.678550  0.165860  0.843190  1.0  0.1559
  C  C755  1  0.672290  0.128370  0.809440  1.0  -0.078
  C  C756  1  0.722900  0.178700  0.875100  1.0  -0.4225
  C  C757  1  0.502250  0.100880  0.757060  1.0  0.1814
  C  C758  1  0.484710  0.168030  0.718010  1.0  0.2054
  C  C759  1  0.534420  0.162210  0.715600  1.0  -0.0504
  C  C760  1  0.452800  0.208200  0.696600  1.0  -0.4282
  C  C761  1  0.674020  0.109180  0.688640  1.0  0.1888
  C  C762  1  0.641640  0.082320  0.620790  1.0  0.1879
  C  C763  1  0.606150  0.080150  0.656000  1.0  -0.0345
  C  C764  1  0.637000  0.068100  0.566680  1.0  -0.4611
  C  C765  1  0.609120  0.002870  0.750790  1.0  0.1617
  C  C766  1  0.587530  0.982590  0.824600  1.0  0.1644
  C  C767  1  0.584160  0.032490  0.821140  1.0  -0.0832
  C  C768  1  0.576800  0.949100  0.868700  1.0  -0.4578
  C  C769  1  0.394380  0.826230  0.811310  1.0  0.1763
  C  C770  1  0.321450  0.834140  0.843190  1.0  0.1532
  C  C771  1  0.327710  0.871630  0.809440  1.0  -0.0777
  C  C772  1  0.277100  0.821300  0.875100  1.0  -0.423
  C  C773  1  0.497750  0.899120  0.757060  1.0  0.1799
  C  C774  1  0.515290  0.831970  0.718010  1.0  0.2043
  C  C775  1  0.465580  0.837790  0.715600  1.0  -0.051
  C  C776  1  0.547200  0.791800  0.696600  1.0  -0.4291
  C  C777  1  0.325980  0.890820  0.688640  1.0  0.1885
  C  C778  1  0.358360  0.917680  0.620790  1.0  0.1881
  C  C779  1  0.393850  0.919850  0.656000  1.0  -0.0343
  C  C780  1  0.363000  0.931900  0.566680  1.0  -0.462
  C  C781  1  0.390880  0.997130  0.750790  1.0  0.1604
  C  C782  1  0.412470  0.017410  0.824600  1.0  0.1638
  C  C783  1  0.415840  0.967510  0.821140  1.0  -0.0826
  C  C784  1  0.423200  0.050900  0.868700  1.0  -0.4546
  C  C785  1  0.826230  0.811310  0.394380  1.0  0.1774
  C  C786  1  0.834140  0.843190  0.321450  1.0  0.154
  C  C787  1  0.871630  0.809440  0.327710  1.0  -0.0746
  C  C788  1  0.821300  0.875100  0.277100  1.0  -0.4223
  C  C789  1  0.899120  0.757060  0.497750  1.0  0.1802
  C  C790  1  0.831970  0.718010  0.515290  1.0  0.2017
  C  C791  1  0.837790  0.715600  0.465580  1.0  -0.0502
  C  C792  1  0.791800  0.696600  0.547200  1.0  -0.4275
  C  C793  1  0.890820  0.688640  0.325980  1.0  0.1884
  C  C794  1  0.917680  0.620790  0.358360  1.0  0.1882
  C  C795  1  0.919850  0.656000  0.393850  1.0  -0.0328
  C  C796  1  0.931900  0.566680  0.363000  1.0  -0.4587
  C  C797  1  0.997130  0.750790  0.390880  1.0  0.1609
  C  C798  1  0.017410  0.824600  0.412470  1.0  0.1662
  C  C799  1  0.967510  0.821140  0.415840  1.0  -0.0872
  C  C800  1  0.050900  0.868700  0.423200  1.0  -0.4575
  C  C801  1  0.173770  0.811310  0.605620  1.0  0.1794
  C  C802  1  0.165860  0.843190  0.678550  1.0  0.1536
  C  C803  1  0.128370  0.809440  0.672290  1.0  -0.0757
  C  C804  1  0.178700  0.875100  0.722900  1.0  -0.4225
  C  C805  1  0.100880  0.757060  0.502250  1.0  0.1806
  C  C806  1  0.168030  0.718010  0.484710  1.0  0.2031
  C  C807  1  0.162210  0.715600  0.534420  1.0  -0.0503
  C  C808  1  0.208200  0.696600  0.452800  1.0  -0.4302
  C  C809  1  0.109180  0.688640  0.674020  1.0  0.1887
  C  C810  1  0.082320  0.620790  0.641640  1.0  0.1879
  C  C811  1  0.080150  0.656000  0.606150  1.0  -0.0344
  C  C812  1  0.068100  0.566680  0.637000  1.0  -0.461
  C  C813  1  0.002870  0.750790  0.609120  1.0  0.1607
  C  C814  1  0.982590  0.824600  0.587530  1.0  0.1661
  C  C815  1  0.032490  0.821140  0.584160  1.0  -0.0864
  C  C816  1  0.949100  0.868700  0.576800  1.0  -0.4582
  C  C817  1  0.173770  0.188690  0.394380  1.0  0.1781
  C  C818  1  0.165860  0.156810  0.321450  1.0  0.1542
  C  C819  1  0.128370  0.190560  0.327710  1.0  -0.0745
  C  C820  1  0.178700  0.124900  0.277100  1.0  -0.4221
  C  C821  1  0.100880  0.242940  0.497750  1.0  0.1813
  C  C822  1  0.168030  0.281990  0.515290  1.0  0.2037
  C  C823  1  0.162210  0.284400  0.465580  1.0  -0.0506
  C  C824  1  0.208200  0.303400  0.547200  1.0  -0.4307
  C  C825  1  0.109180  0.311360  0.325980  1.0  0.1892
  C  C826  1  0.082320  0.379210  0.358360  1.0  0.1887
  C  C827  1  0.080150  0.344000  0.393850  1.0  -0.0339
  C  C828  1  0.068100  0.433320  0.363000  1.0  -0.459
  C  C829  1  0.002870  0.249210  0.390880  1.0  0.1596
  C  C830  1  0.982590  0.175400  0.412470  1.0  0.1668
  C  C831  1  0.032490  0.178860  0.415840  1.0  -0.0855
  C  C832  1  0.949100  0.131300  0.423200  1.0  -0.4558
  C  C833  1  0.826230  0.188690  0.605620  1.0  0.1788
  C  C834  1  0.834140  0.156810  0.678550  1.0  0.1542
  C  C835  1  0.871630  0.190560  0.672290  1.0  -0.0749
  C  C836  1  0.821300  0.124900  0.722900  1.0  -0.4222
  C  C837  1  0.899120  0.242940  0.502250  1.0  0.1812
  C  C838  1  0.831970  0.281990  0.484710  1.0  0.2025
  C  C839  1  0.837790  0.284400  0.534420  1.0  -0.0503
  C  C840  1  0.791800  0.303400  0.452800  1.0  -0.4297
  C  C841  1  0.890820  0.311360  0.674020  1.0  0.1884
  C  C842  1  0.917680  0.379210  0.641640  1.0  0.1876
  C  C843  1  0.919850  0.344000  0.606150  1.0  -0.0333
  C  C844  1  0.931900  0.433320  0.637000  1.0  -0.4592
  C  C845  1  0.997130  0.249210  0.609120  1.0  0.1611
  C  C846  1  0.017410  0.175400  0.587530  1.0  0.1669
  C  C847  1  0.967510  0.178860  0.584160  1.0  -0.0858
  C  C848  1  0.050900  0.131300  0.576800  1.0  -0.4542
  C  C849  1  0.811310  0.605620  0.173770  1.0  0.1763
  C  C850  1  0.843190  0.678550  0.165860  1.0  0.1561
  C  C851  1  0.809440  0.672290  0.128370  1.0  -0.0765
  C  C852  1  0.875100  0.722900  0.178700  1.0  -0.4238
  C  C853  1  0.757060  0.502250  0.100880  1.0  0.1812
  C  C854  1  0.718010  0.484710  0.168030  1.0  0.2035
  C  C855  1  0.715600  0.534420  0.162210  1.0  -0.049
  C  C856  1  0.696600  0.452800  0.208200  1.0  -0.4279
  C  C857  1  0.688640  0.674020  0.109180  1.0  0.1879
  C  C858  1  0.620790  0.641640  0.082320  1.0  0.1855
  C  C859  1  0.656000  0.606150  0.080150  1.0  -0.0353
  C  C860  1  0.566680  0.637000  0.068100  1.0  -0.4521
  C  C861  1  0.750790  0.609120  0.002870  1.0  0.1587
  C  C862  1  0.824600  0.587530  0.982590  1.0  0.1676
  C  C863  1  0.821140  0.584160  0.032490  1.0  -0.0862
  C  C864  1  0.868700  0.576800  0.949100  1.0  -0.4553
  C  C865  1  0.811310  0.394380  0.826230  1.0  0.1764
  C  C866  1  0.843190  0.321450  0.834140  1.0  0.1574
  C  C867  1  0.809440  0.327710  0.871630  1.0  -0.0765
  C  C868  1  0.875100  0.277100  0.821300  1.0  -0.424
  C  C869  1  0.757060  0.497750  0.899120  1.0  0.1804
  C  C870  1  0.718010  0.515290  0.831970  1.0  0.205
  C  C871  1  0.715600  0.465580  0.837790  1.0  -0.0505
  C  C872  1  0.696600  0.547200  0.791800  1.0  -0.4281
  C  C873  1  0.688640  0.325980  0.890820  1.0  0.1884
  C  C874  1  0.620790  0.358360  0.917680  1.0  0.1848
  C  C875  1  0.656000  0.393850  0.919850  1.0  -0.0348
  C  C876  1  0.566680  0.363000  0.931900  1.0  -0.4534
  C  C877  1  0.750790  0.390880  0.997130  1.0  0.1593
  C  C878  1  0.824600  0.412470  0.017410  1.0  0.168
  C  C879  1  0.821140  0.415840  0.967510  1.0  -0.0873
  C  C880  1  0.868700  0.423200  0.050900  1.0  -0.4521
  C  C881  1  0.188690  0.605620  0.826230  1.0  0.178
  C  C882  1  0.156810  0.678550  0.834140  1.0  0.1552
  C  C883  1  0.190560  0.672290  0.871630  1.0  -0.0766
  C  C884  1  0.124900  0.722900  0.821300  1.0  -0.4237
  C  C885  1  0.242940  0.502250  0.899120  1.0  0.1805
  C  C886  1  0.281990  0.484710  0.831970  1.0  0.2064
  C  C887  1  0.284400  0.534420  0.837790  1.0  -0.0504
  C  C888  1  0.303400  0.452800  0.791800  1.0  -0.4288
  C  C889  1  0.311360  0.674020  0.890820  1.0  0.1888
  C  C890  1  0.379210  0.641640  0.917680  1.0  0.1874
  C  C891  1  0.344000  0.606150  0.919850  1.0  -0.0354
  C  C892  1  0.433320  0.637000  0.931900  1.0  -0.4532
  C  C893  1  0.249210  0.609120  0.997130  1.0  0.1581
  C  C894  1  0.175400  0.587530  0.017410  1.0  0.1679
  C  C895  1  0.178860  0.584160  0.967510  1.0  -0.086
  C  C896  1  0.131300  0.576800  0.050900  1.0  -0.4537
  C  C897  1  0.188690  0.394380  0.173770  1.0  0.1779
  C  C898  1  0.156810  0.321450  0.165860  1.0  0.1561
  C  C899  1  0.190560  0.327710  0.128370  1.0  -0.0765
  C  C900  1  0.124900  0.277100  0.178700  1.0  -0.4227
  C  C901  1  0.242940  0.497750  0.100880  1.0  0.1804
  C  C902  1  0.281990  0.515290  0.168030  1.0  0.204
  C  C903  1  0.284400  0.465580  0.162210  1.0  -0.0485
  C  C904  1  0.303400  0.547200  0.208200  1.0  -0.4279
  C  C905  1  0.311360  0.325980  0.109180  1.0  0.1875
  C  C906  1  0.379210  0.358360  0.082320  1.0  0.1879
  C  C907  1  0.344000  0.393850  0.080150  1.0  -0.035
  C  C908  1  0.433320  0.363000  0.068100  1.0  -0.4533
  C  C909  1  0.249210  0.390880  0.002870  1.0  0.1591
  C  C910  1  0.175400  0.412470  0.982590  1.0  0.1678
  C  C911  1  0.178860  0.415840  0.032490  1.0  -0.0861
  C  C912  1  0.131300  0.423200  0.949100  1.0  -0.4534
  N  N913  1  0.866470  0.625860  0.788430  1.0  -0.207
  N  N914  1  0.805890  0.635750  0.844770  1.0  -0.4344
  N  N915  1  0.881110  0.546250  0.741210  1.0  -0.2061
  N  N916  1  0.871110  0.464220  0.744470  1.0  -0.4212
  N  N917  1  0.902420  0.626370  0.700060  1.0  -0.21
  N  N918  1  0.899130  0.685130  0.641790  1.0  -0.4125
  N  N919  1  0.954060  0.597700  0.773130  1.0  -0.203
  N  N920  1  0.036090  0.603400  0.779820  1.0  -0.4256
  N  N921  1  0.133530  0.374140  0.788430  1.0  -0.2064
  N  N922  1  0.194110  0.364250  0.844770  1.0  -0.4312
  N  N923  1  0.118890  0.453750  0.741210  1.0  -0.2062
  N  N924  1  0.128890  0.535780  0.744470  1.0  -0.4211
  N  N925  1  0.097580  0.373630  0.700060  1.0  -0.2104
  N  N926  1  0.100870  0.314870  0.641790  1.0  -0.4122
  N  N927  1  0.045940  0.402300  0.773130  1.0  -0.2042
  N  N928  1  0.963910  0.396600  0.779820  1.0  -0.4262
  N  N929  1  0.133530  0.625860  0.211570  1.0  -0.2062
  N  N930  1  0.194110  0.635750  0.155230  1.0  -0.432
  N  N931  1  0.118890  0.546250  0.258790  1.0  -0.2056
  N  N932  1  0.128890  0.464220  0.255530  1.0  -0.4202
  N  N933  1  0.097580  0.626370  0.299940  1.0  -0.2112
  N  N934  1  0.100870  0.685130  0.358210  1.0  -0.4118
  N  N935  1  0.045940  0.597700  0.226870  1.0  -0.2042
  N  N936  1  0.963910  0.603400  0.220180  1.0  -0.4252
  N  N937  1  0.866470  0.374140  0.211570  1.0  -0.2068
  N  N938  1  0.805890  0.364250  0.155230  1.0  -0.4339
  N  N939  1  0.881110  0.453750  0.258790  1.0  -0.2061
  N  N940  1  0.871110  0.535780  0.255530  1.0  -0.4212
  N  N941  1  0.902420  0.373630  0.299940  1.0  -0.2104
  N  N942  1  0.899130  0.314870  0.358210  1.0  -0.4125
  N  N943  1  0.954060  0.402300  0.226870  1.0  -0.2033
  N  N944  1  0.036090  0.396600  0.220180  1.0  -0.4248
  N  N945  1  0.788430  0.866470  0.625860  1.0  -0.2048
  N  N946  1  0.844770  0.805890  0.635750  1.0  -0.429
  N  N947  1  0.741210  0.881110  0.546250  1.0  -0.2057
  N  N948  1  0.744470  0.871110  0.464220  1.0  -0.4183
  N  N949  1  0.700060  0.902420  0.626370  1.0  -0.2122
  N  N950  1  0.641790  0.899130  0.685130  1.0  -0.412
  N  N951  1  0.773130  0.954060  0.597700  1.0  -0.201
  N  N952  1  0.779820  0.036090  0.603400  1.0  -0.4243
  N  N953  1  0.788430  0.133530  0.374140  1.0  -0.2035
  N  N954  1  0.844770  0.194110  0.364250  1.0  -0.4306
  N  N955  1  0.741210  0.118890  0.453750  1.0  -0.2063
  N  N956  1  0.744470  0.128890  0.535780  1.0  -0.4199
  N  N957  1  0.700060  0.097580  0.373630  1.0  -0.2121
  N  N958  1  0.641790  0.100870  0.314870  1.0  -0.4127
  N  N959  1  0.773130  0.045940  0.402300  1.0  -0.201
  N  N960  1  0.779820  0.963910  0.396600  1.0  -0.4248
  N  N961  1  0.211570  0.133530  0.625860  1.0  -0.2038
  N  N962  1  0.155230  0.194110  0.635750  1.0  -0.4305
  N  N963  1  0.258790  0.118890  0.546250  1.0  -0.2058
  N  N964  1  0.255530  0.128890  0.464220  1.0  -0.4179
  N  N965  1  0.299940  0.097580  0.626370  1.0  -0.2121
  N  N966  1  0.358210  0.100870  0.685130  1.0  -0.4118
  N  N967  1  0.226870  0.045940  0.597700  1.0  -0.2011
  N  N968  1  0.220180  0.963910  0.603400  1.0  -0.4246
  N  N969  1  0.211570  0.866470  0.374140  1.0  -0.2024
  N  N970  1  0.155230  0.805890  0.364250  1.0  -0.4302
  N  N971  1  0.258790  0.881110  0.453750  1.0  -0.2061
  N  N972  1  0.255530  0.871110  0.535780  1.0  -0.4189
  N  N973  1  0.299940  0.902420  0.373630  1.0  -0.2121
  N  N974  1  0.358210  0.899130  0.314870  1.0  -0.4137
  N  N975  1  0.226870  0.954060  0.402300  1.0  -0.2019
  N  N976  1  0.220180  0.036090  0.396600  1.0  -0.4246
  N  N977  1  0.625860  0.788430  0.866470  1.0  -0.2058
  N  N978  1  0.635750  0.844770  0.805890  1.0  -0.4333
  N  N979  1  0.546250  0.741210  0.881110  1.0  -0.2063
  N  N980  1  0.464220  0.744470  0.871110  1.0  -0.4204
  N  N981  1  0.626370  0.700060  0.902420  1.0  -0.2105
  N  N982  1  0.685130  0.641790  0.899130  1.0  -0.4136
  N  N983  1  0.597700  0.773130  0.954060  1.0  -0.2033
  N  N984  1  0.603400  0.779820  0.036090  1.0  -0.4216
  N  N985  1  0.374140  0.788430  0.133530  1.0  -0.2061
  N  N986  1  0.364250  0.844770  0.194110  1.0  -0.4318
  N  N987  1  0.453750  0.741210  0.118890  1.0  -0.2069
  N  N988  1  0.535780  0.744470  0.128890  1.0  -0.4203
  N  N989  1  0.373630  0.700060  0.097580  1.0  -0.2095
  N  N990  1  0.314870  0.641790  0.100870  1.0  -0.4138
  N  N991  1  0.402300  0.773130  0.045940  1.0  -0.2026
  N  N992  1  0.396600  0.779820  0.963910  1.0  -0.4241
  N  N993  1  0.625860  0.211570  0.133530  1.0  -0.2058
  N  N994  1  0.635750  0.155230  0.194110  1.0  -0.4329
  N  N995  1  0.546250  0.258790  0.118890  1.0  -0.2066
  N  N996  1  0.464220  0.255530  0.128890  1.0  -0.4207
  N  N997  1  0.626370  0.299940  0.097580  1.0  -0.2096
  N  N998  1  0.685130  0.358210  0.100870  1.0  -0.413
  N  N999  1  0.597700  0.226870  0.045940  1.0  -0.2029
  N  N1000  1  0.603400  0.220180  0.963910  1.0  -0.4233
  N  N1001  1  0.374140  0.211570  0.866470  1.0  -0.2059
  N  N1002  1  0.364250  0.155230  0.805890  1.0  -0.433
  N  N1003  1  0.453750  0.258790  0.881110  1.0  -0.2068
  N  N1004  1  0.535780  0.255530  0.871110  1.0  -0.4205
  N  N1005  1  0.373630  0.299940  0.902420  1.0  -0.2112
  N  N1006  1  0.314870  0.358210  0.899130  1.0  -0.4141
  N  N1007  1  0.402300  0.226870  0.954060  1.0  -0.2035
  N  N1008  1  0.396600  0.220180  0.036090  1.0  -0.4223
  N  N1009  1  0.625860  0.866470  0.211570  1.0  -0.205
  N  N1010  1  0.635750  0.805890  0.155230  1.0  -0.433
  N  N1011  1  0.546250  0.881110  0.258790  1.0  -0.2058
  N  N1012  1  0.464220  0.871110  0.255530  1.0  -0.4198
  N  N1013  1  0.626370  0.902420  0.299940  1.0  -0.2114
  N  N1014  1  0.685130  0.899130  0.358210  1.0  -0.413
  N  N1015  1  0.597700  0.954060  0.226870  1.0  -0.2023
  N  N1016  1  0.603400  0.036090  0.220180  1.0  -0.4234
  N  N1017  1  0.374140  0.133530  0.211570  1.0  -0.205
  N  N1018  1  0.364250  0.194110  0.155230  1.0  -0.4328
  N  N1019  1  0.453750  0.118890  0.258790  1.0  -0.2062
  N  N1020  1  0.535780  0.128890  0.255530  1.0  -0.4197
  N  N1021  1  0.373630  0.097580  0.299940  1.0  -0.2123
  N  N1022  1  0.314870  0.100870  0.358210  1.0  -0.4141
  N  N1023  1  0.402300  0.045940  0.226870  1.0  -0.2017
  N  N1024  1  0.396600  0.963910  0.220180  1.0  -0.4242
  N  N1025  1  0.625860  0.133530  0.788430  1.0  -0.2053
  N  N1026  1  0.635750  0.194110  0.844770  1.0  -0.4324
  N  N1027  1  0.546250  0.118890  0.741210  1.0  -0.2062
  N  N1028  1  0.464220  0.128890  0.744470  1.0  -0.4209
  N  N1029  1  0.626370  0.097580  0.700060  1.0  -0.2113
  N  N1030  1  0.685130  0.100870  0.641790  1.0  -0.4137
  N  N1031  1  0.597700  0.045940  0.773130  1.0  -0.2019
  N  N1032  1  0.603400  0.963910  0.779820  1.0  -0.4237
  N  N1033  1  0.374140  0.866470  0.788430  1.0  -0.2054
  N  N1034  1  0.364250  0.805890  0.844770  1.0  -0.4309
  N  N1035  1  0.453750  0.881110  0.741210  1.0  -0.2063
  N  N1036  1  0.535780  0.871110  0.744470  1.0  -0.4199
  N  N1037  1  0.373630  0.902420  0.700060  1.0  -0.2115
  N  N1038  1  0.314870  0.899130  0.641790  1.0  -0.4144
  N  N1039  1  0.402300  0.954060  0.773130  1.0  -0.202
  N  N1040  1  0.396600  0.036090  0.779820  1.0  -0.4248
  N  N1041  1  0.866470  0.788430  0.374140  1.0  -0.2047
  N  N1042  1  0.805890  0.844770  0.364250  1.0  -0.4339
  N  N1043  1  0.881110  0.741210  0.453750  1.0  -0.2065
  N  N1044  1  0.871110  0.744470  0.535780  1.0  -0.4204
  N  N1045  1  0.902420  0.700060  0.373630  1.0  -0.2098
  N  N1046  1  0.899130  0.641790  0.314870  1.0  -0.4125
  N  N1047  1  0.954060  0.773130  0.402300  1.0  -0.2025
  N  N1048  1  0.036090  0.779820  0.396600  1.0  -0.4251
  N  N1049  1  0.133530  0.788430  0.625860  1.0  -0.2054
  N  N1050  1  0.194110  0.844770  0.635750  1.0  -0.4307
  N  N1051  1  0.118890  0.741210  0.546250  1.0  -0.206
  N  N1052  1  0.128890  0.744470  0.464220  1.0  -0.4188
  N  N1053  1  0.097580  0.700060  0.626370  1.0  -0.2106
  N  N1054  1  0.100870  0.641790  0.685130  1.0  -0.4109
  N  N1055  1  0.045940  0.773130  0.597700  1.0  -0.203
  N  N1056  1  0.963910  0.779820  0.603400  1.0  -0.4253
  N  N1057  1  0.133530  0.211570  0.374140  1.0  -0.2044
  N  N1058  1  0.194110  0.155230  0.364250  1.0  -0.4314
  N  N1059  1  0.118890  0.258790  0.453750  1.0  -0.2064
  N  N1060  1  0.128890  0.255530  0.535780  1.0  -0.4202
  N  N1061  1  0.097580  0.299940  0.373630  1.0  -0.2108
  N  N1062  1  0.100870  0.358210  0.314870  1.0  -0.4121
  N  N1063  1  0.045940  0.226870  0.402300  1.0  -0.2034
  N  N1064  1  0.963910  0.220180  0.396600  1.0  -0.4247
  N  N1065  1  0.866470  0.211570  0.625860  1.0  -0.206
  N  N1066  1  0.805890  0.155230  0.635750  1.0  -0.4336
  N  N1067  1  0.881110  0.258790  0.546250  1.0  -0.2061
  N  N1068  1  0.871110  0.255530  0.464220  1.0  -0.4195
  N  N1069  1  0.902420  0.299940  0.626370  1.0  -0.2103
  N  N1070  1  0.899130  0.358210  0.685130  1.0  -0.4116
  N  N1071  1  0.954060  0.226870  0.597700  1.0  -0.2023
  N  N1072  1  0.036090  0.220180  0.603400  1.0  -0.4252
  N  N1073  1  0.788430  0.625860  0.133530  1.0  -0.2062
  N  N1074  1  0.844770  0.635750  0.194110  1.0  -0.4315
  N  N1075  1  0.741210  0.546250  0.118890  1.0  -0.2064
  N  N1076  1  0.744470  0.464220  0.128890  1.0  -0.4201
  N  N1077  1  0.700060  0.626370  0.097580  1.0  -0.2101
  N  N1078  1  0.641790  0.685130  0.100870  1.0  -0.4122
  N  N1079  1  0.773130  0.597700  0.045940  1.0  -0.2028
  N  N1080  1  0.779820  0.603400  0.963910  1.0  -0.425
  N  N1081  1  0.788430  0.374140  0.866470  1.0  -0.2063
  N  N1082  1  0.844770  0.364250  0.805890  1.0  -0.4311
  N  N1083  1  0.741210  0.453750  0.881110  1.0  -0.2064
  N  N1084  1  0.744470  0.535780  0.871110  1.0  -0.4211
  N  N1085  1  0.700060  0.373630  0.902420  1.0  -0.2113
  N  N1086  1  0.641790  0.314870  0.899130  1.0  -0.413
  N  N1087  1  0.773130  0.402300  0.954060  1.0  -0.2031
  N  N1088  1  0.779820  0.396600  0.036090  1.0  -0.4225
  N  N1089  1  0.211570  0.625860  0.866470  1.0  -0.2054
  N  N1090  1  0.155230  0.635750  0.805890  1.0  -0.4321
  N  N1091  1  0.258790  0.546250  0.881110  1.0  -0.2062
  N  N1092  1  0.255530  0.464220  0.871110  1.0  -0.4202
  N  N1093  1  0.299940  0.626370  0.902420  1.0  -0.2114
  N  N1094  1  0.358210  0.685130  0.899130  1.0  -0.4129
  N  N1095  1  0.226870  0.597700  0.954060  1.0  -0.2038
  N  N1096  1  0.220180  0.603400  0.036090  1.0  -0.4239
  N  N1097  1  0.211570  0.374140  0.133530  1.0  -0.2052
  N  N1098  1  0.155230  0.364250  0.194110  1.0  -0.4313
  N  N1099  1  0.258790  0.453750  0.118890  1.0  -0.2065
  N  N1100  1  0.255530  0.535780  0.128890  1.0  -0.4198
  N  N1101  1  0.299940  0.373630  0.097580  1.0  -0.21
  N  N1102  1  0.358210  0.314870  0.100870  1.0  -0.4122
  N  N1103  1  0.226870  0.402300  0.045940  1.0  -0.2031
  N  N1104  1  0.220180  0.396600  0.963910  1.0  -0.4254
