# generated using pymatgen
data_EuH3C7NO4
_symmetry_space_group_name_H-M   'P 1'
_cell_length_a   28.70510000
_cell_length_b   28.70510000
_cell_length_c   35.19970000
_cell_angle_alpha   90.00000000
_cell_angle_beta   90.00000000
_cell_angle_gamma   120.00000000
_symmetry_Int_Tables_number   1
_chemical_formula_structural   EuH3C7NO4
_chemical_formula_sum   'Eu72 H216 C504 N72 O288'
_cell_volume   25118.15419211
_cell_formula_units_Z   72
loop_
 _symmetry_equiv_pos_site_id
 _symmetry_equiv_pos_as_xyz
  1  'x, y, z'
loop_
 _atom_site_type_symbol
 _atom_site_label
 _atom_site_symmetry_multiplicity
 _atom_site_fract_x
 _atom_site_fract_y
 _atom_site_fract_z
 _atom_site_occupancy
 _atom_site_charge
  Eu  Eu1  1  0.283340  0.454400  0.474500  1.0  2.0801
  Eu  Eu2  1  0.142640  0.523030  0.377460  1.0  2.0781
  Eu  Eu3  1  0.384160  0.490390  0.635940  1.0  2.0665
  Eu  Eu4  1  0.148870  0.463410  0.205560  1.0  2.0787
  Eu  Eu5  1  0.950010  0.787730  0.807830  1.0  2.0801
  Eu  Eu6  1  0.809310  0.856360  0.710790  1.0  2.0781
  Eu  Eu7  1  0.050830  0.823720  0.969270  1.0  2.0665
  Eu  Eu8  1  0.815540  0.796750  0.538900  1.0  2.0786
  Eu  Eu9  1  0.616670  0.121070  0.141160  1.0  2.0803
  Eu  Eu10  1  0.475980  0.189700  0.044130  1.0  2.0781
  Eu  Eu11  1  0.717490  0.157060  0.302610  1.0  2.0665
  Eu  Eu12  1  0.482210  0.130080  0.872230  1.0  2.0786
  Eu  Eu13  1  0.545600  0.828940  0.474500  1.0  2.0821
  Eu  Eu14  1  0.476970  0.619610  0.377460  1.0  2.0776
  Eu  Eu15  1  0.509610  0.893770  0.635940  1.0  2.0669
  Eu  Eu16  1  0.536590  0.685460  0.205560  1.0  2.0783
  Eu  Eu17  1  0.212270  0.162270  0.807830  1.0  2.0821
  Eu  Eu18  1  0.143640  0.952950  0.710790  1.0  2.0776
  Eu  Eu19  1  0.176280  0.227100  0.969270  1.0  2.0669
  Eu  Eu20  1  0.203250  0.018790  0.538900  1.0  2.0783
  Eu  Eu21  1  0.878930  0.495610  0.141160  1.0  2.0823
  Eu  Eu22  1  0.810300  0.286280  0.044130  1.0  2.0776
  Eu  Eu23  1  0.842940  0.560440  0.302610  1.0  2.0669
  Eu  Eu24  1  0.869920  0.352130  0.872230  1.0  2.0783
  Eu  Eu25  1  0.171060  0.716660  0.474500  1.0  2.0806
  Eu  Eu26  1  0.380390  0.857360  0.377460  1.0  2.0776
  Eu  Eu27  1  0.106230  0.615840  0.635940  1.0  2.0659
  Eu  Eu28  1  0.314540  0.851130  0.205560  1.0  2.0777
  Eu  Eu29  1  0.837730  0.049990  0.807830  1.0  2.0806
  Eu  Eu30  1  0.047050  0.190690  0.710790  1.0  2.077
  Eu  Eu31  1  0.772900  0.949170  0.969270  1.0  2.0659
  Eu  Eu32  1  0.981210  0.184460  0.538900  1.0  2.0777
  Eu  Eu33  1  0.504390  0.383330  0.141160  1.0  2.0807
  Eu  Eu34  1  0.713720  0.524020  0.044130  1.0  2.0775
  Eu  Eu35  1  0.439560  0.282510  0.302610  1.0  2.0659
  Eu  Eu36  1  0.647870  0.517790  0.872230  1.0  2.0776
  Eu  Eu37  1  0.716660  0.545600  0.525500  1.0  2.0806
  Eu  Eu38  1  0.857360  0.476970  0.622540  1.0  2.0771
  Eu  Eu39  1  0.615840  0.509610  0.364060  1.0  2.0667
  Eu  Eu40  1  0.851130  0.536590  0.794440  1.0  2.0782
  Eu  Eu41  1  0.383330  0.878930  0.858840  1.0  2.0808
  Eu  Eu42  1  0.524020  0.810300  0.955870  1.0  2.0771
  Eu  Eu43  1  0.282510  0.842940  0.697390  1.0  2.0667
  Eu  Eu44  1  0.517790  0.869920  0.127770  1.0  2.0781
  Eu  Eu45  1  0.049990  0.212270  0.192170  1.0  2.0806
  Eu  Eu46  1  0.190690  0.143640  0.289210  1.0  2.0771
  Eu  Eu47  1  0.949170  0.176280  0.030730  1.0  2.0667
  Eu  Eu48  1  0.184460  0.203250  0.461100  1.0  2.078
  Eu  Eu49  1  0.454400  0.171060  0.525500  1.0  2.0811
  Eu  Eu50  1  0.523030  0.380390  0.622540  1.0  2.0769
  Eu  Eu51  1  0.490390  0.106230  0.364060  1.0  2.066
  Eu  Eu52  1  0.463410  0.314540  0.794440  1.0  2.0769
  Eu  Eu53  1  0.121070  0.504390  0.858840  1.0  2.0813
  Eu  Eu54  1  0.189700  0.713720  0.955870  1.0  2.0769
  Eu  Eu55  1  0.157060  0.439560  0.697390  1.0  2.066
  Eu  Eu56  1  0.130080  0.647870  0.127770  1.0  2.0769
  Eu  Eu57  1  0.787730  0.837730  0.192170  1.0  2.0811
  Eu  Eu58  1  0.856360  0.047050  0.289210  1.0  2.0769
  Eu  Eu59  1  0.823720  0.772900  0.030730  1.0  2.066
  Eu  Eu60  1  0.796750  0.981210  0.461100  1.0  2.0769
  Eu  Eu61  1  0.828940  0.283340  0.525500  1.0  2.0801
  Eu  Eu62  1  0.619610  0.142640  0.622540  1.0  2.0761
  Eu  Eu63  1  0.893770  0.384160  0.364060  1.0  2.0676
  Eu  Eu64  1  0.685460  0.148870  0.794440  1.0  2.0785
  Eu  Eu65  1  0.495610  0.616670  0.858840  1.0  2.0802
  Eu  Eu66  1  0.286280  0.475980  0.955870  1.0  2.076
  Eu  Eu67  1  0.560440  0.717490  0.697390  1.0  2.0676
  Eu  Eu68  1  0.352130  0.482210  0.127770  1.0  2.0785
  Eu  Eu69  1  0.162270  0.950010  0.192170  1.0  2.0801
  Eu  Eu70  1  0.952950  0.809310  0.289210  1.0  2.0755
  Eu  Eu71  1  0.227100  0.050830  0.030730  1.0  2.0676
  Eu  Eu72  1  0.018790  0.815540  0.461100  1.0  2.0785
  H  H73  1  0.268380  0.559720  0.600830  1.0  0.0934
  H  H74  1  0.206130  0.584320  0.576070  1.0  0.0919
  H  H75  1  0.177460  0.564520  0.511620  1.0  0.0975
  H  H76  1  0.201700  0.644200  0.246110  1.0  0.0984
  H  H77  1  0.218020  0.727380  0.273070  1.0  0.0936
  H  H78  1  0.202070  0.731350  0.339180  1.0  0.1006
  H  H79  1  0.228210  0.320330  0.718910  1.0  0.1029
  H  H80  1  0.270050  0.266730  0.720910  1.0  0.0924
  H  H81  1  0.353230  0.296430  0.688570  1.0  0.0947
  H  H82  1  0.013560  0.462090  0.093710  1.0  0.1085
  H  H83  1  0.961060  0.366980  0.084610  1.0  0.0907
  H  H84  1  0.981520  0.308930  0.120110  1.0  0.1004
  H  H85  1  0.935050  0.893050  0.934160  1.0  0.0934
  H  H86  1  0.872800  0.917650  0.909400  1.0  0.0919
  H  H87  1  0.844130  0.897850  0.844950  1.0  0.0975
  H  H88  1  0.868370  0.977530  0.579440  1.0  0.0995
  H  H89  1  0.884690  0.060710  0.606400  1.0  0.0936
  H  H90  1  0.868740  0.064680  0.672510  1.0  0.1006
  H  H91  1  0.894880  0.653660  0.052240  1.0  0.1029
  H  H92  1  0.936720  0.600060  0.054240  1.0  0.0924
  H  H93  1  0.019900  0.629760  0.021900  1.0  0.0947
  H  H94  1  0.680230  0.795420  0.427040  1.0  0.1085
  H  H95  1  0.627730  0.700310  0.417940  1.0  0.0907
  H  H96  1  0.648190  0.642260  0.453440  1.0  0.1004
  H  H97  1  0.601710  0.226390  0.267500  1.0  0.0934
  H  H98  1  0.539460  0.250990  0.242740  1.0  0.0919
  H  H99  1  0.510790  0.231190  0.178290  1.0  0.0975
  H  H100  1  0.535030  0.310870  0.912780  1.0  0.0984
  H  H101  1  0.551350  0.394050  0.939740  1.0  0.0936
  H  H102  1  0.535400  0.398020  0.005850  1.0  0.1006
  H  H103  1  0.561540  0.987000  0.385580  1.0  0.1029
  H  H104  1  0.603380  0.933400  0.387580  1.0  0.0924
  H  H105  1  0.686560  0.963100  0.355240  1.0  0.0947
  H  H106  1  0.346890  0.128760  0.760380  1.0  0.1085
  H  H107  1  0.294390  0.033650  0.751280  1.0  0.0906
  H  H108  1  0.314850  0.975600  0.786780  1.0  0.1004
  H  H109  1  0.440280  0.708660  0.600830  1.0  0.0949
  H  H110  1  0.415680  0.621810  0.576070  1.0  0.0923
  H  H111  1  0.435480  0.612940  0.511620  1.0  0.0997
  H  H112  1  0.355800  0.557500  0.246110  1.0  0.0984
  H  H113  1  0.272620  0.490640  0.273070  1.0  0.0918
  H  H114  1  0.268650  0.470720  0.339180  1.0  0.0989
  H  H115  1  0.679670  0.907880  0.718910  1.0  0.1038
  H  H116  1  0.733270  0.003320  0.720910  1.0  0.0928
  H  H117  1  0.703570  0.056800  0.688570  1.0  0.0961
  H  H118  1  0.537910  0.551470  0.093710  1.0  0.1099
  H  H119  1  0.633020  0.594080  0.084610  1.0  0.0908
  H  H120  1  0.691070  0.672590  0.120110  1.0  0.101
  H  H121  1  0.106950  0.041990  0.934160  1.0  0.0933
  H  H122  1  0.082350  0.955140  0.909400  1.0  0.0923
  H  H123  1  0.102150  0.946270  0.844950  1.0  0.0997
  H  H124  1  0.022470  0.890830  0.579440  1.0  0.0975
  H  H125  1  0.939290  0.823970  0.606400  1.0  0.0916
  H  H126  1  0.935320  0.804050  0.672510  1.0  0.0989
  H  H127  1  0.346340  0.241210  0.052240  1.0  0.1038
  H  H128  1  0.399940  0.336650  0.054240  1.0  0.0928
  H  H129  1  0.370240  0.390130  0.021900  1.0  0.0961
  H  H130  1  0.204580  0.884800  0.427040  1.0  0.1099
  H  H131  1  0.299690  0.927410  0.417940  1.0  0.0908
  H  H132  1  0.357740  0.005920  0.453440  1.0  0.101
  H  H133  1  0.773610  0.375330  0.267500  1.0  0.0949
  H  H134  1  0.749010  0.288480  0.242740  1.0  0.0923
  H  H135  1  0.768810  0.279610  0.178290  1.0  0.0997
  H  H136  1  0.689130  0.224170  0.912780  1.0  0.0984
  H  H137  1  0.605950  0.157310  0.939740  1.0  0.0918
  H  H138  1  0.601980  0.137390  0.005850  1.0  0.0988
  H  H139  1  0.013000  0.574550  0.385580  1.0  0.1038
  H  H140  1  0.066600  0.669990  0.387580  1.0  0.0928
  H  H141  1  0.036900  0.723470  0.355240  1.0  0.0961
  H  H142  1  0.871240  0.218140  0.760380  1.0  0.1099
  H  H143  1  0.966350  0.260750  0.751280  1.0  0.0908
  H  H144  1  0.024400  0.339260  0.786780  1.0  0.101
  H  H145  1  0.291340  0.731620  0.600830  1.0  0.0926
  H  H146  1  0.378190  0.793870  0.576070  1.0  0.0918
  H  H147  1  0.387060  0.822540  0.511620  1.0  0.0999
  H  H148  1  0.442500  0.798300  0.246110  1.0  0.0967
  H  H149  1  0.509360  0.781980  0.273070  1.0  0.0914
  H  H150  1  0.529280  0.797930  0.339180  1.0  0.0985
  H  H151  1  0.092120  0.771790  0.718910  1.0  0.1036
  H  H152  1  0.996680  0.729950  0.720910  1.0  0.0926
  H  H153  1  0.943200  0.646770  0.688570  1.0  0.0952
  H  H154  1  0.448530  0.986440  0.093710  1.0  0.1089
  H  H155  1  0.405920  0.038940  0.084610  1.0  0.0924
  H  H156  1  0.327410  0.018480  0.120110  1.0  0.0997
  H  H157  1  0.958010  0.064950  0.934160  1.0  0.0944
  H  H158  1  0.044860  0.127200  0.909400  1.0  0.0918
  H  H159  1  0.053730  0.155870  0.844950  1.0  0.0999
  H  H160  1  0.109170  0.131630  0.579440  1.0  0.0974
  H  H161  1  0.176030  0.115310  0.606400  1.0  0.0914
  H  H162  1  0.195950  0.131260  0.672510  1.0  0.0986
  H  H163  1  0.758790  0.105120  0.052240  1.0  0.1036
  H  H164  1  0.663350  0.063280  0.054240  1.0  0.0926
  H  H165  1  0.609870  0.980100  0.021900  1.0  0.0952
  H  H166  1  0.115200  0.319770  0.427040  1.0  0.1089
  H  H167  1  0.072590  0.372270  0.417940  1.0  0.0924
  H  H168  1  0.994080  0.351810  0.453440  1.0  0.0997
  H  H169  1  0.624670  0.398290  0.267500  1.0  0.0926
  H  H170  1  0.711520  0.460540  0.242740  1.0  0.0918
  H  H171  1  0.720390  0.489210  0.178290  1.0  0.0999
  H  H172  1  0.775830  0.464970  0.912780  1.0  0.0967
  H  H173  1  0.842690  0.448650  0.939740  1.0  0.0914
  H  H174  1  0.862610  0.464600  0.005850  1.0  0.0985
  H  H175  1  0.425450  0.438460  0.385580  1.0  0.1036
  H  H176  1  0.330010  0.396620  0.387580  1.0  0.0926
  H  H177  1  0.276530  0.313440  0.355240  1.0  0.0952
  H  H178  1  0.781860  0.653110  0.760380  1.0  0.1089
  H  H179  1  0.739250  0.705610  0.751280  1.0  0.0924
  H  H180  1  0.660740  0.685150  0.786780  1.0  0.0997
  H  H181  1  0.731620  0.440280  0.399170  1.0  0.0937
  H  H182  1  0.793870  0.415680  0.423930  1.0  0.0917
  H  H183  1  0.822540  0.435480  0.488380  1.0  0.0982
  H  H184  1  0.798300  0.355800  0.753890  1.0  0.0968
  H  H185  1  0.781980  0.272620  0.726930  1.0  0.0922
  H  H186  1  0.797930  0.268650  0.660820  1.0  0.1
  H  H187  1  0.771790  0.679670  0.281090  1.0  0.1029
  H  H188  1  0.729950  0.733270  0.279090  1.0  0.0927
  H  H189  1  0.646770  0.703570  0.311430  1.0  0.0954
  H  H190  1  0.986440  0.537910  0.906290  1.0  0.1089
  H  H191  1  0.038940  0.633020  0.915390  1.0  0.0907
  H  H192  1  0.018480  0.691070  0.879890  1.0  0.1015
  H  H193  1  0.398290  0.773610  0.732500  1.0  0.0937
  H  H194  1  0.460540  0.749010  0.757260  1.0  0.0917
  H  H195  1  0.489210  0.768810  0.821710  1.0  0.0982
  H  H196  1  0.464970  0.689130  0.087220  1.0  0.0968
  H  H197  1  0.448650  0.605950  0.060260  1.0  0.0922
  H  H198  1  0.464600  0.601980  0.994150  1.0  0.1001
  H  H199  1  0.438460  0.013000  0.614420  1.0  0.1029
  H  H200  1  0.396620  0.066600  0.612420  1.0  0.0927
  H  H201  1  0.313440  0.036900  0.644760  1.0  0.0954
  H  H202  1  0.653110  0.871240  0.239620  1.0  0.1089
  H  H203  1  0.705610  0.966350  0.248720  1.0  0.0906
  H  H204  1  0.685150  0.024400  0.213220  1.0  0.1015
  H  H205  1  0.064950  0.106950  0.065840  1.0  0.0937
  H  H206  1  0.127200  0.082350  0.090600  1.0  0.0918
  H  H207  1  0.155870  0.102150  0.155050  1.0  0.0982
  H  H208  1  0.131630  0.022470  0.420560  1.0  0.0981
  H  H209  1  0.115310  0.939290  0.393600  1.0  0.0922
  H  H210  1  0.131260  0.935320  0.327490  1.0  0.1
  H  H211  1  0.105120  0.346340  0.947760  1.0  0.1029
  H  H212  1  0.063280  0.399940  0.945760  1.0  0.0927
  H  H213  1  0.980100  0.370240  0.978100  1.0  0.0954
  H  H214  1  0.319770  0.204580  0.572960  1.0  0.1089
  H  H215  1  0.372270  0.299690  0.582060  1.0  0.0907
  H  H216  1  0.351810  0.357740  0.546560  1.0  0.1015
  H  H217  1  0.559720  0.291340  0.399170  1.0  0.0958
  H  H218  1  0.584320  0.378190  0.423930  1.0  0.0916
  H  H219  1  0.564520  0.387060  0.488380  1.0  0.0989
  H  H220  1  0.644200  0.442500  0.753890  1.0  0.0971
  H  H221  1  0.727380  0.509360  0.726930  1.0  0.0919
  H  H222  1  0.731350  0.529280  0.660820  1.0  0.1001
  H  H223  1  0.320330  0.092120  0.281090  1.0  0.1029
  H  H224  1  0.266730  0.996680  0.279090  1.0  0.0925
  H  H225  1  0.296430  0.943200  0.311430  1.0  0.0965
  H  H226  1  0.462090  0.448530  0.906290  1.0  0.1105
  H  H227  1  0.366980  0.405920  0.915390  1.0  0.0911
  H  H228  1  0.308930  0.327410  0.879890  1.0  0.1001
  H  H229  1  0.226390  0.624670  0.732500  1.0  0.0958
  H  H230  1  0.250990  0.711520  0.757260  1.0  0.0916
  H  H231  1  0.231190  0.720390  0.821710  1.0  0.0989
  H  H232  1  0.310870  0.775830  0.087220  1.0  0.0971
  H  H233  1  0.394050  0.842690  0.060260  1.0  0.0919
  H  H234  1  0.398020  0.862610  0.994150  1.0  0.1001
  H  H235  1  0.987000  0.425450  0.614420  1.0  0.1029
  H  H236  1  0.933400  0.330010  0.612420  1.0  0.0925
  H  H237  1  0.963100  0.276530  0.644760  1.0  0.0965
  H  H238  1  0.128760  0.781860  0.239620  1.0  0.1105
  H  H239  1  0.033650  0.739250  0.248720  1.0  0.0911
  H  H240  1  0.975600  0.660740  0.213220  1.0  0.1001
  H  H241  1  0.893050  0.958010  0.065840  1.0  0.0935
  H  H242  1  0.917650  0.044860  0.090600  1.0  0.0916
  H  H243  1  0.897850  0.053730  0.155050  1.0  0.0989
  H  H244  1  0.977530  0.109170  0.420560  1.0  0.0962
  H  H245  1  0.060710  0.176030  0.393600  1.0  0.0916
  H  H246  1  0.064680  0.195950  0.327490  1.0  0.1001
  H  H247  1  0.653660  0.758790  0.947760  1.0  0.1029
  H  H248  1  0.600060  0.663350  0.945760  1.0  0.0925
  H  H249  1  0.629760  0.609870  0.978100  1.0  0.0965
  H  H250  1  0.795420  0.115200  0.572960  1.0  0.1105
  H  H251  1  0.700310  0.072590  0.582060  1.0  0.0911
  H  H252  1  0.642260  0.994080  0.546560  1.0  0.1001
  H  H253  1  0.708660  0.268380  0.399170  1.0  0.0932
  H  H254  1  0.621810  0.206130  0.423930  1.0  0.0918
  H  H255  1  0.612940  0.177460  0.488380  1.0  0.0985
  H  H256  1  0.557500  0.201700  0.753890  1.0  0.096
  H  H257  1  0.490640  0.218020  0.726930  1.0  0.0916
  H  H258  1  0.470720  0.202070  0.660820  1.0  0.0993
  H  H259  1  0.907880  0.228210  0.281090  1.0  0.1031
  H  H260  1  0.003320  0.270050  0.279090  1.0  0.0921
  H  H261  1  0.056800  0.353230  0.311430  1.0  0.0944
  H  H262  1  0.551470  0.013560  0.906290  1.0  0.1091
  H  H263  1  0.594080  0.961060  0.915390  1.0  0.0917
  H  H264  1  0.672590  0.981520  0.879890  1.0  0.1001
  H  H265  1  0.375330  0.601710  0.732500  1.0  0.0932
  H  H266  1  0.288480  0.539460  0.757260  1.0  0.0918
  H  H267  1  0.279610  0.510790  0.821710  1.0  0.0985
  H  H268  1  0.224170  0.535030  0.087220  1.0  0.096
  H  H269  1  0.157310  0.551350  0.060260  1.0  0.0916
  H  H270  1  0.137390  0.535400  0.994150  1.0  0.0993
  H  H271  1  0.574550  0.561540  0.614420  1.0  0.1031
  H  H272  1  0.669990  0.603380  0.612420  1.0  0.0921
  H  H273  1  0.723470  0.686560  0.644760  1.0  0.0944
  H  H274  1  0.218140  0.346890  0.239620  1.0  0.109
  H  H275  1  0.260750  0.294390  0.248720  1.0  0.0917
  H  H276  1  0.339260  0.314850  0.213220  1.0  0.1001
  H  H277  1  0.041990  0.935050  0.065840  1.0  0.0957
  H  H278  1  0.955140  0.872800  0.090600  1.0  0.0918
  H  H279  1  0.946270  0.844130  0.155050  1.0  0.0985
  H  H280  1  0.890830  0.868370  0.420560  1.0  0.0967
  H  H281  1  0.823970  0.884690  0.393600  1.0  0.0916
  H  H282  1  0.804050  0.868740  0.327490  1.0  0.0993
  H  H283  1  0.241210  0.894880  0.947760  1.0  0.103
  H  H284  1  0.336650  0.936720  0.945760  1.0  0.0921
  H  H285  1  0.390130  0.019900  0.978100  1.0  0.0944
  H  H286  1  0.884800  0.680230  0.572960  1.0  0.1091
  H  H287  1  0.927410  0.627730  0.582060  1.0  0.0917
  H  H288  1  0.005920  0.648190  0.546560  1.0  0.1001
  C  C289  1  0.270900  0.521860  0.550910  1.0  0.0391
  C  C290  1  0.254700  0.550400  0.574690  1.0  -0.1426
  C  C291  1  0.219200  0.565600  0.559820  1.0  -0.1092
  C  C292  1  0.202090  0.553600  0.522400  1.0  -0.1197
  C  C293  1  0.221030  0.525990  0.500520  1.0  0.0478
  C  C294  1  0.308240  0.502500  0.563560  1.0  0.6481
  C  C295  1  0.206690  0.510880  0.459490  1.0  0.6642
  C  C296  1  0.177550  0.602400  0.297020  1.0  0.0576
  C  C297  1  0.195800  0.647000  0.273320  1.0  -0.1267
  C  C298  1  0.205100  0.695200  0.289070  1.0  -0.1103
  C  C299  1  0.196400  0.697800  0.327650  1.0  -0.1364
  C  C300  1  0.179290  0.651710  0.349600  1.0  0.0496
  C  C301  1  0.165150  0.547280  0.283760  1.0  0.6432
  C  C302  1  0.169360  0.649470  0.391570  1.0  0.6566
  C  C303  1  0.288390  0.380490  0.686210  1.0  0.041
  C  C304  1  0.262600  0.332100  0.706150  1.0  -0.1304
  C  C305  1  0.287000  0.300900  0.707030  1.0  -0.1088
  C  C306  1  0.335900  0.318400  0.688580  1.0  -0.1316
  C  C307  1  0.359380  0.367600  0.669580  1.0  0.0473
  C  C308  1  0.266710  0.418680  0.682250  1.0  0.6464
  C  C309  1  0.412000  0.391400  0.649150  1.0  0.6566
  C  C310  1  0.063170  0.457080  0.134840  1.0  0.036
  C  C311  1  0.021200  0.437600  0.108250  1.0  -0.1339
  C  C312  1  0.990900  0.381900  0.102860  1.0  -0.1053
  C  C313  1  0.002700  0.348100  0.123600  1.0  -0.1267
  C  C314  1  0.045200  0.370590  0.149260  1.0  0.057
  C  C315  1  0.098470  0.515580  0.143970  1.0  0.6557
  C  C316  1  0.063290  0.339010  0.173240  1.0  0.6487
  C  C317  1  0.937570  0.855190  0.884240  1.0  0.0393
  C  C318  1  0.921370  0.883730  0.908020  1.0  -0.1426
  C  C319  1  0.885870  0.898930  0.893150  1.0  -0.1092
  C  C320  1  0.868760  0.886930  0.855730  1.0  -0.1197
  C  C321  1  0.887700  0.859320  0.833850  1.0  0.0479
  C  C322  1  0.974910  0.835830  0.896890  1.0  0.6479
  C  C323  1  0.873360  0.844210  0.792820  1.0  0.6642
  C  C324  1  0.844220  0.935730  0.630350  1.0  0.0578
  C  C325  1  0.862470  0.980330  0.606650  1.0  -0.1267
  C  C326  1  0.871770  0.028530  0.622400  1.0  -0.1103
  C  C327  1  0.863070  0.031130  0.660980  1.0  -0.1363
  C  C328  1  0.845960  0.985040  0.682930  1.0  0.0496
  C  C329  1  0.831820  0.880610  0.617090  1.0  0.6432
  C  C330  1  0.836030  0.982800  0.724900  1.0  0.6566
  C  C331  1  0.955060  0.713820  0.019540  1.0  0.041
  C  C332  1  0.929270  0.665430  0.039480  1.0  -0.1304
  C  C333  1  0.953670  0.634230  0.040360  1.0  -0.1088
  C  C334  1  0.002570  0.651730  0.021910  1.0  -0.1316
  C  C335  1  0.026050  0.700930  0.002910  1.0  0.0476
  C  C336  1  0.933380  0.752010  0.015580  1.0  0.6457
  C  C337  1  0.078670  0.724730  0.982480  1.0  0.6566
  C  C338  1  0.729840  0.790410  0.468170  1.0  0.036
  C  C339  1  0.687870  0.770930  0.441580  1.0  -0.1339
  C  C340  1  0.657570  0.715230  0.436190  1.0  -0.1053
  C  C341  1  0.669370  0.681430  0.456930  1.0  -0.1266
  C  C342  1  0.711870  0.703920  0.482590  1.0  0.057
  C  C343  1  0.765140  0.848910  0.477300  1.0  0.6556
  C  C344  1  0.729960  0.672340  0.506570  1.0  0.6487
  C  C345  1  0.604230  0.188530  0.217580  1.0  0.0391
  C  C346  1  0.588030  0.217070  0.241360  1.0  -0.1426
  C  C347  1  0.552530  0.232270  0.226490  1.0  -0.1092
  C  C348  1  0.535420  0.220270  0.189070  1.0  -0.1197
  C  C349  1  0.554360  0.192660  0.167190  1.0  0.0478
  C  C350  1  0.641570  0.169170  0.230230  1.0  0.6467
  C  C351  1  0.540020  0.177550  0.126160  1.0  0.6642
  C  C352  1  0.510880  0.269070  0.963690  1.0  0.0577
  C  C353  1  0.529130  0.313670  0.939990  1.0  -0.1267
  C  C354  1  0.538430  0.361870  0.955740  1.0  -0.1105
  C  C355  1  0.529730  0.364470  0.994320  1.0  -0.1363
  C  C356  1  0.512620  0.318380  0.016270  1.0  0.0496
  C  C357  1  0.498480  0.213950  0.950430  1.0  0.6432
  C  C358  1  0.502690  0.316140  0.058240  1.0  0.6566
  C  C359  1  0.621720  0.047160  0.352880  1.0  0.041
  C  C360  1  0.595930  0.998770  0.372820  1.0  -0.1304
  C  C361  1  0.620330  0.967570  0.373700  1.0  -0.1088
  C  C362  1  0.669230  0.985070  0.355250  1.0  -0.1319
  C  C363  1  0.692710  0.034270  0.336250  1.0  0.0473
  C  C364  1  0.600040  0.085350  0.348920  1.0  0.6464
  C  C365  1  0.745330  0.058070  0.315820  1.0  0.6566
  C  C366  1  0.396500  0.123750  0.801510  1.0  0.036
  C  C367  1  0.354530  0.104270  0.774920  1.0  -0.1339
  C  C368  1  0.324230  0.048570  0.769530  1.0  -0.1052
  C  C369  1  0.336030  0.014770  0.790270  1.0  -0.1265
  C  C370  1  0.378530  0.037260  0.815930  1.0  0.057
  C  C371  1  0.431800  0.182250  0.810640  1.0  0.6557
  C  C372  1  0.396620  0.005680  0.839910  1.0  0.6484
  C  C373  1  0.478140  0.749040  0.550910  1.0  0.04
  C  C374  1  0.449600  0.704300  0.574690  1.0  -0.1423
  C  C375  1  0.434400  0.653600  0.559820  1.0  -0.1078
  C  C376  1  0.446400  0.648490  0.522400  1.0  -0.1227
  C  C377  1  0.474010  0.695040  0.500520  1.0  0.0482
  C  C378  1  0.497500  0.805740  0.563560  1.0  0.6504
  C  C379  1  0.489120  0.695810  0.459490  1.0  0.6657
  C  C380  1  0.397600  0.575150  0.297020  1.0  0.0566
  C  C381  1  0.353000  0.548800  0.273320  1.0  -0.1255
  C  C382  1  0.304800  0.509900  0.289070  1.0  -0.1107
  C  C383  1  0.302200  0.498600  0.327650  1.0  -0.1328
  C  C384  1  0.348290  0.527580  0.349600  1.0  0.0492
  C  C385  1  0.452720  0.617870  0.283760  1.0  0.6413
  C  C386  1  0.350530  0.519890  0.391570  1.0  0.657
  C  C387  1  0.619510  0.907900  0.686210  1.0  0.04
  C  C388  1  0.667900  0.930500  0.706150  1.0  -0.1283
  C  C389  1  0.699100  0.986100  0.707030  1.0  -0.1082
  C  C390  1  0.681600  0.017500  0.688580  1.0  -0.132
  C  C391  1  0.632400  0.991780  0.669580  1.0  0.0481
  C  C392  1  0.581320  0.848030  0.682250  1.0  0.6477
  C  C393  1  0.608600  0.020600  0.649150  1.0  0.6571
  C  C394  1  0.542920  0.606090  0.134840  1.0  0.0352
  C  C395  1  0.562400  0.583600  0.108250  1.0  -0.1371
  C  C396  1  0.618100  0.609000  0.102860  1.0  -0.1027
  C  C397  1  0.651900  0.654600  0.123600  1.0  -0.1253
  C  C398  1  0.629410  0.674610  0.149260  1.0  0.0579
  C  C399  1  0.484420  0.582890  0.143970  1.0  0.6526
  C  C400  1  0.660990  0.724280  0.173240  1.0  0.6491
  C  C401  1  0.144810  0.082370  0.884240  1.0  0.0402
  C  C402  1  0.116270  0.037630  0.908020  1.0  -0.1423
  C  C403  1  0.101070  0.986930  0.893150  1.0  -0.1078
  C  C404  1  0.113070  0.981820  0.855730  1.0  -0.1227
  C  C405  1  0.140680  0.028370  0.833850  1.0  0.0482
  C  C406  1  0.164170  0.139070  0.896890  1.0  0.6509
  C  C407  1  0.155790  0.029140  0.792820  1.0  0.6657
  C  C408  1  0.064270  0.908480  0.630350  1.0  0.0567
  C  C409  1  0.019670  0.882130  0.606650  1.0  -0.1255
  C  C410  1  0.971470  0.843230  0.622400  1.0  -0.1107
  C  C411  1  0.968870  0.831930  0.660980  1.0  -0.1329
  C  C412  1  0.014960  0.860910  0.682930  1.0  0.0492
  C  C413  1  0.119390  0.951200  0.617090  1.0  0.6415
  C  C414  1  0.017200  0.853220  0.724900  1.0  0.657
  C  C415  1  0.286180  0.241230  0.019540  1.0  0.04
  C  C416  1  0.334570  0.263830  0.039480  1.0  -0.1283
  C  C417  1  0.365770  0.319430  0.040360  1.0  -0.1082
  C  C418  1  0.348270  0.350830  0.021910  1.0  -0.132
  C  C419  1  0.299070  0.325110  0.002910  1.0  0.0482
  C  C420  1  0.247990  0.181360  0.015580  1.0  0.647
  C  C421  1  0.275270  0.353930  0.982480  1.0  0.6569
  C  C422  1  0.209590  0.939420  0.468170  1.0  0.0353
  C  C423  1  0.229070  0.916930  0.441580  1.0  -0.1371
  C  C424  1  0.284770  0.942330  0.436190  1.0  -0.1027
  C  C425  1  0.318570  0.987930  0.456930  1.0  -0.1253
  C  C426  1  0.296080  0.007940  0.482590  1.0  0.0579
  C  C427  1  0.151090  0.916220  0.477300  1.0  0.6535
  C  C428  1  0.327660  0.057610  0.506570  1.0  0.6495
  C  C429  1  0.811470  0.415710  0.217580  1.0  0.04
  C  C430  1  0.782930  0.370970  0.241360  1.0  -0.1423
  C  C431  1  0.767730  0.320270  0.226490  1.0  -0.1078
  C  C432  1  0.779730  0.315160  0.189070  1.0  -0.1227
  C  C433  1  0.807340  0.361710  0.167190  1.0  0.0482
  C  C434  1  0.830830  0.472410  0.230230  1.0  0.6486
  C  C435  1  0.822450  0.362480  0.126160  1.0  0.6657
  C  C436  1  0.730930  0.241820  0.963690  1.0  0.0566
  C  C437  1  0.686330  0.215470  0.939990  1.0  -0.1255
  C  C438  1  0.638130  0.176570  0.955740  1.0  -0.1108
  C  C439  1  0.635530  0.165270  0.994320  1.0  -0.1328
  C  C440  1  0.681620  0.194250  0.016270  1.0  0.0492
  C  C441  1  0.786050  0.284540  0.950430  1.0  0.6413
  C  C442  1  0.683860  0.186560  0.058240  1.0  0.657
  C  C443  1  0.952840  0.574570  0.352880  1.0  0.0401
  C  C444  1  0.001230  0.597170  0.372820  1.0  -0.1283
  C  C445  1  0.032430  0.652770  0.373700  1.0  -0.1082
  C  C446  1  0.014930  0.684170  0.355250  1.0  -0.1318
  C  C447  1  0.965730  0.658450  0.336250  1.0  0.0481
  C  C448  1  0.914650  0.514700  0.348920  1.0  0.6477
  C  C449  1  0.941930  0.687270  0.315820  1.0  0.6571
  C  C450  1  0.876250  0.272760  0.801510  1.0  0.0352
  C  C451  1  0.895730  0.250270  0.774920  1.0  -0.1371
  C  C452  1  0.951430  0.275670  0.769530  1.0  -0.1032
  C  C453  1  0.985230  0.321270  0.790270  1.0  -0.1252
  C  C454  1  0.962740  0.341280  0.815930  1.0  0.0578
  C  C455  1  0.817750  0.249560  0.810640  1.0  0.6526
  C  C456  1  0.994320  0.390950  0.839910  1.0  0.6492
  C  C457  1  0.250960  0.729100  0.550910  1.0  0.0399
  C  C458  1  0.295700  0.745300  0.574690  1.0  -0.1426
  C  C459  1  0.346400  0.780800  0.559820  1.0  -0.1085
  C  C460  1  0.351510  0.797910  0.522400  1.0  -0.1205
  C  C461  1  0.304960  0.778970  0.500520  1.0  0.0477
  C  C462  1  0.194260  0.691760  0.563560  1.0  0.6481
  C  C463  1  0.304190  0.793310  0.459490  1.0  0.6647
  C  C464  1  0.424850  0.822450  0.297020  1.0  0.0579
  C  C465  1  0.451200  0.804200  0.273320  1.0  -0.1245
  C  C466  1  0.490100  0.794900  0.289070  1.0  -0.1091
  C  C467  1  0.501400  0.803600  0.327650  1.0  -0.1321
  C  C468  1  0.472420  0.820710  0.349600  1.0  0.049
  C  C469  1  0.382130  0.834850  0.283760  1.0  0.6397
  C  C470  1  0.480110  0.830640  0.391570  1.0  0.6565
  C  C471  1  0.092100  0.711610  0.686210  1.0  0.0412
  C  C472  1  0.069500  0.737400  0.706150  1.0  -0.1314
  C  C473  1  0.013900  0.713000  0.707030  1.0  -0.1107
  C  C474  1  0.982500  0.664100  0.688580  1.0  -0.1307
  C  C475  1  0.008220  0.640620  0.669580  1.0  0.0473
  C  C476  1  0.151970  0.733290  0.682250  1.0  0.6458
  C  C477  1  0.979400  0.588000  0.649150  1.0  0.6599
  C  C478  1  0.393910  0.936830  0.134840  1.0  0.0359
  C  C479  1  0.416400  0.978800  0.108250  1.0  -0.1334
  C  C480  1  0.391000  0.009100  0.102860  1.0  -0.106
  C  C481  1  0.345400  0.997300  0.123600  1.0  -0.1251
  C  C482  1  0.325390  0.954800  0.149260  1.0  0.0578
  C  C483  1  0.417110  0.901530  0.143970  1.0  0.6519
  C  C484  1  0.275720  0.936710  0.173240  1.0  0.6488
  C  C485  1  0.917630  0.062430  0.884240  1.0  0.0399
  C  C486  1  0.962370  0.078630  0.908020  1.0  -0.1426
  C  C487  1  0.013070  0.114130  0.893150  1.0  -0.1085
  C  C488  1  0.018180  0.131240  0.855730  1.0  -0.1205
  C  C489  1  0.971630  0.112300  0.833850  1.0  0.0477
  C  C490  1  0.860930  0.025090  0.896890  1.0  0.648
  C  C491  1  0.970860  0.126640  0.792820  1.0  0.6647
  C  C492  1  0.091520  0.155780  0.630350  1.0  0.0578
  C  C493  1  0.117870  0.137530  0.606650  1.0  -0.1244
  C  C494  1  0.156770  0.128230  0.622400  1.0  -0.1091
  C  C495  1  0.168070  0.136930  0.660980  1.0  -0.1321
  C  C496  1  0.139090  0.154040  0.682930  1.0  0.049
  C  C497  1  0.048800  0.168180  0.617090  1.0  0.64
  C  C498  1  0.146780  0.163970  0.724900  1.0  0.6565
  C  C499  1  0.758770  0.044940  0.019540  1.0  0.0412
  C  C500  1  0.736170  0.070730  0.039480  1.0  -0.1314
  C  C501  1  0.680570  0.046330  0.040360  1.0  -0.1107
  C  C502  1  0.649170  0.997430  0.021910  1.0  -0.1309
  C  C503  1  0.674890  0.973950  0.002910  1.0  0.0474
  C  C504  1  0.818640  0.066620  0.015580  1.0  0.646
  C  C505  1  0.646070  0.921330  0.982480  1.0  0.66
  C  C506  1  0.060580  0.270160  0.468170  1.0  0.0359
  C  C507  1  0.083070  0.312130  0.441580  1.0  -0.1334
  C  C508  1  0.057670  0.342430  0.436190  1.0  -0.106
  C  C509  1  0.012070  0.330630  0.456930  1.0  -0.1252
  C  C510  1  0.992060  0.288130  0.482590  1.0  0.0578
  C  C511  1  0.083780  0.234860  0.477300  1.0  0.6527
  C  C512  1  0.942390  0.270040  0.506570  1.0  0.6486
  C  C513  1  0.584290  0.395770  0.217580  1.0  0.0399
  C  C514  1  0.629030  0.411970  0.241360  1.0  -0.1426
  C  C515  1  0.679730  0.447470  0.226490  1.0  -0.1085
  C  C516  1  0.684840  0.464580  0.189070  1.0  -0.1205
  C  C517  1  0.638290  0.445640  0.167190  1.0  0.0477
  C  C518  1  0.527590  0.358430  0.230230  1.0  0.6465
  C  C519  1  0.637520  0.459980  0.126160  1.0  0.6647
  C  C520  1  0.758180  0.489120  0.963690  1.0  0.058
  C  C521  1  0.784530  0.470870  0.939990  1.0  -0.1245
  C  C522  1  0.823430  0.461570  0.955740  1.0  -0.109
  C  C523  1  0.834730  0.470270  0.994320  1.0  -0.132
  C  C524  1  0.805750  0.487380  0.016270  1.0  0.049
  C  C525  1  0.715460  0.501520  0.950430  1.0  0.6401
  C  C526  1  0.813440  0.497310  0.058240  1.0  0.6565
  C  C527  1  0.425430  0.378280  0.352880  1.0  0.0412
  C  C528  1  0.402830  0.404070  0.372820  1.0  -0.1313
  C  C529  1  0.347230  0.379670  0.373700  1.0  -0.1107
  C  C530  1  0.315830  0.330770  0.355250  1.0  -0.1308
  C  C531  1  0.341550  0.307290  0.336250  1.0  0.0473
  C  C532  1  0.485300  0.399960  0.348920  1.0  0.6458
  C  C533  1  0.312730  0.254670  0.315820  1.0  0.66
  C  C534  1  0.727240  0.603500  0.801510  1.0  0.0359
  C  C535  1  0.749730  0.645470  0.774920  1.0  -0.1334
  C  C536  1  0.724330  0.675770  0.769530  1.0  -0.1061
  C  C537  1  0.678730  0.663970  0.790270  1.0  -0.1253
  C  C538  1  0.658720  0.621470  0.815930  1.0  0.0579
  C  C539  1  0.750440  0.568200  0.810640  1.0  0.6519
  C  C540  1  0.609050  0.603380  0.839910  1.0  0.6476
  C  C541  1  0.729100  0.478140  0.449090  1.0  0.0382
  C  C542  1  0.745300  0.449600  0.425310  1.0  -0.142
  C  C543  1  0.780800  0.434400  0.440180  1.0  -0.1073
  C  C544  1  0.797910  0.446400  0.477600  1.0  -0.1192
  C  C545  1  0.778970  0.474010  0.499480  1.0  0.0468
  C  C546  1  0.691760  0.497500  0.436440  1.0  0.6469
  C  C547  1  0.793310  0.489120  0.540510  1.0  0.6619
  C  C548  1  0.822450  0.397600  0.702980  1.0  0.0572
  C  C549  1  0.804200  0.353000  0.726680  1.0  -0.1269
  C  C550  1  0.794900  0.304800  0.710930  1.0  -0.1098
  C  C551  1  0.803600  0.302200  0.672350  1.0  -0.1334
  C  C552  1  0.820710  0.348290  0.650400  1.0  0.0511
  C  C553  1  0.834850  0.452720  0.716240  1.0  0.6438
  C  C554  1  0.830640  0.350530  0.608430  1.0  0.6561
  C  C555  1  0.711610  0.619510  0.313790  1.0  0.0416
  C  C556  1  0.737400  0.667900  0.293850  1.0  -0.1307
  C  C557  1  0.713000  0.699100  0.292970  1.0  -0.108
  C  C558  1  0.664100  0.681600  0.311420  1.0  -0.13
  C  C559  1  0.640620  0.632400  0.330420  1.0  0.0472
  C  C560  1  0.733290  0.581320  0.317750  1.0  0.6473
  C  C561  1  0.588000  0.608600  0.350850  1.0  0.6566
  C  C562  1  0.936830  0.542920  0.865160  1.0  0.0358
  C  C563  1  0.978800  0.562400  0.891750  1.0  -0.1352
  C  C564  1  0.009100  0.618100  0.897140  1.0  -0.1043
  C  C565  1  0.997300  0.651900  0.876400  1.0  -0.126
  C  C566  1  0.954800  0.629410  0.850740  1.0  0.0574
  C  C567  1  0.901530  0.484420  0.856030  1.0  0.6555
  C  C568  1  0.936710  0.660990  0.826760  1.0  0.6511
  C  C569  1  0.395770  0.811470  0.782420  1.0  0.0382
  C  C570  1  0.411970  0.782930  0.758640  1.0  -0.142
  C  C571  1  0.447470  0.767730  0.773510  1.0  -0.1073
  C  C572  1  0.464580  0.779730  0.810930  1.0  -0.1192
  C  C573  1  0.445640  0.807340  0.832810  1.0  0.0468
  C  C574  1  0.358430  0.830830  0.769770  1.0  0.6454
  C  C575  1  0.459980  0.822450  0.873840  1.0  0.6619
  C  C576  1  0.489120  0.730930  0.036310  1.0  0.0573
  C  C577  1  0.470870  0.686330  0.060010  1.0  -0.1269
  C  C578  1  0.461570  0.638130  0.044260  1.0  -0.1099
  C  C579  1  0.470270  0.635530  0.005680  1.0  -0.1333
  C  C580  1  0.487380  0.681620  0.983730  1.0  0.0511
  C  C581  1  0.501520  0.786050  0.049570  1.0  0.6438
  C  C582  1  0.497310  0.683860  0.941760  1.0  0.6561
  C  C583  1  0.378280  0.952840  0.647120  1.0  0.0416
  C  C584  1  0.404070  0.001230  0.627180  1.0  -0.1307
  C  C585  1  0.379670  0.032430  0.626300  1.0  -0.108
  C  C586  1  0.330770  0.014930  0.644750  1.0  -0.1302
  C  C587  1  0.307290  0.965730  0.663750  1.0  0.0472
  C  C588  1  0.399960  0.914650  0.651080  1.0  0.6473
  C  C589  1  0.254670  0.941930  0.684180  1.0  0.6566
  C  C590  1  0.603500  0.876250  0.198490  1.0  0.0358
  C  C591  1  0.645470  0.895730  0.225080  1.0  -0.1352
  C  C592  1  0.675770  0.951430  0.230470  1.0  -0.1041
  C  C593  1  0.663970  0.985230  0.209730  1.0  -0.1259
  C  C594  1  0.621470  0.962740  0.184070  1.0  0.0574
  C  C595  1  0.568200  0.817750  0.189360  1.0  0.6555
  C  C596  1  0.603380  0.994320  0.160090  1.0  0.6507
  C  C597  1  0.062430  0.144810  0.115760  1.0  0.0384
  C  C598  1  0.078630  0.116270  0.091980  1.0  -0.1421
  C  C599  1  0.114130  0.101070  0.106850  1.0  -0.1073
  C  C600  1  0.131240  0.113070  0.144270  1.0  -0.1192
  C  C601  1  0.112300  0.140680  0.166150  1.0  0.0469
  C  C602  1  0.025090  0.164170  0.103110  1.0  0.6467
  C  C603  1  0.126640  0.155790  0.207180  1.0  0.6619
  C  C604  1  0.155780  0.064270  0.369650  1.0  0.0573
  C  C605  1  0.137530  0.019670  0.393350  1.0  -0.1269
  C  C606  1  0.128230  0.971470  0.377600  1.0  -0.1098
  C  C607  1  0.136930  0.968870  0.339020  1.0  -0.1333
  C  C608  1  0.154040  0.014960  0.317070  1.0  0.0511
  C  C609  1  0.168180  0.119390  0.382910  1.0  0.6437
  C  C610  1  0.163970  0.017200  0.275100  1.0  0.6561
  C  C611  1  0.044940  0.286180  0.980460  1.0  0.0416
  C  C612  1  0.070730  0.334570  0.960520  1.0  -0.1307
  C  C613  1  0.046330  0.365770  0.959640  1.0  -0.108
  C  C614  1  0.997430  0.348270  0.978090  1.0  -0.13
  C  C615  1  0.973950  0.299070  0.997090  1.0  0.0475
  C  C616  1  0.066620  0.247990  0.984420  1.0  0.6468
  C  C617  1  0.921330  0.275270  0.017520  1.0  0.6566
  C  C618  1  0.270160  0.209590  0.531830  1.0  0.0358
  C  C619  1  0.312130  0.229070  0.558420  1.0  -0.1351
  C  C620  1  0.342430  0.284770  0.563810  1.0  -0.1043
  C  C621  1  0.330630  0.318570  0.543070  1.0  -0.1259
  C  C622  1  0.288130  0.296080  0.517410  1.0  0.0574
  C  C623  1  0.234860  0.151090  0.522700  1.0  0.6553
  C  C624  1  0.270040  0.327660  0.493430  1.0  0.6511
  C  C625  1  0.521860  0.250960  0.449090  1.0  0.0397
  C  C626  1  0.550400  0.295700  0.425310  1.0  -0.143
  C  C627  1  0.565600  0.346400  0.440180  1.0  -0.1082
  C  C628  1  0.553600  0.351510  0.477600  1.0  -0.1218
  C  C629  1  0.525990  0.304960  0.499480  1.0  0.0466
  C  C630  1  0.502500  0.194260  0.436440  1.0  0.6489
  C  C631  1  0.510880  0.304190  0.540510  1.0  0.6631
  C  C632  1  0.602400  0.424850  0.702980  1.0  0.0558
  C  C633  1  0.647000  0.451200  0.726680  1.0  -0.1256
  C  C634  1  0.695200  0.490100  0.710930  1.0  -0.1095
  C  C635  1  0.697800  0.501400  0.672350  1.0  -0.1317
  C  C636  1  0.651710  0.472420  0.650400  1.0  0.0499
  C  C637  1  0.547280  0.382130  0.716240  1.0  0.641
  C  C638  1  0.649470  0.480110  0.608430  1.0  0.6583
  C  C639  1  0.380490  0.092100  0.313790  1.0  0.0397
  C  C640  1  0.332100  0.069500  0.293850  1.0  -0.1295
  C  C641  1  0.300900  0.013900  0.292970  1.0  -0.1087
  C  C642  1  0.318400  0.982500  0.311420  1.0  -0.1326
  C  C643  1  0.367600  0.008220  0.330420  1.0  0.0483
  C  C644  1  0.418680  0.151970  0.317750  1.0  0.6491
  C  C645  1  0.391400  0.979400  0.350850  1.0  0.6581
  C  C646  1  0.457080  0.393910  0.865160  1.0  0.0356
  C  C647  1  0.437600  0.416400  0.891750  1.0  -0.1372
  C  C648  1  0.381900  0.391000  0.897140  1.0  -0.1047
  C  C649  1  0.348100  0.345400  0.876400  1.0  -0.1267
  C  C650  1  0.370590  0.325390  0.850740  1.0  0.0575
  C  C651  1  0.515580  0.417110  0.856030  1.0  0.6525
  C  C652  1  0.339010  0.275720  0.826760  1.0  0.6497
  C  C653  1  0.188530  0.584290  0.782420  1.0  0.0397
  C  C654  1  0.217070  0.629030  0.758640  1.0  -0.143
  C  C655  1  0.232270  0.679730  0.773510  1.0  -0.1082
  C  C656  1  0.220270  0.684840  0.810930  1.0  -0.1218
  C  C657  1  0.192660  0.638290  0.832810  1.0  0.0466
  C  C658  1  0.169170  0.527590  0.769770  1.0  0.6475
  C  C659  1  0.177550  0.637520  0.873840  1.0  0.6631
  C  C660  1  0.269070  0.758180  0.036310  1.0  0.0558
  C  C661  1  0.313670  0.784530  0.060010  1.0  -0.1256
  C  C662  1  0.361870  0.823430  0.044260  1.0  -0.1096
  C  C663  1  0.364470  0.834730  0.005680  1.0  -0.1317
  C  C664  1  0.318380  0.805750  0.983730  1.0  0.0499
  C  C665  1  0.213950  0.715460  0.049570  1.0  0.641
  C  C666  1  0.316140  0.813440  0.941760  1.0  0.6583
  C  C667  1  0.047160  0.425430  0.647120  1.0  0.0397
  C  C668  1  0.998770  0.402830  0.627180  1.0  -0.1295
  C  C669  1  0.967570  0.347230  0.626300  1.0  -0.1087
  C  C670  1  0.985070  0.315830  0.644750  1.0  -0.1324
  C  C671  1  0.034270  0.341550  0.663750  1.0  0.0483
  C  C672  1  0.085350  0.485300  0.651080  1.0  0.6491
  C  C673  1  0.058070  0.312730  0.684180  1.0  0.6581
  C  C674  1  0.123750  0.727240  0.198490  1.0  0.0356
  C  C675  1  0.104270  0.749730  0.225080  1.0  -0.1372
  C  C676  1  0.048570  0.724330  0.230470  1.0  -0.1051
  C  C677  1  0.014770  0.678730  0.209730  1.0  -0.1266
  C  C678  1  0.037260  0.658720  0.184070  1.0  0.0574
  C  C679  1  0.182250  0.750440  0.189360  1.0  0.6525
  C  C680  1  0.005680  0.609050  0.160090  1.0  0.6499
  C  C681  1  0.855190  0.917630  0.115760  1.0  0.0399
  C  C682  1  0.883730  0.962370  0.091980  1.0  -0.143
  C  C683  1  0.898930  0.013070  0.106850  1.0  -0.1082
  C  C684  1  0.886930  0.018180  0.144270  1.0  -0.1218
  C  C685  1  0.859320  0.971630  0.166150  1.0  0.0466
  C  C686  1  0.835830  0.860930  0.103110  1.0  0.6494
  C  C687  1  0.844210  0.970860  0.207180  1.0  0.6631
  C  C688  1  0.935730  0.091520  0.369650  1.0  0.056
  C  C689  1  0.980330  0.117870  0.393350  1.0  -0.1256
  C  C690  1  0.028530  0.156770  0.377600  1.0  -0.1095
  C  C691  1  0.031130  0.168070  0.339020  1.0  -0.1318
  C  C692  1  0.985040  0.139090  0.317070  1.0  0.0499
  C  C693  1  0.880610  0.048800  0.382910  1.0  0.6411
  C  C694  1  0.982800  0.146780  0.275100  1.0  0.6583
  C  C695  1  0.713820  0.758770  0.980460  1.0  0.0397
  C  C696  1  0.665430  0.736170  0.960520  1.0  -0.1295
  C  C697  1  0.634230  0.680570  0.959640  1.0  -0.1087
  C  C698  1  0.651730  0.649170  0.978090  1.0  -0.1326
  C  C699  1  0.700930  0.674890  0.997090  1.0  0.0484
  C  C700  1  0.752010  0.818640  0.984420  1.0  0.649
  C  C701  1  0.724730  0.646070  0.017520  1.0  0.6579
  C  C702  1  0.790410  0.060580  0.531830  1.0  0.0356
  C  C703  1  0.770930  0.083070  0.558420  1.0  -0.1372
  C  C704  1  0.715230  0.057670  0.563810  1.0  -0.1047
  C  C705  1  0.681430  0.012070  0.543070  1.0  -0.1267
  C  C706  1  0.703920  0.992060  0.517410  1.0  0.0575
  C  C707  1  0.848910  0.083780  0.522700  1.0  0.6533
  C  C708  1  0.672340  0.942390  0.493430  1.0  0.6503
  C  C709  1  0.749040  0.270900  0.449090  1.0  0.0396
  C  C710  1  0.704300  0.254700  0.425310  1.0  -0.1411
  C  C711  1  0.653600  0.219200  0.440180  1.0  -0.109
  C  C712  1  0.648490  0.202090  0.477600  1.0  -0.1194
  C  C713  1  0.695040  0.221030  0.499480  1.0  0.0467
  C  C714  1  0.805740  0.308240  0.436440  1.0  0.648
  C  C715  1  0.695810  0.206690  0.540510  1.0  0.6627
  C  C716  1  0.575150  0.177550  0.702980  1.0  0.0584
  C  C717  1  0.548800  0.195800  0.726680  1.0  -0.1252
  C  C718  1  0.509900  0.205100  0.710930  1.0  -0.1114
  C  C719  1  0.498600  0.196400  0.672350  1.0  -0.1326
  C  C720  1  0.527580  0.179290  0.650400  1.0  0.0497
  C  C721  1  0.617870  0.165150  0.716240  1.0  0.6415
  C  C722  1  0.519890  0.169360  0.608430  1.0  0.6565
  C  C723  1  0.907900  0.288390  0.313790  1.0  0.0418
  C  C724  1  0.930500  0.262600  0.293850  1.0  -0.1318
  C  C725  1  0.986100  0.287000  0.292970  1.0  -0.1071
  C  C726  1  0.017500  0.335900  0.311420  1.0  -0.1314
  C  C727  1  0.991780  0.359380  0.330420  1.0  0.0472
  C  C728  1  0.848030  0.266710  0.317750  1.0  0.6477
  C  C729  1  0.020600  0.412000  0.350850  1.0  0.6598
  C  C730  1  0.606090  0.063170  0.865160  1.0  0.0351
  C  C731  1  0.583600  0.021200  0.891750  1.0  -0.1351
  C  C732  1  0.609000  0.990900  0.897140  1.0  -0.1044
  C  C733  1  0.654600  0.002700  0.876400  1.0  -0.1251
  C  C734  1  0.674610  0.045200  0.850740  1.0  0.0587
  C  C735  1  0.582890  0.098470  0.856030  1.0  0.6518
  C  C736  1  0.724280  0.063290  0.826760  1.0  0.65
  C  C737  1  0.415710  0.604230  0.782420  1.0  0.0396
  C  C738  1  0.370970  0.588030  0.758640  1.0  -0.1411
  C  C739  1  0.320270  0.552530  0.773510  1.0  -0.109
  C  C740  1  0.315160  0.535420  0.810930  1.0  -0.1194
  C  C741  1  0.361710  0.554360  0.832810  1.0  0.0467
  C  C742  1  0.472410  0.641570  0.769770  1.0  0.6464
  C  C743  1  0.362480  0.540020  0.873840  1.0  0.6627
  C  C744  1  0.241820  0.510880  0.036310  1.0  0.0585
  C  C745  1  0.215470  0.529130  0.060010  1.0  -0.1252
  C  C746  1  0.176570  0.538430  0.044260  1.0  -0.1113
  C  C747  1  0.165270  0.529730  0.005680  1.0  -0.1325
  C  C748  1  0.194250  0.512620  0.983730  1.0  0.0497
  C  C749  1  0.284540  0.498480  0.049570  1.0  0.6416
  C  C750  1  0.186560  0.502690  0.941760  1.0  0.6565
  C  C751  1  0.574570  0.621720  0.647120  1.0  0.0418
  C  C752  1  0.597170  0.595930  0.627180  1.0  -0.1318
  C  C753  1  0.652770  0.620330  0.626300  1.0  -0.1071
  C  C754  1  0.684170  0.669230  0.644750  1.0  -0.1315
  C  C755  1  0.658450  0.692710  0.663750  1.0  0.0472
  C  C756  1  0.514700  0.600040  0.651080  1.0  0.6477
  C  C757  1  0.687270  0.745330  0.684180  1.0  0.6598
  C  C758  1  0.272760  0.396500  0.198490  1.0  0.0351
  C  C759  1  0.250270  0.354530  0.225080  1.0  -0.1351
  C  C760  1  0.275670  0.324230  0.230470  1.0  -0.1044
  C  C761  1  0.321270  0.336030  0.209730  1.0  -0.1253
  C  C762  1  0.341280  0.378530  0.184070  1.0  0.0588
  C  C763  1  0.249560  0.431800  0.189360  1.0  0.6518
  C  C764  1  0.390950  0.396620  0.160090  1.0  0.6488
  C  C765  1  0.082370  0.937570  0.115760  1.0  0.0396
  C  C766  1  0.037630  0.921370  0.091980  1.0  -0.1412
  C  C767  1  0.986930  0.885870  0.106850  1.0  -0.109
  C  C768  1  0.981820  0.868760  0.144270  1.0  -0.1194
  C  C769  1  0.028370  0.887700  0.166150  1.0  0.0466
  C  C770  1  0.139070  0.974910  0.103110  1.0  0.6478
  C  C771  1  0.029140  0.873360  0.207180  1.0  0.6627
  C  C772  1  0.908480  0.844220  0.369650  1.0  0.0583
  C  C773  1  0.882130  0.862470  0.393350  1.0  -0.1252
  C  C774  1  0.843230  0.871770  0.377600  1.0  -0.1114
  C  C775  1  0.831930  0.863070  0.339020  1.0  -0.1326
  C  C776  1  0.860910  0.845960  0.317070  1.0  0.0497
  C  C777  1  0.951200  0.831820  0.382910  1.0  0.6414
  C  C778  1  0.853220  0.836030  0.275100  1.0  0.6565
  C  C779  1  0.241230  0.955060  0.980460  1.0  0.0418
  C  C780  1  0.263830  0.929270  0.960520  1.0  -0.1318
  C  C781  1  0.319430  0.953670  0.959640  1.0  -0.1071
  C  C782  1  0.350830  0.002570  0.978090  1.0  -0.1316
  C  C783  1  0.325110  0.026050  0.997090  1.0  0.0473
  C  C784  1  0.181360  0.933380  0.984420  1.0  0.6478
  C  C785  1  0.353930  0.078670  0.017520  1.0  0.6598
  C  C786  1  0.939420  0.729840  0.531830  1.0  0.0351
  C  C787  1  0.916930  0.687870  0.558420  1.0  -0.1351
  C  C788  1  0.942330  0.657570  0.563810  1.0  -0.1044
  C  C789  1  0.987930  0.669370  0.543070  1.0  -0.1252
  C  C790  1  0.007940  0.711870  0.517410  1.0  0.0587
  C  C791  1  0.916220  0.765140  0.522700  1.0  0.6526
  C  C792  1  0.057610  0.729960  0.493430  1.0  0.6497
  N  N793  1  0.254240  0.509960  0.514690  1.0  -0.4982
  N  N794  1  0.170210  0.604820  0.334450  1.0  -0.5298
  N  N795  1  0.336000  0.398500  0.668500  1.0  -0.5285
  N  N796  1  0.074740  0.424220  0.155030  1.0  -0.5192
  N  N797  1  0.920910  0.843290  0.848020  1.0  -0.4976
  N  N798  1  0.836880  0.938150  0.667780  1.0  -0.5298
  N  N799  1  0.002670  0.731830  0.001830  1.0  -0.5285
  N  N800  1  0.741410  0.757550  0.488360  1.0  -0.5192
  N  N801  1  0.587570  0.176630  0.181360  1.0  -0.4982
  N  N802  1  0.503540  0.271490  0.001120  1.0  -0.5298
  N  N803  1  0.669330  0.065170  0.335170  1.0  -0.5285
  N  N804  1  0.408070  0.090890  0.821700  1.0  -0.5189
  N  N805  1  0.490040  0.744280  0.514690  1.0  -0.4993
  N  N806  1  0.395180  0.565390  0.334450  1.0  -0.531
  N  N807  1  0.601500  0.937500  0.668500  1.0  -0.5269
  N  N808  1  0.575780  0.650520  0.155030  1.0  -0.5195
  N  N809  1  0.156710  0.077610  0.848020  1.0  -0.4988
  N  N810  1  0.061850  0.898720  0.667780  1.0  -0.531
  N  N811  1  0.268170  0.270830  0.001830  1.0  -0.5269
  N  N812  1  0.242450  0.983850  0.488360  1.0  -0.5195
  N  N813  1  0.823370  0.410950  0.181360  1.0  -0.4993
  N  N814  1  0.728510  0.232060  0.001120  1.0  -0.531
  N  N815  1  0.934830  0.604170  0.335170  1.0  -0.5269
  N  N816  1  0.909110  0.317190  0.821700  1.0  -0.5195
  N  N817  1  0.255720  0.745760  0.514690  1.0  -0.4992
  N  N818  1  0.434610  0.829790  0.334450  1.0  -0.5301
  N  N819  1  0.062500  0.664000  0.668500  1.0  -0.5278
  N  N820  1  0.349480  0.925260  0.155030  1.0  -0.5184
  N  N821  1  0.922390  0.079090  0.848020  1.0  -0.4955
  N  N822  1  0.101280  0.163120  0.667780  1.0  -0.5301
  N  N823  1  0.729170  0.997330  0.001830  1.0  -0.5278
  N  N824  1  0.016150  0.258590  0.488360  1.0  -0.5184
  N  N825  1  0.589050  0.412430  0.181360  1.0  -0.4992
  N  N826  1  0.767940  0.496460  0.001120  1.0  -0.5301
  N  N827  1  0.395830  0.330670  0.335170  1.0  -0.5278
  N  N828  1  0.682810  0.591930  0.821700  1.0  -0.5184
  N  N829  1  0.745760  0.490040  0.485310  1.0  -0.4995
  N  N830  1  0.829790  0.395180  0.665550  1.0  -0.5303
  N  N831  1  0.664000  0.601500  0.331500  1.0  -0.5259
  N  N832  1  0.925260  0.575780  0.844970  1.0  -0.5189
  N  N833  1  0.412430  0.823370  0.818640  1.0  -0.4995
  N  N834  1  0.496460  0.728510  0.998880  1.0  -0.5304
  N  N835  1  0.330670  0.934830  0.664830  1.0  -0.5259
  N  N836  1  0.591930  0.909110  0.178300  1.0  -0.5187
  N  N837  1  0.079090  0.156710  0.151980  1.0  -0.4988
  N  N838  1  0.163120  0.061850  0.332220  1.0  -0.5303
  N  N839  1  0.997330  0.268170  0.998170  1.0  -0.5259
  N  N840  1  0.258590  0.242450  0.511640  1.0  -0.5189
  N  N841  1  0.509960  0.255720  0.485310  1.0  -0.4987
  N  N842  1  0.604820  0.434610  0.665550  1.0  -0.5308
  N  N843  1  0.398500  0.062500  0.331500  1.0  -0.5275
  N  N844  1  0.424220  0.349480  0.844970  1.0  -0.5188
  N  N845  1  0.176630  0.589050  0.818640  1.0  -0.4987
  N  N846  1  0.271490  0.767940  0.998880  1.0  -0.5308
  N  N847  1  0.065170  0.395830  0.664830  1.0  -0.5275
  N  N848  1  0.090890  0.682810  0.178300  1.0  -0.5188
  N  N849  1  0.843290  0.922390  0.151980  1.0  -0.4981
  N  N850  1  0.938150  0.101280  0.332220  1.0  -0.5308
  N  N851  1  0.731830  0.729170  0.998170  1.0  -0.5275
  N  N852  1  0.757550  0.016150  0.511640  1.0  -0.5188
  N  N853  1  0.744280  0.254240  0.485310  1.0  -0.4975
  N  N854  1  0.565390  0.170210  0.665550  1.0  -0.5297
  N  N855  1  0.937500  0.336000  0.331500  1.0  -0.5259
  N  N856  1  0.650520  0.074740  0.844970  1.0  -0.5189
  N  N857  1  0.410950  0.587570  0.818640  1.0  -0.4974
  N  N858  1  0.232060  0.503540  0.998880  1.0  -0.5297
  N  N859  1  0.604170  0.669330  0.664830  1.0  -0.5259
  N  N860  1  0.317190  0.408070  0.178300  1.0  -0.5188
  N  N861  1  0.077610  0.920910  0.151980  1.0  -0.4939
  N  N862  1  0.898720  0.836880  0.332220  1.0  -0.5297
  N  N863  1  0.270830  0.002670  0.998170  1.0  -0.5259
  N  N864  1  0.983850  0.741410  0.511640  1.0  -0.5189
  O  O865  1  0.316930  0.474670  0.539360  1.0  -0.7173
  O  O866  1  0.327880  0.514280  0.596060  1.0  -0.7228
  O  O867  1  0.221940  0.479620  0.445560  1.0  -0.7014
  O  O868  1  0.181200  0.528620  0.441670  1.0  -0.7905
  O  O869  1  0.155910  0.513260  0.310210  1.0  -0.6933
  O  O870  1  0.164220  0.538170  0.249080  1.0  -0.732
  O  O871  1  0.156670  0.605040  0.407960  1.0  -0.698
  O  O872  1  0.309550  0.483760  0.407730  1.0  -0.7367
  O  O873  1  0.298820  0.464130  0.667270  1.0  -0.6917
  O  O874  1  0.482770  0.553300  0.640260  1.0  -0.7358
  O  O875  1  0.429530  0.438210  0.635070  1.0  -0.6951
  O  O876  1  0.070950  0.435150  0.353100  1.0  -0.7386
  O  O877  1  0.132770  0.526900  0.170400  1.0  -0.7015
  O  O878  1  0.209710  0.425430  0.208250  1.0  -0.7155
  O  O879  1  0.098440  0.366010  0.198470  1.0  -0.6929
  O  O880  1  0.289570  0.376830  0.499640  1.0  -0.7412
  O  O881  1  0.983600  0.808000  0.872690  1.0  -0.7175
  O  O882  1  0.994550  0.847610  0.929390  1.0  -0.7227
  O  O883  1  0.888610  0.812950  0.778890  1.0  -0.7016
  O  O884  1  0.847870  0.861950  0.775000  1.0  -0.7905
  O  O885  1  0.822580  0.846590  0.643540  1.0  -0.6933
  O  O886  1  0.830890  0.871500  0.582410  1.0  -0.7321
  O  O887  1  0.823340  0.938370  0.741290  1.0  -0.698
  O  O888  1  0.976220  0.817090  0.741060  1.0  -0.7367
  O  O889  1  0.965490  0.797460  0.000600  1.0  -0.6939
  O  O890  1  0.149440  0.886630  0.973590  1.0  -0.7334
  O  O891  1  0.096200  0.771540  0.968400  1.0  -0.6951
  O  O892  1  0.737620  0.768480  0.686430  1.0  -0.7387
  O  O893  1  0.799440  0.860230  0.503730  1.0  -0.7015
  O  O894  1  0.876380  0.758760  0.541580  1.0  -0.7148
  O  O895  1  0.765110  0.699340  0.531800  1.0  -0.6933
  O  O896  1  0.956240  0.710160  0.832970  1.0  -0.7408
  O  O897  1  0.650260  0.141340  0.206030  1.0  -0.7173
  O  O898  1  0.661210  0.180950  0.262730  1.0  -0.7228
  O  O899  1  0.555270  0.146290  0.112230  1.0  -0.7015
  O  O900  1  0.514530  0.195290  0.108340  1.0  -0.7906
  O  O901  1  0.489240  0.179930  0.976880  1.0  -0.6934
  O  O902  1  0.497550  0.204840  0.915750  1.0  -0.732
  O  O903  1  0.490000  0.271710  0.074630  1.0  -0.698
  O  O904  1  0.642880  0.150430  0.074400  1.0  -0.7367
  O  O905  1  0.632150  0.130800  0.333940  1.0  -0.6917
  O  O906  1  0.816100  0.219970  0.306930  1.0  -0.7362
  O  O907  1  0.762860  0.104880  0.301740  1.0  -0.6951
  O  O908  1  0.404280  0.101820  0.019770  1.0  -0.7387
  O  O909  1  0.466100  0.193570  0.837070  1.0  -0.7015
  O  O910  1  0.543040  0.092100  0.874920  1.0  -0.7155
  O  O911  1  0.431770  0.032680  0.865140  1.0  -0.6925
  O  O912  1  0.622900  0.043500  0.166310  1.0  -0.7426
  O  O913  1  0.525330  0.842260  0.539360  1.0  -0.7156
  O  O914  1  0.485720  0.813600  0.596060  1.0  -0.7224
  O  O915  1  0.520380  0.742320  0.445560  1.0  -0.699
  O  O916  1  0.471380  0.652580  0.441670  1.0  -0.7869
  O  O917  1  0.486740  0.642650  0.310210  1.0  -0.6968
  O  O918  1  0.461830  0.626050  0.249080  1.0  -0.7322
  O  O919  1  0.394960  0.551630  0.407960  1.0  -0.6991
  O  O920  1  0.516240  0.825790  0.407730  1.0  -0.7377
  O  O921  1  0.535870  0.834690  0.667270  1.0  -0.6924
  O  O922  1  0.446700  0.929470  0.640260  1.0  -0.7416
  O  O923  1  0.561790  0.991320  0.635070  1.0  -0.6968
  O  O924  1  0.564850  0.635800  0.353100  1.0  -0.738
  O  O925  1  0.473100  0.605870  0.170400  1.0  -0.7011
  O  O926  1  0.574570  0.784280  0.208250  1.0  -0.7142
  O  O927  1  0.633990  0.732430  0.198470  1.0  -0.6932
  O  O928  1  0.623170  0.912740  0.499640  1.0  -0.7435
  O  O929  1  0.192000  0.175590  0.872690  1.0  -0.7158
  O  O930  1  0.152390  0.146930  0.929390  1.0  -0.7225
  O  O931  1  0.187050  0.075650  0.778890  1.0  -0.6989
  O  O932  1  0.138050  0.985910  0.775000  1.0  -0.7869
  O  O933  1  0.153410  0.975980  0.643540  1.0  -0.6967
  O  O934  1  0.128500  0.959380  0.582410  1.0  -0.7323
  O  O935  1  0.061630  0.884960  0.741290  1.0  -0.6991
  O  O936  1  0.182910  0.159120  0.741060  1.0  -0.7377
  O  O937  1  0.202540  0.168020  0.000600  1.0  -0.6924
  O  O938  1  0.113370  0.262800  0.973590  1.0  -0.7389
  O  O939  1  0.228460  0.324650  0.968400  1.0  -0.6968
  O  O940  1  0.231520  0.969130  0.686430  1.0  -0.738
  O  O941  1  0.139770  0.939200  0.503730  1.0  -0.7011
  O  O942  1  0.241240  0.117610  0.541580  1.0  -0.7143
  O  O943  1  0.300660  0.065760  0.531800  1.0  -0.6938
  O  O944  1  0.289840  0.246070  0.832970  1.0  -0.7441
  O  O945  1  0.858660  0.508930  0.206030  1.0  -0.7156
  O  O946  1  0.819050  0.480270  0.262730  1.0  -0.7224
  O  O947  1  0.853710  0.408990  0.112230  1.0  -0.699
  O  O948  1  0.804710  0.319250  0.108340  1.0  -0.7869
  O  O949  1  0.820070  0.309320  0.976880  1.0  -0.6968
  O  O950  1  0.795160  0.292720  0.915750  1.0  -0.7322
  O  O951  1  0.728290  0.218300  0.074630  1.0  -0.6991
  O  O952  1  0.849570  0.492460  0.074400  1.0  -0.7378
  O  O953  1  0.869200  0.501360  0.333940  1.0  -0.6924
  O  O954  1  0.780030  0.596140  0.306930  1.0  -0.7417
  O  O955  1  0.895120  0.657990  0.301740  1.0  -0.6968
  O  O956  1  0.898180  0.302470  0.019770  1.0  -0.738
  O  O957  1  0.806430  0.272540  0.837070  1.0  -0.7011
  O  O958  1  0.907900  0.450950  0.874920  1.0  -0.7142
  O  O959  1  0.967320  0.399100  0.865140  1.0  -0.6926
  O  O960  1  0.956500  0.579410  0.166310  1.0  -0.7436
  O  O961  1  0.157740  0.683070  0.539360  1.0  -0.7168
  O  O962  1  0.186400  0.672120  0.596060  1.0  -0.725
  O  O963  1  0.257680  0.778060  0.445560  1.0  -0.7013
  O  O964  1  0.347420  0.818800  0.441670  1.0  -0.7894
  O  O965  1  0.357350  0.844090  0.310210  1.0  -0.6948
  O  O966  1  0.373950  0.835780  0.249080  1.0  -0.7311
  O  O967  1  0.448370  0.843330  0.407960  1.0  -0.6997
  O  O968  1  0.174210  0.690450  0.407730  1.0  -0.7338
  O  O969  1  0.165310  0.701180  0.667270  1.0  -0.6932
  O  O970  1  0.070530  0.517230  0.640260  1.0  -0.7362
  O  O971  1  0.008680  0.570470  0.635070  1.0  -0.6967
  O  O972  1  0.364200  0.929050  0.353100  1.0  -0.7359
  O  O973  1  0.394130  0.867230  0.170400  1.0  -0.6999
  O  O974  1  0.215720  0.790290  0.208250  1.0  -0.7121
  O  O975  1  0.267570  0.901560  0.198470  1.0  -0.6911
  O  O976  1  0.087260  0.710430  0.499640  1.0  -0.7456
  O  O977  1  0.824410  0.016400  0.872690  1.0  -0.7166
  O  O978  1  0.853070  0.005450  0.929390  1.0  -0.725
  O  O979  1  0.924350  0.111390  0.778890  1.0  -0.7013
  O  O980  1  0.014090  0.152130  0.775000  1.0  -0.7893
  O  O981  1  0.024020  0.177420  0.643540  1.0  -0.6949
  O  O982  1  0.040620  0.169110  0.582410  1.0  -0.7312
  O  O983  1  0.115040  0.176660  0.741290  1.0  -0.6997
  O  O984  1  0.840880  0.023780  0.741060  1.0  -0.7338
  O  O985  1  0.831980  0.034510  0.000600  1.0  -0.6953
  O  O986  1  0.737200  0.850560  0.973590  1.0  -0.7393
  O  O987  1  0.675350  0.903800  0.968400  1.0  -0.6967
  O  O988  1  0.030870  0.262380  0.686430  1.0  -0.736
  O  O989  1  0.060800  0.200560  0.503730  1.0  -0.6999
  O  O990  1  0.882390  0.123620  0.541580  1.0  -0.7121
  O  O991  1  0.934240  0.234890  0.531800  1.0  -0.6911
  O  O992  1  0.753930  0.043760  0.832970  1.0  -0.7459
  O  O993  1  0.491070  0.349740  0.206030  1.0  -0.7168
  O  O994  1  0.519730  0.338790  0.262730  1.0  -0.725
  O  O995  1  0.591010  0.444730  0.112230  1.0  -0.7013
  O  O996  1  0.680750  0.485470  0.108340  1.0  -0.7894
  O  O997  1  0.690680  0.510760  0.976880  1.0  -0.6948
  O  O998  1  0.707280  0.502450  0.915750  1.0  -0.7313
  O  O999  1  0.781700  0.510000  0.074630  1.0  -0.6997
  O  O1000  1  0.507540  0.357120  0.074400  1.0  -0.7335
  O  O1001  1  0.498640  0.367850  0.333940  1.0  -0.6932
  O  O1002  1  0.403860  0.183900  0.306930  1.0  -0.7362
  O  O1003  1  0.342010  0.237140  0.301740  1.0  -0.6967
  O  O1004  1  0.697530  0.595720  0.019770  1.0  -0.7359
  O  O1005  1  0.727460  0.533900  0.837070  1.0  -0.6999
  O  O1006  1  0.549050  0.456960  0.874920  1.0  -0.7121
  O  O1007  1  0.600900  0.568230  0.865140  1.0  -0.6919
  O  O1008  1  0.420590  0.377100  0.166310  1.0  -0.7472
  O  O1009  1  0.683070  0.525330  0.460640  1.0  -0.7183
  O  O1010  1  0.672120  0.485720  0.403940  1.0  -0.7272
  O  O1011  1  0.778060  0.520380  0.554440  1.0  -0.7012
  O  O1012  1  0.818800  0.471380  0.558330  1.0  -0.7913
  O  O1013  1  0.844090  0.486740  0.689790  1.0  -0.6969
  O  O1014  1  0.835780  0.461830  0.750920  1.0  -0.7315
  O  O1015  1  0.843330  0.394960  0.592040  1.0  -0.6982
  O  O1016  1  0.690450  0.516240  0.592270  1.0  -0.7388
  O  O1017  1  0.701180  0.535870  0.332730  1.0  -0.6929
  O  O1018  1  0.517230  0.446700  0.359740  1.0  -0.7363
  O  O1019  1  0.570470  0.561790  0.364930  1.0  -0.696
  O  O1020  1  0.929050  0.564850  0.646900  1.0  -0.7377
  O  O1021  1  0.867230  0.473100  0.829600  1.0  -0.6998
  O  O1022  1  0.790290  0.574570  0.791750  1.0  -0.7167
  O  O1023  1  0.901560  0.633990  0.801530  1.0  -0.6929
  O  O1024  1  0.710430  0.623170  0.500360  1.0  -0.7404
  O  O1025  1  0.349740  0.858660  0.793970  1.0  -0.7183
  O  O1026  1  0.338790  0.819050  0.737270  1.0  -0.7272
  O  O1027  1  0.444730  0.853710  0.887770  1.0  -0.7012
  O  O1028  1  0.485470  0.804710  0.891660  1.0  -0.7913
  O  O1029  1  0.510760  0.820070  0.023120  1.0  -0.6969
  O  O1030  1  0.502450  0.795160  0.084250  1.0  -0.7315
  O  O1031  1  0.510000  0.728290  0.925370  1.0  -0.6982
  O  O1032  1  0.357120  0.849570  0.925600  1.0  -0.7388
  O  O1033  1  0.367850  0.869200  0.666060  1.0  -0.6929
  O  O1034  1  0.183900  0.780030  0.693070  1.0  -0.7367
  O  O1035  1  0.237140  0.895120  0.698260  1.0  -0.696
  O  O1036  1  0.595720  0.898180  0.980230  1.0  -0.7378
  O  O1037  1  0.533900  0.806430  0.162930  1.0  -0.6998
  O  O1038  1  0.456960  0.907900  0.125080  1.0  -0.7167
  O  O1039  1  0.568230  0.967320  0.134860  1.0  -0.6925
  O  O1040  1  0.377100  0.956500  0.833690  1.0  -0.742
  O  O1041  1  0.016400  0.192000  0.127310  1.0  -0.7185
  O  O1042  1  0.005450  0.152390  0.070610  1.0  -0.7272
  O  O1043  1  0.111390  0.187050  0.221110  1.0  -0.7013
  O  O1044  1  0.152130  0.138050  0.225000  1.0  -0.7913
  O  O1045  1  0.177420  0.153410  0.356460  1.0  -0.6969
  O  O1046  1  0.169110  0.128500  0.417590  1.0  -0.7316
  O  O1047  1  0.176660  0.061630  0.258710  1.0  -0.6982
  O  O1048  1  0.023780  0.182910  0.258940  1.0  -0.7388
  O  O1049  1  0.034510  0.202540  0.999400  1.0  -0.6947
  O  O1050  1  0.850560  0.113370  0.026410  1.0  -0.7339
  O  O1051  1  0.903800  0.228460  0.031600  1.0  -0.6959
  O  O1052  1  0.262380  0.231520  0.313570  1.0  -0.7378
  O  O1053  1  0.200560  0.139770  0.496270  1.0  -0.6999
  O  O1054  1  0.123620  0.241240  0.458420  1.0  -0.7159
  O  O1055  1  0.234890  0.300660  0.468200  1.0  -0.6934
  O  O1056  1  0.043760  0.289840  0.167030  1.0  -0.7402
  O  O1057  1  0.474670  0.157740  0.460640  1.0  -0.7164
  O  O1058  1  0.514280  0.186400  0.403940  1.0  -0.7248
  O  O1059  1  0.479620  0.257680  0.554440  1.0  -0.7
  O  O1060  1  0.528620  0.347420  0.558330  1.0  -0.7872
  O  O1061  1  0.513260  0.357350  0.689790  1.0  -0.6968
  O  O1062  1  0.538170  0.373950  0.750920  1.0  -0.7322
  O  O1063  1  0.605040  0.448370  0.592040  1.0  -0.6976
  O  O1064  1  0.483760  0.174210  0.592270  1.0  -0.7401
  O  O1065  1  0.464130  0.165310  0.332730  1.0  -0.6946
  O  O1066  1  0.553300  0.070530  0.359740  1.0  -0.7424
  O  O1067  1  0.438210  0.008680  0.364930  1.0  -0.6968
  O  O1068  1  0.435150  0.364200  0.646900  1.0  -0.7396
  O  O1069  1  0.526900  0.394130  0.829600  1.0  -0.6994
  O  O1070  1  0.425430  0.215720  0.791750  1.0  -0.7145
  O  O1071  1  0.366010  0.267570  0.801530  1.0  -0.6926
  O  O1072  1  0.376830  0.087260  0.500360  1.0  -0.7435
  O  O1073  1  0.141340  0.491070  0.793970  1.0  -0.7164
  O  O1074  1  0.180950  0.519730  0.737270  1.0  -0.7248
  O  O1075  1  0.146290  0.591010  0.887770  1.0  -0.7
  O  O1076  1  0.195290  0.680750  0.891660  1.0  -0.7872
  O  O1077  1  0.179930  0.690680  0.023120  1.0  -0.6968
  O  O1078  1  0.204840  0.707280  0.084250  1.0  -0.7322
  O  O1079  1  0.271710  0.781700  0.925370  1.0  -0.6976
  O  O1080  1  0.150430  0.507540  0.925600  1.0  -0.7402
  O  O1081  1  0.130800  0.498640  0.666060  1.0  -0.6946
  O  O1082  1  0.219970  0.403860  0.693070  1.0  -0.7424
  O  O1083  1  0.104880  0.342010  0.698260  1.0  -0.6968
  O  O1084  1  0.101820  0.697530  0.980230  1.0  -0.7396
  O  O1085  1  0.193570  0.727460  0.162930  1.0  -0.6994
  O  O1086  1  0.092100  0.549050  0.125080  1.0  -0.7145
  O  O1087  1  0.032680  0.600900  0.134860  1.0  -0.6921
  O  O1088  1  0.043500  0.420590  0.833690  1.0  -0.7435
  O  O1089  1  0.808000  0.824410  0.127310  1.0  -0.7166
  O  O1090  1  0.847610  0.853070  0.070610  1.0  -0.7249
  O  O1091  1  0.812950  0.924350  0.221110  1.0  -0.6999
  O  O1092  1  0.861950  0.014090  0.225000  1.0  -0.7872
  O  O1093  1  0.846590  0.024020  0.356460  1.0  -0.6969
  O  O1094  1  0.871500  0.040620  0.417590  1.0  -0.7323
  O  O1095  1  0.938370  0.115040  0.258710  1.0  -0.6976
  O  O1096  1  0.817090  0.840880  0.258940  1.0  -0.7401
  O  O1097  1  0.797460  0.831980  0.999400  1.0  -0.6947
  O  O1098  1  0.886630  0.737200  0.026410  1.0  -0.7394
  O  O1099  1  0.771540  0.675350  0.031600  1.0  -0.6968
  O  O1100  1  0.768480  0.030870  0.313570  1.0  -0.7396
  O  O1101  1  0.860230  0.060800  0.496270  1.0  -0.6993
  O  O1102  1  0.758760  0.882390  0.458420  1.0  -0.7146
  O  O1103  1  0.699340  0.934240  0.468200  1.0  -0.6932
  O  O1104  1  0.710160  0.753930  0.167030  1.0  -0.7441
  O  O1105  1  0.842260  0.316930  0.460640  1.0  -0.7178
  O  O1106  1  0.813600  0.327880  0.403940  1.0  -0.7289
  O  O1107  1  0.742320  0.221940  0.554440  1.0  -0.7022
  O  O1108  1  0.652580  0.181200  0.558330  1.0  -0.7897
  O  O1109  1  0.642650  0.155910  0.689790  1.0  -0.6983
  O  O1110  1  0.626050  0.164220  0.750920  1.0  -0.7294
  O  O1111  1  0.551630  0.156670  0.592040  1.0  -0.6985
  O  O1112  1  0.825790  0.309550  0.592270  1.0  -0.7351
  O  O1113  1  0.834690  0.298820  0.332730  1.0  -0.6916
  O  O1114  1  0.929470  0.482770  0.359740  1.0  -0.7373
  O  O1115  1  0.991320  0.429530  0.364930  1.0  -0.6972
  O  O1116  1  0.635800  0.070950  0.646900  1.0  -0.7368
  O  O1117  1  0.605870  0.132770  0.829600  1.0  -0.7006
  O  O1118  1  0.784280  0.209710  0.791750  1.0  -0.7128
  O  O1119  1  0.732430  0.098440  0.801530  1.0  -0.6931
  O  O1120  1  0.912740  0.289570  0.500360  1.0  -0.7434
  O  O1121  1  0.508930  0.650260  0.793970  1.0  -0.7177
  O  O1122  1  0.480270  0.661210  0.737270  1.0  -0.7289
  O  O1123  1  0.408990  0.555270  0.887770  1.0  -0.7022
  O  O1124  1  0.319250  0.514530  0.891660  1.0  -0.7898
  O  O1125  1  0.309320  0.489240  0.023120  1.0  -0.6983
  O  O1126  1  0.292720  0.497550  0.084250  1.0  -0.7295
  O  O1127  1  0.218300  0.490000  0.925370  1.0  -0.6985
  O  O1128  1  0.492460  0.642880  0.925600  1.0  -0.7349
  O  O1129  1  0.501360  0.632150  0.666060  1.0  -0.6916
  O  O1130  1  0.596140  0.816100  0.693070  1.0  -0.7373
  O  O1131  1  0.657990  0.762860  0.698260  1.0  -0.6973
  O  O1132  1  0.302470  0.404280  0.980230  1.0  -0.7368
  O  O1133  1  0.272540  0.466100  0.162930  1.0  -0.7006
  O  O1134  1  0.450950  0.543040  0.125080  1.0  -0.7128
  O  O1135  1  0.399100  0.431770  0.134860  1.0  -0.6937
  O  O1136  1  0.579410  0.622900  0.833690  1.0  -0.7449
  O  O1137  1  0.175590  0.983600  0.127310  1.0  -0.7176
  O  O1138  1  0.146930  0.994550  0.070610  1.0  -0.7289
  O  O1139  1  0.075650  0.888610  0.221110  1.0  -0.7022
  O  O1140  1  0.985910  0.847870  0.225000  1.0  -0.7897
  O  O1141  1  0.975980  0.822580  0.356460  1.0  -0.6984
  O  O1142  1  0.959380  0.830890  0.417590  1.0  -0.7295
  O  O1143  1  0.884960  0.823340  0.258710  1.0  -0.6985
  O  O1144  1  0.159120  0.976220  0.258940  1.0  -0.7351
  O  O1145  1  0.168020  0.965490  0.999400  1.0  -0.6939
  O  O1146  1  0.262800  0.149440  0.026410  1.0  -0.7405
  O  O1147  1  0.324650  0.096200  0.031600  1.0  -0.6973
  O  O1148  1  0.969130  0.737620  0.313570  1.0  -0.7368
  O  O1149  1  0.939200  0.799440  0.496270  1.0  -0.7006
  O  O1150  1  0.117610  0.876380  0.458420  1.0  -0.7129
  O  O1151  1  0.065760  0.765110  0.468200  1.0  -0.693
  O  O1152  1  0.246070  0.956240  0.167030  1.0  -0.7437
