# generated using pymatgen
data_Zn5H32C52(N9O4)2
_symmetry_space_group_name_H-M   'P 1'
_cell_length_a   28.47270000
_cell_length_b   28.47270000
_cell_length_c   28.47270000
_cell_angle_alpha   96.52940000
_cell_angle_beta   116.30500000
_cell_angle_gamma   116.30500000
_symmetry_Int_Tables_number   1
_chemical_formula_structural   Zn5H32C52(N9O4)2
_chemical_formula_sum   'Zn40 H256 C416 N144 O64'
_cell_volume   17113.02606871
_cell_formula_units_Z   8
loop_
 _symmetry_equiv_pos_site_id
 _symmetry_equiv_pos_as_xyz
  1  'x, y, z'
loop_
 _atom_site_type_symbol
 _atom_site_label
 _atom_site_symmetry_multiplicity
 _atom_site_fract_x
 _atom_site_fract_y
 _atom_site_fract_z
 _atom_site_occupancy
 _atom_site_charge
  Zn  Zn1  1  0.281330  0.070160  0.461560  1.0  0.7129
  Zn  Zn2  1  0.366180  0.109260  0.394960  1.0  0.9259
  Zn  Zn3  1  0.390470  0.142270  0.612380  1.0  0.933
  Zn  Zn4  1  0.203030  0.919330  0.426640  1.0  0.915
  Zn  Zn5  1  0.168570  0.110050  0.416370  1.0  0.8874
  Zn  Zn6  1  0.781330  0.319770  0.211160  1.0  0.7132
  Zn  Zn7  1  0.866180  0.471220  0.256920  1.0  0.9266
  Zn  Zn8  1  0.890470  0.278080  0.248200  1.0  0.9328
  Zn  Zn9  1  0.703030  0.276390  0.283700  1.0  0.9154
  Zn  Zn10  1  0.668560  0.252190  0.058520  1.0  0.8857
  Zn  Zn11  1  0.218670  0.680230  0.788840  1.0  0.7183
  Zn  Zn12  1  0.133820  0.528780  0.743080  1.0  0.9232
  Zn  Zn13  1  0.109530  0.721920  0.751800  1.0  0.9325
  Zn  Zn14  1  0.296970  0.723610  0.716300  1.0  0.9147
  Zn  Zn15  1  0.331440  0.747810  0.941480  1.0  0.8904
  Zn  Zn16  1  0.718670  0.929840  0.538440  1.0  0.7179
  Zn  Zn17  1  0.633820  0.890740  0.605040  1.0  0.924
  Zn  Zn18  1  0.609530  0.857730  0.387620  1.0  0.9326
  Zn  Zn19  1  0.796970  0.080670  0.573360  1.0  0.9133
  Zn  Zn20  1  0.831440  0.889960  0.583640  1.0  0.8893
  Zn  Zn21  1  0.391390  0.461560  0.680220  1.0  0.7179
  Zn  Zn22  1  0.285700  0.394960  0.528780  1.0  0.9291
  Zn  Zn23  1  0.470110  0.612380  0.721910  1.0  0.9286
  Zn  Zn24  1  0.507310  0.426640  0.723610  1.0  0.913
  Zn  Zn25  1  0.306330  0.416370  0.747810  1.0  0.8868
  Zn  Zn26  1  0.891390  0.211160  0.929830  1.0  0.7148
  Zn  Zn27  1  0.785700  0.256920  0.890740  1.0  0.9253
  Zn  Zn28  1  0.970110  0.248200  0.857720  1.0  0.9285
  Zn  Zn29  1  0.007310  0.283700  0.080670  1.0  0.914
  Zn  Zn30  1  0.806330  0.058530  0.889960  1.0  0.8851
  Zn  Zn31  1  0.108610  0.788840  0.070170  1.0  0.7158
  Zn  Zn32  1  0.214300  0.743080  0.109260  1.0  0.9272
  Zn  Zn33  1  0.029890  0.751800  0.142280  1.0  0.9253
  Zn  Zn34  1  0.992690  0.716300  0.919330  1.0  0.9124
  Zn  Zn35  1  0.193670  0.941470  0.110040  1.0  0.8863
  Zn  Zn36  1  0.608610  0.538440  0.319780  1.0  0.7194
  Zn  Zn37  1  0.714300  0.605040  0.471220  1.0  0.9305
  Zn  Zn38  1  0.529890  0.387620  0.278090  1.0  0.9253
  Zn  Zn39  1  0.492690  0.573360  0.276390  1.0  0.9132
  Zn  Zn40  1  0.693670  0.583630  0.252190  1.0  0.8859
  H  H41  1  0.587000  0.273500  0.347700  1.0  0.095
  H  H42  1  0.514200  0.242500  0.370900  1.0  0.0969
  H  H43  1  0.475400  0.086800  0.321200  1.0  0.0979
  H  H44  1  0.548100  0.117800  0.297900  1.0  0.097
  H  H45  1  0.434700  0.205700  0.799000  1.0  0.1001
  H  H46  1  0.494700  0.229500  0.894600  1.0  0.0966
  H  H47  1  0.616200  0.209400  0.877400  1.0  0.0964
  H  H48  1  0.556100  0.185500  0.781600  1.0  0.0931
  H  H49  1  0.019700  0.001400  0.349100  1.0  0.0951
  H  H50  1  0.931600  0.911000  0.310400  1.0  0.0932
  H  H51  1  0.942000  0.835600  0.316000  1.0  0.0882
  H  H52  1  0.040400  0.850600  0.360200  1.0  0.0827
  H  H53  1  0.523800  0.207700  0.483900  1.0  0.0849
  H  H54  1  0.621900  0.270900  0.567600  1.0  0.0898
  H  H55  1  0.632400  0.282100  0.654500  1.0  0.088
  H  H56  1  0.544800  0.230000  0.657600  1.0  0.0819
  H  H57  1  0.407300  0.057900  0.685600  1.0  0.086
  H  H58  1  0.393000  0.976800  0.702600  1.0  0.0947
  H  H59  1  0.317900  0.888700  0.629000  1.0  0.0866
  H  H60  1  0.257100  0.881800  0.538300  1.0  0.0933
  H  H61  1  0.330900  0.180600  0.310700  1.0  0.0854
  H  H62  1  0.279300  0.218100  0.258800  1.0  0.0859
  H  H63  1  0.198200  0.214000  0.262200  1.0  0.0871
  H  H64  1  0.168700  0.172400  0.317500  1.0  0.0812
  H  H65  1  0.204600  0.217000  0.516600  1.0  0.0822
  H  H66  1  0.251000  0.283300  0.604300  1.0  0.0796
  H  H67  1  0.337000  0.296100  0.683300  1.0  0.0847
  H  H68  1  0.376400  0.242400  0.674400  1.0  0.0899
  H  H69  1  0.198600  0.847800  0.319800  1.0  0.0853
  H  H70  1  0.221200  0.829400  0.254000  1.0  0.0873
  H  H71  1  0.287300  0.903700  0.242000  1.0  0.086
  H  H72  1  0.330900  0.996400  0.295900  1.0  0.0873
  H  H73  1  0.087000  0.739300  0.313500  1.0  0.0958
  H  H74  1  0.014200  0.643300  0.271700  1.0  0.0972
  H  H75  1  0.975400  0.654200  0.388600  1.0  0.0977
  H  H76  1  0.048100  0.750200  0.430300  1.0  0.0974
  H  H77  1  0.934700  0.135700  0.229000  1.0  0.0966
  H  H78  1  0.994700  0.100100  0.265200  1.0  0.0973
  H  H79  1  0.116200  0.238800  0.406800  1.0  0.0929
  H  H80  1  0.056100  0.274500  0.370600  1.0  0.0925
  H  H81  1  0.519700  0.170600  0.018300  1.0  0.0954
  H  H82  1  0.431600  0.121200  0.020600  1.0  0.0924
  H  H83  1  0.442000  0.126000  0.106400  1.0  0.0878
  H  H84  1  0.540400  0.180200  0.189800  1.0  0.0827
  H  H85  1  0.023800  0.539900  0.316100  1.0  0.0847
  H  H86  1  0.121900  0.554300  0.351000  1.0  0.0912
  H  H87  1  0.132400  0.477900  0.350300  1.0  0.0902
  H  H88  1  0.044800  0.387200  0.314800  1.0  0.0805
  H  H89  1  0.907300  0.221700  0.349400  1.0  0.0847
  H  H90  1  0.893000  0.190400  0.416200  1.0  0.0937
  H  H91  1  0.817900  0.188900  0.429200  1.0  0.0874
  H  H92  1  0.757100  0.218800  0.375300  1.0  0.0942
  H  H93  1  0.830900  0.520200  0.150300  1.0  0.0867
  H  H94  1  0.779300  0.520500  0.061200  1.0  0.0863
  H  H95  1  0.698200  0.436000  0.984200  1.0  0.086
  H  H96  1  0.668700  0.351200  0.996300  1.0  0.0803
  H  H97  1  0.704600  0.188000  0.987600  1.0  0.0824
  H  H98  1  0.751000  0.146700  0.967700  1.0  0.0818
  H  H99  1  0.837000  0.153700  0.040900  1.0  0.085
  H  H100  1  0.876400  0.202000  0.134000  1.0  0.0901
  H  H101  1  0.698600  0.378800  0.350800  1.0  0.0851
  H  H102  1  0.721200  0.467200  0.391800  1.0  0.0864
  H  H103  1  0.787300  0.545300  0.383600  1.0  0.0855
  H  H104  1  0.830900  0.535000  0.334500  1.0  0.0872
  H  H105  1  0.913000  0.260700  0.686500  1.0  0.0957
  H  H106  1  0.985800  0.356700  0.728300  1.0  0.0978
  H  H107  1  0.024600  0.345800  0.611400  1.0  0.0971
  H  H108  1  0.951900  0.249800  0.569700  1.0  0.0973
  H  H109  1  0.065300  0.864300  0.771000  1.0  0.0971
  H  H110  1  0.005300  0.899900  0.734800  1.0  0.097
  H  H111  1  0.883800  0.761200  0.593200  1.0  0.0927
  H  H112  1  0.943900  0.725500  0.629400  1.0  0.0931
  H  H113  1  0.480300  0.829400  0.981700  1.0  0.0952
  H  H114  1  0.568400  0.878800  0.979400  1.0  0.0933
  H  H115  1  0.558000  0.874000  0.893600  1.0  0.0876
  H  H116  1  0.459600  0.819800  0.810200  1.0  0.0829
  H  H117  1  0.976200  0.460100  0.683900  1.0  0.084
  H  H118  1  0.878100  0.445700  0.649000  1.0  0.0913
  H  H119  1  0.867600  0.522100  0.649700  1.0  0.0897
  H  H120  1  0.955200  0.612800  0.685200  1.0  0.0802
  H  H121  1  0.092700  0.778300  0.650600  1.0  0.0846
  H  H122  1  0.107000  0.809600  0.583800  1.0  0.0947
  H  H123  1  0.182100  0.811100  0.570800  1.0  0.0873
  H  H124  1  0.242900  0.781200  0.624700  1.0  0.0942
  H  H125  1  0.169100  0.479800  0.849700  1.0  0.0871
  H  H126  1  0.220700  0.479500  0.938800  1.0  0.0869
  H  H127  1  0.301800  0.564000  0.015800  1.0  0.0859
  H  H128  1  0.331300  0.648800  0.003700  1.0  0.0795
  H  H129  1  0.295400  0.812000  0.012400  1.0  0.0822
  H  H130  1  0.249000  0.853300  0.032300  1.0  0.0815
  H  H131  1  0.163000  0.846300  0.959100  1.0  0.085
  H  H132  1  0.123600  0.798000  0.866000  1.0  0.0894
  H  H133  1  0.301400  0.621200  0.649200  1.0  0.0847
  H  H134  1  0.278800  0.532800  0.608200  1.0  0.0865
  H  H135  1  0.212700  0.454700  0.616400  1.0  0.0858
  H  H136  1  0.169100  0.465000  0.665500  1.0  0.0879
  H  H137  1  0.413000  0.726500  0.652300  1.0  0.0948
  H  H138  1  0.485800  0.757500  0.629100  1.0  0.0965
  H  H139  1  0.524600  0.913200  0.678800  1.0  0.0983
  H  H140  1  0.451900  0.882200  0.702100  1.0  0.0969
  H  H141  1  0.565300  0.794300  0.201000  1.0  0.0984
  H  H142  1  0.505300  0.770500  0.105400  1.0  0.0958
  H  H143  1  0.383800  0.790600  0.122600  1.0  0.0951
  H  H144  1  0.443900  0.814500  0.218400  1.0  0.0923
  H  H145  1  0.980300  0.998600  0.650900  1.0  0.0945
  H  H146  1  0.068400  0.089000  0.689600  1.0  0.0917
  H  H147  1  0.058000  0.164400  0.684000  1.0  0.0883
  H  H148  1  0.959600  0.149400  0.639800  1.0  0.0827
  H  H149  1  0.476200  0.792300  0.516100  1.0  0.0844
  H  H150  1  0.378100  0.729100  0.432400  1.0  0.0904
  H  H151  1  0.367600  0.717900  0.345500  1.0  0.0875
  H  H152  1  0.455200  0.770000  0.342400  1.0  0.0831
  H  H153  1  0.592700  0.942100  0.314400  1.0  0.086
  H  H154  1  0.607000  0.023200  0.297400  1.0  0.0945
  H  H155  1  0.682100  0.111300  0.371000  1.0  0.0866
  H  H156  1  0.742900  0.118200  0.461700  1.0  0.094
  H  H157  1  0.669100  0.819400  0.689300  1.0  0.0852
  H  H158  1  0.720700  0.781900  0.741200  1.0  0.0858
  H  H159  1  0.801800  0.786000  0.737800  1.0  0.088
  H  H160  1  0.831300  0.827600  0.682500  1.0  0.081
  H  H161  1  0.795400  0.783000  0.483400  1.0  0.0825
  H  H162  1  0.749000  0.716700  0.395700  1.0  0.0802
  H  H163  1  0.663000  0.703900  0.316700  1.0  0.0848
  H  H164  1  0.623600  0.757600  0.325600  1.0  0.089
  H  H165  1  0.801400  0.152200  0.680200  1.0  0.0856
  H  H166  1  0.778800  0.170600  0.746000  1.0  0.0868
  H  H167  1  0.712700  0.096300  0.758000  1.0  0.0855
  H  H168  1  0.669100  0.003600  0.704100  1.0  0.0882
  H  H169  1  0.074200  0.347700  0.260700  1.0  0.0979
  H  H170  1  0.128400  0.370900  0.356700  1.0  0.0967
  H  H171  1  0.234400  0.321200  0.345800  1.0  0.0986
  H  H172  1  0.180100  0.297900  0.249800  1.0  0.0994
  H  H173  1  0.593300  0.799000  0.864300  1.0  0.0971
  H  H174  1  0.665100  0.894600  0.899900  1.0  0.0965
  H  H175  1  0.668000  0.877400  0.761200  1.0  0.0936
  H  H176  1  0.596100  0.781600  0.725500  1.0  0.0931
  H  H177  1  0.347700  0.349100  0.829400  1.0  0.0957
  H  H178  1  0.399400  0.310400  0.878800  1.0  0.0925
  H  H179  1  0.480400  0.316000  0.874000  1.0  0.0903
  H  H180  1  0.509600  0.360200  0.819800  1.0  0.0822
  H  H181  1  0.276200  0.483900  0.460100  1.0  0.0838
  H  H182  1  0.296700  0.567600  0.445700  1.0  0.089
  H  H183  1  0.372400  0.654500  0.522100  1.0  0.0891
  H  H184  1  0.427600  0.657600  0.612800  1.0  0.0818
  H  H185  1  0.627700  0.685600  0.778300  1.0  0.0845
  H  H186  1  0.725800  0.702600  0.809600  1.0  0.0954
  H  H187  1  0.740300  0.629000  0.811100  1.0  0.0881
  H  H188  1  0.656500  0.538300  0.781200  1.0  0.094
  H  H189  1  0.130100  0.310700  0.479800  1.0  0.088
  H  H190  1  0.040700  0.258800  0.479500  1.0  0.0858
  H  H191  1  0.048200  0.262200  0.564000  1.0  0.0874
  H  H192  1  0.145100  0.317500  0.648800  1.0  0.0804
  H  H193  1  0.299600  0.516600  0.812000  1.0  0.0815
  H  H194  1  0.321000  0.604300  0.853300  1.0  0.0817
  H  H195  1  0.387200  0.683300  0.846300  1.0  0.0845
  H  H196  1  0.432000  0.674400  0.798000  1.0  0.0895
  H  H197  1  0.472000  0.319800  0.621200  1.0  0.0856
  H  H198  1  0.424600  0.254000  0.532800  1.0  0.0857
  H  H199  1  0.338300  0.242000  0.454700  1.0  0.086
  H  H200  1  0.299500  0.295900  0.465000  1.0  0.0877
  H  H201  1  0.574200  0.313500  0.726500  1.0  0.0954
  H  H202  1  0.628400  0.271700  0.757500  1.0  0.0966
  H  H203  1  0.734400  0.388600  0.913200  1.0  0.0961
  H  H204  1  0.680100  0.430300  0.882200  1.0  0.0971
  H  H205  1  0.093300  0.229000  0.794300  1.0  0.0964
  H  H206  1  0.165100  0.265200  0.770500  1.0  0.0971
  H  H207  1  0.168000  0.406800  0.790600  1.0  0.0926
  H  H208  1  0.096100  0.370600  0.814500  1.0  0.092
  H  H209  1  0.847700  0.018300  0.998600  1.0  0.0952
  H  H210  1  0.899400  0.020600  0.089000  1.0  0.0944
  H  H211  1  0.980400  0.106400  0.164400  1.0  0.0871
  H  H212  1  0.009600  0.189800  0.149400  1.0  0.0819
  H  H213  1  0.776200  0.316100  0.792300  1.0  0.0842
  H  H214  1  0.796700  0.351000  0.729100  1.0  0.0899
  H  H215  1  0.872400  0.350300  0.717900  1.0  0.0885
  H  H216  1  0.927600  0.314800  0.770000  1.0  0.0812
  H  H217  1  0.127700  0.349400  0.942100  1.0  0.0856
  H  H218  1  0.225800  0.416200  0.023200  1.0  0.0945
  H  H219  1  0.240300  0.429200  0.111300  1.0  0.0873
  H  H220  1  0.156500  0.375300  0.118200  1.0  0.0943
  H  H221  1  0.630100  0.150300  0.819400  1.0  0.0855
  H  H222  1  0.540700  0.061200  0.781900  1.0  0.0862
  H  H223  1  0.548200  0.984200  0.786000  1.0  0.0868
  H  H224  1  0.645100  0.996300  0.827600  1.0  0.0799
  H  H225  1  0.799600  0.987600  0.783000  1.0  0.0817
  H  H226  1  0.821000  0.967700  0.716700  1.0  0.082
  H  H227  1  0.887200  0.040900  0.703900  1.0  0.0848
  H  H228  1  0.932000  0.134000  0.757600  1.0  0.089
  H  H229  1  0.972000  0.350800  0.152200  1.0  0.0861
  H  H230  1  0.924600  0.391800  0.170600  1.0  0.0864
  H  H231  1  0.838300  0.383600  0.096300  1.0  0.086
  H  H232  1  0.799500  0.334500  0.003600  1.0  0.0872
  H  H233  1  0.425800  0.686500  0.273500  1.0  0.0955
  H  H234  1  0.371600  0.728300  0.242500  1.0  0.0966
  H  H235  1  0.265600  0.611400  0.086800  1.0  0.0966
  H  H236  1  0.319900  0.569700  0.117800  1.0  0.0974
  H  H237  1  0.906700  0.771000  0.205700  1.0  0.0976
  H  H238  1  0.834900  0.734800  0.229500  1.0  0.0966
  H  H239  1  0.832000  0.593200  0.209400  1.0  0.0924
  H  H240  1  0.903900  0.629400  0.185500  1.0  0.0924
  H  H241  1  0.152300  0.981700  0.001400  1.0  0.0949
  H  H242  1  0.100600  0.979400  0.911000  1.0  0.0937
  H  H243  1  0.019600  0.893600  0.835600  1.0  0.0877
  H  H244  1  0.990400  0.810200  0.850600  1.0  0.0819
  H  H245  1  0.223800  0.683900  0.207700  1.0  0.0838
  H  H246  1  0.203300  0.649000  0.270900  1.0  0.0898
  H  H247  1  0.127600  0.649700  0.282100  1.0  0.0895
  H  H248  1  0.072400  0.685200  0.230000  1.0  0.0813
  H  H249  1  0.872300  0.650600  0.057900  1.0  0.0851
  H  H250  1  0.774200  0.583800  0.976800  1.0  0.095
  H  H251  1  0.759700  0.570800  0.888700  1.0  0.0874
  H  H252  1  0.843500  0.624700  0.881800  1.0  0.0943
  H  H253  1  0.369900  0.849700  0.180600  1.0  0.0853
  H  H254  1  0.459300  0.938800  0.218100  1.0  0.0856
  H  H255  1  0.451800  0.015800  0.214000  1.0  0.0876
  H  H256  1  0.354900  0.003700  0.172400  1.0  0.0804
  H  H257  1  0.200400  0.012400  0.217000  1.0  0.0812
  H  H258  1  0.179000  0.032300  0.283300  1.0  0.0818
  H  H259  1  0.112800  0.959100  0.296100  1.0  0.0844
  H  H260  1  0.068000  0.866000  0.242400  1.0  0.0895
  H  H261  1  0.028000  0.649200  0.847800  1.0  0.0862
  H  H262  1  0.075400  0.608200  0.829400  1.0  0.0868
  H  H263  1  0.161700  0.616400  0.903700  1.0  0.0859
  H  H264  1  0.200500  0.665500  0.996400  1.0  0.0875
  H  H265  1  0.925800  0.652300  0.739300  1.0  0.0975
  H  H266  1  0.871600  0.629100  0.643300  1.0  0.097
  H  H267  1  0.765600  0.678800  0.654200  1.0  0.0995
  H  H268  1  0.819900  0.702100  0.750200  1.0  0.0986
  H  H269  1  0.406700  0.201000  0.135700  1.0  0.096
  H  H270  1  0.334900  0.105400  0.100100  1.0  0.0955
  H  H271  1  0.332000  0.122600  0.238800  1.0  0.0941
  H  H272  1  0.403900  0.218400  0.274500  1.0  0.0926
  H  H273  1  0.652300  0.650900  0.170600  1.0  0.0948
  H  H274  1  0.600600  0.689600  0.121200  1.0  0.0904
  H  H275  1  0.519600  0.684000  0.126000  1.0  0.089
  H  H276  1  0.490400  0.639800  0.180200  1.0  0.0824
  H  H277  1  0.723800  0.516100  0.539900  1.0  0.0844
  H  H278  1  0.703300  0.432400  0.554300  1.0  0.0902
  H  H279  1  0.627600  0.345500  0.477900  1.0  0.0891
  H  H280  1  0.572400  0.342400  0.387200  1.0  0.0818
  H  H281  1  0.372300  0.314400  0.221700  1.0  0.0848
  H  H282  1  0.274200  0.297400  0.190400  1.0  0.0956
  H  H283  1  0.259700  0.371000  0.188900  1.0  0.0878
  H  H284  1  0.343500  0.461700  0.218800  1.0  0.0946
  H  H285  1  0.869900  0.689300  0.520200  1.0  0.0875
  H  H286  1  0.959300  0.741200  0.520500  1.0  0.0865
  H  H287  1  0.951800  0.737800  0.436000  1.0  0.0873
  H  H288  1  0.854900  0.682500  0.351200  1.0  0.0814
  H  H289  1  0.700400  0.483400  0.188000  1.0  0.0809
  H  H290  1  0.679000  0.395700  0.146700  1.0  0.0824
  H  H291  1  0.612800  0.316700  0.153700  1.0  0.0842
  H  H292  1  0.568000  0.325600  0.202000  1.0  0.0895
  H  H293  1  0.528000  0.680200  0.378800  1.0  0.0855
  H  H294  1  0.575400  0.746000  0.467200  1.0  0.0855
  H  H295  1  0.661700  0.758000  0.545300  1.0  0.085
  H  H296  1  0.700500  0.704100  0.535000  1.0  0.0888
  C  C297  1  0.574260  0.198510  0.320590  1.0  -0.1313
  C  C298  1  0.564230  0.235550  0.342320  1.0  -0.0793
  C  C299  1  0.521100  0.217160  0.356120  1.0  -0.0091
  C  C300  1  0.488070  0.161810  0.348280  1.0  -0.1422
  C  C301  1  0.498120  0.124780  0.326560  1.0  -0.0648
  C  C302  1  0.541220  0.143150  0.312730  1.0  0.0003
  C  C303  1  0.622500  0.219800  0.305500  1.0  0.652
  C  C304  1  0.438300  0.140800  0.363100  1.0  0.6547
  C  C305  1  0.489760  0.193350  0.781290  1.0  -0.1231
  C  C306  1  0.471560  0.206420  0.814900  1.0  -0.0721
  C  C307  1  0.507180  0.220590  0.871730  1.0  -0.0632
  C  C308  1  0.561040  0.221690  0.894950  1.0  -0.1438
  C  C309  1  0.579260  0.208620  0.861360  1.0  -0.0481
  C  C310  1  0.543640  0.194470  0.804530  1.0  -0.0114
  C  C311  1  0.450200  0.175800  0.717600  1.0  0.6755
  C  C312  1  0.600100  0.236140  0.958440  1.0  0.6317
  C  C313  1  0.088730  0.934900  0.381030  1.0  0.141
  C  C314  1  0.082550  0.979910  0.377680  1.0  0.1644
  C  C315  1  0.023860  0.970980  0.351320  1.0  -0.1206
  C  C316  1  0.971350  0.917080  0.328290  1.0  -0.0901
  C  C317  1  0.977540  0.872090  0.331630  1.0  -0.1101
  C  C318  1  0.036230  0.881000  0.358010  1.0  -0.095
  C  C319  1  0.481930  0.187750  0.572800  1.0  0.1721
  C  C320  1  0.475660  0.181060  0.520720  1.0  0.1671
  C  C321  1  0.528080  0.212210  0.518750  1.0  -0.1038
  C  C322  1  0.586790  0.250030  0.568840  1.0  -0.097
  C  C323  1  0.593080  0.256740  0.620920  1.0  -0.1067
  C  C324  1  0.540640  0.225590  0.622870  1.0  -0.1448
  C  C325  1  0.295830  0.965590  0.557720  1.0  0.1232
  C  C326  1  0.340710  0.018230  0.601700  1.0  0.1112
  C  C327  1  0.377020  0.022430  0.655870  1.0  -0.1055
  C  C328  1  0.368470  0.974000  0.666070  1.0  -0.1047
  C  C329  1  0.323580  0.921410  0.622030  1.0  -0.1067
  C  C330  1  0.287290  0.917190  0.567900  1.0  -0.103
  C  C331  1  0.232080  0.151640  0.347060  1.0  0.1584
  C  C332  1  0.280470  0.154100  0.345050  1.0  0.1809
  C  C333  1  0.298120  0.178930  0.312090  1.0  -0.1286
  C  C334  1  0.267400  0.201310  0.281150  1.0  -0.1048
  C  C335  1  0.219020  0.198850  0.283170  1.0  -0.1128
  C  C336  1  0.201350  0.174020  0.316110  1.0  -0.0894
  C  C337  1  0.314000  0.197600  0.590220  1.0  0.1481
  C  C338  1  0.262710  0.190030  0.543100  1.0  0.1435
  C  C339  1  0.239250  0.222140  0.548450  1.0  -0.0981
  C  C340  1  0.267000  0.261820  0.600880  1.0  -0.1287
  C  C341  1  0.318280  0.269380  0.647960  1.0  -0.1111
  C  C342  1  0.341770  0.237250  0.642620  1.0  -0.1115
  C  C343  1  0.290670  0.977360  0.339970  1.0  0.1613
  C  C344  1  0.251150  0.932950  0.347080  1.0  0.1588
  C  C345  1  0.225170  0.877640  0.314930  1.0  -0.1085
  C  C346  1  0.238720  0.866720  0.275640  1.0  -0.1019
  C  C347  1  0.278220  0.911120  0.268520  1.0  -0.1198
  C  C348  1  0.304200  0.966430  0.300670  1.0  -0.1227
  C  C349  1  0.074260  0.753670  0.375750  1.0  -0.131
  C  C350  1  0.064230  0.721910  0.328680  1.0  -0.0789
  C  C351  1  0.021100  0.664980  0.303940  1.0  -0.0146
  C  C352  1  0.988070  0.639790  0.326260  1.0  -0.1409
  C  C353  1  0.998120  0.671560  0.373340  1.0  -0.0637
  C  C354  1  0.041220  0.728490  0.398070  1.0  -0.0028
  C  C355  1  0.122500  0.817000  0.402700  1.0  0.653
  C  C356  1  0.938300  0.575200  0.297500  1.0  0.6588
  C  C357  1  0.989760  0.208470  0.296410  1.0  -0.1207
  C  C358  1  0.971560  0.156660  0.265140  1.0  -0.0774
  C  C359  1  0.007180  0.135450  0.286590  1.0  -0.0671
  C  C360  1  0.061040  0.166090  0.339350  1.0  -0.1397
  C  C361  1  0.079260  0.217900  0.370640  1.0  -0.0497
  C  C362  1  0.043640  0.239110  0.349170  1.0  -0.0164
  C  C363  1  0.950200  0.232600  0.274400  1.0  0.6731
  C  C364  1  0.100100  0.141660  0.363960  1.0  0.6302
  C  C365  1  0.588730  0.207700  0.153830  1.0  0.1414
  C  C366  1  0.582550  0.204870  0.102640  1.0  0.1656
  C  C367  1  0.523860  0.172540  0.052880  1.0  -0.1217
  C  C368  1  0.471350  0.143060  0.054270  1.0  -0.09
  C  C369  1  0.477540  0.145910  0.105450  1.0  -0.1119
  C  C370  1  0.536230  0.178220  0.155230  1.0  -0.0988
  C  C371  1  0.981930  0.409130  0.294180  1.0  0.1713
  C  C372  1  0.975660  0.454940  0.294600  1.0  0.1649
  C  C373  1  0.028080  0.509330  0.315870  1.0  -0.1049
  C  C374  1  0.086790  0.517950  0.336760  1.0  -0.0949
  C  C375  1  0.093080  0.472160  0.336340  1.0  -0.1104
  C  C376  1  0.040640  0.417770  0.315050  1.0  -0.1438
  C  C377  1  0.795830  0.238110  0.330240  1.0  0.124
  C  C378  1  0.840710  0.239010  0.322480  1.0  0.1139
  C  C379  1  0.877020  0.221150  0.354590  1.0  -0.1061
  C  C380  1  0.868470  0.202400  0.394470  1.0  -0.1024
  C  C381  1  0.823580  0.201550  0.402170  1.0  -0.1054
  C  C382  1  0.787290  0.219390  0.370100  1.0  -0.0997
  C  C383  1  0.732080  0.385020  0.080440  1.0  0.1596
  C  C384  1  0.780470  0.435420  0.126370  1.0  0.181
  C  C385  1  0.798120  0.486030  0.119190  1.0  -0.1315
  C  C386  1  0.767400  0.486250  0.066090  1.0  -0.1038
  C  C387  1  0.719020  0.435850  0.020170  1.0  -0.1097
  C  C388  1  0.701350  0.385240  0.027330  1.0  -0.0921
  C  C389  1  0.814000  0.223780  0.116400  1.0  0.1499
  C  C390  1  0.762710  0.219610  0.072680  1.0  0.1467
  C  C391  1  0.739250  0.190800  0.017110  1.0  -0.1019
  C  C392  1  0.767000  0.166120  0.005180  1.0  -0.1284
  C  C393  1  0.818280  0.170320  0.048900  1.0  -0.1096
  C  C394  1  0.841770  0.199150  0.104520  1.0  -0.1103
  C  C395  1  0.790670  0.450700  0.313310  1.0  0.1592
  C  C396  1  0.751150  0.404070  0.318200  1.0  0.1576
  C  C397  1  0.725170  0.410240  0.347530  1.0  -0.1083
  C  C398  1  0.738720  0.463080  0.372000  1.0  -0.0989
  C  C399  1  0.778220  0.509700  0.367100  1.0  -0.1217
  C  C400  1  0.804200  0.503530  0.337770  1.0  -0.1205
  C  C401  1  0.925740  0.246330  0.624250  1.0  -0.131
  C  C402  1  0.935770  0.278090  0.671320  1.0  -0.077
  C  C403  1  0.978900  0.335020  0.696060  1.0  -0.0147
  C  C404  1  0.011930  0.360210  0.673740  1.0  -0.1406
  C  C405  1  0.001880  0.328440  0.626660  1.0  -0.063
  C  C406  1  0.958780  0.271510  0.601930  1.0  -0.0032
  C  C407  1  0.877500  0.183000  0.597300  1.0  0.6526
  C  C408  1  0.061700  0.424800  0.702500  1.0  0.657
  C  C409  1  0.010240  0.791530  0.703590  1.0  -0.1198
  C  C410  1  0.028440  0.843340  0.734860  1.0  -0.0778
  C  C411  1  0.992820  0.864550  0.713410  1.0  -0.066
  C  C412  1  0.938960  0.833910  0.660650  1.0  -0.1408
  C  C413  1  0.920740  0.782100  0.629360  1.0  -0.0492
  C  C414  1  0.956360  0.760890  0.650830  1.0  -0.0157
  C  C415  1  0.049800  0.767400  0.725600  1.0  0.6751
  C  C416  1  0.899900  0.858340  0.636040  1.0  0.6292
  C  C417  1  0.411270  0.792300  0.846170  1.0  0.1419
  C  C418  1  0.417450  0.795130  0.897360  1.0  0.1642
  C  C419  1  0.476140  0.827460  0.947120  1.0  -0.123
  C  C420  1  0.528650  0.856940  0.945730  1.0  -0.0891
  C  C421  1  0.522460  0.854090  0.894550  1.0  -0.1133
  C  C422  1  0.463770  0.821780  0.844770  1.0  -0.0975
  C  C423  1  0.018070  0.590870  0.705820  1.0  0.1699
  C  C424  1  0.024340  0.545060  0.705400  1.0  0.1638
  C  C425  1  0.971920  0.490670  0.684130  1.0  -0.1037
  C  C426  1  0.913210  0.482050  0.663240  1.0  -0.0983
  C  C427  1  0.906920  0.527840  0.663660  1.0  -0.1114
  C  C428  1  0.959360  0.582230  0.684950  1.0  -0.1439
  C  C429  1  0.204170  0.761890  0.669760  1.0  0.1262
  C  C430  1  0.159290  0.760990  0.677520  1.0  0.1124
  C  C431  1  0.122980  0.778850  0.645410  1.0  -0.1066
  C  C432  1  0.131530  0.797600  0.605530  1.0  -0.1057
  C  C433  1  0.176420  0.798450  0.597830  1.0  -0.1073
  C  C434  1  0.212710  0.780610  0.629900  1.0  -0.0997
  C  C435  1  0.267920  0.614980  0.919560  1.0  0.1588
  C  C436  1  0.219530  0.564580  0.873630  1.0  0.1794
  C  C437  1  0.201880  0.513970  0.880810  1.0  -0.1304
  C  C438  1  0.232600  0.513750  0.933910  1.0  -0.105
  C  C439  1  0.280980  0.564150  0.979830  1.0  -0.1104
  C  C440  1  0.298650  0.614760  0.972670  1.0  -0.0936
  C  C441  1  0.186000  0.776220  0.883600  1.0  0.1501
  C  C442  1  0.237290  0.780390  0.927320  1.0  0.1448
  C  C443  1  0.260750  0.809200  0.982890  1.0  -0.1012
  C  C444  1  0.233000  0.833880  0.994820  1.0  -0.1253
  C  C445  1  0.181720  0.829680  0.951100  1.0  -0.1077
  C  C446  1  0.158230  0.800850  0.895480  1.0  -0.1128
  C  C447  1  0.209330  0.549300  0.686690  1.0  0.1598
  C  C448  1  0.248850  0.595930  0.681800  1.0  0.1572
  C  C449  1  0.274830  0.589760  0.652470  1.0  -0.1093
  C  C450  1  0.261280  0.536920  0.628000  1.0  -0.1005
  C  C451  1  0.221780  0.490300  0.632900  1.0  -0.1219
  C  C452  1  0.195800  0.496470  0.662230  1.0  -0.1203
  C  C453  1  0.425740  0.801490  0.679410  1.0  -0.1323
  C  C454  1  0.435770  0.764450  0.657680  1.0  -0.0792
  C  C455  1  0.478900  0.782840  0.643880  1.0  -0.0089
  C  C456  1  0.511930  0.838190  0.651720  1.0  -0.14
  C  C457  1  0.501880  0.875220  0.673440  1.0  -0.0632
  C  C458  1  0.458780  0.856850  0.687270  1.0  -1e-04
  C  C459  1  0.377500  0.780200  0.694500  1.0  0.6523
  C  C460  1  0.561700  0.859200  0.636900  1.0  0.6559
  C  C461  1  0.510240  0.806650  0.218710  1.0  -0.1219
  C  C462  1  0.528440  0.793580  0.185100  1.0  -0.0708
  C  C463  1  0.492820  0.779410  0.128270  1.0  -0.0647
  C  C464  1  0.438960  0.778310  0.105050  1.0  -0.1412
  C  C465  1  0.420740  0.791380  0.138640  1.0  -0.051
  C  C466  1  0.456360  0.805530  0.195470  1.0  -0.0112
  C  C467  1  0.549800  0.824200  0.282400  1.0  0.6759
  C  C468  1  0.399900  0.763860  0.041560  1.0  0.6309
  C  C469  1  0.911270  0.065100  0.618970  1.0  0.1424
  C  C470  1  0.917450  0.020090  0.622320  1.0  0.164
  C  C471  1  0.976140  0.029020  0.648680  1.0  -0.1168
  C  C472  1  0.028650  0.082920  0.671710  1.0  -0.0865
  C  C473  1  0.022460  0.127910  0.668370  1.0  -0.1132
  C  C474  1  0.963770  0.119000  0.641990  1.0  -0.0971
  C  C475  1  0.518070  0.812250  0.427200  1.0  0.1719
  C  C476  1  0.524340  0.818940  0.479280  1.0  0.1638
  C  C477  1  0.471920  0.787790  0.481250  1.0  -0.1047
  C  C478  1  0.413210  0.749970  0.431160  1.0  -0.0979
  C  C479  1  0.406920  0.743260  0.379080  1.0  -0.1077
  C  C480  1  0.459360  0.774410  0.377130  1.0  -0.1447
  C  C481  1  0.704170  0.034410  0.442280  1.0  0.1238
  C  C482  1  0.659290  0.981770  0.398300  1.0  0.1124
  C  C483  1  0.622980  0.977570  0.344130  1.0  -0.1059
  C  C484  1  0.631530  0.026000  0.333930  1.0  -0.1056
  C  C485  1  0.676420  0.078590  0.377970  1.0  -0.106
  C  C486  1  0.712710  0.082810  0.432100  1.0  -0.1024
  C  C487  1  0.767920  0.848360  0.652940  1.0  0.158
  C  C488  1  0.719530  0.845900  0.654950  1.0  0.1797
  C  C489  1  0.701880  0.821070  0.687910  1.0  -0.1282
  C  C490  1  0.732600  0.798690  0.718850  1.0  -0.1063
  C  C491  1  0.780980  0.801150  0.716830  1.0  -0.1138
  C  C492  1  0.798650  0.825980  0.683890  1.0  -0.0892
  C  C493  1  0.686000  0.802400  0.409780  1.0  0.1488
  C  C494  1  0.737290  0.809970  0.456900  1.0  0.1456
  C  C495  1  0.760750  0.777860  0.451550  1.0  -0.0967
  C  C496  1  0.733000  0.738180  0.399120  1.0  -0.129
  C  C497  1  0.681720  0.730620  0.352040  1.0  -0.1099
  C  C498  1  0.658230  0.762750  0.357380  1.0  -0.1137
  C  C499  1  0.709330  0.022640  0.660030  1.0  0.1609
  C  C500  1  0.748850  0.067050  0.652920  1.0  0.1562
  C  C501  1  0.774830  0.122360  0.685070  1.0  -0.1106
  C  C502  1  0.761280  0.133280  0.724360  1.0  -0.1035
  C  C503  1  0.721780  0.088880  0.731480  1.0  -0.123
  C  C504  1  0.695800  0.033570  0.699330  1.0  -0.1242
  C  C505  1  0.122080  0.320590  0.246330  1.0  -0.1301
  C  C506  1  0.106770  0.342320  0.278090  1.0  -0.0779
  C  C507  1  0.138960  0.356120  0.335020  1.0  -0.0105
  C  C508  1  0.186470  0.348280  0.360210  1.0  -0.1429
  C  C509  1  0.201780  0.326560  0.328440  1.0  -0.0567
  C  C510  1  0.169580  0.312730  0.271510  1.0  0.0003
  C  C511  1  0.085700  0.305500  0.183000  1.0  0.6548
  C  C512  1  0.222300  0.363100  0.424800  1.0  0.6561
  C  C513  1  0.587940  0.781290  0.791530  1.0  -0.1173
  C  C514  1  0.608480  0.814900  0.843340  1.0  -0.0754
  C  C515  1  0.651140  0.871730  0.864550  1.0  -0.0629
  C  C516  1  0.673260  0.894950  0.833910  1.0  -0.1403
  C  C517  1  0.652740  0.861360  0.782100  1.0  -0.0535
  C  C518  1  0.610060  0.804530  0.760890  1.0  -0.0162
  C  C519  1  0.541800  0.717600  0.767400  1.0  0.6764
  C  C520  1  0.722300  0.958440  0.858340  1.0  0.6276
  C  C521  1  0.446130  0.381030  0.792300  1.0  0.1404
  C  C522  1  0.397770  0.377680  0.795130  1.0  0.1685
  C  C523  1  0.380340  0.351320  0.827460  1.0  -0.1235
  C  C524  1  0.411210  0.328290  0.856940  1.0  -0.0861
  C  C525  1  0.459540  0.331630  0.854090  1.0  -0.1125
  C  C526  1  0.477010  0.358010  0.821780  1.0  -0.0907
  C  C527  1  0.385050  0.572800  0.590870  1.0  0.1712
  C  C528  1  0.339660  0.520720  0.545060  1.0  0.1642
  C  C529  1  0.306540  0.518750  0.490670  1.0  -0.1062
  C  C530  1  0.318810  0.568840  0.482050  1.0  -0.0946
  C  C531  1  0.364180  0.620920  0.527840  1.0  -0.1109
  C  C532  1  0.397280  0.622870  0.582230  1.0  -0.1412
  C  C533  1  0.592130  0.557720  0.761890  1.0  0.1242
  C  C534  1  0.583470  0.601700  0.760990  1.0  0.114
  C  C535  1  0.633440  0.655870  0.778850  1.0  -0.1063
  C  C536  1  0.692070  0.666070  0.797600  1.0  -0.1045
  C  C537  1  0.700620  0.622030  0.798450  1.0  -0.1097
  C  C538  1  0.650710  0.567900  0.780610  1.0  -0.1017
  C  C539  1  0.195420  0.347060  0.614980  1.0  0.1582
  C  C540  1  0.190950  0.345050  0.564580  1.0  0.1782
  C  C541  1  0.133160  0.312090  0.513970  1.0  -0.1286
  C  C542  1  0.079840  0.281150  0.513750  1.0  -0.1047
  C  C543  1  0.084320  0.283170  0.564150  1.0  -0.1101
  C  C544  1  0.142090  0.316110  0.614760  1.0  -0.0939
  C  C545  1  0.392620  0.590220  0.776220  1.0  0.147
  C  C546  1  0.353070  0.543100  0.780390  1.0  0.1432
  C  C547  1  0.326310  0.548450  0.809200  1.0  -0.0983
  C  C548  1  0.339060  0.600880  0.833880  1.0  -0.1228
  C  C549  1  0.378580  0.647960  0.829680  1.0  -0.1092
  C  C550  1  0.405370  0.642620  0.800850  1.0  -0.1078
  C  C551  1  0.362610  0.339970  0.549300  1.0  0.1599
  C  C552  1  0.414130  0.347080  0.595930  1.0  0.1559
  C  C553  1  0.437290  0.314930  0.589760  1.0  -0.107
  C  C554  1  0.408920  0.275640  0.536920  1.0  -0.1031
  C  C555  1  0.357400  0.268520  0.490300  1.0  -0.1209
  C  C556  1  0.334240  0.300670  0.496470  1.0  -0.1251
  C  C557  1  0.622080  0.375750  0.801490  1.0  -0.1303
  C  C558  1  0.606770  0.328680  0.764450  1.0  -0.0778
  C  C559  1  0.638960  0.303940  0.782840  1.0  -0.0106
  C  C560  1  0.686470  0.326260  0.838190  1.0  -0.1409
  C  C561  1  0.701780  0.373340  0.875220  1.0  -0.0647
  C  C562  1  0.669580  0.398070  0.856850  1.0  -0.0046
  C  C563  1  0.585700  0.402700  0.780200  1.0  0.6503
  C  C564  1  0.722300  0.297500  0.859200  1.0  0.6573
  C  C565  1  0.087940  0.296410  0.806650  1.0  -0.1208
  C  C566  1  0.108480  0.265140  0.793580  1.0  -0.0758
  C  C567  1  0.151140  0.286590  0.779410  1.0  -0.0634
  C  C568  1  0.173260  0.339350  0.778310  1.0  -0.1402
  C  C569  1  0.152740  0.370640  0.791380  1.0  -0.0514
  C  C570  1  0.110060  0.349170  0.805530  1.0  -0.0134
  C  C571  1  0.041800  0.274400  0.824200  1.0  0.6733
  C  C572  1  0.222300  0.363960  0.763860  1.0  0.6271
  C  C573  1  0.946130  0.153830  0.065100  1.0  0.1434
  C  C574  1  0.897770  0.102640  0.020090  1.0  0.1615
  C  C575  1  0.880340  0.052880  0.029020  1.0  -0.1178
  C  C576  1  0.911210  0.054270  0.082920  1.0  -0.0898
  C  C577  1  0.959540  0.105450  0.127910  1.0  -0.1123
  C  C578  1  0.977010  0.155230  0.119000  1.0  -0.0972
  C  C579  1  0.885050  0.294180  0.812250  1.0  0.1731
  C  C580  1  0.839660  0.294600  0.818940  1.0  0.1653
  C  C581  1  0.806540  0.315870  0.787790  1.0  -0.1066
  C  C582  1  0.818810  0.336760  0.749970  1.0  -0.0988
  C  C583  1  0.864180  0.336340  0.743260  1.0  -0.1096
  C  C584  1  0.897280  0.315050  0.774410  1.0  -0.1427
  C  C585  1  0.092130  0.330240  0.034410  1.0  0.1232
  C  C586  1  0.083470  0.322480  0.981770  1.0  0.1127
  C  C587  1  0.133440  0.354590  0.977570  1.0  -0.1093
  C  C588  1  0.192070  0.394470  0.026000  1.0  -0.1042
  C  C589  1  0.200620  0.402170  0.078590  1.0  -0.1075
  C  C590  1  0.150710  0.370100  0.082810  1.0  -0.103
  C  C591  1  0.695420  0.080440  0.848360  1.0  0.158
  C  C592  1  0.690950  0.126370  0.845900  1.0  0.1793
  C  C593  1  0.633160  0.119190  0.821070  1.0  -0.1289
  C  C594  1  0.579840  0.066090  0.798690  1.0  -0.1056
  C  C595  1  0.584320  0.020170  0.801150  1.0  -0.1111
  C  C596  1  0.642090  0.027330  0.825980  1.0  -0.0936
  C  C597  1  0.892620  0.116400  0.802400  1.0  0.147
  C  C598  1  0.853070  0.072680  0.809970  1.0  0.1456
  C  C599  1  0.826310  0.017110  0.777860  1.0  -0.099
  C  C600  1  0.839060  0.005180  0.738180  1.0  -0.1269
  C  C601  1  0.878580  0.048900  0.730620  1.0  -0.1085
  C  C602  1  0.905370  0.104520  0.762750  1.0  -0.1121
  C  C603  1  0.862610  0.313310  0.022640  1.0  0.1626
  C  C604  1  0.914130  0.318200  0.067050  1.0  0.1575
  C  C605  1  0.937290  0.347530  0.122360  1.0  -0.1112
  C  C606  1  0.908920  0.372000  0.133280  1.0  -0.1009
  C  C607  1  0.857400  0.367100  0.088880  1.0  -0.1203
  C  C608  1  0.834240  0.337770  0.033570  1.0  -0.1256
  C  C609  1  0.377920  0.624250  0.198510  1.0  -0.1284
  C  C610  1  0.393230  0.671320  0.235550  1.0  -0.0768
  C  C611  1  0.361040  0.696060  0.217160  1.0  -0.0118
  C  C612  1  0.313530  0.673740  0.161810  1.0  -0.1436
  C  C613  1  0.298220  0.626660  0.124780  1.0  -0.0636
  C  C614  1  0.330420  0.601930  0.143150  1.0  -0.0046
  C  C615  1  0.414300  0.597300  0.219800  1.0  0.6506
  C  C616  1  0.277700  0.702500  0.140800  1.0  0.6559
  C  C617  1  0.912060  0.703590  0.193350  1.0  -0.1211
  C  C618  1  0.891520  0.734860  0.206420  1.0  -0.0741
  C  C619  1  0.848860  0.713410  0.220590  1.0  -0.0651
  C  C620  1  0.826740  0.660650  0.221690  1.0  -0.1402
  C  C621  1  0.847260  0.629360  0.208620  1.0  -0.0523
  C  C622  1  0.889940  0.650830  0.194470  1.0  -0.0134
  C  C623  1  0.958200  0.725600  0.175800  1.0  0.6739
  C  C624  1  0.777700  0.636040  0.236140  1.0  0.6283
  C  C625  1  0.053870  0.846170  0.934900  1.0  0.1439
  C  C626  1  0.102230  0.897360  0.979910  1.0  0.1623
  C  C627  1  0.119660  0.947120  0.970980  1.0  -0.1177
  C  C628  1  0.088790  0.945730  0.917080  1.0  -0.0893
  C  C629  1  0.040460  0.894550  0.872090  1.0  -0.1119
  C  C630  1  0.022990  0.844770  0.881000  1.0  -0.0955
  C  C631  1  0.114950  0.705820  0.187750  1.0  0.1719
  C  C632  1  0.160340  0.705400  0.181060  1.0  0.1668
  C  C633  1  0.193460  0.684130  0.212210  1.0  -0.1043
  C  C634  1  0.181190  0.663240  0.250030  1.0  -0.0959
  C  C635  1  0.135820  0.663660  0.256740  1.0  -0.1072
  C  C636  1  0.102720  0.684950  0.225590  1.0  -0.1433
  C  C637  1  0.907870  0.669760  0.965590  1.0  0.1241
  C  C638  1  0.916530  0.677520  0.018230  1.0  0.1119
  C  C639  1  0.866560  0.645410  0.022430  1.0  -0.1085
  C  C640  1  0.807930  0.605530  0.974000  1.0  -0.1061
  C  C641  1  0.799380  0.597830  0.921410  1.0  -0.1054
  C  C642  1  0.849290  0.629900  0.917190  1.0  -0.1011
  C  C643  1  0.304580  0.919560  0.151640  1.0  0.1593
  C  C644  1  0.309050  0.873630  0.154100  1.0  0.1795
  C  C645  1  0.366840  0.880810  0.178930  1.0  -0.1284
  C  C646  1  0.420160  0.933910  0.201310  1.0  -0.1045
  C  C647  1  0.415680  0.979830  0.198850  1.0  -0.1129
  C  C648  1  0.357910  0.972670  0.174020  1.0  -0.094
  C  C649  1  0.107380  0.883600  0.197600  1.0  0.1444
  C  C650  1  0.146930  0.927320  0.190030  1.0  0.1447
  C  C651  1  0.173690  0.982890  0.222140  1.0  -0.1003
  C  C652  1  0.160940  0.994820  0.261820  1.0  -0.128
  C  C653  1  0.121420  0.951100  0.269380  1.0  -0.1075
  C  C654  1  0.094630  0.895480  0.237250  1.0  -0.1137
  C  C655  1  0.137390  0.686690  0.977360  1.0  0.163
  C  C656  1  0.085870  0.681800  0.932950  1.0  0.1595
  C  C657  1  0.062710  0.652470  0.877640  1.0  -0.111
  C  C658  1  0.091080  0.628000  0.866720  1.0  -0.1021
  C  C659  1  0.142600  0.632900  0.911120  1.0  -0.1205
  C  C660  1  0.165760  0.662230  0.966430  1.0  -0.1227
  C  C661  1  0.877920  0.679410  0.753670  1.0  -0.1327
  C  C662  1  0.893230  0.657680  0.721910  1.0  -0.0737
  C  C663  1  0.861040  0.643880  0.664980  1.0  -0.011
  C  C664  1  0.813530  0.651720  0.639790  1.0  -0.1449
  C  C665  1  0.798220  0.673440  0.671560  1.0  -0.0559
  C  C666  1  0.830420  0.687270  0.728490  1.0  0.001
  C  C667  1  0.914300  0.694500  0.817000  1.0  0.6557
  C  C668  1  0.777700  0.636900  0.575200  1.0  0.6539
  C  C669  1  0.412060  0.218710  0.208470  1.0  -0.1184
  C  C670  1  0.391520  0.185100  0.156660  1.0  -0.0747
  C  C671  1  0.348860  0.128270  0.135450  1.0  -0.0619
  C  C672  1  0.326740  0.105050  0.166090  1.0  -0.1417
  C  C673  1  0.347260  0.138640  0.217900  1.0  -0.0524
  C  C674  1  0.389940  0.195470  0.239110  1.0  -0.0157
  C  C675  1  0.458200  0.282400  0.232600  1.0  0.6754
  C  C676  1  0.277700  0.041560  0.141660  1.0  0.6299
  C  C677  1  0.553870  0.618970  0.207700  1.0  0.1421
  C  C678  1  0.602230  0.622320  0.204870  1.0  0.1665
  C  C679  1  0.619660  0.648680  0.172540  1.0  -0.1215
  C  C680  1  0.588790  0.671710  0.143060  1.0  -0.0859
  C  C681  1  0.540460  0.668370  0.145910  1.0  -0.1112
  C  C682  1  0.522990  0.641990  0.178220  1.0  -0.0918
  C  C683  1  0.614950  0.427200  0.409130  1.0  0.1702
  C  C684  1  0.660340  0.479280  0.454940  1.0  0.1632
  C  C685  1  0.693460  0.481250  0.509330  1.0  -0.1057
  C  C686  1  0.681190  0.431160  0.517950  1.0  -0.0976
  C  C687  1  0.635820  0.379080  0.472160  1.0  -0.1114
  C  C688  1  0.602720  0.377130  0.417770  1.0  -0.1426
  C  C689  1  0.407870  0.442280  0.238110  1.0  0.1231
  C  C690  1  0.416530  0.398300  0.239010  1.0  0.1131
  C  C691  1  0.366560  0.344130  0.221150  1.0  -0.1063
  C  C692  1  0.307930  0.333930  0.202400  1.0  -0.1061
  C  C693  1  0.299380  0.377970  0.201550  1.0  -0.11
  C  C694  1  0.349290  0.432100  0.219390  1.0  -0.0998
  C  C695  1  0.804580  0.652940  0.385020  1.0  0.1586
  C  C696  1  0.809050  0.654950  0.435420  1.0  0.1782
  C  C697  1  0.866840  0.687910  0.486030  1.0  -0.13
  C  C698  1  0.920160  0.718850  0.486250  1.0  -0.1039
  C  C699  1  0.915680  0.716830  0.435850  1.0  -0.1117
  C  C700  1  0.857910  0.683890  0.385240  1.0  -0.0934
  C  C701  1  0.607380  0.409780  0.223780  1.0  0.1459
  C  C702  1  0.646930  0.456900  0.219610  1.0  0.1447
  C  C703  1  0.673690  0.451550  0.190800  1.0  -0.0986
  C  C704  1  0.660940  0.399120  0.166120  1.0  -0.1243
  C  C705  1  0.621420  0.352040  0.170320  1.0  -0.1098
  C  C706  1  0.594630  0.357380  0.199150  1.0  -0.1089
  C  C707  1  0.637390  0.660030  0.450700  1.0  0.1579
  C  C708  1  0.585870  0.652920  0.404070  1.0  0.1563
  C  C709  1  0.562710  0.685070  0.410240  1.0  -0.1068
  C  C710  1  0.591080  0.724360  0.463080  1.0  -0.1053
  C  C711  1  0.642600  0.731480  0.509700  1.0  -0.1211
  C  C712  1  0.665760  0.699330  0.503530  1.0  -0.1244
  N  N713  1  0.140470  0.027960  0.401410  1.0  -0.2942
  N  N714  1  0.180730  0.012650  0.419580  1.0  -0.0842
  N  N715  1  0.424510  0.155140  0.561850  1.0  -0.2415
  N  N716  1  0.151240  0.956720  0.407860  1.0  -0.3325
  N  N717  1  0.384730  0.128510  0.505720  1.0  -0.0502
  N  N718  1  0.415310  0.142780  0.480330  1.0  -0.1859
  N  N719  1  0.340210  0.057600  0.579170  1.0  -0.1886
  N  N720  1  0.298110  0.029410  0.524240  1.0  -0.0724
  N  N721  1  0.269300  0.973650  0.509490  1.0  -0.1991
  N  N722  1  0.301810  0.129560  0.378810  1.0  -0.2502
  N  N723  1  0.266790  0.112480  0.400430  1.0  -0.0986
  N  N724  1  0.224230  0.125320  0.382150  1.0  -0.2527
  N  N725  1  0.326670  0.160970  0.573320  1.0  -0.3241
  N  N726  1  0.283960  0.132280  0.517080  1.0  -0.0631
  N  N727  1  0.245270  0.149320  0.498450  1.0  -0.2352
  N  N728  1  0.308560  0.025850  0.376550  1.0  -0.2411
  N  N729  1  0.280720  0.011500  0.404260  1.0  -0.0472
  N  N730  1  0.246430  0.955490  0.387760  1.0  -0.2643
  N  N731  1  0.640470  0.239060  0.112510  1.0  -0.2952
  N  N732  1  0.680730  0.261150  0.168080  1.0  -0.0852
  N  N733  1  0.924510  0.362660  0.269370  1.0  -0.2402
  N  N734  1  0.651240  0.243380  0.194520  1.0  -0.3361
  N  N735  1  0.884730  0.379010  0.256220  1.0  -0.0513
  N  N736  1  0.915310  0.434980  0.272530  1.0  -0.1832
  N  N737  1  0.840210  0.261040  0.282610  1.0  -0.1894
  N  N738  1  0.798110  0.273870  0.268700  1.0  -0.0715
  N  N739  1  0.769300  0.259810  0.295650  1.0  -0.2017
  N  N740  1  0.801810  0.423000  0.172250  1.0  -0.2484
  N  N741  1  0.766790  0.366360  0.154310  1.0  -0.0983
  N  N742  1  0.724230  0.342080  0.098910  1.0  -0.2535
  N  N743  1  0.826670  0.253350  0.165700  1.0  -0.3262
  N  N744  1  0.783960  0.266880  0.151680  1.0  -0.0651
  N  N745  1  0.745270  0.246820  0.095950  1.0  -0.2369
  N  N746  1  0.808560  0.432010  0.282710  1.0  -0.2403
  N  N747  1  0.780720  0.376460  0.269220  1.0  -0.0476
  N  N748  1  0.746430  0.358670  0.290940  1.0  -0.2651
  N  N749  1  0.359530  0.760940  0.887490  1.0  -0.2954
  N  N750  1  0.319270  0.738850  0.831920  1.0  -0.0853
  N  N751  1  0.075490  0.637340  0.730630  1.0  -0.2421
  N  N752  1  0.348760  0.756620  0.805480  1.0  -0.3348
  N  N753  1  0.115270  0.620990  0.743780  1.0  -0.0518
  N  N754  1  0.084690  0.565020  0.727470  1.0  -0.1824
  N  N755  1  0.159790  0.738960  0.717390  1.0  -0.1901
  N  N756  1  0.201890  0.726130  0.731300  1.0  -0.0722
  N  N757  1  0.230700  0.740190  0.704350  1.0  -0.2007
  N  N758  1  0.198190  0.577000  0.827750  1.0  -0.2477
  N  N759  1  0.233210  0.633640  0.845690  1.0  -0.1006
  N  N760  1  0.275770  0.657920  0.901090  1.0  -0.2524
  N  N761  1  0.173330  0.746650  0.834300  1.0  -0.327
  N  N762  1  0.216040  0.733120  0.848320  1.0  -0.0647
  N  N763  1  0.254730  0.753180  0.904050  1.0  -0.2376
  N  N764  1  0.191440  0.567990  0.717290  1.0  -0.2397
  N  N765  1  0.219280  0.623540  0.730780  1.0  -0.0473
  N  N766  1  0.253570  0.641330  0.709060  1.0  -0.2651
  N  N767  1  0.859530  0.972040  0.598590  1.0  -0.2958
  N  N768  1  0.819270  0.987350  0.580420  1.0  -0.0845
  N  N769  1  0.575490  0.844860  0.438150  1.0  -0.2402
  N  N770  1  0.848760  0.043280  0.592140  1.0  -0.3339
  N  N771  1  0.615270  0.871490  0.494280  1.0  -0.052
  N  N772  1  0.584690  0.857220  0.519670  1.0  -0.1842
  N  N773  1  0.659790  0.942400  0.420830  1.0  -0.1883
  N  N774  1  0.701890  0.970590  0.475760  1.0  -0.0722
  N  N775  1  0.730700  0.026350  0.490510  1.0  -0.2004
  N  N776  1  0.698190  0.870440  0.621190  1.0  -0.2504
  N  N777  1  0.733210  0.887520  0.599570  1.0  -0.1006
  N  N778  1  0.775770  0.874680  0.617850  1.0  -0.252
  N  N779  1  0.673330  0.839030  0.426680  1.0  -0.3257
  N  N780  1  0.716040  0.867720  0.482920  1.0  -0.0647
  N  N781  1  0.754730  0.850680  0.501550  1.0  -0.2357
  N  N782  1  0.691440  0.974150  0.623450  1.0  -0.2409
  N  N783  1  0.719280  0.988500  0.595740  1.0  -0.0485
  N  N784  1  0.753570  0.044510  0.612240  1.0  -0.2629
  N  N785  1  0.373450  0.401410  0.760940  1.0  -0.2969
  N  N786  1  0.406930  0.419580  0.738850  1.0  -0.0854
  N  N787  1  0.406710  0.561850  0.637340  1.0  -0.2407
  N  N788  1  0.451140  0.407860  0.756620  1.0  -0.3334
  N  N789  1  0.377210  0.505720  0.620990  1.0  -0.0519
  N  N790  1  0.337550  0.480330  0.565020  1.0  -0.1853
  N  N791  1  0.521570  0.579170  0.738960  1.0  -0.1888
  N  N792  1  0.494830  0.524240  0.726130  1.0  -0.071
  N  N793  1  0.535840  0.509490  0.740190  1.0  -0.2
  N  N794  1  0.249250  0.378810  0.577000  1.0  -0.2487
  N  N795  1  0.287950  0.400430  0.633640  1.0  -0.098
  N  N796  1  0.256830  0.382150  0.657920  1.0  -0.2505
  N  N797  1  0.412350  0.573320  0.746650  1.0  -0.3242
  N  N798  1  0.384800  0.517080  0.733120  1.0  -0.0619
  N  N799  1  0.349130  0.498450  0.753180  1.0  -0.2378
  N  N800  1  0.350700  0.376550  0.567990  1.0  -0.2402
  N  N801  1  0.392760  0.404260  0.623540  1.0  -0.0494
  N  N802  1  0.432270  0.387760  0.641330  1.0  -0.2652
  N  N803  1  0.873450  0.112510  0.972040  1.0  -0.2949
  N  N804  1  0.906930  0.168080  0.987350  1.0  -0.0847
  N  N805  1  0.906710  0.269370  0.844860  1.0  -0.2427
  N  N806  1  0.951140  0.194520  0.043280  1.0  -0.3347
  N  N807  1  0.877210  0.256220  0.871490  1.0  -0.0547
  N  N808  1  0.837550  0.272530  0.857220  1.0  -0.1852
  N  N809  1  0.021570  0.282610  0.942400  1.0  -0.1879
  N  N810  1  0.994830  0.268700  0.970590  1.0  -0.0711
  N  N811  1  0.035840  0.295650  0.026350  1.0  -0.2013
  N  N812  1  0.749250  0.172250  0.870440  1.0  -0.2496
  N  N813  1  0.787950  0.154310  0.887520  1.0  -0.0974
  N  N814  1  0.756830  0.098910  0.874680  1.0  -0.251
  N  N815  1  0.912350  0.165700  0.839030  1.0  -0.3265
  N  N816  1  0.884800  0.151680  0.867720  1.0  -0.0645
  N  N817  1  0.849130  0.095950  0.850680  1.0  -0.2517
  N  N818  1  0.850700  0.282710  0.974150  1.0  -0.2394
  N  N819  1  0.892760  0.269220  0.988500  1.0  -0.0486
  N  N820  1  0.932270  0.290940  0.044510  1.0  -0.2643
  N  N821  1  0.126550  0.887490  0.027960  1.0  -0.2946
  N  N822  1  0.093070  0.831920  0.012650  1.0  -0.0834
  N  N823  1  0.093290  0.730630  0.155140  1.0  -0.2446
  N  N824  1  0.048860  0.805480  0.956720  1.0  -0.3325
  N  N825  1  0.122790  0.743780  0.128510  1.0  -0.0548
  N  N826  1  0.162450  0.727470  0.142780  1.0  -0.1836
  N  N827  1  0.978430  0.717390  0.057600  1.0  -0.1894
  N  N828  1  0.005170  0.731300  0.029410  1.0  -0.0702
  N  N829  1  0.964160  0.704350  0.973650  1.0  -0.2007
  N  N830  1  0.250750  0.827750  0.129560  1.0  -0.2496
  N  N831  1  0.212050  0.845690  0.112480  1.0  -0.0979
  N  N832  1  0.243170  0.901090  0.125320  1.0  -0.2528
  N  N833  1  0.087650  0.834300  0.160970  1.0  -0.3263
  N  N834  1  0.115200  0.848320  0.132280  1.0  -0.0641
  N  N835  1  0.150870  0.904050  0.149320  1.0  -0.2485
  N  N836  1  0.149300  0.717290  0.025850  1.0  -0.2389
  N  N837  1  0.107240  0.730780  0.011500  1.0  -0.0487
  N  N838  1  0.067730  0.709060  0.955490  1.0  -0.2649
  N  N839  1  0.626550  0.598590  0.239060  1.0  -0.2982
  N  N840  1  0.593070  0.580420  0.261150  1.0  -0.0841
  N  N841  1  0.593290  0.438150  0.362660  1.0  -0.2399
  N  N842  1  0.548860  0.592140  0.243380  1.0  -0.3339
  N  N843  1  0.622790  0.494280  0.379010  1.0  -0.0532
  N  N844  1  0.662450  0.519670  0.434980  1.0  -0.1871
  N  N845  1  0.478430  0.420830  0.261040  1.0  -0.1885
  N  N846  1  0.505170  0.475760  0.273870  1.0  -0.0695
  N  N847  1  0.464160  0.490510  0.259810  1.0  -0.2007
  N  N848  1  0.750750  0.621190  0.423000  1.0  -0.2493
  N  N849  1  0.712050  0.599570  0.366360  1.0  -0.0978
  N  N850  1  0.743170  0.617850  0.342080  1.0  -0.2503
  N  N851  1  0.587650  0.426680  0.253350  1.0  -0.3242
  N  N852  1  0.615200  0.482920  0.266880  1.0  -0.0626
  N  N853  1  0.650870  0.501550  0.246820  1.0  -0.2372
  N  N854  1  0.649300  0.623450  0.432010  1.0  -0.2395
  N  N855  1  0.607240  0.595740  0.376460  1.0  -0.0485
  N  N856  1  0.567730  0.612240  0.358670  1.0  -0.263
  O  O857  1  0.638100  0.189280  0.292180  1.0  -0.5853
  O  O858  1  0.644630  0.269060  0.305990  1.0  -0.6129
  O  O859  1  0.417580  0.095630  0.366250  1.0  -0.5871
  O  O860  1  0.424960  0.172080  0.376720  1.0  -0.5841
  O  O861  1  0.470310  0.172100  0.688810  1.0  -0.5684
  O  O862  1  0.395160  0.162770  0.694130  1.0  -0.6019
  O  O863  1  0.651080  0.240220  0.979120  1.0  -0.6118
  O  O864  1  0.582490  0.243400  0.988010  1.0  -0.565
  O  O865  1  0.138100  0.845920  0.448820  1.0  -0.5864
  O  O866  1  0.144630  0.838640  0.375570  1.0  -0.6123
  O  O867  1  0.917580  0.551330  0.321950  1.0  -0.5878
  O  O868  1  0.924960  0.548240  0.252880  1.0  -0.588
  O  O869  1  0.970310  0.281500  0.298210  1.0  -0.5666
  O  O870  1  0.895160  0.201030  0.232390  1.0  -0.6014
  O  O871  1  0.151080  0.171960  0.410860  1.0  -0.6105
  O  O872  1  0.082490  0.094480  0.339090  1.0  -0.5631
  O  O873  1  0.861900  0.154080  0.551180  1.0  -0.5854
  O  O874  1  0.855370  0.161360  0.624430  1.0  -0.6116
  O  O875  1  0.082420  0.448670  0.678050  1.0  -0.5849
  O  O876  1  0.075040  0.451760  0.747120  1.0  -0.5877
  O  O877  1  0.029690  0.718500  0.701790  1.0  -0.5662
  O  O878  1  0.104840  0.798970  0.767610  1.0  -0.6032
  O  O879  1  0.848920  0.828040  0.589140  1.0  -0.6112
  O  O880  1  0.917510  0.905520  0.660910  1.0  -0.5604
  O  O881  1  0.361900  0.810720  0.707820  1.0  -0.5851
  O  O882  1  0.355370  0.730940  0.694010  1.0  -0.6152
  O  O883  1  0.582420  0.904370  0.633750  1.0  -0.5877
  O  O884  1  0.575040  0.827920  0.623280  1.0  -0.5839
  O  O885  1  0.529690  0.827900  0.311190  1.0  -0.5681
  O  O886  1  0.604840  0.837230  0.305870  1.0  -0.6026
  O  O887  1  0.348920  0.759780  0.020880  1.0  -0.6113
  O  O888  1  0.417510  0.756600  0.011990  1.0  -0.5659
  O  O889  1  0.102900  0.292180  0.154080  1.0  -0.5849
  O  O890  1  0.036930  0.305990  0.161360  1.0  -0.6111
  O  O891  1  0.270620  0.366250  0.448670  1.0  -0.5839
  O  O892  1  0.204640  0.376720  0.451760  1.0  -0.5854
  O  O893  1  0.516710  0.688810  0.718500  1.0  -0.5694
  O  O894  1  0.531360  0.694130  0.798970  1.0  -0.6048
  O  O895  1  0.738900  0.979120  0.828040  1.0  -0.6104
  O  O896  1  0.744610  0.988010  0.905520  1.0  -0.5642
  O  O897  1  0.602900  0.448820  0.810720  1.0  -0.584
  O  O898  1  0.536930  0.375570  0.730940  1.0  -0.6121
  O  O899  1  0.770620  0.321950  0.904370  1.0  -0.5858
  O  O900  1  0.704640  0.252880  0.827920  1.0  -0.5837
  O  O901  1  0.016710  0.298210  0.827900  1.0  -0.5645
  O  O902  1  0.031360  0.232390  0.837230  1.0  -0.6035
  O  O903  1  0.238900  0.410860  0.759780  1.0  -0.6108
  O  O904  1  0.244610  0.339090  0.756600  1.0  -0.5641
  O  O905  1  0.397100  0.551180  0.189280  1.0  -0.5838
  O  O906  1  0.463070  0.624430  0.269060  1.0  -0.611
  O  O907  1  0.229380  0.678050  0.095630  1.0  -0.5859
  O  O908  1  0.295360  0.747120  0.172080  1.0  -0.5842
  O  O909  1  0.983290  0.701790  0.172100  1.0  -0.5653
  O  O910  1  0.968640  0.767610  0.162770  1.0  -0.6022
  O  O911  1  0.761100  0.589140  0.240220  1.0  -0.6111
  O  O912  1  0.755390  0.660910  0.243400  1.0  -0.5636
  O  O913  1  0.897100  0.707820  0.845920  1.0  -0.585
  O  O914  1  0.963070  0.694010  0.838640  1.0  -0.6111
  O  O915  1  0.729380  0.633750  0.551330  1.0  -0.5853
  O  O916  1  0.795360  0.623280  0.548240  1.0  -0.587
  O  O917  1  0.483290  0.311190  0.281500  1.0  -0.5694
  O  O918  1  0.468640  0.305870  0.201030  1.0  -0.6017
  O  O919  1  0.261100  0.020880  0.171960  1.0  -0.6112
  O  O920  1  0.255390  0.011990  0.094480  1.0  -0.5651
