# generated using pymatgen
data_Zn5H34C52(N5O2)4
_symmetry_space_group_name_H-M   'P 1'
_cell_length_a   28.47270000
_cell_length_b   28.47270000
_cell_length_c   28.47270000
_cell_angle_alpha   96.52940000
_cell_angle_beta   116.30500000
_cell_angle_gamma   116.30500000
_symmetry_Int_Tables_number   1
_chemical_formula_structural   Zn5H34C52(N5O2)4
_chemical_formula_sum   'Zn40 H272 C416 N160 O64'
_cell_volume   17113.02606871
_cell_formula_units_Z   8
loop_
 _symmetry_equiv_pos_site_id
 _symmetry_equiv_pos_as_xyz
  1  'x, y, z'
loop_
 _atom_site_type_symbol
 _atom_site_label
 _atom_site_symmetry_multiplicity
 _atom_site_fract_x
 _atom_site_fract_y
 _atom_site_fract_z
 _atom_site_occupancy
 _atom_site_charge
  Zn  Zn1  1  0.605500  0.539340  0.316620  1.0  0.7628
  Zn  Zn2  1  0.527780  0.388240  0.276260  1.0  0.9551
  Zn  Zn3  1  0.488430  0.573320  0.278290  1.0  0.9253
  Zn  Zn4  1  0.715450  0.606520  0.467730  1.0  0.9149
  Zn  Zn5  1  0.684520  0.583360  0.242960  1.0  0.9598
  Zn  Zn6  1  0.105500  0.788880  0.066160  1.0  0.7624
  Zn  Zn7  1  0.027780  0.751520  0.139540  1.0  0.9563
  Zn  Zn8  1  0.988430  0.710140  0.915110  1.0  0.9228
  Zn  Zn9  1  0.215450  0.747720  0.108930  1.0  0.9119
  Zn  Zn10  1  0.184520  0.941560  0.101160  1.0  0.9636
  Zn  Zn11  1  0.894500  0.211120  0.933840  1.0  0.7638
  Zn  Zn12  1  0.972220  0.248480  0.860460  1.0  0.9583
  Zn  Zn13  1  0.011570  0.289860  0.084890  1.0  0.9271
  Zn  Zn14  1  0.784550  0.252280  0.891070  1.0  0.9092
  Zn  Zn15  1  0.815480  0.058440  0.898840  1.0  0.9629
  Zn  Zn16  1  0.394500  0.460660  0.683380  1.0  0.7634
  Zn  Zn17  1  0.472220  0.611760  0.723740  1.0  0.9573
  Zn  Zn18  1  0.511570  0.426680  0.721710  1.0  0.9279
  Zn  Zn19  1  0.284550  0.393480  0.532270  1.0  0.9146
  Zn  Zn20  1  0.315480  0.416640  0.757040  1.0  0.9605
  Zn  Zn21  1  0.777280  0.316620  0.211120  1.0  0.7627
  Zn  Zn22  1  0.888020  0.276260  0.248480  1.0  0.9616
  Zn  Zn23  1  0.704970  0.278290  0.289860  1.0  0.9263
  Zn  Zn24  1  0.861210  0.467730  0.252280  1.0  0.9129
  Zn  Zn25  1  0.659600  0.242960  0.058440  1.0  0.9619
  Zn  Zn26  1  0.277280  0.066160  0.460660  1.0  0.7632
  Zn  Zn27  1  0.388020  0.139540  0.611760  1.0  0.9614
  Zn  Zn28  1  0.204970  0.915110  0.426680  1.0  0.9251
  Zn  Zn29  1  0.361210  0.108930  0.393480  1.0  0.9115
  Zn  Zn30  1  0.159600  0.101160  0.416640  1.0  0.9628
  Zn  Zn31  1  0.722720  0.933840  0.539340  1.0  0.764
  Zn  Zn32  1  0.611980  0.860460  0.388240  1.0  0.9574
  Zn  Zn33  1  0.795030  0.084890  0.573320  1.0  0.9249
  Zn  Zn34  1  0.638790  0.891070  0.606520  1.0  0.9091
  Zn  Zn35  1  0.840400  0.898840  0.583360  1.0  0.9637
  Zn  Zn36  1  0.222720  0.683380  0.788880  1.0  0.7636
  Zn  Zn37  1  0.111980  0.723740  0.751520  1.0  0.9612
  Zn  Zn38  1  0.295030  0.721710  0.710140  1.0  0.9278
  Zn  Zn39  1  0.138790  0.532270  0.747720  1.0  0.909
  Zn  Zn40  1  0.340400  0.757040  0.941560  1.0  0.9699
  H  H41  1  0.385800  0.205000  0.119000  1.0  0.1138
  H  H42  1  0.413400  0.220800  0.271400  1.0  0.1082
  H  H43  1  0.340200  0.124900  0.237100  1.0  0.0993
  H  H44  1  0.246500  0.602700  0.089600  1.0  0.1158
  H  H45  1  0.376200  0.735000  0.238000  1.0  0.0979
  H  H46  1  0.429200  0.691400  0.267600  1.0  0.1051
  H  H47  1  0.868300  0.690100  0.512000  1.0  0.0955
  H  H48  1  0.955800  0.743300  0.510100  1.0  0.0966
  H  H49  1  0.945300  0.740600  0.424700  1.0  0.095
  H  H50  1  0.847200  0.684800  0.341200  1.0  0.0955
  H  H51  1  0.339800  0.462000  0.219200  1.0  0.0972
  H  H52  1  0.255700  0.369700  0.183200  1.0  0.0977
  H  H53  1  0.271400  0.296800  0.183200  1.0  0.1034
  H  H54  1  0.371300  0.316300  0.219400  1.0  0.1
  H  H55  1  0.525300  0.681200  0.381500  1.0  0.0896
  H  H56  1  0.578500  0.750800  0.470100  1.0  0.0881
  H  H57  1  0.669200  0.765400  0.545800  1.0  0.0873
  H  H58  1  0.706600  0.710600  0.533000  1.0  0.0974
  H  H59  1  0.566500  0.326400  0.204100  1.0  0.0971
  H  H60  1  0.609000  0.315300  0.153900  1.0  0.0836
  H  H61  1  0.671900  0.392600  0.141900  1.0  0.0904
  H  H62  1  0.692100  0.481100  0.180000  1.0  0.0919
  H  H63  1  0.487700  0.647400  0.187300  1.0  0.0919
  H  H64  1  0.516400  0.695800  0.136200  1.0  0.0989
  H  H65  1  0.594600  0.702100  0.127500  1.0  0.0985
  H  H66  1  0.644100  0.660000  0.169900  1.0  0.1017
  H  H67  1  0.573000  0.345900  0.388500  1.0  0.0994
  H  H68  1  0.626600  0.348200  0.477400  1.0  0.1042
  H  H69  1  0.703100  0.433200  0.552500  1.0  0.107
  H  H70  1  0.726000  0.515800  0.538600  1.0  0.1001
  H  H71  1  0.294000  0.068700  0.058100  1.0  0.3296
  H  H72  1  0.326900  0.124000  0.053500  1.0  0.3116
  H  H73  1  0.311400  0.529500  0.124900  1.0  0.318
  H  H74  1  0.258700  0.530000  0.079700  1.0  0.3198
  H  H75  1  0.885800  0.766800  0.180800  1.0  0.1146
  H  H76  1  0.913400  0.642000  0.192600  1.0  0.1095
  H  H77  1  0.840200  0.603100  0.215300  1.0  0.1001
  H  H78  1  0.746500  0.656900  0.643800  1.0  0.1175
  H  H79  1  0.876200  0.638200  0.641200  1.0  0.0985
  H  H80  1  0.929200  0.661600  0.737800  1.0  0.1055
  H  H81  1  0.368300  0.856300  0.178200  1.0  0.0941
  H  H82  1  0.455800  0.945700  0.212500  1.0  0.0957
  H  H83  1  0.445300  0.020600  0.204700  1.0  0.0959
  H  H84  1  0.347200  0.006000  0.162400  1.0  0.095
  H  H85  1  0.839800  0.620600  0.877800  1.0  0.0975
  H  H86  1  0.755700  0.572500  0.886000  1.0  0.0969
  H  H87  1  0.771400  0.588200  0.974600  1.0  0.1034
  H  H88  1  0.871300  0.651900  0.055000  1.0  0.0991
  H  H89  1  0.025300  0.643800  0.844100  1.0  0.0896
  H  H90  1  0.078500  0.608400  0.827700  1.0  0.0894
  H  H91  1  0.169200  0.623400  0.903800  1.0  0.0879
  H  H92  1  0.206600  0.673600  0.996000  1.0  0.0987
  H  H93  1  0.066500  0.862400  0.240100  1.0  0.0972
  H  H94  1  0.109000  0.955100  0.293700  1.0  0.084
  H  H95  1  0.171900  0.030000  0.279300  1.0  0.0905
  H  H96  1  0.192100  0.012100  0.211000  1.0  0.0929
  H  H97  1  0.987700  0.800400  0.840300  1.0  0.094
  H  H98  1  0.016400  0.880200  0.820600  1.0  0.0964
  H  H99  1  0.094600  0.967100  0.892500  1.0  0.1012
  H  H100  1  0.144100  0.974200  0.984100  1.0  0.1013
  H  H101  1  0.073000  0.684500  0.227100  1.0  0.0986
  H  H102  1  0.126600  0.649200  0.278400  1.0  0.1031
  H  H103  1  0.203100  0.650600  0.269900  1.0  0.1064
  H  H104  1  0.226000  0.687400  0.210200  1.0  0.1001
  H  H105  1  0.794000  0.735900  0.225300  1.0  0.3272
  H  H106  1  0.826900  0.773400  0.202900  1.0  0.3115
  H  H107  1  0.811400  0.686500  0.781900  1.0  0.3183
  H  H108  1  0.758700  0.679000  0.728700  1.0  0.3285
  H  H109  1  0.114200  0.233200  0.819200  1.0  0.113
  H  H110  1  0.086600  0.358000  0.807400  1.0  0.1094
  H  H111  1  0.159800  0.396900  0.784700  1.0  0.0997
  H  H112  1  0.253500  0.343100  0.356200  1.0  0.1182
  H  H113  1  0.123800  0.361800  0.358800  1.0  0.0982
  H  H114  1  0.070800  0.338400  0.262200  1.0  0.1047
  H  H115  1  0.631700  0.143700  0.821800  1.0  0.0941
  H  H116  1  0.544200  0.054300  0.787500  1.0  0.0959
  H  H117  1  0.554700  0.979400  0.795300  1.0  0.0955
  H  H118  1  0.652800  0.994000  0.837600  1.0  0.0945
  H  H119  1  0.160200  0.379400  0.122200  1.0  0.0979
  H  H120  1  0.244300  0.427500  0.114000  1.0  0.0968
  H  H121  1  0.228600  0.411800  0.025400  1.0  0.1028
  H  H122  1  0.128700  0.348100  0.945000  1.0  0.0992
  H  H123  1  0.974700  0.356200  0.155900  1.0  0.0895
  H  H124  1  0.921500  0.391600  0.172300  1.0  0.0894
  H  H125  1  0.830800  0.376600  0.096200  1.0  0.088
  H  H126  1  0.793400  0.326400  0.004000  1.0  0.0974
  H  H127  1  0.933500  0.137600  0.759900  1.0  0.0969
  H  H128  1  0.891000  0.044900  0.706300  1.0  0.0843
  H  H129  1  0.828100  0.970000  0.720700  1.0  0.0901
  H  H130  1  0.807900  0.987900  0.789000  1.0  0.0924
  H  H131  1  0.012300  0.199600  0.159700  1.0  0.0936
  H  H132  1  0.983600  0.119800  0.179400  1.0  0.0964
  H  H133  1  0.905400  0.032900  0.107500  1.0  0.101
  H  H134  1  0.855900  0.025800  0.015900  1.0  0.1014
  H  H135  1  0.927000  0.315500  0.772900  1.0  0.0995
  H  H136  1  0.873400  0.350800  0.721600  1.0  0.1032
  H  H137  1  0.796900  0.349400  0.730100  1.0  0.1062
  H  H138  1  0.774000  0.312600  0.789800  1.0  0.0994
  H  H139  1  0.206000  0.264100  0.774700  1.0  0.3266
  H  H140  1  0.173100  0.226600  0.797100  1.0  0.3125
  H  H141  1  0.188600  0.313500  0.218100  1.0  0.3185
  H  H142  1  0.241300  0.321000  0.271300  1.0  0.3288
  H  H143  1  0.614200  0.795000  0.881000  1.0  0.1131
  H  H144  1  0.586600  0.779200  0.728600  1.0  0.1085
  H  H145  1  0.659800  0.875100  0.762900  1.0  0.0991
  H  H146  1  0.753500  0.397300  0.910400  1.0  0.1165
  H  H147  1  0.623800  0.265000  0.762000  1.0  0.0983
  H  H148  1  0.570800  0.308600  0.732400  1.0  0.1045
  H  H149  1  0.131700  0.309900  0.488000  1.0  0.0967
  H  H150  1  0.044200  0.256700  0.489900  1.0  0.0963
  H  H151  1  0.054700  0.259400  0.575300  1.0  0.0946
  H  H152  1  0.152800  0.315200  0.658800  1.0  0.0952
  H  H153  1  0.660200  0.538000  0.780800  1.0  0.0971
  H  H154  1  0.744300  0.630300  0.816800  1.0  0.0975
  H  H155  1  0.728600  0.703200  0.816800  1.0  0.1033
  H  H156  1  0.628700  0.683700  0.780600  1.0  0.0988
  H  H157  1  0.474700  0.318800  0.618500  1.0  0.0889
  H  H158  1  0.421500  0.249200  0.529900  1.0  0.0884
  H  H159  1  0.330800  0.234600  0.454200  1.0  0.0879
  H  H160  1  0.293400  0.289400  0.467000  1.0  0.0963
  H  H161  1  0.433500  0.673600  0.795900  1.0  0.097
  H  H162  1  0.391000  0.684700  0.846100  1.0  0.0839
  H  H163  1  0.328100  0.607400  0.858100  1.0  0.0903
  H  H164  1  0.307900  0.518900  0.820000  1.0  0.0919
  H  H165  1  0.512300  0.352600  0.812700  1.0  0.0931
  H  H166  1  0.483600  0.304200  0.863800  1.0  0.0986
  H  H167  1  0.405400  0.297900  0.872500  1.0  0.1002
  H  H168  1  0.355900  0.340000  0.830100  1.0  0.1032
  H  H169  1  0.427000  0.654100  0.611500  1.0  0.0997
  H  H170  1  0.373400  0.651800  0.522600  1.0  0.1038
  H  H171  1  0.296900  0.566800  0.447500  1.0  0.1062
  H  H172  1  0.274000  0.484200  0.461400  1.0  0.1009
  H  H173  1  0.706000  0.931300  0.941900  1.0  0.3288
  H  H174  1  0.673100  0.876000  0.946500  1.0  0.3145
  H  H175  1  0.688600  0.470500  0.875100  1.0  0.3148
  H  H176  1  0.741300  0.470000  0.920300  1.0  0.3215
  H  H177  1  0.914000  0.119000  0.233200  1.0  0.1141
  H  H178  1  0.050600  0.271400  0.358000  1.0  0.1107
  H  H179  1  0.112200  0.237100  0.396900  1.0  0.0997
  H  H180  1  0.486900  0.089600  0.343100  1.0  0.1171
  H  H181  1  0.503000  0.238000  0.361800  1.0  0.0969
  H  H182  1  0.576200  0.267600  0.338400  1.0  0.1043
  H  H183  1  0.821900  0.512000  0.143700  1.0  0.0957
  H  H184  1  0.766800  0.510100  0.054300  1.0  0.0973
  H  H185  1  0.684100  0.424700  0.979400  1.0  0.0949
  H  H186  1  0.656400  0.341200  0.994000  1.0  0.0941
  H  H187  1  0.757200  0.219200  0.379400  1.0  0.0965
  H  H188  1  0.813500  0.183200  0.427500  1.0  0.0966
  H  H189  1  0.886400  0.183200  0.411800  1.0  0.1029
  H  H190  1  0.903100  0.219400  0.348100  1.0  0.0983
  H  H191  1  0.700300  0.381500  0.356200  1.0  0.088
  H  H192  1  0.719300  0.470100  0.391600  1.0  0.0894
  H  H193  1  0.780400  0.545800  0.376600  1.0  0.0877
  H  H194  1  0.822400  0.533000  0.326400  1.0  0.0968
  H  H195  1  0.877700  0.204100  0.137600  1.0  0.0975
  H  H196  1  0.838600  0.153900  0.044900  1.0  0.0841
  H  H197  1  0.749300  0.141900  0.970000  1.0  0.0898
  H  H198  1  0.698900  0.180000  0.987900  1.0  0.0926
  H  H199  1  0.539900  0.187300  0.199600  1.0  0.0936
  H  H200  1  0.440400  0.136200  0.119800  1.0  0.0964
  H  H201  1  0.425400  0.127500  0.032900  1.0  0.1011
  H  H202  1  0.509900  0.169900  0.025800  1.0  0.1029
  H  H203  1  0.042600  0.388500  0.315500  1.0  0.0986
  H  H204  1  0.129200  0.477400  0.350800  1.0  0.1026
  H  H205  1  0.119300  0.552500  0.349400  1.0  0.1079
  H  H206  1  0.022800  0.538600  0.312600  1.0  0.1006
  H  H207  1  0.989400  0.058100  0.264100  1.0  0.3298
  H  H208  1  0.929500  0.053500  0.226600  1.0  0.312
  H  H209  1  0.595400  0.124900  0.313500  1.0  0.3165
  H  H210  1  0.549700  0.079700  0.321000  1.0  0.3234
  H  H211  1  0.414000  0.180800  0.795000  1.0  0.1148
  H  H212  1  0.550600  0.192600  0.779200  1.0  0.1108
  H  H213  1  0.612200  0.215300  0.875100  1.0  0.1016
  H  H214  1  0.986900  0.643800  0.397300  1.0  0.1165
  H  H215  1  0.003000  0.641200  0.265000  1.0  0.0984
  H  H216  1  0.076200  0.737800  0.308600  1.0  0.1048
  H  H217  1  0.321900  0.178200  0.309900  1.0  0.0959
  H  H218  1  0.266800  0.212500  0.256700  1.0  0.097
  H  H219  1  0.184100  0.204700  0.259400  1.0  0.0946
  H  H220  1  0.156400  0.162400  0.315200  1.0  0.0949
  H  H221  1  0.257200  0.877800  0.538000  1.0  0.0963
  H  H222  1  0.313500  0.886000  0.630300  1.0  0.0973
  H  H223  1  0.386400  0.974600  0.703200  1.0  0.1033
  H  H224  1  0.403100  0.055000  0.683700  1.0  0.0995
  H  H225  1  0.200300  0.844100  0.318800  1.0  0.0879
  H  H226  1  0.219300  0.827700  0.249200  1.0  0.0893
  H  H227  1  0.280400  0.903800  0.234600  1.0  0.0886
  H  H228  1  0.322400  0.996000  0.289400  1.0  0.0963
  H  H229  1  0.377700  0.240100  0.673600  1.0  0.0971
  H  H230  1  0.338600  0.293700  0.684700  1.0  0.0846
  H  H231  1  0.249300  0.279300  0.607400  1.0  0.0884
  H  H232  1  0.198900  0.211000  0.518900  1.0  0.0923
  H  H233  1  0.039900  0.840300  0.352600  1.0  0.0942
  H  H234  1  0.940400  0.820600  0.304200  1.0  0.0982
  H  H235  1  0.925400  0.892500  0.297900  1.0  0.1019
  H  H236  1  0.009900  0.984100  0.340000  1.0  0.1016
  H  H237  1  0.542600  0.227100  0.654100  1.0  0.1017
  H  H238  1  0.629200  0.278400  0.651800  1.0  0.1027
  H  H239  1  0.619300  0.269900  0.566800  1.0  0.1071
  H  H240  1  0.522800  0.210200  0.484200  1.0  0.1015
  H  H241  1  0.489400  0.225300  0.931300  1.0  0.3267
  H  H242  1  0.429500  0.202900  0.876000  1.0  0.314
  H  H243  1  0.095400  0.781900  0.470500  1.0  0.317
  H  H244  1  0.049700  0.728700  0.470000  1.0  0.3212
  H  H245  1  0.586000  0.819200  0.205000  1.0  0.1138
  H  H246  1  0.449400  0.807400  0.220800  1.0  0.1104
  H  H247  1  0.387800  0.784700  0.124900  1.0  0.1015
  H  H248  1  0.013100  0.356200  0.602700  1.0  0.1155
  H  H249  1  0.997000  0.358800  0.735000  1.0  0.0983
  H  H250  1  0.923800  0.262200  0.691400  1.0  0.1049
  H  H251  1  0.678100  0.821800  0.690100  1.0  0.0961
  H  H252  1  0.733200  0.787500  0.743300  1.0  0.097
  H  H253  1  0.815900  0.795300  0.740600  1.0  0.0953
  H  H254  1  0.843600  0.837600  0.684800  1.0  0.0946
  H  H255  1  0.742800  0.122200  0.462000  1.0  0.097
  H  H256  1  0.686500  0.114000  0.369700  1.0  0.096
  H  H257  1  0.613600  0.025400  0.296800  1.0  0.1026
  H  H258  1  0.596900  0.945000  0.316300  1.0  0.0997
  H  H259  1  0.799700  0.155900  0.681200  1.0  0.0885
  H  H260  1  0.780700  0.172300  0.750800  1.0  0.0892
  H  H261  1  0.719600  0.096200  0.765400  1.0  0.0869
  H  H262  1  0.677600  0.004000  0.710600  1.0  0.0969
  H  H263  1  0.622300  0.759900  0.326400  1.0  0.0966
  H  H264  1  0.661400  0.706300  0.315300  1.0  0.0842
  H  H265  1  0.750700  0.720700  0.392600  1.0  0.0885
  H  H266  1  0.801100  0.789000  0.481100  1.0  0.0926
  H  H267  1  0.960100  0.159700  0.647400  1.0  0.0938
  H  H268  1  0.059600  0.179400  0.695800  1.0  0.0988
  H  H269  1  0.074600  0.107500  0.702100  1.0  0.1002
  H  H270  1  0.990100  0.015900  0.660000  1.0  0.1021
  H  H271  1  0.457400  0.772900  0.345900  1.0  0.1022
  H  H272  1  0.370800  0.721600  0.348200  1.0  0.1027
  H  H273  1  0.380700  0.730100  0.433200  1.0  0.1068
  H  H274  1  0.477200  0.789800  0.515800  1.0  0.1007
  H  H275  1  0.510600  0.774700  0.068700  1.0  0.3283
  H  H276  1  0.570500  0.797100  0.124000  1.0  0.3196
  H  H277  1  0.904600  0.218100  0.529500  1.0  0.3165
  H  H278  1  0.950300  0.271300  0.530000  1.0  0.3225
  H  H279  1  0.086000  0.881000  0.766800  1.0  0.1138
  H  H280  1  0.949400  0.728600  0.642000  1.0  0.1109
  H  H281  1  0.887800  0.762900  0.603100  1.0  0.0996
  H  H282  1  0.513100  0.910400  0.656900  1.0  0.1169
  H  H283  1  0.497000  0.762000  0.638200  1.0  0.0975
  H  H284  1  0.423800  0.732400  0.661600  1.0  0.1038
  H  H285  1  0.178100  0.488000  0.856300  1.0  0.0952
  H  H286  1  0.233200  0.489900  0.945700  1.0  0.0979
  H  H287  1  0.315900  0.575300  0.020600  1.0  0.0945
  H  H288  1  0.343600  0.658800  0.006000  1.0  0.094
  H  H289  1  0.242800  0.780800  0.620600  1.0  0.0962
  H  H290  1  0.186500  0.816800  0.572500  1.0  0.096
  H  H291  1  0.113600  0.816800  0.588200  1.0  0.1018
  H  H292  1  0.096900  0.780600  0.651900  1.0  0.0984
  H  H293  1  0.299700  0.618500  0.643800  1.0  0.088
  H  H294  1  0.280700  0.529900  0.608400  1.0  0.089
  H  H295  1  0.219600  0.454200  0.623400  1.0  0.0879
  H  H296  1  0.177600  0.467000  0.673600  1.0  0.097
  H  H297  1  0.122300  0.795900  0.862400  1.0  0.0973
  H  H298  1  0.161400  0.846100  0.955100  1.0  0.0844
  H  H299  1  0.250700  0.858100  0.030000  1.0  0.0907
  H  H300  1  0.301100  0.820000  0.012100  1.0  0.0926
  H  H301  1  0.460100  0.812700  0.800400  1.0  0.0942
  H  H302  1  0.559600  0.863800  0.880200  1.0  0.097
  H  H303  1  0.574600  0.872500  0.967100  1.0  0.101
  H  H304  1  0.490100  0.830100  0.974200  1.0  0.1029
  H  H305  1  0.957400  0.611500  0.684500  1.0  0.0991
  H  H306  1  0.870800  0.522600  0.649200  1.0  0.1043
  H  H307  1  0.880700  0.447500  0.650600  1.0  0.1076
  H  H308  1  0.977200  0.461400  0.687400  1.0  0.1006
  H  H309  1  0.010600  0.941900  0.735900  1.0  0.3283
  H  H310  1  0.070500  0.946500  0.773400  1.0  0.3128
  H  H311  1  0.404600  0.875100  0.686500  1.0  0.3176
  H  H312  1  0.450300  0.920300  0.679000  1.0  0.3249
  C  C313  1  0.319400  0.107800  0.157600  1.0  -0.1318
  C  C314  1  0.332900  0.131700  0.122400  1.0  0.2219
  C  C315  1  0.376600  0.188900  0.142900  1.0  -0.2222
  C  C316  1  0.406600  0.222100  0.198500  1.0  -0.1144
  C  C317  1  0.393100  0.198300  0.233800  1.0  -0.1086
  C  C318  1  0.349400  0.141100  0.213300  1.0  -0.0286
  C  C319  1  0.453500  0.282700  0.222600  1.0  0.6155
  C  C320  1  0.269100  0.042000  0.133900  1.0  0.662
  C  C321  1  0.369500  0.621000  0.196300  1.0  -0.1608
  C  C322  1  0.315000  0.594600  0.143200  1.0  0.1727
  C  C323  1  0.283400  0.620600  0.125600  1.0  -0.2225
  C  C324  1  0.306300  0.673100  0.161000  1.0  -0.1442
  C  C325  1  0.360700  0.699500  0.214000  1.0  -0.0985
  C  C326  1  0.392400  0.673500  0.231700  1.0  -0.0378
  C  C327  1  0.406400  0.593600  0.220000  1.0  0.6115
  C  C328  1  0.269200  0.695100  0.134300  1.0  0.5865
  C  C329  1  0.799300  0.654200  0.376900  1.0  0.1564
  C  C330  1  0.805600  0.655800  0.427800  1.0  0.1803
  C  C331  1  0.864100  0.689100  0.477600  1.0  -0.1122
  C  C332  1  0.916200  0.720800  0.476400  1.0  -0.0985
  C  C333  1  0.909900  0.719200  0.425500  1.0  -0.0963
  C  C334  1  0.851500  0.685900  0.375800  1.0  -0.111
  C  C335  1  0.415200  0.400900  0.240900  1.0  0.2046
  C  C336  1  0.405700  0.444300  0.240800  1.0  0.1185
  C  C337  1  0.346100  0.432700  0.219200  1.0  -0.1093
  C  C338  1  0.295900  0.377600  0.197700  1.0  -0.1051
  C  C339  1  0.305300  0.334100  0.197800  1.0  -0.1165
  C  C340  1  0.364900  0.345700  0.219400  1.0  -0.1087
  C  C341  1  0.638400  0.663100  0.449500  1.0  0.1681
  C  C342  1  0.584000  0.654290  0.404090  1.0  0.1068
  C  C343  1  0.561600  0.687100  0.411900  1.0  -0.0714
  C  C344  1  0.593500  0.728800  0.464900  1.0  -0.1056
  C  C345  1  0.647800  0.737500  0.510300  1.0  -0.0996
  C  C346  1  0.670300  0.704800  0.502700  1.0  -0.0954
  C  C347  1  0.641400  0.456730  0.214930  1.0  0.0833
  C  C348  1  0.603700  0.410400  0.222100  1.0  0.1549
  C  C349  1  0.591700  0.357400  0.199300  1.0  -0.1309
  C  C350  1  0.617210  0.350790  0.169200  1.0  -0.0953
  C  C351  1  0.654900  0.397120  0.162020  1.0  -0.0954
  C  C352  1  0.666950  0.450100  0.184850  1.0  -0.0779
  C  C353  1  0.595200  0.628700  0.203700  1.0  0.2496
  C  C354  1  0.548900  0.625000  0.208900  1.0  0.1117
  C  C355  1  0.519600  0.650000  0.183800  1.0  -0.0533
  C  C356  1  0.536600  0.678700  0.153500  1.0  -0.1115
  C  C357  1  0.583000  0.682400  0.148400  1.0  -0.1114
  C  C358  1  0.612200  0.657400  0.173400  1.0  -0.14
  C  C359  1  0.663000  0.479700  0.455300  1.0  0.2232
  C  C360  1  0.617700  0.429400  0.410900  1.0  0.2799
  C  C361  1  0.604200  0.380500  0.419100  1.0  -0.1647
  C  C362  1  0.636000  0.382000  0.471800  1.0  -0.1219
  C  C363  1  0.681200  0.432200  0.516200  1.0  -0.0939
  C  C364  1  0.694800  0.481200  0.508000  1.0  -0.1091
  C  C365  1  0.819400  0.661800  0.211600  1.0  -0.1314
  C  C366  1  0.832900  0.710500  0.201200  1.0  0.2219
  C  C367  1  0.876600  0.733700  0.187700  1.0  -0.2165
  C  C368  1  0.906600  0.708100  0.184500  1.0  -0.1142
  C  C369  1  0.893100  0.659300  0.194800  1.0  -0.1074
  C  C370  1  0.849400  0.636100  0.208300  1.0  -0.0268
  C  C371  1  0.953500  0.730900  0.170800  1.0  0.616
  C  C372  1  0.769100  0.635200  0.227100  1.0  0.6616
  C  C373  1  0.869500  0.673200  0.748500  1.0  -0.1631
  C  C374  1  0.815000  0.671800  0.720400  1.0  0.1731
  C  C375  1  0.783400  0.657800  0.662800  1.0  -0.2243
  C  C376  1  0.806300  0.645300  0.633200  1.0  -0.1443
  C  C377  1  0.860700  0.646700  0.661200  1.0  -0.0973
  C  C378  1  0.892400  0.660700  0.718900  1.0  -0.0401
  C  C379  1  0.906400  0.686400  0.812800  1.0  0.612
  C  C380  1  0.769200  0.634900  0.574100  1.0  0.5887
  C  C381  1  0.299300  0.922400  0.145100  1.0  0.157
  C  C382  1  0.305600  0.877800  0.149800  1.0  0.1789
  C  C383  1  0.364100  0.886500  0.175000  1.0  -0.111
  C  C384  1  0.416200  0.939800  0.195400  1.0  -0.0997
  C  C385  1  0.409900  0.984400  0.190700  1.0  -0.0969
  C  C386  1  0.351500  0.975700  0.165600  1.0  -0.1111
  C  C387  1  0.915200  0.674300  0.014300  1.0  0.2029
  C  C388  1  0.905700  0.664900  0.961400  1.0  0.1187
  C  C389  1  0.846100  0.626900  0.913400  1.0  -0.1093
  C  C390  1  0.795900  0.598200  0.918300  1.0  -0.1034
  C  C391  1  0.805300  0.607500  0.971200  1.0  -0.1163
  C  C392  1  0.864900  0.645500  0.019200  1.0  -0.1102
  C  C393  1  0.138400  0.688900  0.975300  1.0  0.1689
  C  C394  1  0.084000  0.679910  0.929710  1.0  0.1091
  C  C395  1  0.061600  0.649700  0.874500  1.0  -0.0762
  C  C396  1  0.093500  0.628600  0.864700  1.0  -0.1031
  C  C397  1  0.147800  0.637500  0.910300  1.0  -0.0982
  C  C398  1  0.170300  0.667600  0.965500  1.0  -0.0927
  C  C399  1  0.141400  0.926470  0.184670  1.0  0.084
  C  C400  1  0.103700  0.881600  0.193300  1.0  0.1541
  C  C401  1  0.091700  0.892400  0.234300  1.0  -0.1331
  C  C402  1  0.117210  0.948010  0.266420  1.0  -0.0954
  C  C403  1  0.154900  0.992880  0.257780  1.0  -0.0969
  C  C404  1  0.166950  0.982100  0.216850  1.0  -0.0788
  C  C405  1  0.095200  0.891500  0.966500  1.0  0.2454
  C  C406  1  0.048900  0.840000  0.923900  1.0  0.111
  C  C407  1  0.019600  0.835800  0.869600  1.0  -0.058
  C  C408  1  0.036600  0.883100  0.857900  1.0  -0.1114
  C  C409  1  0.083000  0.934600  0.900600  1.0  -0.114
  C  C410  1  0.112200  0.938800  0.954800  1.0  -0.1352
  C  C411  1  0.163000  0.707700  0.183300  1.0  0.2228
  C  C412  1  0.117700  0.706800  0.188300  1.0  0.2808
  C  C413  1  0.104200  0.685100  0.223700  1.0  -0.1648
  C  C414  1  0.136000  0.664200  0.254000  1.0  -0.1176
  C  C415  1  0.181200  0.665000  0.249000  1.0  -0.0971
  C  C416  1  0.194800  0.686800  0.213600  1.0  -0.1018
  C  C417  1  0.180600  0.338200  0.788400  1.0  -0.1319
  C  C418  1  0.167100  0.289500  0.798800  1.0  0.2194
  C  C419  1  0.123400  0.266300  0.812300  1.0  -0.2153
  C  C420  1  0.093400  0.291900  0.815500  1.0  -0.1141
  C  C421  1  0.106900  0.340700  0.805200  1.0  -0.1063
  C  C422  1  0.150600  0.363900  0.791700  1.0  -0.0268
  C  C423  1  0.046500  0.269100  0.829200  1.0  0.6165
  C  C424  1  0.230900  0.364800  0.772900  1.0  0.6612
  C  C425  1  0.130500  0.326800  0.251500  1.0  -0.1651
  C  C426  1  0.185000  0.328200  0.279600  1.0  0.1604
  C  C427  1  0.216600  0.342200  0.337200  1.0  -0.2217
  C  C428  1  0.193700  0.354700  0.366800  1.0  -0.1458
  C  C429  1  0.139300  0.353300  0.338800  1.0  -0.0973
  C  C430  1  0.107600  0.339300  0.281100  1.0  -0.0403
  C  C431  1  0.093600  0.313600  0.187200  1.0  0.6135
  C  C432  1  0.230800  0.365100  0.425900  1.0  0.5899
  C  C433  1  0.700700  0.077600  0.854900  1.0  0.1563
  C  C434  1  0.694400  0.122200  0.850200  1.0  0.1789
  C  C435  1  0.635900  0.113500  0.825000  1.0  -0.1115
  C  C436  1  0.583800  0.060200  0.804600  1.0  -0.102
  C  C437  1  0.590100  0.015600  0.809300  1.0  -0.0981
  C  C438  1  0.648500  0.024300  0.834400  1.0  -0.1111
  C  C439  1  0.084800  0.325700  0.985700  1.0  0.2031
  C  C440  1  0.094300  0.335100  0.038600  1.0  0.1179
  C  C441  1  0.153900  0.373100  0.086600  1.0  -0.112
  C  C442  1  0.204100  0.401800  0.081700  1.0  -0.104
  C  C443  1  0.194700  0.392500  0.028800  1.0  -0.1158
  C  C444  1  0.135100  0.354500  0.980800  1.0  -0.1116
  C  C445  1  0.861600  0.311100  0.024700  1.0  0.1683
  C  C446  1  0.916000  0.320090  0.070290  1.0  0.1076
  C  C447  1  0.938400  0.350300  0.125500  1.0  -0.0742
  C  C448  1  0.906500  0.371400  0.135300  1.0  -0.1017
  C  C449  1  0.852200  0.362500  0.089700  1.0  -0.0993
  C  C450  1  0.829700  0.332400  0.034500  1.0  -0.0938
  C  C451  1  0.858600  0.073530  0.815330  1.0  0.0829
  C  C452  1  0.896300  0.118400  0.806700  1.0  0.1529
  C  C453  1  0.908300  0.107600  0.765700  1.0  -0.1322
  C  C454  1  0.882790  0.051990  0.733580  1.0  -0.0928
  C  C455  1  0.845100  0.007120  0.742220  1.0  -0.0965
  C  C456  1  0.833050  0.017900  0.783150  1.0  -0.0794
  C  C457  1  0.904800  0.108500  0.033500  1.0  0.2454
  C  C458  1  0.951100  0.160000  0.076100  1.0  0.1116
  C  C459  1  0.980400  0.164200  0.130400  1.0  -0.0597
  C  C460  1  0.963400  0.116900  0.142100  1.0  -0.1106
  C  C461  1  0.917000  0.065400  0.099400  1.0  -0.1164
  C  C462  1  0.887800  0.061200  0.045200  1.0  -0.1354
  C  C463  1  0.837000  0.292300  0.816700  1.0  0.222
  C  C464  1  0.882300  0.293200  0.811700  1.0  0.2811
  C  C465  1  0.895800  0.314900  0.776300  1.0  -0.166
  C  C466  1  0.864000  0.335800  0.746000  1.0  -0.1189
  C  C467  1  0.818800  0.335000  0.751000  1.0  -0.0977
  C  C468  1  0.805200  0.313200  0.786400  1.0  -0.1039
  C  C469  1  0.680600  0.892200  0.842400  1.0  -0.1344
  C  C470  1  0.667100  0.868300  0.877600  1.0  0.2194
  C  C471  1  0.623400  0.811100  0.857100  1.0  -0.2194
  C  C472  1  0.593400  0.777900  0.801500  1.0  -0.1126
  C  C473  1  0.606900  0.801700  0.766200  1.0  -0.1077
  C  C474  1  0.650600  0.858900  0.786700  1.0  -0.0291
  C  C475  1  0.546500  0.717300  0.777400  1.0  0.6167
  C  C476  1  0.730900  0.958000  0.866100  1.0  0.6623
  C  C477  1  0.630500  0.379000  0.803700  1.0  -0.1627
  C  C478  1  0.685000  0.405400  0.856800  1.0  0.1705
  C  C479  1  0.716600  0.379400  0.874400  1.0  -0.2232
  C  C480  1  0.693700  0.326900  0.839000  1.0  -0.1441
  C  C481  1  0.639300  0.300500  0.786000  1.0  -0.0988
  C  C482  1  0.607600  0.326500  0.768300  1.0  -0.0372
  C  C483  1  0.593600  0.406400  0.780000  1.0  0.6127
  C  C484  1  0.730800  0.304900  0.865700  1.0  0.5893
  C  C485  1  0.200700  0.345800  0.623100  1.0  0.1558
  C  C486  1  0.194400  0.344200  0.572200  1.0  0.1785
  C  C487  1  0.135900  0.310900  0.522400  1.0  -0.1092
  C  C488  1  0.083800  0.279200  0.523600  1.0  -0.101
  C  C489  1  0.090100  0.280800  0.574500  1.0  -0.0943
  C  C490  1  0.148500  0.314100  0.624200  1.0  -0.1095
  C  C491  1  0.584800  0.599100  0.759100  1.0  0.2046
  C  C492  1  0.594300  0.555700  0.759200  1.0  0.1188
  C  C493  1  0.653900  0.567300  0.780800  1.0  -0.1089
  C  C494  1  0.704100  0.622400  0.802300  1.0  -0.1055
  C  C495  1  0.694700  0.665900  0.802200  1.0  -0.1151
  C  C496  1  0.635100  0.654300  0.780600  1.0  -0.109
  C  C497  1  0.361600  0.336900  0.550500  1.0  0.1671
  C  C498  1  0.416000  0.345710  0.595910  1.0  0.1071
  C  C499  1  0.438400  0.312900  0.588100  1.0  -0.0702
  C  C500  1  0.406500  0.271200  0.535100  1.0  -0.1031
  C  C501  1  0.352200  0.262500  0.489700  1.0  -0.0997
  C  C502  1  0.329700  0.295200  0.497300  1.0  -0.096
  C  C503  1  0.358600  0.543270  0.785070  1.0  0.0815
  C  C504  1  0.396300  0.589600  0.777900  1.0  0.1528
  C  C505  1  0.408300  0.642600  0.800700  1.0  -0.1313
  C  C506  1  0.382790  0.649210  0.830800  1.0  -0.0951
  C  C507  1  0.345100  0.602880  0.837980  1.0  -0.0961
  C  C508  1  0.333050  0.549900  0.815150  1.0  -0.0778
  C  C509  1  0.404800  0.371300  0.796300  1.0  0.2486
  C  C510  1  0.451100  0.375000  0.791100  1.0  0.1139
  C  C511  1  0.480400  0.350000  0.816200  1.0  -0.0525
  C  C512  1  0.463400  0.321300  0.846500  1.0  -0.1107
  C  C513  1  0.417000  0.317600  0.851600  1.0  -0.113
  C  C514  1  0.387800  0.342600  0.826600  1.0  -0.1415
  C  C515  1  0.337000  0.520300  0.544700  1.0  0.224
  C  C516  1  0.382300  0.570600  0.589100  1.0  0.2798
  C  C517  1  0.395800  0.619500  0.580900  1.0  -0.1646
  C  C518  1  0.364000  0.618000  0.528200  1.0  -0.1226
  C  C519  1  0.318800  0.567800  0.483800  1.0  -0.0933
  C  C520  1  0.305200  0.518800  0.492000  1.0  -0.109
  C  C521  1  0.049800  0.157600  0.338200  1.0  -0.1282
  C  C522  1  0.990700  0.122400  0.289500  1.0  0.2229
  C  C523  1  0.954000  0.142900  0.266300  1.0  -0.2201
  C  C524  1  0.976400  0.198500  0.291900  1.0  -0.1156
  C  C525  1  0.035500  0.233800  0.340700  1.0  -0.1103
  C  C526  1  0.072200  0.213300  0.363900  1.0  -0.0273
  C  C527  1  0.939900  0.222600  0.269100  1.0  0.6149
  C  C528  1  0.091900  0.133900  0.364800  1.0  0.6626
  C  C529  1  0.575300  0.196300  0.326800  1.0  -0.1663
  C  C530  1  0.548600  0.143200  0.328200  1.0  0.1597
  C  C531  1  0.505000  0.125600  0.342200  1.0  -0.2263
  C  C532  1  0.487900  0.161000  0.354700  1.0  -0.1442
  C  C533  1  0.514500  0.214000  0.353300  1.0  -0.097
  C  C534  1  0.558200  0.231700  0.339300  1.0  -0.0406
  C  C535  1  0.626400  0.220000  0.313600  1.0  0.6085
  C  C536  1  0.439200  0.134300  0.365100  1.0  0.5916
  C  C537  1  0.722700  0.376900  0.077600  1.0  0.1566
  C  C538  1  0.772000  0.427800  0.122200  1.0  0.1808
  C  C539  1  0.788500  0.477600  0.113500  1.0  -0.112
  C  C540  1  0.755600  0.476400  0.060200  1.0  -0.1007
  C  C541  1  0.706300  0.425500  0.015600  1.0  -0.0946
  C  C542  1  0.689900  0.375800  0.024300  1.0  -0.1087
  C  C543  1  0.840000  0.240900  0.325700  1.0  0.2034
  C  C544  1  0.796500  0.240800  0.335100  1.0  0.1193
  C  C545  1  0.786500  0.219200  0.373100  1.0  -0.1098
  C  C546  1  0.820100  0.197700  0.401800  1.0  -0.1015
  C  C547  1  0.863700  0.197800  0.392500  1.0  -0.1157
  C  C548  1  0.873700  0.219400  0.354500  1.0  -0.1096
  C  C549  1  0.786400  0.449500  0.311100  1.0  0.1667
  C  C550  1  0.749800  0.404090  0.320090  1.0  0.1066
  C  C551  1  0.724800  0.411900  0.350300  1.0  -0.0701
  C  C552  1  0.736100  0.464900  0.371400  1.0  -0.0987
  C  C553  1  0.772800  0.510300  0.362500  1.0  -0.0985
  C  C554  1  0.797900  0.502700  0.332400  1.0  -0.0901
  C  C555  1  0.758200  0.214930  0.073530  1.0  0.0885
  C  C556  1  0.811700  0.222100  0.118400  1.0  0.1575
  C  C557  1  0.841900  0.199300  0.107600  1.0  -0.1343
  C  C558  1  0.818410  0.169200  0.051990  1.0  -0.0975
  C  C559  1  0.764900  0.162020  0.007120  1.0  -0.1004
  C  C560  1  0.734750  0.184850  0.017900  1.0  -0.0816
  C  C561  1  0.575000  0.203700  0.108500  1.0  0.2494
  C  C562  1  0.583900  0.208900  0.160000  1.0  0.1115
  C  C563  1  0.533800  0.183800  0.164200  1.0  -0.0579
  C  C564  1  0.474800  0.153500  0.116900  1.0  -0.1079
  C  C565  1  0.466000  0.148400  0.065400  1.0  -0.1187
  C  C566  1  0.516000  0.173400  0.061200  1.0  -0.1386
  C  C567  1  0.975600  0.455300  0.292300  1.0  0.2233
  C  C568  1  0.981500  0.410900  0.293200  1.0  0.2805
  C  C569  1  0.038600  0.419100  0.314900  1.0  -0.1665
  C  C570  1  0.089800  0.471800  0.335800  1.0  -0.1181
  C  C571  1  0.084000  0.516200  0.335000  1.0  -0.098
  C  C572  1  0.026800  0.508000  0.313200  1.0  -0.107
  C  C573  1  0.549800  0.211600  0.892200  1.0  -0.1303
  C  C574  1  0.490700  0.201200  0.868300  1.0  0.2208
  C  C575  1  0.454000  0.187700  0.811100  1.0  -0.2215
  C  C576  1  0.476400  0.184500  0.777900  1.0  -0.1145
  C  C577  1  0.535500  0.194800  0.801700  1.0  -0.1078
  C  C578  1  0.572200  0.208300  0.858900  1.0  -0.029
  C  C579  1  0.439900  0.170800  0.717300  1.0  0.6128
  C  C580  1  0.591900  0.227100  0.958000  1.0  0.6607
  C  C581  1  0.075300  0.748500  0.379000  1.0  -0.1663
  C  C582  1  0.048600  0.720400  0.405400  1.0  0.1729
  C  C583  1  0.005000  0.662800  0.379400  1.0  -0.2243
  C  C584  1  0.987900  0.633200  0.326900  1.0  -0.1448
  C  C585  1  0.014500  0.661200  0.300500  1.0  -0.1005
  C  C586  1  0.058200  0.718900  0.326500  1.0  -0.0416
  C  C587  1  0.126400  0.812800  0.406400  1.0  0.6094
  C  C588  1  0.939200  0.574100  0.304900  1.0  0.5904
  C  C589  1  0.222700  0.145100  0.345800  1.0  0.1564
  C  C590  1  0.272000  0.149800  0.344200  1.0  0.1824
  C  C591  1  0.288500  0.175000  0.310900  1.0  -0.1105
  C  C592  1  0.255600  0.195400  0.279200  1.0  -0.0997
  C  C593  1  0.206300  0.190700  0.280800  1.0  -0.0992
  C  C594  1  0.189900  0.165600  0.314100  1.0  -0.107
  C  C595  1  0.340000  0.014300  0.599100  1.0  0.2039
  C  C596  1  0.296500  0.961400  0.555700  1.0  0.1191
  C  C597  1  0.286500  0.913400  0.567300  1.0  -0.1088
  C  C598  1  0.320100  0.918300  0.622400  1.0  -0.1038
  C  C599  1  0.363700  0.971200  0.665900  1.0  -0.1134
  C  C600  1  0.373700  0.019200  0.654300  1.0  -0.1084
  C  C601  1  0.286400  0.975300  0.336900  1.0  0.1669
  C  C602  1  0.249800  0.929710  0.345710  1.0  0.1079
  C  C603  1  0.224800  0.874500  0.312900  1.0  -0.0717
  C  C604  1  0.236100  0.864700  0.271200  1.0  -0.1002
  C  C605  1  0.272800  0.910300  0.262500  1.0  -0.0951
  C  C606  1  0.297900  0.965500  0.295200  1.0  -0.0932
  C  C607  1  0.258200  0.184670  0.543270  1.0  0.0846
  C  C608  1  0.311700  0.193300  0.589600  1.0  0.1537
  C  C609  1  0.341900  0.234300  0.642600  1.0  -0.1353
  C  C610  1  0.318410  0.266420  0.649210  1.0  -0.0976
  C  C611  1  0.264900  0.257780  0.602880  1.0  -0.1019
  C  C612  1  0.234750  0.216850  0.549900  1.0  -0.0786
  C  C613  1  0.075000  0.966500  0.371300  1.0  0.2472
  C  C614  1  0.083900  0.923900  0.375000  1.0  0.1122
  C  C615  1  0.033800  0.869600  0.350000  1.0  -0.0596
  C  C616  1  0.974800  0.857900  0.321300  1.0  -0.1122
  C  C617  1  0.966000  0.900600  0.317600  1.0  -0.1147
  C  C618  1  0.016000  0.954800  0.342600  1.0  -0.1373
  C  C619  1  0.475600  0.183300  0.520300  1.0  0.223
  C  C620  1  0.481500  0.188300  0.570600  1.0  0.2818
  C  C621  1  0.538600  0.223700  0.619500  1.0  -0.1646
  C  C622  1  0.589800  0.254000  0.618000  1.0  -0.1185
  C  C623  1  0.584000  0.249000  0.567800  1.0  -0.097
  C  C624  1  0.526800  0.213600  0.518800  1.0  -0.1076
  C  C625  1  0.450200  0.788400  0.107800  1.0  -0.1304
  C  C626  1  0.509300  0.798800  0.131700  1.0  0.2203
  C  C627  1  0.546000  0.812300  0.188900  1.0  -0.2217
  C  C628  1  0.523600  0.815500  0.222100  1.0  -0.1141
  C  C629  1  0.464500  0.805200  0.198300  1.0  -0.1067
  C  C630  1  0.427800  0.791700  0.141100  1.0  -0.0302
  C  C631  1  0.560100  0.829200  0.282700  1.0  0.6136
  C  C632  1  0.408100  0.772900  0.042000  1.0  0.6601
  C  C633  1  0.924700  0.251500  0.621000  1.0  -0.1636
  C  C634  1  0.951400  0.279600  0.594600  1.0  0.1747
  C  C635  1  0.995000  0.337200  0.620600  1.0  -0.2251
  C  C636  1  0.012100  0.366800  0.673100  1.0  -0.1423
  C  C637  1  0.985500  0.338800  0.699500  1.0  -0.1013
  C  C638  1  0.941800  0.281100  0.673500  1.0  -0.0427
  C  C639  1  0.873600  0.187200  0.593600  1.0  0.6095
  C  C640  1  0.060800  0.425900  0.695100  1.0  0.5898
  C  C641  1  0.777300  0.854900  0.654200  1.0  0.1567
  C  C642  1  0.728000  0.850200  0.655800  1.0  0.1814
  C  C643  1  0.711500  0.825000  0.689100  1.0  -0.1125
  C  C644  1  0.744400  0.804600  0.720800  1.0  -0.1023
  C  C645  1  0.793700  0.809300  0.719200  1.0  -0.1001
  C  C646  1  0.810100  0.834400  0.685900  1.0  -0.1065
  C  C647  1  0.660000  0.985700  0.400900  1.0  0.204
  C  C648  1  0.703500  0.038600  0.444300  1.0  0.1192
  C  C649  1  0.713500  0.086600  0.432700  1.0  -0.1097
  C  C650  1  0.679900  0.081700  0.377600  1.0  -0.1037
  C  C651  1  0.636300  0.028800  0.334100  1.0  -0.114
  C  C652  1  0.626300  0.980800  0.345700  1.0  -0.1091
  C  C653  1  0.713600  0.024700  0.663100  1.0  0.1663
  C  C654  1  0.750200  0.070290  0.654290  1.0  0.1073
  C  C655  1  0.775200  0.125500  0.687100  1.0  -0.0741
  C  C656  1  0.763900  0.135300  0.728800  1.0  -0.1027
  C  C657  1  0.727200  0.089700  0.737500  1.0  -0.0978
  C  C658  1  0.702100  0.034500  0.704800  1.0  -0.094
  C  C659  1  0.741800  0.815330  0.456730  1.0  0.0837
  C  C660  1  0.688300  0.806700  0.410400  1.0  0.1537
  C  C661  1  0.658100  0.765700  0.357400  1.0  -0.1368
  C  C662  1  0.681590  0.733580  0.350790  1.0  -0.0983
  C  C663  1  0.735100  0.742220  0.397120  1.0  -0.1
  C  C664  1  0.765250  0.783150  0.450100  1.0  -0.0765
  C  C665  1  0.925000  0.033500  0.628700  1.0  0.2458
  C  C666  1  0.916100  0.076100  0.625000  1.0  0.1118
  C  C667  1  0.966200  0.130400  0.650000  1.0  -0.0579
  C  C668  1  0.025200  0.142100  0.678700  1.0  -0.1106
  C  C669  1  0.034000  0.099400  0.682400  1.0  -0.1129
  C  C670  1  0.984000  0.045200  0.657400  1.0  -0.1363
  C  C671  1  0.524400  0.816700  0.479700  1.0  0.2215
  C  C672  1  0.518500  0.811700  0.429400  1.0  0.2778
  C  C673  1  0.461400  0.776300  0.380500  1.0  -0.1662
  C  C674  1  0.410200  0.746000  0.382000  1.0  -0.1196
  C  C675  1  0.416000  0.751000  0.432200  1.0  -0.099
  C  C676  1  0.473200  0.786400  0.481200  1.0  -0.1079
  C  C677  1  0.950200  0.842400  0.661800  1.0  -0.1298
  C  C678  1  0.009300  0.877600  0.710500  1.0  0.221
  C  C679  1  0.046000  0.857100  0.733700  1.0  -0.222
  C  C680  1  0.023600  0.801500  0.708100  1.0  -0.115
  C  C681  1  0.964500  0.766200  0.659300  1.0  -0.1084
  C  C682  1  0.927800  0.786700  0.636100  1.0  -0.0253
  C  C683  1  0.060100  0.777400  0.730900  1.0  0.6153
  C  C684  1  0.908100  0.866100  0.635200  1.0  0.6633
  C  C685  1  0.424700  0.803700  0.673200  1.0  -0.1643
  C  C686  1  0.451400  0.856800  0.671800  1.0  0.1704
  C  C687  1  0.495000  0.874400  0.657800  1.0  -0.2265
  C  C688  1  0.512100  0.839000  0.645300  1.0  -0.1439
  C  C689  1  0.485500  0.786000  0.646700  1.0  -0.0982
  C  C690  1  0.441800  0.768300  0.660700  1.0  -0.0408
  C  C691  1  0.373600  0.780000  0.686400  1.0  0.6088
  C  C692  1  0.560800  0.865700  0.634900  1.0  0.589
  C  C693  1  0.277300  0.623100  0.922400  1.0  0.157
  C  C694  1  0.228000  0.572200  0.877800  1.0  0.1807
  C  C695  1  0.211500  0.522400  0.886500  1.0  -0.1132
  C  C696  1  0.244400  0.523600  0.939800  1.0  -0.0999
  C  C697  1  0.293700  0.574500  0.984400  1.0  -0.0946
  C  C698  1  0.310100  0.624200  0.975700  1.0  -0.1098
  C  C699  1  0.160000  0.759100  0.674300  1.0  0.2012
  C  C700  1  0.203500  0.759200  0.664900  1.0  0.1205
  C  C701  1  0.213500  0.780800  0.626900  1.0  -0.1106
  C  C702  1  0.179900  0.802300  0.598200  1.0  -0.1023
  C  C703  1  0.136300  0.802200  0.607500  1.0  -0.1159
  C  C704  1  0.126300  0.780600  0.645500  1.0  -0.1093
  C  C705  1  0.213600  0.550500  0.688900  1.0  0.1665
  C  C706  1  0.250200  0.595910  0.679910  1.0  0.1075
  C  C707  1  0.275200  0.588100  0.649700  1.0  -0.0736
  C  C708  1  0.263900  0.535100  0.628600  1.0  -0.0998
  C  C709  1  0.227200  0.489700  0.637500  1.0  -0.0961
  C  C710  1  0.202100  0.497300  0.667600  1.0  -0.092
  C  C711  1  0.241800  0.785070  0.926470  1.0  0.0848
  C  C712  1  0.188300  0.777900  0.881600  1.0  0.1562
  C  C713  1  0.158100  0.800700  0.892400  1.0  -0.1352
  C  C714  1  0.181590  0.830800  0.948010  1.0  -0.0967
  C  C715  1  0.235100  0.837980  0.992880  1.0  -0.098
  C  C716  1  0.265250  0.815150  0.982100  1.0  -0.0817
  C  C717  1  0.425000  0.796300  0.891500  1.0  0.248
  C  C718  1  0.416100  0.791100  0.840000  1.0  0.1125
  C  C719  1  0.466200  0.816200  0.835800  1.0  -0.0598
  C  C720  1  0.525200  0.846500  0.883100  1.0  -0.1082
  C  C721  1  0.534000  0.851600  0.934600  1.0  -0.1145
  C  C722  1  0.484000  0.826600  0.938800  1.0  -0.14
  C  C723  1  0.024400  0.544700  0.707700  1.0  0.2229
  C  C724  1  0.018500  0.589100  0.706800  1.0  0.2775
  C  C725  1  0.961400  0.580900  0.685100  1.0  -0.1654
  C  C726  1  0.910200  0.528200  0.664200  1.0  -0.1203
  C  C727  1  0.916000  0.483800  0.665000  1.0  -0.1011
  C  C728  1  0.973200  0.492000  0.686800  1.0  -0.1073
  N  N729  1  0.736800  0.617600  0.334600  1.0  -0.2267
  N  N730  1  0.707700  0.599900  0.359800  1.0  -0.0746
  N  N731  1  0.748400  0.622900  0.416900  1.0  -0.2407
  N  N732  1  0.475900  0.420900  0.260400  1.0  -0.2825
  N  N733  1  0.503900  0.476500  0.275000  1.0  -0.0111
  N  N734  1  0.463300  0.491100  0.263000  1.0  -0.082
  N  N735  1  0.651100  0.625400  0.431700  1.0  -0.4352
  N  N736  1  0.606000  0.596600  0.376200  1.0  -0.0856
  N  N737  1  0.566700  0.613900  0.359800  1.0  -0.1921
  N  N738  1  0.642700  0.501600  0.240500  1.0  -0.3222
  N  N739  1  0.608600  0.481300  0.262300  1.0  -0.095
  N  N740  1  0.584300  0.426400  0.251300  1.0  -0.2617
  N  N741  1  0.618700  0.601600  0.233500  1.0  -0.3113
  N  N742  1  0.586900  0.580700  0.257400  1.0  -0.1357
  N  N743  1  0.543100  0.592500  0.242400  1.0  -0.3317
  N  N744  1  0.664500  0.519900  0.434200  1.0  -0.3204
  N  N745  1  0.621300  0.493600  0.377700  1.0  -0.0702
  N  N746  1  0.591100  0.437600  0.361300  1.0  -0.3581
  N  N747  1  0.316100  0.105200  0.072500  1.0  -0.6182
  N  N748  1  0.292900  0.546600  0.112900  1.0  -0.6118
  N  N749  1  0.236800  0.902200  0.119200  1.0  -0.2294
  N  N750  1  0.207700  0.847900  0.107800  1.0  -0.0745
  N  N751  1  0.248400  0.831500  0.125500  1.0  -0.2417
  N  N752  1  0.975900  0.715500  0.055000  1.0  -0.2831
  N  N753  1  0.003900  0.728900  0.027400  1.0  -0.0111
  N  N754  1  0.963300  0.700300  0.972200  1.0  -0.0829
  N  N755  1  0.151100  0.719400  0.025700  1.0  -0.4361
  N  N756  1  0.106000  0.729800  0.009400  1.0  -0.0875
  N  N757  1  0.066700  0.706900  0.952800  1.0  -0.1937
  N  N758  1  0.142700  0.902200  0.141100  1.0  -0.3223
  N  N759  1  0.108600  0.846300  0.127300  1.0  -0.0968
  N  N760  1  0.084300  0.833000  0.157900  1.0  -0.2636
  N  N761  1  0.118700  0.885200  0.017100  1.0  -0.3131
  N  N762  1  0.086900  0.829500  0.006200  1.0  -0.1352
  N  N763  1  0.043100  0.800700  0.950600  1.0  -0.3296
  N  N764  1  0.164500  0.730300  0.144600  1.0  -0.3217
  N  N765  1  0.121300  0.743600  0.127700  1.0  -0.0702
  N  N766  1  0.091100  0.729800  0.153500  1.0  -0.3608
  N  N767  1  0.816100  0.743600  0.210900  1.0  -0.6232
  N  N768  1  0.792900  0.680000  0.746300  1.0  -0.61
  N  N769  1  0.763200  0.097800  0.880800  1.0  -0.2282
  N  N770  1  0.792300  0.152100  0.892200  1.0  -0.0744
  N  N771  1  0.751600  0.168500  0.874500  1.0  -0.2419
  N  N772  1  0.024100  0.284500  0.945000  1.0  -0.2828
  N  N773  1  0.996100  0.271100  0.972600  1.0  -0.012
  N  N774  1  0.036700  0.299700  0.027800  1.0  -0.0826
  N  N775  1  0.848900  0.280600  0.974300  1.0  -0.4362
  N  N776  1  0.894000  0.270200  0.990600  1.0  -0.0876
  N  N777  1  0.933300  0.293100  0.047200  1.0  -0.1942
  N  N778  1  0.857300  0.097800  0.858900  1.0  -0.3241
  N  N779  1  0.891400  0.153700  0.872700  1.0  -0.0958
  N  N780  1  0.915700  0.167000  0.842100  1.0  -0.2646
  N  N781  1  0.881300  0.114800  0.982900  1.0  -0.3145
  N  N782  1  0.913100  0.170500  0.993800  1.0  -0.135
  N  N783  1  0.956900  0.199300  0.049400  1.0  -0.3322
  N  N784  1  0.835500  0.269700  0.855400  1.0  -0.3231
  N  N785  1  0.878700  0.256400  0.872300  1.0  -0.072
  N  N786  1  0.908900  0.270200  0.846500  1.0  -0.3605
  N  N787  1  0.183900  0.256400  0.789100  1.0  -0.6243
  N  N788  1  0.207100  0.320000  0.253700  1.0  -0.6093
  N  N789  1  0.263200  0.382400  0.665400  1.0  -0.2267
  N  N790  1  0.292300  0.400100  0.640200  1.0  -0.074
  N  N791  1  0.251600  0.377100  0.583100  1.0  -0.2412
  N  N792  1  0.524100  0.579100  0.739600  1.0  -0.2818
  N  N793  1  0.496100  0.523500  0.725000  1.0  -0.012
  N  N794  1  0.536700  0.508900  0.737000  1.0  -0.0821
  N  N795  1  0.348900  0.374600  0.568300  1.0  -0.4366
  N  N796  1  0.394000  0.403400  0.623800  1.0  -0.0856
  N  N797  1  0.433300  0.386100  0.640200  1.0  -0.1918
  N  N798  1  0.357300  0.498400  0.759500  1.0  -0.3246
  N  N799  1  0.391400  0.518700  0.737700  1.0  -0.0951
  N  N800  1  0.415700  0.573600  0.748700  1.0  -0.2621
  N  N801  1  0.381300  0.398400  0.766500  1.0  -0.3136
  N  N802  1  0.413100  0.419300  0.742600  1.0  -0.1351
  N  N803  1  0.456900  0.407500  0.757600  1.0  -0.3316
  N  N804  1  0.335500  0.480100  0.565800  1.0  -0.3207
  N  N805  1  0.378700  0.506400  0.622300  1.0  -0.0687
  N  N806  1  0.408900  0.562400  0.638700  1.0  -0.3589
  N  N807  1  0.683900  0.894800  0.927500  1.0  -0.6219
  N  N808  1  0.707100  0.453400  0.887100  1.0  -0.6111
  N  N809  1  0.717000  0.334600  0.097800  1.0  -0.2283
  N  N810  1  0.759900  0.359800  0.152100  1.0  -0.0745
  N  N811  1  0.794000  0.416900  0.168500  1.0  -0.24
  N  N812  1  0.839500  0.260400  0.284500  1.0  -0.2844
  N  N813  1  0.798500  0.275000  0.271100  1.0  -0.0148
  N  N814  1  0.771900  0.263000  0.299700  1.0  -0.0829
  N  N815  1  0.806300  0.431700  0.280600  1.0  -0.437
  N  N816  1  0.779600  0.376200  0.270200  1.0  -0.0844
  N  N817  1  0.745900  0.359800  0.293100  1.0  -0.1924
  N  N818  1  0.738900  0.240500  0.097800  1.0  -0.3258
  N  N819  1  0.781000  0.262300  0.153700  1.0  -0.0983
  N  N820  1  0.824900  0.251300  0.167000  1.0  -0.2609
  N  N821  1  0.631900  0.233500  0.114800  1.0  -0.314
  N  N822  1  0.676700  0.257400  0.170500  1.0  -0.1368
  N  N823  1  0.649900  0.242400  0.199300  1.0  -0.3315
  N  N824  1  0.914300  0.434200  0.269700  1.0  -0.32
  N  N825  1  0.884100  0.377700  0.256400  1.0  -0.0674
  N  N826  1  0.923700  0.361300  0.270200  1.0  -0.3583
  N  N827  1  0.967300  0.072500  0.256400  1.0  -0.622
  N  N828  1  0.566300  0.112900  0.320000  1.0  -0.6106
  N  N829  1  0.217000  0.119200  0.382400  1.0  -0.2292
  N  N830  1  0.259900  0.107800  0.400100  1.0  -0.0748
  N  N831  1  0.294000  0.125500  0.377100  1.0  -0.2419
  N  N832  1  0.339500  0.055000  0.579100  1.0  -0.2834
  N  N833  1  0.298500  0.027400  0.523500  1.0  -0.0145
  N  N834  1  0.271900  0.972200  0.508900  1.0  -0.082
  N  N835  1  0.306300  0.025700  0.374600  1.0  -0.4379
  N  N836  1  0.279600  0.009400  0.403400  1.0  -0.0871
  N  N837  1  0.245900  0.952800  0.386100  1.0  -0.1942
  N  N838  1  0.238900  0.141100  0.498400  1.0  -0.3209
  N  N839  1  0.281000  0.127300  0.518700  1.0  -0.0952
  N  N840  1  0.324900  0.157900  0.573600  1.0  -0.2613
  N  N841  1  0.131900  0.017100  0.398400  1.0  -0.3131
  N  N842  1  0.176700  0.006200  0.419300  1.0  -0.1353
  N  N843  1  0.149900  0.950600  0.407500  1.0  -0.3307
  N  N844  1  0.414300  0.144600  0.480100  1.0  -0.3216
  N  N845  1  0.384100  0.127700  0.506400  1.0  -0.066
  N  N846  1  0.423700  0.153500  0.562400  1.0  -0.3614
  N  N847  1  0.467300  0.210900  0.894800  1.0  -0.6183
  N  N848  1  0.066300  0.746300  0.453400  1.0  -0.6077
  N  N849  1  0.783000  0.880800  0.617600  1.0  -0.2288
  N  N850  1  0.740100  0.892200  0.599900  1.0  -0.0757
  N  N851  1  0.706000  0.874500  0.622900  1.0  -0.2447
  N  N852  1  0.660500  0.945000  0.420900  1.0  -0.283
  N  N853  1  0.701500  0.972600  0.476500  1.0  -0.0138
  N  N854  1  0.728100  0.027800  0.491100  1.0  -0.0812
  N  N855  1  0.693700  0.974300  0.625400  1.0  -0.4387
  N  N856  1  0.720400  0.990600  0.596600  1.0  -0.0882
  N  N857  1  0.754100  0.047200  0.613900  1.0  -0.1931
  N  N858  1  0.761100  0.858900  0.501600  1.0  -0.3242
  N  N859  1  0.719000  0.872700  0.481300  1.0  -0.0967
  N  N860  1  0.675100  0.842100  0.426400  1.0  -0.2625
  N  N861  1  0.868100  0.982900  0.601600  1.0  -0.3142
  N  N862  1  0.823300  0.993800  0.580700  1.0  -0.1377
  N  N863  1  0.850100  0.049400  0.592500  1.0  -0.3304
  N  N864  1  0.585700  0.855400  0.519900  1.0  -0.3214
  N  N865  1  0.615900  0.872300  0.493600  1.0  -0.0673
  N  N866  1  0.576300  0.846500  0.437600  1.0  -0.3597
  N  N867  1  0.532700  0.789100  0.105200  1.0  -0.6211
  N  N868  1  0.933700  0.253700  0.546600  1.0  -0.6067
  N  N869  1  0.283000  0.665400  0.902200  1.0  -0.229
  N  N870  1  0.240100  0.640200  0.847900  1.0  -0.0755
  N  N871  1  0.206000  0.583100  0.831500  1.0  -0.2398
  N  N872  1  0.160500  0.739600  0.715500  1.0  -0.2841
  N  N873  1  0.201500  0.725000  0.728900  1.0  -0.0135
  N  N874  1  0.228100  0.737000  0.700300  1.0  -0.0826
  N  N875  1  0.193700  0.568300  0.719400  1.0  -0.4374
  N  N876  1  0.220400  0.623800  0.729800  1.0  -0.0853
  N  N877  1  0.254100  0.640200  0.706900  1.0  -0.193
  N  N878  1  0.261100  0.759500  0.902200  1.0  -0.3271
  N  N879  1  0.219000  0.737700  0.846300  1.0  -0.0971
  N  N880  1  0.175100  0.748700  0.833000  1.0  -0.2617
  N  N881  1  0.368100  0.766500  0.885200  1.0  -0.3134
  N  N882  1  0.323300  0.742600  0.829500  1.0  -0.1371
  N  N883  1  0.350100  0.757600  0.800700  1.0  -0.332
  N  N884  1  0.085700  0.565800  0.730300  1.0  -0.3196
  N  N885  1  0.115900  0.622300  0.743600  1.0  -0.0657
  N  N886  1  0.076300  0.638700  0.729800  1.0  -0.3576
  N  N887  1  0.032700  0.927500  0.743600  1.0  -0.6166
  N  N888  1  0.433700  0.887100  0.680000  1.0  -0.6093
  O  O889  1  0.483100  0.310300  0.276400  1.0  -0.5971
  O  O890  1  0.459600  0.309000  0.193800  1.0  -0.5943
  O  O891  1  0.255800  0.022500  0.166500  1.0  -0.5855
  O  O892  1  0.242800  0.010200  0.084000  1.0  -0.5956
  O  O893  1  0.459400  0.626100  0.269500  1.0  -0.5742
  O  O894  1  0.389900  0.546200  0.193100  1.0  -0.5736
  O  O895  1  0.293700  0.747400  0.161700  1.0  -0.6114
  O  O896  1  0.214800  0.669100  0.093700  1.0  -0.6314
  O  O897  1  0.983100  0.706700  0.172800  1.0  -0.592
  O  O898  1  0.959600  0.765800  0.150600  1.0  -0.596
  O  O899  1  0.755800  0.589300  0.233300  1.0  -0.5854
  O  O900  1  0.742800  0.658800  0.232600  1.0  -0.5948
  O  O901  1  0.959400  0.689900  0.833300  1.0  -0.5763
  O  O902  1  0.889900  0.696800  0.843700  1.0  -0.5782
  O  O903  1  0.793700  0.632000  0.546300  1.0  -0.6119
  O  O904  1  0.714800  0.621100  0.545700  1.0  -0.6312
  O  O905  1  0.016900  0.293300  0.827200  1.0  -0.592
  O  O906  1  0.040400  0.234200  0.849400  1.0  -0.5957
  O  O907  1  0.244200  0.410700  0.766700  1.0  -0.5854
  O  O908  1  0.257200  0.341200  0.767400  1.0  -0.5957
  O  O909  1  0.040600  0.310100  0.166700  1.0  -0.5777
  O  O910  1  0.110100  0.303200  0.156300  1.0  -0.5785
  O  O911  1  0.206300  0.368000  0.453700  1.0  -0.6124
  O  O912  1  0.285200  0.378900  0.454300  1.0  -0.633
  O  O913  1  0.516900  0.689700  0.723600  1.0  -0.5961
  O  O914  1  0.540400  0.691000  0.806200  1.0  -0.5965
  O  O915  1  0.744200  0.977500  0.833500  1.0  -0.5859
  O  O916  1  0.757200  0.989800  0.916000  1.0  -0.5952
  O  O917  1  0.540600  0.373900  0.730500  1.0  -0.5755
  O  O918  1  0.610100  0.453800  0.806900  1.0  -0.5758
  O  O919  1  0.706300  0.252600  0.838300  1.0  -0.6106
  O  O920  1  0.785200  0.330900  0.906300  1.0  -0.6328
  O  O921  1  0.966100  0.276400  0.293300  1.0  -0.5922
  O  O922  1  0.884800  0.193800  0.234200  1.0  -0.5932
  O  O923  1  0.144000  0.166500  0.410700  1.0  -0.5846
  O  O924  1  0.073800  0.084000  0.341200  1.0  -0.596
  O  O925  1  0.643400  0.269500  0.310100  1.0  -0.575
  O  O926  1  0.646900  0.193100  0.303200  1.0  -0.5775
  O  O927  1  0.414300  0.161700  0.368000  1.0  -0.61
  O  O928  1  0.424600  0.093700  0.378900  1.0  -0.6335
  O  O929  1  0.466100  0.172800  0.689700  1.0  -0.5945
  O  O930  1  0.384800  0.150600  0.691000  1.0  -0.5952
  O  O931  1  0.644000  0.233300  0.977500  1.0  -0.5838
  O  O932  1  0.573800  0.232600  0.989800  1.0  -0.5955
  O  O933  1  0.143400  0.833300  0.373900  1.0  -0.5759
  O  O934  1  0.146900  0.843700  0.453800  1.0  -0.5744
  O  O935  1  0.914300  0.546300  0.252600  1.0  -0.6137
  O  O936  1  0.924600  0.545700  0.330900  1.0  -0.6345
  O  O937  1  0.533900  0.827200  0.310300  1.0  -0.5952
  O  O938  1  0.615200  0.849400  0.309000  1.0  -0.5948
  O  O939  1  0.356000  0.766700  0.022500  1.0  -0.5823
  O  O940  1  0.426200  0.767400  0.010200  1.0  -0.5975
  O  O941  1  0.856600  0.166700  0.626100  1.0  -0.5758
  O  O942  1  0.853100  0.156300  0.546200  1.0  -0.5755
  O  O943  1  0.085700  0.453700  0.747400  1.0  -0.6145
  O  O944  1  0.075400  0.454300  0.669100  1.0  -0.6346
  O  O945  1  0.033900  0.723600  0.706700  1.0  -0.5929
  O  O946  1  0.115200  0.806200  0.765800  1.0  -0.5941
  O  O947  1  0.856000  0.833500  0.589300  1.0  -0.5852
  O  O948  1  0.926200  0.916000  0.658800  1.0  -0.5962
  O  O949  1  0.356600  0.730500  0.689900  1.0  -0.5765
  O  O950  1  0.353100  0.806900  0.696800  1.0  -0.5763
  O  O951  1  0.585700  0.838300  0.632000  1.0  -0.6097
  O  O952  1  0.575400  0.906300  0.621100  1.0  -0.6367
