# generated using pymatgen
data_Zn15H104C164(N27O8)2
_symmetry_space_group_name_H-M   'P 1'
_cell_length_a   36.13270000
_cell_length_b   36.13280000
_cell_length_c   36.13280000
_cell_angle_alpha   60.14280000
_cell_angle_beta   89.75250000
_cell_angle_gamma   119.85700000
_symmetry_Int_Tables_number   1
_chemical_formula_structural   Zn15H104C164(N27O8)2
_chemical_formula_sum   'Zn60 H416 C656 N216 O64'
_cell_volume   33428.89416611
_cell_formula_units_Z   4
loop_
 _symmetry_equiv_pos_site_id
 _symmetry_equiv_pos_as_xyz
  1  'x, y, z'
loop_
 _atom_site_type_symbol
 _atom_site_label
 _atom_site_symmetry_multiplicity
 _atom_site_fract_x
 _atom_site_fract_y
 _atom_site_fract_z
 _atom_site_occupancy
 _atom_site_charge
  Zn  Zn1  1  0.225560  0.335200  0.101100  1.0  0.9263
  Zn  Zn2  1  0.220860  0.326750  0.942910  1.0  0.8928
  Zn  Zn3  1  0.063700  0.164800  0.109640  1.0  0.9257
  Zn  Zn4  1  0.230340  0.173250  0.105890  1.0  0.892
  Zn  Zn5  1  0.390360  0.826660  0.274440  1.0  0.9285
  Zn  Zn6  1  0.394110  0.663770  0.279140  1.0  0.8927
  Zn  Zn7  1  0.398900  0.673340  0.436300  1.0  0.9246
  Zn  Zn8  1  0.557090  0.836230  0.269660  1.0  0.8927
  Zn  Zn9  1  0.185210  0.250000  0.064790  1.0  0.6396
  Zn  Zn10  1  0.435210  0.750000  0.314790  1.0  0.6388
  Zn  Zn11  1  0.774440  0.664800  0.898900  1.0  0.9254
  Zn  Zn12  1  0.779140  0.673250  0.057090  1.0  0.8923
  Zn  Zn13  1  0.936300  0.835200  0.890360  1.0  0.9258
  Zn  Zn14  1  0.769660  0.826750  0.894110  1.0  0.8924
  Zn  Zn15  1  0.609640  0.173340  0.725560  1.0  0.9265
  Zn  Zn16  1  0.605890  0.336230  0.720860  1.0  0.8924
  Zn  Zn17  1  0.601100  0.326660  0.563700  1.0  0.9243
  Zn  Zn18  1  0.442910  0.163770  0.730340  1.0  0.8927
  Zn  Zn19  1  0.814790  0.750000  0.935210  1.0  0.643
  Zn  Zn20  1  0.564790  0.250000  0.685210  1.0  0.6437
  Zn  Zn21  1  0.244160  0.616410  0.877930  1.0  0.6777
  Zn  Zn22  1  0.201630  0.531920  0.841010  1.0  0.3961
  Zn  Zn23  1  0.366290  0.701640  0.830590  1.0  0.3243
  Zn  Zn24  1  0.209470  0.540040  0.998950  1.0  0.865
  Zn  Zn25  1  0.199610  0.693570  0.838960  1.0  0.9132
  Zn  Zn26  1  0.994340  0.116410  0.627750  1.0  0.6765
  Zn  Zn27  1  0.872930  0.031920  0.669710  1.0  0.3928
  Zn  Zn28  1  0.032230  0.201640  0.664650  1.0  0.3223
  Zn  Zn29  1  0.038990  0.040040  0.669430  1.0  0.8655
  Zn  Zn30  1  0.032530  0.193570  0.506040  1.0  0.9173
  Zn  Zn31  1  0.005660  0.883590  0.372250  1.0  0.6741
  Zn  Zn32  1  0.127070  0.968080  0.330290  1.0  0.3946
  Zn  Zn33  1  0.967770  0.798360  0.335350  1.0  0.3238
  Zn  Zn34  1  0.961010  0.959960  0.330570  1.0  0.8647
  Zn  Zn35  1  0.967470  0.806430  0.493960  1.0  0.9178
  Zn  Zn36  1  0.755840  0.383590  0.122070  1.0  0.6736
  Zn  Zn37  1  0.798370  0.468080  0.158990  1.0  0.3911
  Zn  Zn38  1  0.633710  0.298360  0.169410  1.0  0.3214
  Zn  Zn39  1  0.790530  0.459960  0.001050  1.0  0.8653
  Zn  Zn40  1  0.800390  0.306430  0.161040  1.0  0.914
  Zn  Zn41  1  0.127750  0.622090  0.255840  1.0  0.6764
  Zn  Zn42  1  0.169710  0.542640  0.298370  1.0  0.3944
  Zn  Zn43  1  0.164650  0.696880  0.133710  1.0  0.3191
  Zn  Zn44  1  0.169430  0.708420  0.290530  1.0  0.865
  Zn  Zn45  1  0.006040  0.538570  0.300390  1.0  0.9136
  Zn  Zn46  1  0.377930  0.122090  0.505660  1.0  0.6762
  Zn  Zn47  1  0.341010  0.042640  0.627070  1.0  0.3944
  Zn  Zn48  1  0.330590  0.196880  0.467770  1.0  0.3236
  Zn  Zn49  1  0.498950  0.208420  0.461010  1.0  0.8645
  Zn  Zn50  1  0.338960  0.038570  0.467470  1.0  0.9149
  Zn  Zn51  1  0.622070  0.877910  0.494340  1.0  0.6746
  Zn  Zn52  1  0.658990  0.957360  0.372930  1.0  0.3956
  Zn  Zn53  1  0.669410  0.803120  0.532230  1.0  0.3284
  Zn  Zn54  1  0.501050  0.791580  0.538990  1.0  0.8641
  Zn  Zn55  1  0.661040  0.961430  0.532530  1.0  0.9134
  Zn  Zn56  1  0.872250  0.377910  0.744160  1.0  0.6748
  Zn  Zn57  1  0.830290  0.457360  0.701630  1.0  0.3909
  Zn  Zn58  1  0.835350  0.303120  0.866290  1.0  0.3157
  Zn  Zn59  1  0.830570  0.291580  0.709470  1.0  0.8665
  Zn  Zn60  1  0.993960  0.461430  0.699610  1.0  0.9143
  H  H61  1  0.276200  0.458800  0.891800  1.0  0.0968
  H  H62  1  0.308100  0.537900  0.882600  1.0  0.0885
  H  H63  1  0.308300  0.540600  0.945300  1.0  0.0865
  H  H64  1  0.276400  0.464100  0.017300  1.0  0.1006
  H  H65  1  0.136600  0.303500  0.898700  1.0  0.0949
  H  H66  1  0.064500  0.267300  0.893200  1.0  0.0956
  H  H67  1  0.001200  0.202900  0.958500  1.0  0.0967
  H  H68  1  0.009900  0.174800  0.029100  1.0  0.0981
  H  H69  1  0.285800  0.519100  0.280500  1.0  0.1112
  H  H70  1  0.261200  0.469400  0.252800  1.0  0.1116
  H  H71  1  0.376200  0.575700  0.149300  1.0  0.1075
  H  H72  1  0.400800  0.625400  0.177000  1.0  0.1129
  H  H73  1  0.348000  0.543400  0.119600  1.0  0.1107
  H  H74  1  0.324400  0.494400  0.091200  1.0  0.1208
  H  H75  1  0.226700  0.372100  0.208600  1.0  0.1102
  H  H76  1  0.250200  0.421100  0.237100  1.0  0.1112
  H  H77  1  0.287100  0.311700  0.896600  1.0  0.082
  H  H78  1  0.328900  0.285200  0.882500  1.0  0.1172
  H  H79  1  0.017700  0.187900  0.168800  1.0  0.0828
  H  H80  1  0.006200  0.213300  0.212500  1.0  0.1204
  H  H81  1  0.149400  0.041200  0.182600  1.0  0.0955
  H  H82  1  0.079500  0.962100  0.229800  1.0  0.0913
  H  H83  1  0.014100  0.959400  0.232300  1.0  0.0889
  H  H84  1  0.018600  0.035900  0.187700  1.0  0.1024
  H  H85  1  0.297800  0.196500  0.166900  1.0  0.0945
  H  H86  1  0.339500  0.232700  0.202800  1.0  0.0972
  H  H87  1  0.338600  0.297100  0.201700  1.0  0.0954
  H  H88  1  0.296100  0.325200  0.164900  1.0  0.1003
  H  H89  1  0.700400  0.980900  0.233300  1.0  0.1102
  H  H90  1  0.777800  0.030600  0.208200  1.0  0.1098
  H  H91  1  0.775000  0.924300  0.199500  1.0  0.1094
  H  H92  1  0.697600  0.874600  0.224600  1.0  0.1118
  H  H93  1  0.837000  0.956600  0.195400  1.0  0.1119
  H  H94  1  0.914400  0.005600  0.170000  1.0  0.1163
  H  H95  1  0.919300  0.127900  0.145400  1.0  0.1098
  H  H96  1  0.841800  0.078900  0.170900  1.0  0.1111
  H  H97  1  0.291700  0.188300  0.024600  1.0  0.0817
  H  H98  1  0.332300  0.214800  0.956300  1.0  0.1187
  H  H99  1  0.143300  0.312100  0.170200  1.0  0.0813
  H  H100  1  0.074200  0.286700  0.207100  1.0  0.121
  H  H101  1  0.317400  0.668000  0.223800  1.0  0.0951
  H  H102  1  0.270200  0.690700  0.191900  1.0  0.0912
  H  H103  1  0.267700  0.753600  0.191700  1.0  0.0873
  H  H104  1  0.312300  0.793700  0.223600  1.0  0.1011
  H  H105  1  0.333100  0.535300  0.363400  1.0  0.0962
  H  H106  1  0.297200  0.457700  0.435500  1.0  0.0999
  H  H107  1  0.298300  0.459700  0.498800  1.0  0.099
  H  H108  1  0.335100  0.539000  0.490100  1.0  0.1009
  H  H109  1  0.266700  0.066300  0.214200  1.0  0.111
  H  H110  1  0.291800  0.014000  0.238800  1.0  0.1108
  H  H111  1  0.300500  0.025500  0.123800  1.0  0.1086
  H  H112  1  0.275400  0.077800  0.099200  1.0  0.1101
  H  H113  1  0.304600  0.967600  0.152000  1.0  0.112
  H  H114  1  0.330000  0.915600  0.175600  1.0  0.1164
  H  H115  1  0.354600  0.935300  0.273300  1.0  0.1113
  H  H116  1  0.329100  0.987300  0.249800  1.0  0.1107
  H  H117  1  0.475400  0.683700  0.212900  1.0  0.0832
  H  H118  1  0.543700  0.711400  0.171100  1.0  0.1176
  H  H119  1  0.329800  0.686500  0.482300  1.0  0.0821
  H  H120  1  0.292900  0.718700  0.493800  1.0  0.1202
  H  H121  1  0.608200  0.832000  0.350600  1.0  0.0951
  H  H122  1  0.617400  0.809300  0.420500  1.0  0.0883
  H  H123  1  0.554700  0.746400  0.485900  1.0  0.088
  H  H124  1  0.482700  0.706300  0.481400  1.0  0.1008
  H  H125  1  0.601300  0.964700  0.202200  1.0  0.0952
  H  H126  1  0.606800  0.042300  0.160500  1.0  0.0997
  H  H127  1  0.541500  0.040300  0.161400  1.0  0.0984
  H  H128  1  0.470900  0.961000  0.203900  1.0  0.1011
  H  H129  1  0.219500  0.433700  0.799600  1.0  0.1099
  H  H130  1  0.247200  0.486000  0.722200  1.0  0.1106
  H  H131  1  0.350700  0.474500  0.725000  1.0  0.1066
  H  H132  1  0.323000  0.422200  0.802400  1.0  0.1124
  H  H133  1  0.380400  0.532400  0.663000  1.0  0.1108
  H  H134  1  0.408800  0.584400  0.585600  1.0  0.1209
  H  H135  1  0.291400  0.564700  0.580700  1.0  0.1108
  H  H136  1  0.262900  0.512700  0.658200  1.0  0.1112
  H  H137  1  0.603400  0.816300  0.208300  1.0  0.0816
  H  H138  1  0.617500  0.788600  0.167700  1.0  0.1182
  H  H139  1  0.331200  0.813500  0.356700  1.0  0.0824
  H  H140  1  0.287500  0.781300  0.425800  1.0  0.1207
  H  H141  1  0.723800  0.541200  0.108200  1.0  0.0965
  H  H142  1  0.691900  0.462100  0.117400  1.0  0.0884
  H  H143  1  0.691700  0.459400  0.054700  1.0  0.086
  H  H144  1  0.723600  0.535900  0.982700  1.0  0.1008
  H  H145  1  0.863400  0.696500  0.101300  1.0  0.0963
  H  H146  1  0.935500  0.732700  0.106800  1.0  0.097
  H  H147  1  0.998800  0.797100  0.041500  1.0  0.0969
  H  H148  1  0.990100  0.825200  0.970900  1.0  0.0987
  H  H149  1  0.714200  0.480900  0.719500  1.0  0.1112
  H  H150  1  0.738800  0.530600  0.747200  1.0  0.1132
  H  H151  1  0.623800  0.424300  0.850700  1.0  0.1069
  H  H152  1  0.599200  0.374600  0.823000  1.0  0.1125
  H  H153  1  0.652000  0.456600  0.880400  1.0  0.112
  H  H154  1  0.675600  0.505600  0.908800  1.0  0.1212
  H  H155  1  0.773300  0.627900  0.791400  1.0  0.1097
  H  H156  1  0.749800  0.578900  0.762900  1.0  0.1109
  H  H157  1  0.712900  0.688300  0.103400  1.0  0.0821
  H  H158  1  0.671100  0.714800  0.117500  1.0  0.1175
  H  H159  1  0.982300  0.812100  0.831200  1.0  0.0808
  H  H160  1  0.993800  0.786700  0.787500  1.0  0.121
  H  H161  1  0.850600  0.958800  0.817400  1.0  0.0967
  H  H162  1  0.920500  0.037900  0.770200  1.0  0.0908
  H  H163  1  0.985900  0.040600  0.767700  1.0  0.0891
  H  H164  1  0.981400  0.964100  0.812300  1.0  0.1001
  H  H165  1  0.702200  0.803500  0.833100  1.0  0.0941
  H  H166  1  0.660500  0.767300  0.797200  1.0  0.0966
  H  H167  1  0.661400  0.702900  0.798300  1.0  0.0958
  H  H168  1  0.703900  0.674800  0.835100  1.0  0.0997
  H  H169  1  0.299600  0.019100  0.766700  1.0  0.1107
  H  H170  1  0.222200  0.969400  0.791800  1.0  0.1089
  H  H171  1  0.225000  0.075700  0.800500  1.0  0.11
  H  H172  1  0.302400  0.125400  0.775400  1.0  0.112
  H  H173  1  0.163000  0.043400  0.804600  1.0  0.112
  H  H174  1  0.085600  0.994400  0.830000  1.0  0.1164
  H  H175  1  0.080700  0.872100  0.854600  1.0  0.1104
  H  H176  1  0.158200  0.921100  0.829100  1.0  0.1113
  H  H177  1  0.708300  0.811700  0.975400  1.0  0.0807
  H  H178  1  0.667700  0.785200  0.043700  1.0  0.1181
  H  H179  1  0.856700  0.687900  0.829800  1.0  0.0823
  H  H180  1  0.925800  0.713300  0.792900  1.0  0.1216
  H  H181  1  0.682600  0.332000  0.776200  1.0  0.0953
  H  H182  1  0.729800  0.309300  0.808100  1.0  0.0909
  H  H183  1  0.732300  0.246400  0.808300  1.0  0.0863
  H  H184  1  0.687700  0.206300  0.776400  1.0  0.1019
  H  H185  1  0.666900  0.464700  0.636600  1.0  0.0953
  H  H186  1  0.702800  0.542300  0.564500  1.0  0.0984
  H  H187  1  0.701700  0.540300  0.501200  1.0  0.0973
  H  H188  1  0.664900  0.461000  0.509900  1.0  0.1005
  H  H189  1  0.733300  0.933700  0.785800  1.0  0.1109
  H  H190  1  0.708200  0.986000  0.761200  1.0  0.1118
  H  H191  1  0.699500  0.974500  0.876200  1.0  0.1089
  H  H192  1  0.724600  0.922200  0.900800  1.0  0.1102
  H  H193  1  0.695400  0.032400  0.848000  1.0  0.114
  H  H194  1  0.670000  0.084400  0.824400  1.0  0.1166
  H  H195  1  0.645400  0.064700  0.726700  1.0  0.1118
  H  H196  1  0.670900  0.012700  0.750200  1.0  0.1111
  H  H197  1  0.524600  0.316300  0.787100  1.0  0.0825
  H  H198  1  0.456300  0.288600  0.828900  1.0  0.1166
  H  H199  1  0.670200  0.313500  0.517700  1.0  0.0825
  H  H200  1  0.707100  0.281300  0.506200  1.0  0.1218
  H  H201  1  0.391800  0.168000  0.649400  1.0  0.0948
  H  H202  1  0.382600  0.190700  0.579500  1.0  0.0888
  H  H203  1  0.445300  0.253600  0.514100  1.0  0.0887
  H  H204  1  0.517300  0.293700  0.518600  1.0  0.1012
  H  H205  1  0.398700  0.035300  0.797800  1.0  0.0959
  H  H206  1  0.393200  0.957700  0.839500  1.0  0.1005
  H  H207  1  0.458500  0.959700  0.838600  1.0  0.0994
  H  H208  1  0.529100  0.039000  0.796100  1.0  0.1005
  H  H209  1  0.780500  0.566300  0.200400  1.0  0.11
  H  H210  1  0.752800  0.514000  0.277800  1.0  0.1102
  H  H211  1  0.649300  0.525500  0.275000  1.0  0.1066
  H  H212  1  0.677000  0.577800  0.197600  1.0  0.1123
  H  H213  1  0.619600  0.467600  0.337000  1.0  0.1112
  H  H214  1  0.591200  0.415600  0.414400  1.0  0.1202
  H  H215  1  0.708600  0.435300  0.419300  1.0  0.1112
  H  H216  1  0.737100  0.487300  0.341800  1.0  0.1123
  H  H217  1  0.396600  0.183700  0.791700  1.0  0.0813
  H  H218  1  0.382500  0.211400  0.832300  1.0  0.119
  H  H219  1  0.668800  0.186500  0.643300  1.0  0.0815
  H  H220  1  0.712500  0.218700  0.574200  1.0  0.1209
  H  H221  1  0.149600  0.562400  0.050400  1.0  0.096
  H  H222  1  0.111300  0.595900  0.057800  1.0  0.1022
  H  H223  1  0.105600  0.654600  0.993800  1.0  0.1033
  H  H224  1  0.138500  0.680000  0.922300  1.0  0.0946
  H  H225  1  0.410500  0.827800  0.755100  1.0  0.1012
  H  H226  1  0.416400  0.905400  0.709000  1.0  0.105
  H  H227  1  0.352100  0.905500  0.714000  1.0  0.1012
  H  H228  1  0.281800  0.828000  0.765400  1.0  0.0943
  H  H229  1  0.122000  0.534600  0.790200  1.0  0.1023
  H  H230  1  0.074200  0.557000  0.761200  1.0  0.0996
  H  H231  1  0.074100  0.620600  0.761100  1.0  0.1114
  H  H232  1  0.121700  0.661900  0.790000  1.0  0.1074
  H  H233  1  0.419700  0.687300  0.908600  1.0  0.1076
  H  H234  1  0.430100  0.657400  0.978500  1.0  0.1022
  H  H235  1  0.367900  0.596000  0.044300  1.0  0.097
  H  H236  1  0.295600  0.564600  0.040400  1.0  0.0986
  H  H237  1  0.282200  0.548400  0.772400  1.0  0.0965
  H  H238  1  0.352700  0.578500  0.733600  1.0  0.0977
  H  H239  1  0.417400  0.643900  0.731100  1.0  0.1021
  H  H240  1  0.411500  0.679200  0.767500  1.0  0.1103
  H  H241  1  0.151200  0.403100  0.924900  1.0  0.102
  H  H242  1  0.119700  0.326800  0.996700  1.0  0.0941
  H  H243  1  0.121200  0.329700  0.059300  1.0  0.0924
  H  H244  1  0.154200  0.408700  0.050100  1.0  0.1036
  H  H245  1  0.113800  0.269000  0.363000  1.0  0.103
  H  H246  1  0.144200  0.324900  0.284900  1.0  0.1034
  H  H247  1  0.076800  0.385700  0.284300  1.0  0.116
  H  H248  1  0.046400  0.329600  0.362400  1.0  0.0909
  H  H249  1  0.116300  0.340900  0.218000  1.0  0.0993
  H  H250  1  0.146700  0.396900  0.140400  1.0  0.1023
  H  H251  1  0.184700  0.516600  0.147500  1.0  0.0983
  H  H252  1  0.154300  0.460600  0.225100  1.0  0.1098
  H  H253  1  0.112800  0.062400  0.587200  1.0  0.0955
  H  H254  1  0.153700  0.095900  0.515400  1.0  0.1014
  H  H255  1  0.148400  0.154600  0.451000  1.0  0.1038
  H  H256  1  0.102300  0.180000  0.458500  1.0  0.0955
  H  H257  1  0.082900  0.327800  0.582700  1.0  0.1011
  H  H258  1  0.114400  0.405400  0.511000  1.0  0.1057
  H  H259  1  0.119500  0.405500  0.446600  1.0  0.0996
  H  H260  1  0.093400  0.328000  0.453800  1.0  0.092
  H  H261  1  0.824800  0.034600  0.587400  1.0  0.104
  H  H262  1  0.818200  0.057000  0.517200  1.0  0.1005
  H  H263  1  0.881700  0.120600  0.453500  1.0  0.1107
  H  H264  1  0.951900  0.161900  0.459800  1.0  0.1076
  H  H265  1  0.095900  0.187300  0.732400  1.0  0.1072
  H  H266  1  0.135900  0.157400  0.772700  1.0  0.1021
  H  H267  1  0.140300  0.096000  0.771900  1.0  0.0965
  H  H268  1  0.105000  0.064600  0.731000  1.0  0.0984
  H  H269  1  0.820800  0.048400  0.733800  1.0  0.0971
  H  H270  1  0.812100  0.078500  0.774200  1.0  0.0986
  H  H271  1  0.875000  0.143900  0.773500  1.0  0.1007
  H  H272  1  0.946700  0.179200  0.732300  1.0  0.1104
  H  H273  1  0.828000  0.903100  0.748100  1.0  0.1043
  H  H274  1  0.823500  0.826800  0.792900  1.0  0.0966
  H  H275  1  0.889000  0.829700  0.791500  1.0  0.0952
  H  H276  1  0.958800  0.908700  0.745500  1.0  0.1043
  H  H277  1  0.132000  0.769000  0.844800  1.0  0.1029
  H  H278  1  0.109800  0.824900  0.819300  1.0  0.1035
  H  H279  1  0.170000  0.885700  0.691100  1.0  0.115
  H  H280  1  0.192000  0.829600  0.716800  1.0  0.0926
  H  H281  1  0.058900  0.840900  0.775400  1.0  0.1007
  H  H282  1  0.037300  0.896900  0.749800  1.0  0.1027
  H  H283  1  0.164100  0.016600  0.668100  1.0  0.0984
  H  H284  1  0.185700  0.960600  0.693700  1.0  0.112
  H  H285  1  0.887200  0.937600  0.412800  1.0  0.0952
  H  H286  1  0.846300  0.904100  0.484600  1.0  0.1015
  H  H287  1  0.851600  0.845400  0.549000  1.0  0.1038
  H  H288  1  0.897700  0.820000  0.541500  1.0  0.0959
  H  H289  1  0.917100  0.672200  0.417300  1.0  0.1008
  H  H290  1  0.885600  0.594600  0.489000  1.0  0.1055
  H  H291  1  0.880500  0.594500  0.553400  1.0  0.0994
  H  H292  1  0.906600  0.672000  0.546200  1.0  0.0917
  H  H293  1  0.175200  0.965400  0.412600  1.0  0.1044
  H  H294  1  0.181800  0.943000  0.482800  1.0  0.1002
  H  H295  1  0.118300  0.879400  0.546500  1.0  0.1112
  H  H296  1  0.048100  0.838100  0.540200  1.0  0.1083
  H  H297  1  0.904100  0.812700  0.267600  1.0  0.1071
  H  H298  1  0.864100  0.842600  0.227300  1.0  0.1009
  H  H299  1  0.859700  0.904000  0.228100  1.0  0.0967
  H  H300  1  0.895000  0.935400  0.269000  1.0  0.0976
  H  H301  1  0.179200  0.951600  0.266200  1.0  0.0957
  H  H302  1  0.187900  0.921500  0.225800  1.0  0.098
  H  H303  1  0.125000  0.856100  0.226500  1.0  0.1001
  H  H304  1  0.053300  0.820800  0.267700  1.0  0.1096
  H  H305  1  0.172000  0.096900  0.251900  1.0  0.1041
  H  H306  1  0.176500  0.173200  0.207100  1.0  0.0969
  H  H307  1  0.111000  0.170300  0.208500  1.0  0.0936
  H  H308  1  0.041200  0.091300  0.254500  1.0  0.1051
  H  H309  1  0.868000  0.231000  0.155200  1.0  0.1026
  H  H310  1  0.890200  0.175100  0.180700  1.0  0.1027
  H  H311  1  0.830000  0.114300  0.308900  1.0  0.1159
  H  H312  1  0.808000  0.170400  0.283200  1.0  0.0932
  H  H313  1  0.941100  0.159100  0.224600  1.0  0.1005
  H  H314  1  0.962700  0.103100  0.250200  1.0  0.1032
  H  H315  1  0.835900  0.983400  0.331900  1.0  0.098
  H  H316  1  0.814300  0.039400  0.306300  1.0  0.1114
  H  H317  1  0.850400  0.437600  0.949600  1.0  0.0961
  H  H318  1  0.888700  0.404100  0.942200  1.0  0.1015
  H  H319  1  0.894400  0.345400  0.006200  1.0  0.1043
  H  H320  1  0.861500  0.320000  0.077700  1.0  0.0947
  H  H321  1  0.589500  0.172200  0.244900  1.0  0.1029
  H  H322  1  0.583600  0.094600  0.291000  1.0  0.1059
  H  H323  1  0.647900  0.094500  0.286000  1.0  0.1008
  H  H324  1  0.718200  0.172000  0.234600  1.0  0.0926
  H  H325  1  0.878000  0.465400  0.209800  1.0  0.1026
  H  H326  1  0.925800  0.443000  0.238800  1.0  0.0996
  H  H327  1  0.925900  0.379400  0.238900  1.0  0.1116
  H  H328  1  0.878300  0.338100  0.210000  1.0  0.1074
  H  H329  1  0.580300  0.312700  0.091400  1.0  0.107
  H  H330  1  0.569900  0.342600  0.021500  1.0  0.1024
  H  H331  1  0.632100  0.404000  0.955700  1.0  0.0967
  H  H332  1  0.704400  0.435400  0.959600  1.0  0.0979
  H  H333  1  0.717800  0.451600  0.227600  1.0  0.0949
  H  H334  1  0.647300  0.421500  0.266400  1.0  0.097
  H  H335  1  0.582600  0.356100  0.268900  1.0  0.1011
  H  H336  1  0.588500  0.320800  0.232500  1.0  0.11
  H  H337  1  0.848800  0.596900  0.075100  1.0  0.1012
  H  H338  1  0.880300  0.673200  0.003300  1.0  0.0942
  H  H339  1  0.878800  0.670300  0.940700  1.0  0.0919
  H  H340  1  0.845800  0.591300  0.949900  1.0  0.1041
  H  H341  1  0.886200  0.731000  0.637000  1.0  0.1032
  H  H342  1  0.855800  0.675100  0.715100  1.0  0.103
  H  H343  1  0.923200  0.614300  0.715700  1.0  0.1165
  H  H344  1  0.953600  0.670400  0.637600  1.0  0.0917
  H  H345  1  0.883700  0.659100  0.782000  1.0  0.1003
  H  H346  1  0.853300  0.603100  0.859600  1.0  0.1022
  H  H347  1  0.815300  0.483400  0.852500  1.0  0.0984
  H  H348  1  0.845700  0.539400  0.774900  1.0  0.1105
  H  H349  1  0.087200  0.700000  0.350400  1.0  0.0963
  H  H350  1  0.015400  0.669100  0.388700  1.0  0.1018
  H  H351  1  0.951000  0.599400  0.394400  1.0  0.1037
  H  H352  1  0.958500  0.560800  0.361500  1.0  0.0944
  H  H353  1  0.082700  0.665600  0.089500  1.0  0.1021
  H  H354  1  0.011000  0.625400  0.083600  1.0  0.1033
  H  H355  1  0.946600  0.566100  0.147900  1.0  0.0985
  H  H356  1  0.953800  0.547200  0.218200  1.0  0.0904
  H  H357  1  0.087400  0.412200  0.378000  1.0  0.1035
  H  H358  1  0.017200  0.335400  0.425800  1.0  0.1007
  H  H359  1  0.953500  0.335200  0.425900  1.0  0.1125
  H  H360  1  0.959800  0.411700  0.378300  1.0  0.1111
  H  H361  1  0.232400  0.828300  0.080300  1.0  0.1068
  H  H362  1  0.272700  0.908600  0.069900  1.0  0.1038
  H  H363  1  0.271900  0.912200  0.132100  1.0  0.0977
  H  H364  1  0.231000  0.836000  0.204400  1.0  0.0984
  H  H365  1  0.233800  0.554600  0.217800  1.0  0.0974
  H  H366  1  0.274200  0.586300  0.147300  1.0  0.0972
  H  H367  1  0.273500  0.648500  0.082600  1.0  0.1026
  H  H368  1  0.232300  0.679000  0.088500  1.0  0.1113
  H  H369  1  0.248100  0.576100  0.348800  1.0  0.1035
  H  H370  1  0.292900  0.616400  0.380300  1.0  0.0949
  H  H371  1  0.291500  0.680500  0.378800  1.0  0.0922
  H  H372  1  0.245500  0.704300  0.345800  1.0  0.103
  H  H373  1  0.344800  0.976800  0.386200  1.0  0.1037
  H  H374  1  0.319300  0.929100  0.355800  1.0  0.1036
  H  H375  1  0.191100  0.861100  0.423200  1.0  0.1164
  H  H376  1  0.216800  0.908800  0.453600  1.0  0.0924
  H  H377  1  0.275400  0.834300  0.383700  1.0  0.1002
  H  H378  1  0.249800  0.787100  0.353300  1.0  0.1022
  H  H379  1  0.168100  0.832200  0.315300  1.0  0.0968
  H  H380  1  0.193700  0.879400  0.345700  1.0  0.1112
  H  H381  1  0.550400  0.200000  0.387200  1.0  0.0953
  H  H382  1  0.557800  0.169100  0.346300  1.0  0.1009
  H  H383  1  0.493800  0.099400  0.351600  1.0  0.1036
  H  H384  1  0.422300  0.060800  0.397700  1.0  0.0949
  H  H385  1  0.255100  0.165600  0.417100  1.0  0.1013
  H  H386  1  0.209000  0.125400  0.385600  1.0  0.1015
  H  H387  1  0.214000  0.066100  0.380500  1.0  0.0986
  H  H388  1  0.265400  0.047200  0.406600  1.0  0.0923
  H  H389  1  0.290200  0.912200  0.675200  1.0  0.1044
  H  H390  1  0.261200  0.835400  0.681800  1.0  0.1014
  H  H391  1  0.261100  0.835200  0.618300  1.0  0.1122
  H  H392  1  0.290000  0.911700  0.548100  1.0  0.1084
  H  H393  1  0.408600  0.328300  0.404100  1.0  0.1091
  H  H394  1  0.478500  0.408600  0.364100  1.0  0.1038
  H  H395  1  0.544300  0.412200  0.359700  1.0  0.0959
  H  H396  1  0.540400  0.336000  0.395000  1.0  0.1011
  H  H397  1  0.272400  0.054600  0.679200  1.0  0.0974
  H  H398  1  0.233600  0.086300  0.687900  1.0  0.0967
  H  H399  1  0.231100  0.148500  0.625000  1.0  0.1018
  H  H400  1  0.267500  0.179000  0.553300  1.0  0.1114
  H  H401  1  0.424900  0.076100  0.672000  1.0  0.1038
  H  H402  1  0.496700  0.116400  0.676500  1.0  0.0956
  H  H403  1  0.559300  0.180500  0.611000  1.0  0.0906
  H  H404  1  0.550100  0.204300  0.541200  1.0  0.1029
  H  H405  1  0.863000  0.476800  0.368000  1.0  0.1023
  H  H406  1  0.784900  0.429100  0.390200  1.0  0.1032
  H  H407  1  0.784300  0.361100  0.330000  1.0  0.1158
  H  H408  1  0.862400  0.408800  0.308000  1.0  0.0922
  H  H409  1  0.718000  0.334300  0.441100  1.0  0.1001
  H  H410  1  0.640400  0.287100  0.462700  1.0  0.1017
  H  H411  1  0.647500  0.332200  0.335900  1.0  0.0984
  H  H412  1  0.725100  0.379400  0.314300  1.0  0.1103
  H  H413  1  0.449600  0.800000  0.612800  1.0  0.0949
  H  H414  1  0.442200  0.830900  0.653700  1.0  0.1015
  H  H415  1  0.506200  0.900600  0.648400  1.0  0.1032
  H  H416  1  0.577700  0.939200  0.602300  1.0  0.0954
  H  H417  1  0.744900  0.834400  0.582900  1.0  0.1019
  H  H418  1  0.791000  0.874600  0.614400  1.0  0.1027
  H  H419  1  0.786000  0.933900  0.619500  1.0  0.0992
  H  H420  1  0.734600  0.952800  0.593400  1.0  0.0933
  H  H421  1  0.709800  0.087800  0.324800  1.0  0.1043
  H  H422  1  0.738800  0.164600  0.318200  1.0  0.101
  H  H423  1  0.738900  0.164800  0.381700  1.0  0.1115
  H  H424  1  0.710000  0.088300  0.451900  1.0  0.1087
  H  H425  1  0.591400  0.671700  0.595900  1.0  0.1081
  H  H426  1  0.521500  0.591400  0.635900  1.0  0.1048
  H  H427  1  0.455700  0.587800  0.640300  1.0  0.097
  H  H428  1  0.459600  0.664000  0.605000  1.0  0.1024
  H  H429  1  0.727600  0.945400  0.320800  1.0  0.0964
  H  H430  1  0.766400  0.913700  0.312100  1.0  0.0969
  H  H431  1  0.768900  0.851500  0.375000  1.0  0.1017
  H  H432  1  0.732500  0.821000  0.446700  1.0  0.11
  H  H433  1  0.575100  0.923900  0.328000  1.0  0.1035
  H  H434  1  0.503300  0.883600  0.323500  1.0  0.0964
  H  H435  1  0.440700  0.819500  0.389000  1.0  0.0913
  H  H436  1  0.449900  0.795700  0.458800  1.0  0.1024
  H  H437  1  0.137000  0.523200  0.632000  1.0  0.1022
  H  H438  1  0.215100  0.570900  0.609800  1.0  0.1022
  H  H439  1  0.215700  0.638900  0.670000  1.0  0.116
  H  H440  1  0.137600  0.591200  0.692000  1.0  0.0917
  H  H441  1  0.282000  0.665700  0.558900  1.0  0.1007
  H  H442  1  0.359600  0.712900  0.537300  1.0  0.1015
  H  H443  1  0.352500  0.667800  0.664100  1.0  0.099
  H  H444  1  0.274900  0.620600  0.685700  1.0  0.1102
  H  H445  1  0.912800  0.300000  0.649600  1.0  0.0957
  H  H446  1  0.984600  0.330900  0.611300  1.0  0.1019
  H  H447  1  0.049000  0.400600  0.605600  1.0  0.104
  H  H448  1  0.041500  0.439200  0.638500  1.0  0.094
  H  H449  1  0.917300  0.334400  0.910500  1.0  0.1023
  H  H450  1  0.989000  0.374600  0.916400  1.0  0.104
  H  H451  1  0.053400  0.433900  0.852100  1.0  0.0991
  H  H452  1  0.046200  0.452800  0.781800  1.0  0.0909
  H  H453  1  0.912600  0.587800  0.622000  1.0  0.1038
  H  H454  1  0.982800  0.664600  0.574200  1.0  0.1008
  H  H455  1  0.046500  0.664800  0.574100  1.0  0.1129
  H  H456  1  0.040200  0.588300  0.621700  1.0  0.1088
  H  H457  1  0.767600  0.171700  0.919700  1.0  0.107
  H  H458  1  0.727300  0.091400  0.930100  1.0  0.1052
  H  H459  1  0.728100  0.087800  0.867900  1.0  0.0978
  H  H460  1  0.769000  0.164000  0.795600  1.0  0.0987
  H  H461  1  0.766200  0.445400  0.782200  1.0  0.0966
  H  H462  1  0.725800  0.413700  0.852700  1.0  0.0984
  H  H463  1  0.726500  0.351500  0.917400  1.0  0.1025
  H  H464  1  0.767700  0.321000  0.911500  1.0  0.1118
  H  H465  1  0.751900  0.423900  0.651200  1.0  0.1033
  H  H466  1  0.707100  0.383600  0.619700  1.0  0.0951
  H  H467  1  0.708500  0.319500  0.621200  1.0  0.092
  H  H468  1  0.754500  0.295700  0.654200  1.0  0.1027
  H  H469  1  0.655200  0.023200  0.613800  1.0  0.1036
  H  H470  1  0.680700  0.070900  0.644200  1.0  0.1025
  H  H471  1  0.808900  0.138900  0.576800  1.0  0.1158
  H  H472  1  0.783200  0.091200  0.546400  1.0  0.0919
  H  H473  1  0.724600  0.165700  0.616300  1.0  0.0996
  H  H474  1  0.750200  0.212900  0.646700  1.0  0.1013
  H  H475  1  0.831900  0.167800  0.684700  1.0  0.0971
  H  H476  1  0.806300  0.120600  0.654300  1.0  0.1119
  C  C477  1  0.257360  0.415740  0.997600  1.0  0.1415
  C  C478  1  0.257290  0.414170  0.960040  1.0  0.1813
  C  C479  1  0.276300  0.459890  0.916930  1.0  -0.0796
  C  C480  1  0.295360  0.507230  0.911430  1.0  -0.0988
  C  C481  1  0.295430  0.508790  0.949040  1.0  -0.1033
  C  C482  1  0.276420  0.463050  0.992150  1.0  -0.0827
  C  C483  1  0.116470  0.260900  0.967230  1.0  0.1473
  C  C484  1  0.111220  0.277800  0.924780  1.0  -0.1033
  C  C485  1  0.068000  0.256000  0.921600  1.0  -0.0894
  C  C486  1  0.030100  0.217500  0.960600  1.0  -0.1056
  C  C487  1  0.035240  0.200600  0.002960  1.0  -0.0776
  C  C488  1  0.078420  0.222300  0.006280  1.0  0.0781
  C  C489  1  0.345600  0.576800  0.231400  1.0  -0.0771
  C  C490  1  0.304170  0.530600  0.253830  1.0  -0.0615
  C  C491  1  0.289620  0.501200  0.237380  1.0  -0.1478
  C  C492  1  0.316400  0.517900  0.198500  1.0  0.0828
  C  C493  1  0.357820  0.564200  0.175980  1.0  -0.1146
  C  C494  1  0.372370  0.593600  0.192430  1.0  -0.0704
  C  C495  1  0.301250  0.486700  0.181050  1.0  0.0532
  C  C496  1  0.323300  0.508500  0.137800  1.0  -0.1573
  C  C497  1  0.309360  0.479500  0.120940  1.0  -0.1094
  C  C498  1  0.273370  0.428700  0.147330  1.0  0.0899
  C  C499  1  0.251300  0.406900  0.190600  1.0  -0.1273
  C  C500  1  0.265260  0.435900  0.207440  1.0  -0.1537
  C  C501  1  0.361440  0.608100  0.248660  1.0  0.6895
  C  C502  1  0.259200  0.398900  0.129300  1.0  0.1752
  C  C503  1  0.265940  0.268540  0.964000  1.0  0.1072
  C  C504  1  0.288900  0.286800  0.921300  1.0  -0.0898
  C  C505  1  0.314300  0.271900  0.911800  1.0  -0.112
  C  C506  1  0.085130  0.230650  0.145820  1.0  0.2618
  C  C507  1  0.043080  0.212790  0.169910  1.0  -0.1532
  C  C508  1  0.035260  0.228600  0.195340  1.0  -0.1548
  C  C509  1  0.086660  0.084260  0.158380  1.0  0.1495
  C  C510  1  0.125790  0.085830  0.156880  1.0  0.1878
  C  C511  1  0.123180  0.040110  0.183590  1.0  -0.0731
  C  C512  1  0.081340  0.992770  0.211870  1.0  -0.1023
  C  C513  1  0.042170  0.991210  0.213360  1.0  -0.1056
  C  C514  1  0.044800  0.036950  0.186630  1.0  -0.0857
  C  C515  1  0.271870  0.239100  0.144430  1.0  0.146
  C  C516  1  0.297420  0.222200  0.166580  1.0  -0.1014
  C  C517  1  0.322400  0.244000  0.188000  1.0  -0.09
  C  C518  1  0.321900  0.282500  0.187400  1.0  -0.1055
  C  C519  1  0.296440  0.299400  0.165360  1.0  -0.0881
  C  C520  1  0.271420  0.277700  0.143880  1.0  0.0759
  C  C521  1  0.691800  0.923200  0.231200  1.0  -0.0734
  C  C522  1  0.715570  0.969400  0.226430  1.0  -0.0604
  C  C523  1  0.761420  0.998800  0.211580  1.0  -0.1452
  C  C524  1  0.783600  0.982100  0.201500  1.0  0.0837
  C  C525  1  0.759820  0.935800  0.206380  1.0  -0.1152
  C  C526  1  0.713970  0.906400  0.221230  1.0  -0.075
  C  C527  1  0.832250  0.013300  0.185450  1.0  0.0519
  C  C528  1  0.853700  0.991500  0.185200  1.0  -0.1564
  C  C529  1  0.899560  0.020500  0.170140  1.0  -0.1109
  C  C530  1  0.923970  0.071300  0.155330  1.0  0.0892
  C  C531  1  0.902500  0.093100  0.155600  1.0  -0.1287
  C  C532  1  0.856660  0.064100  0.170640  1.0  -0.1542
  C  C533  1  0.643240  0.891900  0.246660  1.0  0.6829
  C  C534  1  0.971800  0.101100  0.139700  1.0  0.1692
  C  C535  1  0.267460  0.231460  0.002600  1.0  0.1317
  C  C536  1  0.291900  0.213200  0.997900  1.0  -0.0868
  C  C537  1  0.316300  0.228100  0.957600  1.0  -0.1088
  C  C538  1  0.123530  0.269350  0.145520  1.0  0.2647
  C  C539  1  0.117300  0.287210  0.169710  1.0  -0.1511
  C  C540  1  0.076060  0.271400  0.193340  1.0  -0.1553
  C  C541  1  0.341620  0.754960  0.242640  1.0  0.1438
  C  C542  1  0.343120  0.717330  0.242710  1.0  0.181
  C  C543  1  0.316410  0.693230  0.223700  1.0  -0.0838
  C  C544  1  0.288130  0.706790  0.204640  1.0  -0.1027
  C  C545  1  0.286640  0.744470  0.204570  1.0  -0.106
  C  C546  1  0.313370  0.768570  0.223580  1.0  -0.0807
  C  C547  1  0.355570  0.583700  0.383530  1.0  0.1433
  C  C548  1  0.333420  0.536000  0.388780  1.0  -0.1043
  C  C549  1  0.312000  0.489600  0.432000  1.0  -0.0948
  C  C550  1  0.312600  0.490700  0.469900  1.0  -0.1056
  C  C551  1  0.334640  0.538200  0.464760  1.0  -0.0878
  C  C552  1  0.356120  0.584700  0.421580  1.0  0.0752
  C  C553  1  0.268800  0.077000  0.154400  1.0  -0.074
  C  C554  1  0.273570  0.058000  0.195830  1.0  -0.0629
  C  C555  1  0.288420  0.027000  0.210380  1.0  -0.1438
  C  C556  1  0.298500  0.014900  0.183600  1.0  0.0837
  C  C557  1  0.293620  0.033800  0.142180  1.0  -0.1131
  C  C558  1  0.278770  0.064800  0.127630  1.0  -0.0711
  C  C559  1  0.314550  0.982300  0.198750  1.0  0.053
  C  C560  1  0.314800  0.961100  0.176700  1.0  -0.1594
  C  C561  1  0.329860  0.930300  0.190640  1.0  -0.1121
  C  C562  1  0.344670  0.920700  0.226630  1.0  0.0895
  C  C563  1  0.344400  0.941900  0.248700  1.0  -0.1305
  C  C564  1  0.329360  0.972700  0.234740  1.0  -0.1537
  C  C565  1  0.253340  0.110100  0.138560  1.0  0.6829
  C  C566  1  0.360300  0.888500  0.240800  1.0  0.1691
  C  C567  1  0.497400  0.729940  0.234060  1.0  0.1062
  C  C568  1  0.502100  0.710200  0.211100  1.0  -0.0897
  C  C569  1  0.542400  0.726100  0.185700  1.0  -0.1107
  C  C570  1  0.354480  0.730950  0.414870  1.0  0.2613
  C  C571  1  0.330290  0.712990  0.456920  1.0  -0.1534
  C  C572  1  0.306660  0.730600  0.464740  1.0  -0.1558
  C  C573  1  0.502400  0.745040  0.413340  1.0  0.1437
  C  C574  1  0.539960  0.782670  0.374210  1.0  0.1837
  C  C575  1  0.583070  0.806770  0.376820  1.0  -0.0798
  C  C576  1  0.588570  0.793210  0.418660  1.0  -0.0975
  C  C577  1  0.550960  0.755530  0.457830  1.0  -0.104
  C  C578  1  0.507850  0.731430  0.455200  1.0  -0.0828
  C  C579  1  0.532770  0.916300  0.228130  1.0  0.1464
  C  C580  1  0.575220  0.964000  0.202580  1.0  -0.1038
  C  C581  1  0.578400  0.010400  0.177600  1.0  -0.0897
  C  C582  1  0.539400  0.009300  0.178100  1.0  -0.1072
  C  C583  1  0.497040  0.961800  0.203560  1.0  -0.0916
  C  C584  1  0.493720  0.915300  0.228580  1.0  0.0768
  C  C585  1  0.268600  0.423000  0.808200  1.0  -0.0731
  C  C586  1  0.246170  0.442000  0.784430  1.0  -0.0595
  C  C587  1  0.262620  0.473000  0.738580  1.0  -0.1417
  C  C588  1  0.301500  0.485100  0.716400  1.0  0.0832
  C  C589  1  0.324020  0.466200  0.740180  1.0  -0.1114
  C  C590  1  0.307570  0.435200  0.786030  1.0  -0.0679
  C  C591  1  0.318950  0.517700  0.667750  1.0  0.0546
  C  C592  1  0.362200  0.538900  0.646300  1.0  -0.1544
  C  C593  1  0.379060  0.569700  0.600440  1.0  -0.1096
  C  C594  1  0.352670  0.579300  0.576030  1.0  0.0893
  C  C595  1  0.309400  0.558100  0.597500  1.0  -0.1265
  C  C596  1  0.292560  0.527300  0.643340  1.0  -0.1535
  C  C597  1  0.251340  0.389900  0.856760  1.0  0.6891
  C  C598  1  0.370700  0.611500  0.528200  1.0  0.1672
  C  C599  1  0.536000  0.770060  0.232540  1.0  0.1089
  C  C600  1  0.578700  0.789800  0.208100  1.0  -0.0868
  C  C601  1  0.588200  0.773900  0.183700  1.0  -0.1093
  C  C602  1  0.354180  0.769050  0.376470  1.0  0.2648
  C  C603  1  0.330090  0.787010  0.382700  1.0  -0.1527
  C  C604  1  0.304660  0.769400  0.423940  1.0  -0.1556
  C  C605  1  0.742640  0.584260  0.002400  1.0  0.1425
  C  C606  1  0.742710  0.585830  0.039960  1.0  0.1783
  C  C607  1  0.723700  0.540110  0.083070  1.0  -0.0786
  C  C608  1  0.704640  0.492770  0.088570  1.0  -0.0987
  C  C609  1  0.704570  0.491210  0.050960  1.0  -0.1044
  C  C610  1  0.723580  0.536950  0.007850  1.0  -0.0819
  C  C611  1  0.883530  0.739100  0.032770  1.0  0.147
  C  C612  1  0.888780  0.722200  0.075220  1.0  -0.1038
  C  C613  1  0.932000  0.744000  0.078400  1.0  -0.0897
  C  C614  1  0.969900  0.782500  0.039400  1.0  -0.1068
  C  C615  1  0.964760  0.799400  0.997040  1.0  -0.077
  C  C616  1  0.921580  0.777700  0.993720  1.0  0.077
  C  C617  1  0.654400  0.423200  0.768600  1.0  -0.0761
  C  C618  1  0.695830  0.469400  0.746170  1.0  -0.0612
  C  C619  1  0.710380  0.498800  0.762620  1.0  -0.1513
  C  C620  1  0.683600  0.482100  0.801500  1.0  0.0825
  C  C621  1  0.642180  0.435800  0.824020  1.0  -0.1139
  C  C622  1  0.627630  0.406400  0.807570  1.0  -0.0715
  C  C623  1  0.698750  0.513300  0.818950  1.0  0.0519
  C  C624  1  0.676700  0.491500  0.862200  1.0  -0.1532
  C  C625  1  0.690640  0.520500  0.879060  1.0  -0.1073
  C  C626  1  0.726630  0.571300  0.852670  1.0  0.0913
  C  C627  1  0.748700  0.593100  0.809400  1.0  -0.128
  C  C628  1  0.734740  0.564100  0.792560  1.0  -0.1547
  C  C629  1  0.638560  0.391900  0.751340  1.0  0.6889
  C  C630  1  0.740800  0.601100  0.870700  1.0  0.1724
  C  C631  1  0.734060  0.731460  0.036000  1.0  0.1064
  C  C632  1  0.711100  0.713200  0.078700  1.0  -0.0895
  C  C633  1  0.685700  0.728100  0.088200  1.0  -0.1138
  C  C634  1  0.914870  0.769350  0.854180  1.0  0.2624
  C  C635  1  0.956920  0.787210  0.830090  1.0  -0.1502
  C  C636  1  0.964740  0.771400  0.804660  1.0  -0.1528
  C  C637  1  0.913340  0.915740  0.841620  1.0  0.1519
  C  C638  1  0.874210  0.914170  0.843120  1.0  0.1899
  C  C639  1  0.876820  0.959890  0.816410  1.0  -0.0753
  C  C640  1  0.918660  0.007230  0.788130  1.0  -0.1014
  C  C641  1  0.957830  0.008790  0.786640  1.0  -0.1029
  C  C642  1  0.955200  0.963050  0.813370  1.0  -0.0857
  C  C643  1  0.728130  0.760900  0.855570  1.0  0.1464
  C  C644  1  0.702580  0.777800  0.833420  1.0  -0.1021
  C  C645  1  0.677600  0.756000  0.812000  1.0  -0.091
  C  C646  1  0.678100  0.717500  0.812600  1.0  -0.1039
  C  C647  1  0.703560  0.700600  0.834640  1.0  -0.0877
  C  C648  1  0.728580  0.722300  0.856120  1.0  0.0748
  C  C649  1  0.308200  0.076800  0.768800  1.0  -0.0734
  C  C650  1  0.284430  0.030600  0.773570  1.0  -0.0594
  C  C651  1  0.238580  0.001200  0.788420  1.0  -0.1456
  C  C652  1  0.216400  0.017900  0.798500  1.0  0.0833
  C  C653  1  0.240180  0.064200  0.793620  1.0  -0.1145
  C  C654  1  0.286030  0.093600  0.778770  1.0  -0.0732
  C  C655  1  0.167750  0.986700  0.814550  1.0  0.053
  C  C656  1  0.146300  0.008500  0.814800  1.0  -0.1581
  C  C657  1  0.100440  0.979500  0.829860  1.0  -0.1111
  C  C658  1  0.076030  0.928700  0.844670  1.0  0.0908
  C  C659  1  0.097500  0.906900  0.844400  1.0  -0.13
  C  C660  1  0.143340  0.935900  0.829360  1.0  -0.1578
  C  C661  1  0.356760  0.108100  0.753340  1.0  0.6853
  C  C662  1  0.028200  0.898900  0.860300  1.0  0.169
  C  C663  1  0.732540  0.768540  0.997400  1.0  0.1321
  C  C664  1  0.708100  0.786800  0.002100  1.0  -0.0879
  C  C665  1  0.683700  0.771900  0.042400  1.0  -0.1127
  C  C666  1  0.876470  0.730650  0.854480  1.0  0.2661
  C  C667  1  0.882700  0.712790  0.830290  1.0  -0.1517
  C  C668  1  0.923940  0.728600  0.806660  1.0  -0.1548
  C  C669  1  0.658380  0.245040  0.757360  1.0  0.1441
  C  C670  1  0.656880  0.282670  0.757290  1.0  0.1791
  C  C671  1  0.683590  0.306770  0.776300  1.0  -0.0837
  C  C672  1  0.711870  0.293210  0.795360  1.0  -0.1024
  C  C673  1  0.713360  0.255530  0.795430  1.0  -0.1062
  C  C674  1  0.686630  0.231430  0.776420  1.0  -0.0808
  C  C675  1  0.644430  0.416300  0.616470  1.0  0.1443
  C  C676  1  0.666580  0.464000  0.611220  1.0  -0.1048
  C  C677  1  0.688000  0.510400  0.568000  1.0  -0.0906
  C  C678  1  0.687400  0.509300  0.530100  1.0  -0.1054
  C  C679  1  0.665360  0.461800  0.535240  1.0  -0.0887
  C  C680  1  0.643880  0.415300  0.578420  1.0  0.075
  C  C681  1  0.731200  0.923000  0.845600  1.0  -0.0721
  C  C682  1  0.726430  0.942000  0.804170  1.0  -0.0625
  C  C683  1  0.711580  0.973000  0.789620  1.0  -0.143
  C  C684  1  0.701500  0.985100  0.816400  1.0  0.0827
  C  C685  1  0.706380  0.966200  0.857820  1.0  -0.1169
  C  C686  1  0.721230  0.935200  0.872370  1.0  -0.0722
  C  C687  1  0.685450  0.017700  0.801250  1.0  0.0519
  C  C688  1  0.685200  0.038900  0.823300  1.0  -0.1589
  C  C689  1  0.670140  0.069700  0.809360  1.0  -0.1092
  C  C690  1  0.655330  0.079300  0.773370  1.0  0.0907
  C  C691  1  0.655600  0.058100  0.751300  1.0  -0.1276
  C  C692  1  0.670640  0.027300  0.765260  1.0  -0.1541
  C  C693  1  0.746660  0.889900  0.861440  1.0  0.6841
  C  C694  1  0.639700  0.111500  0.759200  1.0  0.1655
  C  C695  1  0.502600  0.270060  0.765940  1.0  0.1078
  C  C696  1  0.497900  0.289800  0.788900  1.0  -0.0882
  C  C697  1  0.457600  0.273900  0.814300  1.0  -0.1139
  C  C698  1  0.645520  0.269050  0.585130  1.0  0.2637
  C  C699  1  0.669710  0.287010  0.543080  1.0  -0.1544
  C  C700  1  0.693340  0.269400  0.535260  1.0  -0.1534
  C  C701  1  0.497600  0.254960  0.586660  1.0  0.1431
  C  C702  1  0.460040  0.217330  0.625790  1.0  0.181
  C  C703  1  0.416930  0.193230  0.623180  1.0  -0.0797
  C  C704  1  0.411430  0.206790  0.581340  1.0  -0.1001
  C  C705  1  0.449040  0.244470  0.542170  1.0  -0.1054
  C  C706  1  0.492150  0.268570  0.544800  1.0  -0.0831
  C  C707  1  0.467230  0.083700  0.771870  1.0  0.1455
  C  C708  1  0.424780  0.036000  0.797420  1.0  -0.1068
  C  C709  1  0.421600  0.989600  0.822400  1.0  -0.0948
  C  C710  1  0.460600  0.990700  0.821900  1.0  -0.1095
  C  C711  1  0.502960  0.038200  0.796440  1.0  -0.0878
  C  C712  1  0.506280  0.084700  0.771420  1.0  0.0757
  C  C713  1  0.731400  0.577000  0.191800  1.0  -0.0739
  C  C714  1  0.753830  0.558000  0.215570  1.0  -0.058
  C  C715  1  0.737380  0.527000  0.261420  1.0  -0.1429
  C  C716  1  0.698500  0.514900  0.283600  1.0  0.0844
  C  C717  1  0.675980  0.533800  0.259820  1.0  -0.1102
  C  C718  1  0.692430  0.564800  0.213970  1.0  -0.0676
  C  C719  1  0.681050  0.482300  0.332250  1.0  0.0518
  C  C720  1  0.637800  0.461100  0.353700  1.0  -0.1547
  C  C721  1  0.620940  0.430300  0.399560  1.0  -0.1081
  C  C722  1  0.647330  0.420700  0.423970  1.0  0.089
  C  C723  1  0.690600  0.441900  0.402500  1.0  -0.1289
  C  C724  1  0.707440  0.472700  0.356660  1.0  -0.1566
  C  C725  1  0.748660  0.610100  0.143240  1.0  0.6863
  C  C726  1  0.629300  0.388500  0.471800  1.0  0.1698
  C  C727  1  0.464000  0.229940  0.767460  1.0  0.1066
  C  C728  1  0.421300  0.210200  0.791900  1.0  -0.0879
  C  C729  1  0.411800  0.226100  0.816300  1.0  -0.1106
  C  C730  1  0.645820  0.230950  0.623530  1.0  0.2679
  C  C731  1  0.669910  0.212990  0.617300  1.0  -0.1519
  C  C732  1  0.695340  0.230600  0.576060  1.0  -0.1531
  C  C733  1  0.163730  0.636400  0.943470  1.0  0.1382
  C  C734  1  0.167120  0.601100  0.981980  1.0  0.1069
  C  C735  1  0.147400  0.585900  0.024900  1.0  -0.0762
  C  C736  1  0.124300  0.606000  0.029300  1.0  -0.1163
  C  C737  1  0.120900  0.641300  0.990800  1.0  -0.1126
  C  C738  1  0.140600  0.656500  0.947900  1.0  -0.0881
  C  C739  1  0.303900  0.781200  0.791100  1.0  0.0544
  C  C740  1  0.342600  0.781200  0.788000  1.0  0.1098
  C  C741  1  0.384850  0.827800  0.757150  1.0  -0.0907
  C  C742  1  0.388500  0.874500  0.729400  1.0  -0.1132
  C  C743  1  0.349700  0.874600  0.732500  1.0  -0.1177
  C  C744  1  0.307510  0.828000  0.763290  1.0  -0.0709
  C  C745  1  0.150240  0.622800  0.807360  1.0  0.1519
  C  C746  1  0.150300  0.584900  0.807400  1.0  0.1968
  C  C747  1  0.121900  0.560300  0.790200  1.0  -0.1458
  C  C748  1  0.093460  0.573700  0.772840  1.0  -0.1233
  C  C749  1  0.093400  0.611600  0.772800  1.0  -0.0873
  C  C750  1  0.121790  0.636200  0.790010  1.0  -0.0994
  C  C751  1  0.314200  0.607000  0.972200  1.0  0.1672
  C  C752  1  0.351400  0.643800  0.932800  1.0  0.1077
  C  C753  1  0.394800  0.662700  0.935100  1.0  -0.0845
  C  C754  1  0.401000  0.644700  0.976900  1.0  -0.0855
  C  C755  1  0.363800  0.608100  0.016300  1.0  -0.1293
  C  C756  1  0.320440  0.589200  0.013960  1.0  -0.1489
  C  C757  1  0.343340  0.634900  0.791760  1.0  0.1723
  C  C758  1  0.304600  0.595730  0.793270  1.0  0.1356
  C  C759  1  0.308200  0.574700  0.771500  1.0  -0.0743
  C  C760  1  0.350320  0.592700  0.748180  1.0  -0.135
  C  C761  1  0.389040  0.631800  0.746760  1.0  -0.1004
  C  C762  1  0.385500  0.652800  0.768500  1.0  -0.1042
  C  C763  1  0.172440  0.453240  0.981940  1.0  0.1559
  C  C764  1  0.171520  0.451520  0.944520  1.0  0.1505
  C  C765  1  0.151790  0.404190  0.950060  1.0  -0.0719
  C  C766  1  0.132970  0.358590  0.993020  1.0  -0.0936
  C  C767  1  0.133890  0.360340  0.030430  1.0  -0.1049
  C  C768  1  0.153610  0.407620  0.024910  1.0  -0.0922
  C  C769  1  0.077130  0.293840  0.370310  1.0  -0.0765
  C  C770  1  0.106400  0.292460  0.347140  1.0  -0.0676
  C  C771  1  0.124610  0.325900  0.300490  1.0  -0.2013
  C  C772  1  0.113500  0.360800  0.276900  1.0  0.0477
  C  C773  1  0.084280  0.362200  0.300120  1.0  -0.1816
  C  C774  1  0.066090  0.328700  0.346810  1.0  -0.0923
  C  C775  1  0.132380  0.395350  0.228990  1.0  0.1025
  C  C776  1  0.130100  0.376400  0.203700  1.0  -0.1463
  C  C777  1  0.148300  0.409800  0.157500  1.0  -0.0229
  C  C778  1  0.168720  0.462200  0.136480  1.0  -0.0534
  C  C779  1  0.170960  0.481100  0.161740  1.0  -0.038
  C  C780  1  0.152760  0.447700  0.207940  1.0  -0.1626
  C  C781  1  0.058640  0.259750  0.418310  1.0  0.7117
  C  C782  1  0.187020  0.496400  0.088580  1.0  0.7166
  C  C783  1  0.079870  0.136400  0.527330  1.0  0.139
  C  C784  1  0.083080  0.101100  0.566020  1.0  0.108
  C  C785  1  0.110800  0.085900  0.561500  1.0  -0.0735
  C  C786  1  0.135300  0.106000  0.518300  1.0  -0.1157
  C  C787  1  0.132100  0.141300  0.479600  1.0  -0.1097
  C  C788  1  0.104400  0.156500  0.484100  1.0  -0.0906
  C  C789  1  0.072300  0.281200  0.522700  1.0  0.053
  C  C790  1  0.069200  0.281200  0.561400  1.0  0.1082
  C  C791  1  0.084950  0.327800  0.557050  1.0  -0.0896
  C  C792  1  0.103900  0.374500  0.514000  1.0  -0.115
  C  C793  1  0.107100  0.374600  0.475100  1.0  -0.1154
  C  C794  1  0.091290  0.328000  0.479510  1.0  -0.0664
  C  C795  1  0.930160  0.122800  0.527440  1.0  0.1553
  C  C796  1  0.892300  0.084900  0.565400  1.0  0.1993
  C  C797  1  0.850500  0.060300  0.561600  1.0  -0.1437
  C  C798  1  0.846540  0.073700  0.519760  1.0  -0.1243
  C  C799  1  0.884400  0.111600  0.481800  1.0  -0.0846
  C  C800  1  0.926210  0.136200  0.485590  1.0  -0.1051
  C  C801  1  0.079200  0.107000  0.707200  1.0  0.1687
  C  C802  1  0.076600  0.143800  0.707600  1.0  0.1074
  C  C803  1  0.097800  0.162700  0.732100  1.0  -0.0885
  C  C804  1  0.121600  0.144700  0.756300  1.0  -0.0872
  C  C805  1  0.124400  0.108100  0.755700  1.0  -0.1297
  C  C806  1  0.103160  0.089200  0.731240  1.0  -0.1453
  C  C807  1  0.926660  0.134900  0.708440  1.0  0.1731
  C  C808  1  0.889000  0.095730  0.708870  1.0  0.1364
  C  C809  1  0.846200  0.074700  0.733500  1.0  -0.0701
  C  C810  1  0.840880  0.092700  0.757620  1.0  -0.1368
  C  C811  1  0.878560  0.131800  0.757240  1.0  -0.0966
  C  C812  1  0.921300  0.152800  0.732700  1.0  -0.1062
  C  C813  1  0.935180  0.953240  0.719200  1.0  0.1623
  C  C814  1  0.896040  0.951520  0.720000  1.0  0.1529
  C  C815  1  0.854250  0.904190  0.747600  1.0  -0.077
  C  C816  1  0.851610  0.858590  0.774380  1.0  -0.0957
  C  C817  1  0.890770  0.860340  0.773550  1.0  -0.1078
  C  C818  1  0.932530  0.907620  0.745990  1.0  -0.092
  C  C819  1  0.164150  0.793840  0.783290  1.0  -0.0769
  C  C820  1  0.139600  0.792460  0.813940  1.0  -0.0703
  C  C821  1  0.126390  0.825900  0.798710  1.0  -0.2012
  C  C822  1  0.137700  0.860800  0.752700  1.0  0.0485
  C  C823  1  0.162320  0.862200  0.722080  1.0  -0.1807
  C  C824  1  0.175510  0.828700  0.737390  1.0  -0.0905
  C  C825  1  0.124340  0.895350  0.737030  1.0  0.1008
  C  C826  1  0.080100  0.876400  0.753700  1.0  -0.1442
  C  C827  1  0.067300  0.909800  0.738500  1.0  -0.0231
  C  C828  1  0.098680  0.962200  0.706520  1.0  -0.0532
  C  C829  1  0.142840  0.981100  0.689860  1.0  -0.0386
  C  C830  1  0.155640  0.947700  0.705060  1.0  -0.1632
  C  C831  1  0.178060  0.759750  0.798890  1.0  0.7074
  C  C832  1  0.084980  0.996400  0.690620  1.0  0.7106
  C  C833  1  0.920130  0.863600  0.472670  1.0  0.1379
  C  C834  1  0.916920  0.898900  0.433980  1.0  0.1065
  C  C835  1  0.889200  0.914100  0.438500  1.0  -0.0747
  C  C836  1  0.864700  0.894000  0.481700  1.0  -0.1198
  C  C837  1  0.867900  0.858700  0.520400  1.0  -0.1115
  C  C838  1  0.895600  0.843500  0.515900  1.0  -0.0908
  C  C839  1  0.927700  0.718800  0.477300  1.0  0.0536
  C  C840  1  0.930800  0.718800  0.438600  1.0  0.108
  C  C841  1  0.915050  0.672200  0.442950  1.0  -0.0904
  C  C842  1  0.896100  0.625500  0.486000  1.0  -0.1157
  C  C843  1  0.892900  0.625400  0.524900  1.0  -0.1147
  C  C844  1  0.908710  0.672000  0.520490  1.0  -0.0663
  C  C845  1  0.069840  0.877200  0.472560  1.0  0.1534
  C  C846  1  0.107700  0.915100  0.434600  1.0  0.1999
  C  C847  1  0.149500  0.939700  0.438400  1.0  -0.1427
  C  C848  1  0.153460  0.926300  0.480240  1.0  -0.125
  C  C849  1  0.115600  0.888400  0.518200  1.0  -0.0851
  C  C850  1  0.073790  0.863800  0.514410  1.0  -0.106
  C  C851  1  0.920800  0.893000  0.292800  1.0  0.1665
  C  C852  1  0.923400  0.856200  0.292400  1.0  0.1061
  C  C853  1  0.902200  0.837300  0.267900  1.0  -0.0878
  C  C854  1  0.878400  0.855300  0.243700  1.0  -0.0864
  C  C855  1  0.875600  0.891900  0.244300  1.0  -0.1287
  C  C856  1  0.896840  0.910800  0.268760  1.0  -0.148
  C  C857  1  0.073340  0.865100  0.291560  1.0  0.1727
  C  C858  1  0.111000  0.904270  0.291130  1.0  0.1375
  C  C859  1  0.153800  0.925300  0.266500  1.0  -0.0705
  C  C860  1  0.159120  0.907300  0.242380  1.0  -0.1371
  C  C861  1  0.121440  0.868200  0.242760  1.0  -0.0943
  C  C862  1  0.078700  0.847200  0.267300  1.0  -0.1057
  C  C863  1  0.064820  0.046760  0.280800  1.0  0.1617
  C  C864  1  0.103960  0.048480  0.280000  1.0  0.1546
  C  C865  1  0.145750  0.095810  0.252400  1.0  -0.0771
  C  C866  1  0.148390  0.141410  0.225620  1.0  -0.0958
  C  C867  1  0.109230  0.139660  0.226450  1.0  -0.107
  C  C868  1  0.067470  0.092380  0.254010  1.0  -0.0931
  C  C869  1  0.835850  0.206160  0.216710  1.0  -0.0765
  C  C870  1  0.860400  0.207540  0.186060  1.0  -0.0698
  C  C871  1  0.873610  0.174100  0.201290  1.0  -0.2012
  C  C872  1  0.862300  0.139200  0.247300  1.0  0.0481
  C  C873  1  0.837680  0.137800  0.277920  1.0  -0.1809
  C  C874  1  0.824490  0.171300  0.262610  1.0  -0.0906
  C  C875  1  0.875660  0.104650  0.262970  1.0  0.1011
  C  C876  1  0.919900  0.123600  0.246300  1.0  -0.145
  C  C877  1  0.932700  0.090200  0.261500  1.0  -0.0234
  C  C878  1  0.901320  0.037800  0.293480  1.0  -0.0514
  C  C879  1  0.857160  0.018900  0.310140  1.0  -0.0378
  C  C880  1  0.844360  0.052300  0.294940  1.0  -0.1652
  C  C881  1  0.821940  0.240250  0.201110  1.0  0.7064
  C  C882  1  0.915020  0.003600  0.309380  1.0  0.7108
  C  C883  1  0.836270  0.363600  0.056530  1.0  0.1391
  C  C884  1  0.832880  0.398900  0.018020  1.0  0.1072
  C  C885  1  0.852600  0.414100  0.975100  1.0  -0.0775
  C  C886  1  0.875700  0.394000  0.970700  1.0  -0.1155
  C  C887  1  0.879100  0.358700  0.009200  1.0  -0.11
  C  C888  1  0.859400  0.343500  0.052100  1.0  -0.0873
  C  C889  1  0.696100  0.218800  0.208900  1.0  0.0547
  C  C890  1  0.657400  0.218800  0.212000  1.0  0.1092
  C  C891  1  0.615150  0.172200  0.242850  1.0  -0.0946
  C  C892  1  0.611500  0.125500  0.270600  1.0  -0.114
  C  C893  1  0.650300  0.125400  0.267500  1.0  -0.1168
  C  C894  1  0.692490  0.172000  0.236710  1.0  -0.0679
  C  C895  1  0.849760  0.377200  0.192640  1.0  0.1543
  C  C896  1  0.849700  0.415100  0.192600  1.0  0.1963
  C  C897  1  0.878100  0.439700  0.209800  1.0  -0.1462
  C  C898  1  0.906540  0.426300  0.227160  1.0  -0.1241
  C  C899  1  0.906600  0.388400  0.227200  1.0  -0.0841
  C  C900  1  0.878210  0.363800  0.209990  1.0  -0.0986
  C  C901  1  0.685800  0.393000  0.027800  1.0  0.1667
  C  C902  1  0.648600  0.356200  0.067200  1.0  0.1053
  C  C903  1  0.605200  0.337300  0.064900  1.0  -0.0822
  C  C904  1  0.599000  0.355300  0.023100  1.0  -0.0865
  C  C905  1  0.636200  0.391900  0.983700  1.0  -0.127
  C  C906  1  0.679560  0.410800  0.986040  1.0  -0.1474
  C  C907  1  0.656660  0.365100  0.208240  1.0  0.1723
  C  C908  1  0.695400  0.404270  0.206730  1.0  0.1349
  C  C909  1  0.691800  0.425300  0.228500  1.0  -0.0745
  C  C910  1  0.649680  0.407300  0.251820  1.0  -0.1354
  C  C911  1  0.610960  0.368200  0.253240  1.0  -0.1025
  C  C912  1  0.614500  0.347200  0.231500  1.0  -0.1058
  C  C913  1  0.827560  0.546760  0.018060  1.0  0.1608
  C  C914  1  0.828480  0.548480  0.055480  1.0  0.1507
  C  C915  1  0.848210  0.595810  0.049940  1.0  -0.0737
  C  C916  1  0.867030  0.641410  0.006980  1.0  -0.0956
  C  C917  1  0.866110  0.639660  0.969570  1.0  -0.1051
  C  C918  1  0.846390  0.592380  0.975090  1.0  -0.0888
  C  C919  1  0.922870  0.706160  0.629690  1.0  -0.0743
  C  C920  1  0.893600  0.707540  0.652860  1.0  -0.067
  C  C921  1  0.875390  0.674100  0.699510  1.0  -0.2032
  C  C922  1  0.886500  0.639200  0.723100  1.0  0.0484
  C  C923  1  0.915720  0.637800  0.699880  1.0  -0.1789
  C  C924  1  0.933910  0.671300  0.653190  1.0  -0.0902
  C  C925  1  0.867620  0.604650  0.771010  1.0  0.1023
  C  C926  1  0.869900  0.623600  0.796300  1.0  -0.1441
  C  C927  1  0.851700  0.590200  0.842500  1.0  -0.0225
  C  C928  1  0.831280  0.537800  0.863520  1.0  -0.053
  C  C929  1  0.829040  0.518900  0.838260  1.0  -0.0352
  C  C930  1  0.847240  0.552300  0.792060  1.0  -0.1593
  C  C931  1  0.941360  0.740250  0.581690  1.0  0.7104
  C  C932  1  0.812980  0.503600  0.911420  1.0  0.7169
  C  C933  1  0.027330  0.607200  0.336270  1.0  0.1377
  C  C934  1  0.066020  0.649100  0.332880  1.0  0.1075
  C  C935  1  0.061500  0.672300  0.352600  1.0  -0.0746
  C  C936  1  0.018300  0.653600  0.375700  1.0  -0.1189
  C  C937  1  0.979600  0.611700  0.379100  1.0  -0.1119
  C  C938  1  0.984100  0.588500  0.359400  1.0  -0.0875
  C  C939  1  0.022700  0.595000  0.196100  1.0  0.055
  C  C940  1  0.061400  0.630600  0.157400  1.0  0.1088
  C  C941  1  0.057050  0.642000  0.115150  1.0  -0.0922
  C  C942  1  0.014000  0.617900  0.111500  1.0  -0.112
  C  C943  1  0.975100  0.582200  0.150300  1.0  -0.1174
  C  C944  1  0.979510  0.570800  0.192490  1.0  -0.0656
  C  C945  1  0.027440  0.457600  0.349760  1.0  0.1517
  C  C946  1  0.065400  0.457700  0.349700  1.0  0.1978
  C  C947  1  0.061600  0.412100  0.378100  1.0  -0.1471
  C  C948  1  0.019760  0.366300  0.406540  1.0  -0.1254
  C  C949  1  0.981800  0.366200  0.406600  1.0  -0.0906
  C  C950  1  0.985590  0.411800  0.378210  1.0  -0.1051
  C  C951  1  0.207200  0.786400  0.185800  1.0  0.1677
  C  C952  1  0.207600  0.784200  0.148600  1.0  0.1068
  C  C953  1  0.232100  0.829900  0.105200  1.0  -0.0827
  C  C954  1  0.256300  0.877900  0.099000  1.0  -0.0876
  C  C955  1  0.255700  0.880100  0.136200  1.0  -0.1266
  C  C956  1  0.231240  0.834400  0.179560  1.0  -0.1475
  C  C957  1  0.208440  0.635100  0.156660  1.0  0.171
  C  C958  1  0.208870  0.597870  0.195400  1.0  0.1401
  C  C959  1  0.233500  0.579700  0.191800  1.0  -0.0691
  C  C960  1  0.257620  0.598500  0.149680  1.0  -0.137
  C  C961  1  0.257240  0.635800  0.110960  1.0  -0.0989
  C  C962  1  0.232700  0.654000  0.114500  1.0  -0.108
  C  C963  1  0.219200  0.654380  0.327560  1.0  0.1575
  C  C964  1  0.220000  0.616040  0.328480  1.0  0.1516
  C  C965  1  0.247600  0.601850  0.348210  1.0  -0.0743
  C  C966  1  0.274380  0.625990  0.367030  1.0  -0.0955
  C  C967  1  0.273550  0.664320  0.366110  1.0  -0.1082
  C  C968  1  0.245990  0.678520  0.346390  1.0  -0.0932
  C  C969  1  0.283290  0.947440  0.422870  1.0  -0.0779
  C  C970  1  0.313940  0.953540  0.393600  1.0  -0.0671
  C  C971  1  0.298710  0.925100  0.375390  1.0  -0.2016
  C  C972  1  0.252700  0.890400  0.386500  1.0  0.049
  C  C973  1  0.222080  0.884400  0.415720  1.0  -0.1808
  C  C974  1  0.237390  0.912900  0.433910  1.0  -0.0911
  C  C975  1  0.237030  0.861370  0.367620  1.0  0.1001
  C  C976  1  0.253700  0.833800  0.369900  1.0  -0.1413
  C  C977  1  0.238500  0.805800  0.351700  1.0  -0.0229
  C  C978  1  0.206520  0.805200  0.331280  1.0  -0.0544
  C  C979  1  0.189860  0.832700  0.329040  1.0  -0.0347
  C  C980  1  0.205060  0.860700  0.347240  1.0  -0.1624
  C  C981  1  0.298890  0.976950  0.441360  1.0  0.7128
  C  C982  1  0.190620  0.775600  0.312980  1.0  0.7158
  C  C983  1  0.443470  0.107200  0.420130  1.0  0.1392
  C  C984  1  0.481980  0.149100  0.416920  1.0  0.1078
  C  C985  1  0.524900  0.172300  0.389200  1.0  -0.0725
  C  C986  1  0.529300  0.153600  0.364700  1.0  -0.1157
  C  C987  1  0.490800  0.111700  0.367900  1.0  -0.1098
  C  C988  1  0.447900  0.088500  0.395600  1.0  -0.0904
  C  C989  1  0.291100  0.095000  0.427700  1.0  0.0554
  C  C990  1  0.288000  0.130600  0.430800  1.0  0.1083
  C  C991  1  0.257150  0.142000  0.415050  1.0  -0.0909
  C  C992  1  0.229400  0.117900  0.396100  1.0  -0.1152
  C  C993  1  0.232500  0.082200  0.392900  1.0  -0.1154
  C  C994  1  0.263290  0.070800  0.408710  1.0  -0.0661
  C  C995  1  0.307360  0.957600  0.569840  1.0  0.1538
  C  C996  1  0.307400  0.957700  0.607700  1.0  0.196
  C  C997  1  0.290200  0.912100  0.649500  1.0  -0.1453
  C  C998  1  0.272840  0.866300  0.653460  1.0  -0.1245
  C  C999  1  0.272800  0.866200  0.615600  1.0  -0.0894
  C  C1000  1  0.290010  0.911800  0.573790  1.0  -0.1032
  C  C1001  1  0.472200  0.286400  0.420800  1.0  0.167
  C  C1002  1  0.432800  0.284200  0.423400  1.0  0.1049
  C  C1003  1  0.435100  0.329900  0.402200  1.0  -0.0824
  C  C1004  1  0.476900  0.377900  0.378400  1.0  -0.0864
  C  C1005  1  0.516300  0.380100  0.375600  1.0  -0.1281
  C  C1006  1  0.513960  0.334400  0.396840  1.0  -0.1487
  C  C1007  1  0.291760  0.135100  0.573340  1.0  0.173
  C  C1008  1  0.293270  0.097870  0.611000  1.0  0.1371
  C  C1009  1  0.271500  0.079700  0.653800  1.0  -0.0721
  C  C1010  1  0.248180  0.098500  0.659120  1.0  -0.1322
  C  C1011  1  0.246760  0.135800  0.621440  1.0  -0.1009
  C  C1012  1  0.268500  0.154000  0.578700  1.0  -0.1056
  C  C1013  1  0.481940  0.154380  0.564820  1.0  0.1617
  C  C1014  1  0.444520  0.116040  0.603960  1.0  0.1522
  C  C1015  1  0.450060  0.101850  0.645750  1.0  -0.0778
  C  C1016  1  0.493020  0.125990  0.648390  1.0  -0.0947
  C  C1017  1  0.530430  0.164320  0.609230  1.0  -0.1051
  C  C1018  1  0.524910  0.178520  0.567470  1.0  -0.0907
  C  C1019  1  0.870310  0.447440  0.335850  1.0  -0.0741
  C  C1020  1  0.847140  0.453540  0.360400  1.0  -0.0693
  C  C1021  1  0.800490  0.425100  0.373610  1.0  -0.2045
  C  C1022  1  0.776900  0.390400  0.362300  1.0  0.0489
  C  C1023  1  0.800120  0.384400  0.337680  1.0  -0.1835
  C  C1024  1  0.846810  0.412900  0.324490  1.0  -0.0901
  C  C1025  1  0.728990  0.361370  0.375660  1.0  0.1019
  C  C1026  1  0.703700  0.333800  0.419900  1.0  -0.1451
  C  C1027  1  0.657500  0.305800  0.432700  1.0  -0.0258
  C  C1028  1  0.636480  0.305200  0.401320  1.0  -0.052
  C  C1029  1  0.661740  0.332700  0.357160  1.0  -0.0395
  C  C1030  1  0.707940  0.360700  0.344360  1.0  -0.1639
  C  C1031  1  0.918310  0.476950  0.321940  1.0  0.708
  C  C1032  1  0.588580  0.275600  0.415020  1.0  0.7104
  C  C1033  1  0.556530  0.892800  0.579870  1.0  0.1377
  C  C1034  1  0.518020  0.850900  0.583080  1.0  0.1077
  C  C1035  1  0.475100  0.827700  0.610800  1.0  -0.0726
  C  C1036  1  0.470700  0.846400  0.635300  1.0  -0.1181
  C  C1037  1  0.509200  0.888300  0.632100  1.0  -0.1119
  C  C1038  1  0.552100  0.911500  0.604400  1.0  -0.0898
  C  C1039  1  0.708900  0.905000  0.572300  1.0  0.0548
  C  C1040  1  0.712000  0.869400  0.569200  1.0  0.1077
  C  C1041  1  0.742850  0.858000  0.584950  1.0  -0.0897
  C  C1042  1  0.770600  0.882100  0.603900  1.0  -0.1123
  C  C1043  1  0.767500  0.917800  0.607100  1.0  -0.1157
  C  C1044  1  0.736710  0.929200  0.591290  1.0  -0.0674
  C  C1045  1  0.692640  0.042400  0.430160  1.0  0.1519
  C  C1046  1  0.692600  0.042300  0.392300  1.0  0.1964
  C  C1047  1  0.709800  0.087900  0.350500  1.0  -0.1459
  C  C1048  1  0.727160  0.133700  0.346540  1.0  -0.1233
  C  C1049  1  0.727200  0.133800  0.384400  1.0  -0.0883
  C  C1050  1  0.709990  0.088200  0.426210  1.0  -0.104
  C  C1051  1  0.527800  0.713600  0.579200  1.0  0.1664
  C  C1052  1  0.567200  0.715800  0.576600  1.0  0.1066
  C  C1053  1  0.564900  0.670100  0.597800  1.0  -0.0837
  C  C1054  1  0.523100  0.622100  0.621600  1.0  -0.0885
  C  C1055  1  0.483700  0.619900  0.624400  1.0  -0.127
  C  C1056  1  0.486040  0.665600  0.603160  1.0  -0.1518
  C  C1057  1  0.708240  0.864900  0.426660  1.0  0.1721
  C  C1058  1  0.706730  0.902130  0.389000  1.0  0.1359
  C  C1059  1  0.728500  0.920300  0.346200  1.0  -0.0719
  C  C1060  1  0.751820  0.901500  0.340880  1.0  -0.1333
  C  C1061  1  0.753240  0.864200  0.378560  1.0  -0.0996
  C  C1062  1  0.731500  0.846000  0.421300  1.0  -0.1037
  C  C1063  1  0.518060  0.845620  0.435180  1.0  0.1602
  C  C1064  1  0.555480  0.883960  0.396040  1.0  0.1518
  C  C1065  1  0.549940  0.898150  0.354250  1.0  -0.0788
  C  C1066  1  0.506980  0.874010  0.351610  1.0  -0.0958
  C  C1067  1  0.469570  0.835680  0.390770  1.0  -0.1087
  C  C1068  1  0.475090  0.821480  0.432530  1.0  -0.0919
  C  C1069  1  0.129690  0.552560  0.664150  1.0  -0.0745
  C  C1070  1  0.152860  0.546460  0.639600  1.0  -0.0698
  C  C1071  1  0.199510  0.574900  0.626390  1.0  -0.2017
  C  C1072  1  0.223100  0.609600  0.637700  1.0  0.0484
  C  C1073  1  0.199880  0.615600  0.662320  1.0  -0.1857
  C  C1074  1  0.153190  0.587100  0.675510  1.0  -0.092
  C  C1075  1  0.271010  0.638630  0.624340  1.0  0.1019
  C  C1076  1  0.296300  0.666200  0.580100  1.0  -0.1459
  C  C1077  1  0.342500  0.694200  0.567300  1.0  -0.0248
  C  C1078  1  0.363520  0.694800  0.598680  1.0  -0.0509
  C  C1079  1  0.338260  0.667300  0.642840  1.0  -0.0397
  C  C1080  1  0.292060  0.639300  0.655640  1.0  -0.1674
  C  C1081  1  0.081690  0.523050  0.678060  1.0  0.7066
  C  C1082  1  0.411420  0.724400  0.584980  1.0  0.711
  C  C1083  1  0.972670  0.392800  0.663730  1.0  0.1385
  C  C1084  1  0.933980  0.350900  0.667120  1.0  0.1083
  C  C1085  1  0.938500  0.327700  0.647400  1.0  -0.076
  C  C1086  1  0.981700  0.346400  0.624300  1.0  -0.1154
  C  C1087  1  0.020400  0.388300  0.620900  1.0  -0.1098
  C  C1088  1  0.015900  0.411500  0.640600  1.0  -0.088
  C  C1089  1  0.977300  0.405000  0.803900  1.0  0.0555
  C  C1090  1  0.938600  0.369400  0.842600  1.0  0.109
  C  C1091  1  0.942950  0.358000  0.884850  1.0  -0.0912
  C  C1092  1  0.986000  0.382100  0.888500  1.0  -0.1143
  C  C1093  1  0.024900  0.417800  0.849700  1.0  -0.1157
  C  C1094  1  0.020490  0.429200  0.807510  1.0  -0.066
  C  C1095  1  0.972560  0.542400  0.650240  1.0  0.1534
  C  C1096  1  0.934600  0.542300  0.650300  1.0  0.1967
  C  C1097  1  0.938400  0.587900  0.621900  1.0  -0.1483
  C  C1098  1  0.980240  0.633700  0.593460  1.0  -0.1242
  C  C1099  1  0.018200  0.633800  0.593400  1.0  -0.0863
  C  C1100  1  0.014410  0.588200  0.621790  1.0  -0.1012
  C  C1101  1  0.792800  0.213600  0.814200  1.0  0.1671
  C  C1102  1  0.792400  0.215800  0.851400  1.0  0.1089
  C  C1103  1  0.767900  0.170100  0.894800  1.0  -0.0843
  C  C1104  1  0.743700  0.122100  0.901000  1.0  -0.0884
  C  C1105  1  0.744300  0.119900  0.863800  1.0  -0.1268
  C  C1106  1  0.768760  0.165600  0.820440  1.0  -0.1459
  C  C1107  1  0.791560  0.364900  0.843340  1.0  0.1723
  C  C1108  1  0.791130  0.402130  0.804600  1.0  0.1388
  C  C1109  1  0.766500  0.420300  0.808200  1.0  -0.0694
  C  C1110  1  0.742380  0.401500  0.850320  1.0  -0.1357
  C  C1111  1  0.742760  0.364200  0.889040  1.0  -0.099
  C  C1112  1  0.767300  0.346000  0.885500  1.0  -0.1089
  C  C1113  1  0.780800  0.345620  0.672440  1.0  0.1601
  C  C1114  1  0.780000  0.383960  0.671520  1.0  0.1517
  C  C1115  1  0.752400  0.398150  0.651790  1.0  -0.0753
  C  C1116  1  0.725620  0.374010  0.632970  1.0  -0.0967
  C  C1117  1  0.726450  0.335680  0.633890  1.0  -0.1093
  C  C1118  1  0.754010  0.321480  0.653610  1.0  -0.0928
  C  C1119  1  0.716710  0.052560  0.577130  1.0  -0.0781
  C  C1120  1  0.686060  0.046460  0.606400  1.0  -0.0677
  C  C1121  1  0.701290  0.074900  0.624610  1.0  -0.2019
  C  C1122  1  0.747300  0.109600  0.613500  1.0  0.0491
  C  C1123  1  0.777920  0.115600  0.584280  1.0  -0.1801
  C  C1124  1  0.762610  0.087100  0.566090  1.0  -0.0896
  C  C1125  1  0.762970  0.138630  0.632380  1.0  0.1004
  C  C1126  1  0.746300  0.166200  0.630100  1.0  -0.1428
  C  C1127  1  0.761500  0.194200  0.648300  1.0  -0.0228
  C  C1128  1  0.793480  0.194800  0.668720  1.0  -0.0551
  C  C1129  1  0.810140  0.167300  0.670960  1.0  -0.036
  C  C1130  1  0.794940  0.139300  0.652760  1.0  -0.1615
  C  C1131  1  0.701110  0.023050  0.558640  1.0  0.7124
  C  C1132  1  0.809380  0.224400  0.687020  1.0  0.7168
  N  N1133  1  0.237410  0.366210  0.034180  1.0  -0.1763
  N  N1134  1  0.224800  0.335620  0.020100  1.0  -0.1014
  N  N1135  1  0.236630  0.363460  0.974290  1.0  -0.301
  N  N1136  1  0.153330  0.274700  0.979970  1.0  -0.2545
  N  N1137  1  0.139190  0.246040  0.024210  1.0  -0.1538
  N  N1138  1  0.095550  0.213500  0.041950  1.0  -0.2023
  N  N1139  1  0.241410  0.279700  0.976690  1.0  -0.2552
  N  N1140  1  0.098800  0.221280  0.121760  1.0  -0.1821
  N  N1141  1  0.099610  0.133790  0.128800  1.0  -0.1743
  N  N1142  1  0.144280  0.164380  0.110820  1.0  -0.104
  N  N1143  1  0.162250  0.136540  0.126830  1.0  -0.3002
  N  N1144  1  0.245330  0.225300  0.121370  1.0  -0.2512
  N  N1145  1  0.229750  0.253960  0.106850  1.0  -0.1523
  N  N1146  1  0.244550  0.286500  0.117950  1.0  -0.1989
  N  N1147  1  0.243610  0.220300  0.038290  1.0  -0.2554
  N  N1148  1  0.156960  0.278720  0.122480  1.0  -0.182
  N  N1149  1  0.371200  0.771590  0.262590  1.0  -0.1743
  N  N1150  1  0.389180  0.744900  0.275200  1.0  -0.104
  N  N1151  1  0.373170  0.710920  0.263370  1.0  -0.3021
  N  N1152  1  0.378630  0.633300  0.346670  1.0  -0.2509
  N  N1153  1  0.393150  0.663400  0.360810  1.0  -0.1567
  N  N1154  1  0.382050  0.637500  0.404450  1.0  -0.201
  N  N1155  1  0.461710  0.718100  0.258590  1.0  -0.2552
  N  N1156  1  0.377520  0.720560  0.401200  1.0  -0.18
  N  N1157  1  0.465820  0.728410  0.400390  1.0  -0.176
  N  N1158  1  0.479900  0.755100  0.355720  1.0  -0.1024
  N  N1159  1  0.525710  0.789080  0.337750  1.0  -0.3007
  N  N1160  1  0.520030  0.866700  0.254670  1.0  -0.2541
  N  N1161  1  0.475790  0.836600  0.270250  1.0  -0.1522
  N  N1162  1  0.458050  0.862500  0.255450  1.0  -0.2003
  N  N1163  1  0.523310  0.781900  0.256390  1.0  -0.256
  N  N1164  1  0.378240  0.779440  0.343040  1.0  -0.1823
  N  N1165  1  0.228470  0.250000  0.021530  1.0  -0.1309
  N  N1166  1  0.142500  0.250000  0.107500  1.0  -0.1203
  N  N1167  1  0.478470  0.750000  0.271530  1.0  -0.1309
  N  N1168  1  0.392500  0.750000  0.357500  1.0  -0.1203
  N  N1169  1  0.762590  0.633790  0.965820  1.0  -0.1744
  N  N1170  1  0.775200  0.664380  0.979900  1.0  -0.102
  N  N1171  1  0.763370  0.636540  0.025710  1.0  -0.3001
  N  N1172  1  0.846670  0.725300  0.020030  1.0  -0.2537
  N  N1173  1  0.860810  0.753960  0.975790  1.0  -0.1539
  N  N1174  1  0.904450  0.786500  0.958050  1.0  -0.2019
  N  N1175  1  0.758590  0.720300  0.023310  1.0  -0.2556
  N  N1176  1  0.901200  0.778720  0.878240  1.0  -0.1823
  N  N1177  1  0.900390  0.866210  0.871200  1.0  -0.176
  N  N1178  1  0.855720  0.835620  0.889180  1.0  -0.1035
  N  N1179  1  0.837750  0.863460  0.873170  1.0  -0.3022
  N  N1180  1  0.754670  0.774700  0.878630  1.0  -0.2506
  N  N1181  1  0.770250  0.746040  0.893150  1.0  -0.1535
  N  N1182  1  0.755450  0.713500  0.882050  1.0  -0.1993
  N  N1183  1  0.756390  0.779700  0.961710  1.0  -0.2558
  N  N1184  1  0.843040  0.721280  0.877520  1.0  -0.1811
  N  N1185  1  0.628800  0.228410  0.737410  1.0  -0.1743
  N  N1186  1  0.610820  0.255100  0.724800  1.0  -0.1031
  N  N1187  1  0.626830  0.289080  0.736630  1.0  -0.3019
  N  N1188  1  0.621370  0.366700  0.653330  1.0  -0.2515
  N  N1189  1  0.606850  0.336600  0.639190  1.0  -0.1526
  N  N1190  1  0.617950  0.362500  0.595550  1.0  -0.1995
  N  N1191  1  0.538290  0.281900  0.741410  1.0  -0.2562
  N  N1192  1  0.622480  0.279440  0.598800  1.0  -0.1823
  N  N1193  1  0.534180  0.271590  0.599610  1.0  -0.1753
  N  N1194  1  0.520100  0.244900  0.644280  1.0  -0.1014
  N  N1195  1  0.474290  0.210920  0.662250  1.0  -0.2999
  N  N1196  1  0.479970  0.133300  0.745330  1.0  -0.2534
  N  N1197  1  0.524210  0.163400  0.729750  1.0  -0.1558
  N  N1198  1  0.541950  0.137500  0.744550  1.0  -0.2011
  N  N1199  1  0.476690  0.218100  0.743610  1.0  -0.2562
  N  N1200  1  0.621760  0.220560  0.656960  1.0  -0.1802
  N  N1201  1  0.771530  0.750000  0.978470  1.0  -0.1312
  N  N1202  1  0.857500  0.750000  0.892500  1.0  -0.1208
  N  N1203  1  0.521530  0.250000  0.728470  1.0  -0.1312
  N  N1204  1  0.607500  0.250000  0.642500  1.0  -0.1208
  N  N1205  1  0.187000  0.646100  0.907300  1.0  -0.111
  N  N1206  1  0.202820  0.616700  0.921080  1.0  -0.1107
  N  N1207  1  0.191680  0.590300  0.966220  1.0  -0.173
  N  N1208  1  0.268040  0.729900  0.818060  1.0  -0.2151
  N  N1209  1  0.285690  0.703150  0.831840  1.0  -0.0572
  N  N1210  1  0.329530  0.731400  0.815070  1.0  -0.2252
  N  N1211  1  0.180590  0.640000  0.825210  1.0  -0.1936
  N  N1212  1  0.196610  0.611090  0.838840  1.0  -0.0406
  N  N1213  1  0.181050  0.578490  0.826300  1.0  -0.3448
  N  N1214  1  0.334840  0.650500  0.899660  1.0  -0.1948
  N  N1215  1  0.290820  0.622410  0.916830  1.0  -0.0543
  N  N1216  1  0.277050  0.593700  0.961650  1.0  -0.3094
  N  N1217  1  0.330780  0.647690  0.815930  1.0  -0.2467
  N  N1218  1  0.285710  0.617370  0.832120  1.0  -0.0596
  N  N1219  1  0.270260  0.586410  0.819930  1.0  -0.1864
  N  N1220  1  0.193450  0.502540  0.966710  1.0  -0.2232
  N  N1221  1  0.205340  0.530400  0.922460  1.0  -0.0604
  N  N1222  1  0.191960  0.501010  0.908210  1.0  -0.2336
  N  N1223  1  0.053400  0.146100  0.540900  1.0  -0.1106
  N  N1224  1  0.037780  0.116700  0.586120  1.0  -0.1111
  N  N1225  1  0.056520  0.090300  0.601380  1.0  -0.1734
  N  N1226  1  0.047960  0.229900  0.538140  1.0  -0.2123
  N  N1227  1  0.034990  0.203150  0.582540  1.0  -0.0583
  N  N1228  1  0.046470  0.231400  0.598130  1.0  -0.2241
  N  N1229  1  0.965210  0.140000  0.540590  1.0  -0.1917
  N  N1230  1  0.949930  0.111090  0.585520  1.0  -0.0396
  N  N1231  1  0.904790  0.078490  0.602560  1.0  -0.3466
  N  N1232  1  0.050160  0.150500  0.684340  1.0  -0.1938
  N  N1233  1  0.039240  0.122410  0.668410  1.0  -0.0547
  N  N1234  1  0.055350  0.093700  0.683350  1.0  -0.3101
  N  N1235  1  0.963620  0.147690  0.683090  1.0  -0.2456
  N  N1236  1  0.949490  0.117370  0.668340  1.0  -0.0581
  N  N1237  1  0.906340  0.086410  0.683850  1.0  -0.1841
  N  N1238  1  0.969250  0.002540  0.690910  1.0  -0.2235
  N  N1239  1  0.952860  0.030400  0.674940  1.0  -0.0619
  N  N1240  1  0.909220  0.001010  0.690950  1.0  -0.2321
  N  N1241  1  0.946600  0.853900  0.459100  1.0  -0.1092
  N  N1242  1  0.962220  0.883300  0.413880  1.0  -0.1106
  N  N1243  1  0.943480  0.909700  0.398620  1.0  -0.1743
  N  N1244  1  0.952040  0.770100  0.461860  1.0  -0.214
  N  N1245  1  0.965010  0.796850  0.417460  1.0  -0.0582
  N  N1246  1  0.953530  0.768600  0.401870  1.0  -0.2239
  N  N1247  1  0.034790  0.860000  0.459410  1.0  -0.1916
  N  N1248  1  0.050070  0.888910  0.414480  1.0  -0.0408
  N  N1249  1  0.095210  0.921510  0.397440  1.0  -0.3473
  N  N1250  1  0.949840  0.849500  0.315660  1.0  -0.1941
  N  N1251  1  0.960760  0.877590  0.331590  1.0  -0.056
  N  N1252  1  0.944650  0.906300  0.316650  1.0  -0.3096
  N  N1253  1  0.036380  0.852310  0.316910  1.0  -0.2467
  N  N1254  1  0.050510  0.882630  0.331660  1.0  -0.0597
  N  N1255  1  0.093660  0.913590  0.316150  1.0  -0.1856
  N  N1256  1  0.030750  0.997460  0.309090  1.0  -0.225
  N  N1257  1  0.047140  0.969600  0.325060  1.0  -0.0606
  N  N1258  1  0.090780  0.998990  0.309050  1.0  -0.234
  N  N1259  1  0.813000  0.353900  0.092700  1.0  -0.1104
  N  N1260  1  0.797180  0.383300  0.078920  1.0  -0.1123
  N  N1261  1  0.808320  0.409700  0.033780  1.0  -0.1731
  N  N1262  1  0.731960  0.270100  0.181940  1.0  -0.2113
  N  N1263  1  0.714310  0.296850  0.168160  1.0  -0.0573
  N  N1264  1  0.670470  0.268600  0.184930  1.0  -0.2253
  N  N1265  1  0.819410  0.360000  0.174790  1.0  -0.1911
  N  N1266  1  0.803390  0.388910  0.161160  1.0  -0.0412
  N  N1267  1  0.818950  0.421510  0.173700  1.0  -0.3462
  N  N1268  1  0.665160  0.349500  0.100340  1.0  -0.1932
  N  N1269  1  0.709180  0.377590  0.083170  1.0  -0.0547
  N  N1270  1  0.722950  0.406300  0.038350  1.0  -0.3089
  N  N1271  1  0.669220  0.352310  0.184070  1.0  -0.2466
  N  N1272  1  0.714290  0.382630  0.167880  1.0  -0.0607
  N  N1273  1  0.729740  0.413590  0.180070  1.0  -0.1885
  N  N1274  1  0.806550  0.497460  0.033290  1.0  -0.226
  N  N1275  1  0.794660  0.469600  0.077540  1.0  -0.0592
  N  N1276  1  0.808040  0.498990  0.091790  1.0  -0.2345
  N  N1277  1  0.040900  0.594300  0.313000  1.0  -0.1111
  N  N1278  1  0.086120  0.623900  0.297180  1.0  -0.109
  N  N1279  1  0.101380  0.657900  0.308320  1.0  -0.1744
  N  N1280  1  0.038140  0.586100  0.231960  1.0  -0.2121
  N  N1281  1  0.082540  0.617530  0.214310  1.0  -0.0563
  N  N1282  1  0.098130  0.644600  0.170470  1.0  -0.2235
  N  N1283  1  0.040590  0.505800  0.319410  1.0  -0.1924
  N  N1284  1  0.085520  0.535450  0.303390  1.0  -0.041
  N  N1285  1  0.102560  0.507350  0.318950  1.0  -0.3462
  N  N1286  1  0.184340  0.734500  0.165160  1.0  -0.195
  N  N1287  1  0.168410  0.707650  0.209180  1.0  -0.0538
  N  N1288  1  0.183350  0.738700  0.222950  1.0  -0.3097
  N  N1289  1  0.183090  0.646710  0.169220  1.0  -0.2501
  N  N1290  1  0.168340  0.617830  0.214290  1.0  -0.0586
  N  N1291  1  0.183850  0.590190  0.229740  1.0  -0.1863
  N  N1292  1  0.190910  0.660160  0.306550  1.0  -0.2251
  N  N1293  1  0.174940  0.627800  0.294660  1.0  -0.0601
  N  N1294  1  0.190950  0.600170  0.308040  1.0  -0.2347
  N  N1295  1  0.407300  0.094300  0.446600  1.0  -0.1104
  N  N1296  1  0.421080  0.123900  0.462220  1.0  -0.1124
  N  N1297  1  0.466220  0.157900  0.443480  1.0  -0.1729
  N  N1298  1  0.318060  0.086100  0.452040  1.0  -0.212
  N  N1299  1  0.331840  0.117530  0.465010  1.0  -0.0563
  N  N1300  1  0.315070  0.144600  0.453530  1.0  -0.2236
  N  N1301  1  0.325210  0.005800  0.534790  1.0  -0.1922
  N  N1302  1  0.338840  0.035450  0.550070  1.0  -0.0413
  N  N1303  1  0.326300  0.007350  0.595210  1.0  -0.3463
  N  N1304  1  0.399660  0.234500  0.449840  1.0  -0.1932
  N  N1305  1  0.416830  0.207650  0.460760  1.0  -0.055
  N  N1306  1  0.461650  0.238700  0.444650  1.0  -0.3089
  N  N1307  1  0.315930  0.146710  0.536380  1.0  -0.2478
  N  N1308  1  0.332120  0.117830  0.550510  1.0  -0.0582
  N  N1309  1  0.319930  0.090190  0.593660  1.0  -0.1865
  N  N1310  1  0.466710  0.160160  0.530750  1.0  -0.2266
  N  N1311  1  0.422460  0.127800  0.547140  1.0  -0.0599
  N  N1312  1  0.408210  0.100170  0.590780  1.0  -0.2335
  N  N1313  1  0.592700  0.905700  0.553400  1.0  -0.1098
  N  N1314  1  0.578920  0.876100  0.537780  1.0  -0.1104
  N  N1315  1  0.533780  0.842100  0.556520  1.0  -0.1738
  N  N1316  1  0.681940  0.913900  0.547960  1.0  -0.2124
  N  N1317  1  0.668160  0.882470  0.534990  1.0  -0.0577
  N  N1318  1  0.684930  0.855400  0.546470  1.0  -0.2229
  N  N1319  1  0.674790  0.994200  0.465210  1.0  -0.1932
  N  N1320  1  0.661160  0.964550  0.449930  1.0  -0.0416
  N  N1321  1  0.673700  0.992650  0.404790  1.0  -0.3475
  N  N1322  1  0.600340  0.765500  0.550160  1.0  -0.1947
  N  N1323  1  0.583170  0.792350  0.539240  1.0  -0.0548
  N  N1324  1  0.538350  0.761300  0.555350  1.0  -0.3079
  N  N1325  1  0.684070  0.853290  0.463620  1.0  -0.2476
  N  N1326  1  0.667880  0.882170  0.449490  1.0  -0.0582
  N  N1327  1  0.680070  0.909810  0.406340  1.0  -0.1849
  N  N1328  1  0.533290  0.839840  0.469250  1.0  -0.2246
  N  N1329  1  0.577540  0.872200  0.452860  1.0  -0.0588
  N  N1330  1  0.591790  0.899830  0.409220  1.0  -0.2303
  N  N1331  1  0.959100  0.405700  0.687000  1.0  -0.1108
  N  N1332  1  0.913880  0.376100  0.702820  1.0  -0.1106
  N  N1333  1  0.898620  0.342100  0.691680  1.0  -0.1745
  N  N1334  1  0.961860  0.413900  0.768040  1.0  -0.212
  N  N1335  1  0.917460  0.382470  0.785690  1.0  -0.0586
  N  N1336  1  0.901870  0.355400  0.829530  1.0  -0.2233
  N  N1337  1  0.959410  0.494200  0.680590  1.0  -0.1909
  N  N1338  1  0.914480  0.464550  0.696610  1.0  -0.0414
  N  N1339  1  0.897440  0.492650  0.681050  1.0  -0.3469
  N  N1340  1  0.815660  0.265500  0.834840  1.0  -0.1955
  N  N1341  1  0.831590  0.292350  0.790820  1.0  -0.0542
  N  N1342  1  0.816650  0.261300  0.777050  1.0  -0.3084
  N  N1343  1  0.816910  0.353290  0.830780  1.0  -0.2488
  N  N1344  1  0.831660  0.382170  0.785710  1.0  -0.059
  N  N1345  1  0.816150  0.409810  0.770260  1.0  -0.1841
  N  N1346  1  0.809090  0.339840  0.693450  1.0  -0.2262
  N  N1347  1  0.825060  0.372200  0.705340  1.0  -0.0591
  N  N1348  1  0.809050  0.399830  0.691960  1.0  -0.2339
  O  O1349  1  0.340350  0.592200  0.286450  1.0  -0.6211
  O  O1350  1  0.246600  0.391600  0.109400  1.0  -0.7071
  O  O1351  1  0.230200  0.336700  0.166900  1.0  -0.8823
  O  O1352  1  0.397500  0.652900  0.226000  1.0  -0.6315
  O  O1353  1  0.621350  0.907800  0.251850  1.0  -0.6184
  O  O1354  1  0.999000  0.108400  0.145000  1.0  -0.7024
  O  O1355  1  0.996400  0.163300  0.106500  1.0  -0.8871
  O  O1356  1  0.621100  0.847100  0.255400  1.0  -0.631
  O  O1357  1  0.248150  0.126800  0.159650  1.0  -0.6206
  O  O1358  1  0.355000  0.856000  0.253400  1.0  -0.7052
  O  O1359  1  0.393500  0.897100  0.269800  1.0  -0.8836
  O  O1360  1  0.244600  0.123500  0.102500  1.0  -0.6293
  O  O1361  1  0.213550  0.373200  0.878650  1.0  -0.6206
  O  O1362  1  0.390600  0.644000  0.501000  1.0  -0.7073
  O  O1363  1  0.333100  0.602900  0.503600  1.0  -0.8851
  O  O1364  1  0.274000  0.376500  0.878900  1.0  -0.6319
  O  O1365  1  0.659650  0.407800  0.713550  1.0  -0.6196
  O  O1366  1  0.753400  0.608400  0.890600  1.0  -0.7038
  O  O1367  1  0.769800  0.663300  0.833100  1.0  -0.8869
  O  O1368  1  0.602500  0.347100  0.774000  1.0  -0.632
  O  O1369  1  0.378650  0.092200  0.748150  1.0  -0.6186
  O  O1370  1  0.001000  0.891600  0.855000  1.0  -0.7071
  O  O1371  1  0.003600  0.836700  0.893500  1.0  -0.8806
  O  O1372  1  0.378900  0.152900  0.744600  1.0  -0.6323
  O  O1373  1  0.751850  0.873200  0.840350  1.0  -0.6211
  O  O1374  1  0.645000  0.144000  0.746600  1.0  -0.7063
  O  O1375  1  0.606500  0.102900  0.730200  1.0  -0.8843
  O  O1376  1  0.755400  0.876500  0.897500  1.0  -0.6287
  O  O1377  1  0.786450  0.626800  0.121350  1.0  -0.6206
  O  O1378  1  0.609400  0.356000  0.499000  1.0  -0.7062
  O  O1379  1  0.666900  0.397100  0.496400  1.0  -0.8826
  O  O1380  1  0.726000  0.623500  0.121100  1.0  -0.634
  O  O1381  1  0.027170  0.254900  0.439530  1.0  -0.6305
  O  O1382  1  0.072750  0.233500  0.441350  1.0  -0.6013
  O  O1383  1  0.181700  0.481200  0.063500  1.0  -0.5975
  O  O1384  1  0.210500  0.545400  0.067700  1.0  -0.6235
  O  O1385  1  0.194430  0.754900  0.772270  1.0  -0.6303
  O  O1386  1  0.174850  0.733500  0.839250  1.0  -0.6046
  O  O1387  1  0.044700  0.981200  0.700500  1.0  -0.5934
  O  O1388  1  0.113100  0.045400  0.665100  1.0  -0.6213
  O  O1389  1  0.805570  0.245100  0.227730  1.0  -0.6318
  O  O1390  1  0.825150  0.266500  0.160750  1.0  -0.5999
  O  O1391  1  0.955300  0.018800  0.299500  1.0  -0.5953
  O  O1392  1  0.886900  0.954600  0.334900  1.0  -0.6221
  O  O1393  1  0.972830  0.745100  0.560470  1.0  -0.631
  O  O1394  1  0.927250  0.766500  0.558650  1.0  -0.6035
  O  O1395  1  0.818300  0.518800  0.936500  1.0  -0.597
  O  O1396  1  0.789500  0.454600  0.932300  1.0  -0.6235
  O  O1397  1  0.272270  0.966700  0.472830  1.0  -0.6298
  O  O1398  1  0.339250  0.014100  0.427250  1.0  -0.6012
  O  O1399  1  0.200500  0.745200  0.318300  1.0  -0.5934
  O  O1400  1  0.165100  0.778200  0.289500  1.0  -0.6174
  O  O1401  1  0.939530  0.466700  0.305570  1.0  -0.6302
  O  O1402  1  0.941350  0.514100  0.325150  1.0  -0.6029
  O  O1403  1  0.563500  0.245200  0.455300  1.0  -0.5943
  O  O1404  1  0.567700  0.278200  0.386900  1.0  -0.6178
  O  O1405  1  0.060470  0.533300  0.694430  1.0  -0.6306
  O  O1406  1  0.058650  0.485900  0.674850  1.0  -0.5983
  O  O1407  1  0.436500  0.754800  0.544700  1.0  -0.5968
  O  O1408  1  0.432300  0.721800  0.613100  1.0  -0.6182
  O  O1409  1  0.727730  0.033300  0.527170  1.0  -0.6279
  O  O1410  1  0.660750  0.985900  0.572750  1.0  -0.6021
  O  O1411  1  0.799500  0.254800  0.681700  1.0  -0.592
  O  O1412  1  0.834900  0.221800  0.710500  1.0  -0.6201
