# generated using pymatgen
data_Cu2H3C8SO8
_symmetry_space_group_name_H-M   'P 1'
_cell_length_a   24.74800000
_cell_length_b   32.35400000
_cell_length_c   21.71200000
_cell_angle_alpha   90.00000000
_cell_angle_beta   90.00000000
_cell_angle_gamma   90.00000000
_symmetry_Int_Tables_number   1
_chemical_formula_structural   Cu2H3C8SO8
_chemical_formula_sum   'Cu64 H96 C256 S32 O256'
_cell_volume   17384.72874790
_cell_formula_units_Z   32
loop_
 _symmetry_equiv_pos_site_id
 _symmetry_equiv_pos_as_xyz
  1  'x, y, z'
loop_
 _atom_site_type_symbol
 _atom_site_label
 _atom_site_symmetry_multiplicity
 _atom_site_fract_x
 _atom_site_fract_y
 _atom_site_fract_z
 _atom_site_occupancy
 _atom_site_charge
  Cu  Cu1  1  0.508080  0.245790  0.945050  1.0  1.1239
  Cu  Cu2  1  0.823470  0.423760  0.263190  1.0  1.0018
  Cu  Cu3  1  0.577670  0.323980  0.013910  1.0  1.0114
  Cu  Cu4  1  0.506000  0.246230  0.083460  1.0  1.0557
  Cu  Cu5  1  0.508080  0.745790  0.445050  1.0  1.1239
  Cu  Cu6  1  0.823470  0.923760  0.763190  1.0  1.0018
  Cu  Cu7  1  0.577670  0.823980  0.513910  1.0  1.0114
  Cu  Cu8  1  0.506000  0.746230  0.583460  1.0  1.0557
  Cu  Cu9  1  0.008080  0.245790  0.445050  1.0  1.1239
  Cu  Cu10  1  0.323470  0.423760  0.763190  1.0  1.0018
  Cu  Cu11  1  0.077670  0.323980  0.513910  1.0  1.0114
  Cu  Cu12  1  0.006000  0.246230  0.583460  1.0  1.0557
  Cu  Cu13  1  0.008080  0.745790  0.945050  1.0  1.1239
  Cu  Cu14  1  0.323470  0.923760  0.263190  1.0  1.0018
  Cu  Cu15  1  0.077670  0.823980  0.013910  1.0  1.0114
  Cu  Cu16  1  0.006000  0.746230  0.083460  1.0  1.0557
  Cu  Cu17  1  0.491920  0.754210  0.945050  1.0  1.1234
  Cu  Cu18  1  0.176530  0.576240  0.263190  1.0  1.0038
  Cu  Cu19  1  0.422330  0.676020  0.013910  1.0  1.0122
  Cu  Cu20  1  0.494000  0.753770  0.083460  1.0  1.056
  Cu  Cu21  1  0.491920  0.254210  0.445050  1.0  1.1234
  Cu  Cu22  1  0.176530  0.076240  0.763190  1.0  1.0038
  Cu  Cu23  1  0.422330  0.176020  0.513910  1.0  1.0122
  Cu  Cu24  1  0.494000  0.253770  0.583460  1.0  1.056
  Cu  Cu25  1  0.991920  0.754210  0.445050  1.0  1.1234
  Cu  Cu26  1  0.676530  0.576240  0.763190  1.0  1.0038
  Cu  Cu27  1  0.922330  0.676020  0.513910  1.0  1.0122
  Cu  Cu28  1  0.994000  0.753770  0.583460  1.0  1.056
  Cu  Cu29  1  0.991920  0.254210  0.945050  1.0  1.1234
  Cu  Cu30  1  0.676530  0.076240  0.263190  1.0  1.0038
  Cu  Cu31  1  0.922330  0.176020  0.013910  1.0  1.0122
  Cu  Cu32  1  0.994000  0.253770  0.083460  1.0  1.056
  Cu  Cu33  1  0.758080  0.004210  0.195050  1.0  1.1239
  Cu  Cu34  1  0.073470  0.826240  0.513190  1.0  1.002
  Cu  Cu35  1  0.827670  0.926020  0.263910  1.0  1.0096
  Cu  Cu36  1  0.756000  0.003770  0.333460  1.0  1.0556
  Cu  Cu37  1  0.758080  0.504210  0.695050  1.0  1.1239
  Cu  Cu38  1  0.073470  0.326240  0.013190  1.0  1.002
  Cu  Cu39  1  0.827670  0.426020  0.763910  1.0  1.0096
  Cu  Cu40  1  0.756000  0.503770  0.833460  1.0  1.0556
  Cu  Cu41  1  0.258080  0.004210  0.695050  1.0  1.1239
  Cu  Cu42  1  0.573470  0.826240  0.013190  1.0  1.002
  Cu  Cu43  1  0.327670  0.926020  0.763910  1.0  1.0096
  Cu  Cu44  1  0.256000  0.003770  0.833460  1.0  1.0556
  Cu  Cu45  1  0.258080  0.504210  0.195050  1.0  1.1239
  Cu  Cu46  1  0.573470  0.326240  0.513190  1.0  1.002
  Cu  Cu47  1  0.327670  0.426020  0.263910  1.0  1.0096
  Cu  Cu48  1  0.256000  0.503770  0.333460  1.0  1.0556
  Cu  Cu49  1  0.741920  0.495790  0.195050  1.0  1.1234
  Cu  Cu50  1  0.426530  0.673760  0.513190  1.0  1.0044
  Cu  Cu51  1  0.672330  0.573980  0.263910  1.0  1.0133
  Cu  Cu52  1  0.744000  0.496230  0.333460  1.0  1.0561
  Cu  Cu53  1  0.741920  0.995790  0.695050  1.0  1.1234
  Cu  Cu54  1  0.426530  0.173760  0.013190  1.0  1.0044
  Cu  Cu55  1  0.672330  0.073980  0.763910  1.0  1.0133
  Cu  Cu56  1  0.744000  0.996230  0.833460  1.0  1.0561
  Cu  Cu57  1  0.241920  0.495790  0.695050  1.0  1.1234
  Cu  Cu58  1  0.926530  0.673760  0.013190  1.0  1.0044
  Cu  Cu59  1  0.172330  0.573980  0.763910  1.0  1.0133
  Cu  Cu60  1  0.244000  0.496230  0.833460  1.0  1.0561
  Cu  Cu61  1  0.241920  0.995790  0.195050  1.0  1.1234
  Cu  Cu62  1  0.926530  0.173760  0.513190  1.0  1.0044
  Cu  Cu63  1  0.172330  0.073980  0.263910  1.0  1.0133
  Cu  Cu64  1  0.244000  0.996230  0.333460  1.0  1.0561
  H  H65  1  0.542800  0.288400  0.261500  1.0  0.1383
  H  H66  1  0.639700  0.365400  0.358000  1.0  0.1494
  H  H67  1  0.636100  0.370700  0.174100  1.0  0.1467
  H  H68  1  0.881100  0.378600  0.422500  1.0  0.1285
  H  H69  1  0.799200  0.463400  0.513000  1.0  0.142
  H  H70  1  0.899700  0.386100  0.606200  1.0  0.1437
  H  H71  1  0.542800  0.788400  0.761500  1.0  0.1383
  H  H72  1  0.639700  0.865400  0.858000  1.0  0.1494
  H  H73  1  0.636100  0.870700  0.674100  1.0  0.1467
  H  H74  1  0.881100  0.878600  0.922500  1.0  0.1285
  H  H75  1  0.799200  0.963400  0.013000  1.0  0.142
  H  H76  1  0.899700  0.886100  0.106200  1.0  0.1437
  H  H77  1  0.042800  0.288400  0.761500  1.0  0.1383
  H  H78  1  0.139700  0.365400  0.858000  1.0  0.1494
  H  H79  1  0.136100  0.370700  0.674100  1.0  0.1467
  H  H80  1  0.381100  0.378600  0.922500  1.0  0.1285
  H  H81  1  0.299200  0.463400  0.013000  1.0  0.142
  H  H82  1  0.399700  0.386100  0.106200  1.0  0.1437
  H  H83  1  0.042800  0.788400  0.261500  1.0  0.1383
  H  H84  1  0.139700  0.865400  0.358000  1.0  0.1494
  H  H85  1  0.136100  0.870700  0.174100  1.0  0.1467
  H  H86  1  0.381100  0.878600  0.422500  1.0  0.1285
  H  H87  1  0.299200  0.963400  0.513000  1.0  0.142
  H  H88  1  0.399700  0.886100  0.606200  1.0  0.1437
  H  H89  1  0.457200  0.711600  0.261500  1.0  0.1379
  H  H90  1  0.360300  0.634600  0.358000  1.0  0.1493
  H  H91  1  0.363900  0.629300  0.174100  1.0  0.147
  H  H92  1  0.118900  0.621400  0.422500  1.0  0.1287
  H  H93  1  0.200800  0.536600  0.513000  1.0  0.1412
  H  H94  1  0.100300  0.613900  0.606200  1.0  0.1441
  H  H95  1  0.457200  0.211600  0.761500  1.0  0.1379
  H  H96  1  0.360300  0.134600  0.858000  1.0  0.1493
  H  H97  1  0.363900  0.129300  0.674100  1.0  0.147
  H  H98  1  0.118900  0.121400  0.922500  1.0  0.1287
  H  H99  1  0.200800  0.036600  0.013000  1.0  0.1412
  H  H100  1  0.100300  0.113900  0.106200  1.0  0.1441
  H  H101  1  0.957200  0.711600  0.761500  1.0  0.1379
  H  H102  1  0.860300  0.634600  0.858000  1.0  0.1493
  H  H103  1  0.863900  0.629300  0.674100  1.0  0.147
  H  H104  1  0.618900  0.621400  0.922500  1.0  0.1287
  H  H105  1  0.700800  0.536600  0.013000  1.0  0.1412
  H  H106  1  0.600300  0.613900  0.106200  1.0  0.1441
  H  H107  1  0.957200  0.211600  0.261500  1.0  0.1379
  H  H108  1  0.860300  0.134600  0.358000  1.0  0.1493
  H  H109  1  0.863900  0.129300  0.174100  1.0  0.147
  H  H110  1  0.618900  0.121400  0.422500  1.0  0.1287
  H  H111  1  0.700800  0.036600  0.513000  1.0  0.1412
  H  H112  1  0.600300  0.113900  0.606200  1.0  0.1441
  H  H113  1  0.792800  0.961600  0.511500  1.0  0.1384
  H  H114  1  0.889700  0.884600  0.608000  1.0  0.1491
  H  H115  1  0.886100  0.879300  0.424100  1.0  0.147
  H  H116  1  0.131100  0.871400  0.672500  1.0  0.1284
  H  H117  1  0.049200  0.786600  0.763000  1.0  0.1413
  H  H118  1  0.149700  0.863900  0.856200  1.0  0.1436
  H  H119  1  0.792800  0.461600  0.011500  1.0  0.1384
  H  H120  1  0.889700  0.384600  0.108000  1.0  0.1491
  H  H121  1  0.886100  0.379300  0.924100  1.0  0.147
  H  H122  1  0.131100  0.371400  0.172500  1.0  0.1284
  H  H123  1  0.049200  0.286600  0.263000  1.0  0.1413
  H  H124  1  0.149700  0.363900  0.356200  1.0  0.1436
  H  H125  1  0.292800  0.961600  0.011500  1.0  0.1384
  H  H126  1  0.389700  0.884600  0.108000  1.0  0.1491
  H  H127  1  0.386100  0.879300  0.924100  1.0  0.147
  H  H128  1  0.631100  0.871400  0.172500  1.0  0.1284
  H  H129  1  0.549200  0.786600  0.263000  1.0  0.1413
  H  H130  1  0.649700  0.863900  0.356200  1.0  0.1436
  H  H131  1  0.292800  0.461600  0.511500  1.0  0.1384
  H  H132  1  0.389700  0.384600  0.608000  1.0  0.1491
  H  H133  1  0.386100  0.379300  0.424100  1.0  0.147
  H  H134  1  0.631100  0.371400  0.672500  1.0  0.1284
  H  H135  1  0.549200  0.286600  0.763000  1.0  0.1413
  H  H136  1  0.649700  0.363900  0.856200  1.0  0.1436
  H  H137  1  0.707200  0.538400  0.511500  1.0  0.1381
  H  H138  1  0.610300  0.615400  0.608000  1.0  0.1496
  H  H139  1  0.613900  0.620700  0.424100  1.0  0.1467
  H  H140  1  0.368900  0.628600  0.672500  1.0  0.1289
  H  H141  1  0.450800  0.713400  0.763000  1.0  0.1416
  H  H142  1  0.350300  0.636100  0.856200  1.0  0.1442
  H  H143  1  0.707200  0.038400  0.011500  1.0  0.1381
  H  H144  1  0.610300  0.115400  0.108000  1.0  0.1496
  H  H145  1  0.613900  0.120700  0.924100  1.0  0.1467
  H  H146  1  0.368900  0.128600  0.172500  1.0  0.1289
  H  H147  1  0.450800  0.213400  0.263000  1.0  0.1416
  H  H148  1  0.350300  0.136100  0.356200  1.0  0.1442
  H  H149  1  0.207200  0.538400  0.011500  1.0  0.1381
  H  H150  1  0.110300  0.615400  0.108000  1.0  0.1496
  H  H151  1  0.113900  0.620700  0.924100  1.0  0.1467
  H  H152  1  0.868900  0.628600  0.172500  1.0  0.1289
  H  H153  1  0.950800  0.713400  0.263000  1.0  0.1416
  H  H154  1  0.850300  0.636100  0.356200  1.0  0.1442
  H  H155  1  0.207200  0.038400  0.511500  1.0  0.1381
  H  H156  1  0.110300  0.115400  0.608000  1.0  0.1496
  H  H157  1  0.113900  0.120700  0.424100  1.0  0.1467
  H  H158  1  0.868900  0.128600  0.672500  1.0  0.1289
  H  H159  1  0.950800  0.213400  0.763000  1.0  0.1416
  H  H160  1  0.850300  0.136100  0.856200  1.0  0.1442
  C  C161  1  0.591400  0.322900  0.208900  1.0  -0.136
  C  C162  1  0.568500  0.309300  0.262800  1.0  0.0093
  C  C163  1  0.583200  0.326300  0.320100  1.0  -0.1125
  C  C164  1  0.624800  0.356500  0.321000  1.0  0.0022
  C  C165  1  0.642500  0.372300  0.265500  1.0  -0.0603
  C  C166  1  0.625500  0.357800  0.210400  1.0  0.0381
  C  C167  1  0.570700  0.306700  0.149800  1.0  0.7305
  C  C168  1  0.565500  0.309700  0.382000  1.0  0.7782
  C  C169  1  0.825400  0.444300  0.631700  1.0  0.7743
  C  C170  1  0.816400  0.438800  0.400600  1.0  0.7142
  C  C171  1  0.873900  0.391800  0.459600  1.0  -0.0042
  C  C172  1  0.840900  0.424700  0.459300  1.0  -0.1323
  C  C173  1  0.823200  0.441300  0.513400  1.0  -0.0102
  C  C174  1  0.841200  0.424800  0.570200  1.0  -0.1074
  C  C175  1  0.883000  0.394000  0.569700  1.0  0.0195
  C  C176  1  0.898200  0.376300  0.513900  1.0  -0.1769
  C  C177  1  0.591400  0.822900  0.708900  1.0  -0.136
  C  C178  1  0.568500  0.809300  0.762800  1.0  0.0093
  C  C179  1  0.583200  0.826300  0.820100  1.0  -0.1125
  C  C180  1  0.624800  0.856500  0.821000  1.0  0.0022
  C  C181  1  0.642500  0.872300  0.765500  1.0  -0.0603
  C  C182  1  0.625500  0.857800  0.710400  1.0  0.0381
  C  C183  1  0.570700  0.806700  0.649800  1.0  0.7305
  C  C184  1  0.565500  0.809700  0.882000  1.0  0.7782
  C  C185  1  0.825400  0.944300  0.131700  1.0  0.7743
  C  C186  1  0.816400  0.938800  0.900600  1.0  0.7142
  C  C187  1  0.873900  0.891800  0.959600  1.0  -0.0042
  C  C188  1  0.840900  0.924700  0.959300  1.0  -0.1323
  C  C189  1  0.823200  0.941300  0.013400  1.0  -0.0102
  C  C190  1  0.841200  0.924800  0.070200  1.0  -0.1074
  C  C191  1  0.883000  0.894000  0.069700  1.0  0.0195
  C  C192  1  0.898200  0.876300  0.013900  1.0  -0.1769
  C  C193  1  0.091400  0.322900  0.708900  1.0  -0.136
  C  C194  1  0.068500  0.309300  0.762800  1.0  0.0093
  C  C195  1  0.083200  0.326300  0.820100  1.0  -0.1125
  C  C196  1  0.124800  0.356500  0.821000  1.0  0.0022
  C  C197  1  0.142500  0.372300  0.765500  1.0  -0.0603
  C  C198  1  0.125500  0.357800  0.710400  1.0  0.0381
  C  C199  1  0.070700  0.306700  0.649800  1.0  0.7305
  C  C200  1  0.065500  0.309700  0.882000  1.0  0.7782
  C  C201  1  0.325400  0.444300  0.131700  1.0  0.7743
  C  C202  1  0.316400  0.438800  0.900600  1.0  0.7142
  C  C203  1  0.373900  0.391800  0.959600  1.0  -0.0042
  C  C204  1  0.340900  0.424700  0.959300  1.0  -0.1323
  C  C205  1  0.323200  0.441300  0.013400  1.0  -0.0102
  C  C206  1  0.341200  0.424800  0.070200  1.0  -0.1074
  C  C207  1  0.383000  0.394000  0.069700  1.0  0.0195
  C  C208  1  0.398200  0.376300  0.013900  1.0  -0.1769
  C  C209  1  0.091400  0.822900  0.208900  1.0  -0.136
  C  C210  1  0.068500  0.809300  0.262800  1.0  0.0093
  C  C211  1  0.083200  0.826300  0.320100  1.0  -0.1125
  C  C212  1  0.124800  0.856500  0.321000  1.0  0.0022
  C  C213  1  0.142500  0.872300  0.265500  1.0  -0.0603
  C  C214  1  0.125500  0.857800  0.210400  1.0  0.0381
  C  C215  1  0.070700  0.806700  0.149800  1.0  0.7305
  C  C216  1  0.065500  0.809700  0.382000  1.0  0.7782
  C  C217  1  0.325400  0.944300  0.631700  1.0  0.7743
  C  C218  1  0.316400  0.938800  0.400600  1.0  0.7142
  C  C219  1  0.373900  0.891800  0.459600  1.0  -0.0042
  C  C220  1  0.340900  0.924700  0.459300  1.0  -0.1323
  C  C221  1  0.323200  0.941300  0.513400  1.0  -0.0102
  C  C222  1  0.341200  0.924800  0.570200  1.0  -0.1074
  C  C223  1  0.383000  0.894000  0.569700  1.0  0.0195
  C  C224  1  0.398200  0.876300  0.513900  1.0  -0.1769
  C  C225  1  0.408600  0.677100  0.208900  1.0  -0.1353
  C  C226  1  0.431500  0.690700  0.262800  1.0  0.0082
  C  C227  1  0.416800  0.673700  0.320100  1.0  -0.1122
  C  C228  1  0.375200  0.643500  0.321000  1.0  0.0027
  C  C229  1  0.357500  0.627700  0.265500  1.0  -0.0596
  C  C230  1  0.374500  0.642200  0.210400  1.0  0.039
  C  C231  1  0.429300  0.693300  0.149800  1.0  0.7305
  C  C232  1  0.434500  0.690300  0.382000  1.0  0.7779
  C  C233  1  0.174600  0.555700  0.631700  1.0  0.7731
  C  C234  1  0.183600  0.561200  0.400600  1.0  0.7155
  C  C235  1  0.126100  0.608200  0.459600  1.0  -0.0043
  C  C236  1  0.159100  0.575300  0.459300  1.0  -0.132
  C  C237  1  0.176800  0.558700  0.513400  1.0  -0.0095
  C  C238  1  0.158800  0.575200  0.570200  1.0  -0.1064
  C  C239  1  0.117000  0.606000  0.569700  1.0  0.0193
  C  C240  1  0.101800  0.623700  0.513900  1.0  -0.1767
  C  C241  1  0.408600  0.177100  0.708900  1.0  -0.1353
  C  C242  1  0.431500  0.190700  0.762800  1.0  0.0082
  C  C243  1  0.416800  0.173700  0.820100  1.0  -0.1122
  C  C244  1  0.375200  0.143500  0.821000  1.0  0.0027
  C  C245  1  0.357500  0.127700  0.765500  1.0  -0.0596
  C  C246  1  0.374500  0.142200  0.710400  1.0  0.039
  C  C247  1  0.429300  0.193300  0.649800  1.0  0.7305
  C  C248  1  0.434500  0.190300  0.882000  1.0  0.7779
  C  C249  1  0.174600  0.055700  0.131700  1.0  0.7731
  C  C250  1  0.183600  0.061200  0.900600  1.0  0.7155
  C  C251  1  0.126100  0.108200  0.959600  1.0  -0.0043
  C  C252  1  0.159100  0.075300  0.959300  1.0  -0.132
  C  C253  1  0.176800  0.058700  0.013400  1.0  -0.0095
  C  C254  1  0.158800  0.075200  0.070200  1.0  -0.1064
  C  C255  1  0.117000  0.106000  0.069700  1.0  0.0193
  C  C256  1  0.101800  0.123700  0.013900  1.0  -0.1767
  C  C257  1  0.908600  0.677100  0.708900  1.0  -0.1353
  C  C258  1  0.931500  0.690700  0.762800  1.0  0.0082
  C  C259  1  0.916800  0.673700  0.820100  1.0  -0.1122
  C  C260  1  0.875200  0.643500  0.821000  1.0  0.0027
  C  C261  1  0.857500  0.627700  0.765500  1.0  -0.0596
  C  C262  1  0.874500  0.642200  0.710400  1.0  0.039
  C  C263  1  0.929300  0.693300  0.649800  1.0  0.7305
  C  C264  1  0.934500  0.690300  0.882000  1.0  0.7779
  C  C265  1  0.674600  0.555700  0.131700  1.0  0.7731
  C  C266  1  0.683600  0.561200  0.900600  1.0  0.7155
  C  C267  1  0.626100  0.608200  0.959600  1.0  -0.0043
  C  C268  1  0.659100  0.575300  0.959300  1.0  -0.132
  C  C269  1  0.676800  0.558700  0.013400  1.0  -0.0095
  C  C270  1  0.658800  0.575200  0.070200  1.0  -0.1064
  C  C271  1  0.617000  0.606000  0.069700  1.0  0.0193
  C  C272  1  0.601800  0.623700  0.013900  1.0  -0.1767
  C  C273  1  0.908600  0.177100  0.208900  1.0  -0.1353
  C  C274  1  0.931500  0.190700  0.262800  1.0  0.0082
  C  C275  1  0.916800  0.173700  0.320100  1.0  -0.1122
  C  C276  1  0.875200  0.143500  0.321000  1.0  0.0027
  C  C277  1  0.857500  0.127700  0.265500  1.0  -0.0596
  C  C278  1  0.874500  0.142200  0.210400  1.0  0.039
  C  C279  1  0.929300  0.193300  0.149800  1.0  0.7305
  C  C280  1  0.934500  0.190300  0.382000  1.0  0.7779
  C  C281  1  0.674600  0.055700  0.631700  1.0  0.7731
  C  C282  1  0.683600  0.061200  0.400600  1.0  0.7155
  C  C283  1  0.626100  0.108200  0.459600  1.0  -0.0043
  C  C284  1  0.659100  0.075300  0.459300  1.0  -0.132
  C  C285  1  0.676800  0.058700  0.513400  1.0  -0.0095
  C  C286  1  0.658800  0.075200  0.570200  1.0  -0.1064
  C  C287  1  0.617000  0.106000  0.569700  1.0  0.0193
  C  C288  1  0.601800  0.123700  0.513900  1.0  -0.1767
  C  C289  1  0.841400  0.927100  0.458900  1.0  -0.1358
  C  C290  1  0.818500  0.940700  0.512800  1.0  0.0086
  C  C291  1  0.833200  0.923700  0.570100  1.0  -0.1125
  C  C292  1  0.874800  0.893500  0.571000  1.0  0.0029
  C  C293  1  0.892500  0.877700  0.515500  1.0  -0.0595
  C  C294  1  0.875500  0.892200  0.460400  1.0  0.0381
  C  C295  1  0.820700  0.943300  0.399800  1.0  0.7305
  C  C296  1  0.815500  0.940300  0.632000  1.0  0.7781
  C  C297  1  0.075400  0.805700  0.881700  1.0  0.7746
  C  C298  1  0.066400  0.811200  0.650600  1.0  0.7145
  C  C299  1  0.123900  0.858200  0.709600  1.0  -0.0047
  C  C300  1  0.090900  0.825300  0.709300  1.0  -0.1326
  C  C301  1  0.073200  0.808700  0.763400  1.0  -0.009
  C  C302  1  0.091200  0.825200  0.820200  1.0  -0.1075
  C  C303  1  0.133000  0.856000  0.819700  1.0  0.0198
  C  C304  1  0.148200  0.873700  0.763900  1.0  -0.1769
  C  C305  1  0.841400  0.427100  0.958900  1.0  -0.1358
  C  C306  1  0.818500  0.440700  0.012800  1.0  0.0086
  C  C307  1  0.833200  0.423700  0.070100  1.0  -0.1125
  C  C308  1  0.874800  0.393500  0.071000  1.0  0.0029
  C  C309  1  0.892500  0.377700  0.015500  1.0  -0.0595
  C  C310  1  0.875500  0.392200  0.960400  1.0  0.0381
  C  C311  1  0.820700  0.443300  0.899800  1.0  0.7305
  C  C312  1  0.815500  0.440300  0.132000  1.0  0.7781
  C  C313  1  0.075400  0.305700  0.381700  1.0  0.7746
  C  C314  1  0.066400  0.311200  0.150600  1.0  0.7145
  C  C315  1  0.123900  0.358200  0.209600  1.0  -0.0047
  C  C316  1  0.090900  0.325300  0.209300  1.0  -0.1326
  C  C317  1  0.073200  0.308700  0.263400  1.0  -0.009
  C  C318  1  0.091200  0.325200  0.320200  1.0  -0.1075
  C  C319  1  0.133000  0.356000  0.319700  1.0  0.0198
  C  C320  1  0.148200  0.373700  0.263900  1.0  -0.1769
  C  C321  1  0.341400  0.927100  0.958900  1.0  -0.1358
  C  C322  1  0.318500  0.940700  0.012800  1.0  0.0086
  C  C323  1  0.333200  0.923700  0.070100  1.0  -0.1125
  C  C324  1  0.374800  0.893500  0.071000  1.0  0.0029
  C  C325  1  0.392500  0.877700  0.015500  1.0  -0.0595
  C  C326  1  0.375500  0.892200  0.960400  1.0  0.0381
  C  C327  1  0.320700  0.943300  0.899800  1.0  0.7305
  C  C328  1  0.315500  0.940300  0.132000  1.0  0.7781
  C  C329  1  0.575400  0.805700  0.381700  1.0  0.7746
  C  C330  1  0.566400  0.811200  0.150600  1.0  0.7145
  C  C331  1  0.623900  0.858200  0.209600  1.0  -0.0047
  C  C332  1  0.590900  0.825300  0.209300  1.0  -0.1326
  C  C333  1  0.573200  0.808700  0.263400  1.0  -0.009
  C  C334  1  0.591200  0.825200  0.320200  1.0  -0.1075
  C  C335  1  0.633000  0.856000  0.319700  1.0  0.0198
  C  C336  1  0.648200  0.873700  0.263900  1.0  -0.1769
  C  C337  1  0.341400  0.427100  0.458900  1.0  -0.1358
  C  C338  1  0.318500  0.440700  0.512800  1.0  0.0086
  C  C339  1  0.333200  0.423700  0.570100  1.0  -0.1125
  C  C340  1  0.374800  0.393500  0.571000  1.0  0.0029
  C  C341  1  0.392500  0.377700  0.515500  1.0  -0.0595
  C  C342  1  0.375500  0.392200  0.460400  1.0  0.0381
  C  C343  1  0.320700  0.443300  0.399800  1.0  0.7305
  C  C344  1  0.315500  0.440300  0.632000  1.0  0.7781
  C  C345  1  0.575400  0.305700  0.881700  1.0  0.7746
  C  C346  1  0.566400  0.311200  0.650600  1.0  0.7145
  C  C347  1  0.623900  0.358200  0.709600  1.0  -0.0047
  C  C348  1  0.590900  0.325300  0.709300  1.0  -0.1326
  C  C349  1  0.573200  0.308700  0.763400  1.0  -0.009
  C  C350  1  0.591200  0.325200  0.820200  1.0  -0.1075
  C  C351  1  0.633000  0.356000  0.819700  1.0  0.0198
  C  C352  1  0.648200  0.373700  0.763900  1.0  -0.1769
  C  C353  1  0.658600  0.572900  0.458900  1.0  -0.1359
  C  C354  1  0.681500  0.559300  0.512800  1.0  0.0089
  C  C355  1  0.666800  0.576300  0.570100  1.0  -0.1123
  C  C356  1  0.625200  0.606500  0.571000  1.0  0.0021
  C  C357  1  0.607500  0.622300  0.515500  1.0  -0.0599
  C  C358  1  0.624500  0.607800  0.460400  1.0  0.0388
  C  C359  1  0.679300  0.556700  0.399800  1.0  0.7307
  C  C360  1  0.684500  0.559700  0.632000  1.0  0.7778
  C  C361  1  0.424600  0.694300  0.881700  1.0  0.773
  C  C362  1  0.433600  0.688800  0.650600  1.0  0.7152
  C  C363  1  0.376100  0.641800  0.709600  1.0  -0.0033
  C  C364  1  0.409100  0.674700  0.709300  1.0  -0.1318
  C  C365  1  0.426800  0.691300  0.763400  1.0  -0.01
  C  C366  1  0.408800  0.674800  0.820200  1.0  -0.1062
  C  C367  1  0.367000  0.644000  0.819700  1.0  0.0191
  C  C368  1  0.351800  0.626300  0.763900  1.0  -0.1769
  C  C369  1  0.658600  0.072900  0.958900  1.0  -0.1359
  C  C370  1  0.681500  0.059300  0.012800  1.0  0.0089
  C  C371  1  0.666800  0.076300  0.070100  1.0  -0.1123
  C  C372  1  0.625200  0.106500  0.071000  1.0  0.0021
  C  C373  1  0.607500  0.122300  0.015500  1.0  -0.0599
  C  C374  1  0.624500  0.107800  0.960400  1.0  0.0388
  C  C375  1  0.679300  0.056700  0.899800  1.0  0.7307
  C  C376  1  0.684500  0.059700  0.132000  1.0  0.7778
  C  C377  1  0.424600  0.194300  0.381700  1.0  0.773
  C  C378  1  0.433600  0.188800  0.150600  1.0  0.7152
  C  C379  1  0.376100  0.141800  0.209600  1.0  -0.0033
  C  C380  1  0.409100  0.174700  0.209300  1.0  -0.1318
  C  C381  1  0.426800  0.191300  0.263400  1.0  -0.01
  C  C382  1  0.408800  0.174800  0.320200  1.0  -0.1062
  C  C383  1  0.367000  0.144000  0.319700  1.0  0.0191
  C  C384  1  0.351800  0.126300  0.263900  1.0  -0.1769
  C  C385  1  0.158600  0.572900  0.958900  1.0  -0.1359
  C  C386  1  0.181500  0.559300  0.012800  1.0  0.0089
  C  C387  1  0.166800  0.576300  0.070100  1.0  -0.1123
  C  C388  1  0.125200  0.606500  0.071000  1.0  0.0021
  C  C389  1  0.107500  0.622300  0.015500  1.0  -0.0599
  C  C390  1  0.124500  0.607800  0.960400  1.0  0.0388
  C  C391  1  0.179300  0.556700  0.899800  1.0  0.7307
  C  C392  1  0.184500  0.559700  0.132000  1.0  0.7778
  C  C393  1  0.924600  0.694300  0.381700  1.0  0.773
  C  C394  1  0.933600  0.688800  0.150600  1.0  0.7152
  C  C395  1  0.876100  0.641800  0.209600  1.0  -0.0033
  C  C396  1  0.909100  0.674700  0.209300  1.0  -0.1318
  C  C397  1  0.926800  0.691300  0.263400  1.0  -0.01
  C  C398  1  0.908800  0.674800  0.320200  1.0  -0.1062
  C  C399  1  0.867000  0.644000  0.319700  1.0  0.0191
  C  C400  1  0.851800  0.626300  0.263900  1.0  -0.1769
  C  C401  1  0.158600  0.072900  0.458900  1.0  -0.1359
  C  C402  1  0.181500  0.059300  0.512800  1.0  0.0089
  C  C403  1  0.166800  0.076300  0.570100  1.0  -0.1123
  C  C404  1  0.125200  0.106500  0.571000  1.0  0.0021
  C  C405  1  0.107500  0.122300  0.515500  1.0  -0.0599
  C  C406  1  0.124500  0.107800  0.460400  1.0  0.0388
  C  C407  1  0.179300  0.056700  0.399800  1.0  0.7307
  C  C408  1  0.184500  0.059700  0.632000  1.0  0.7778
  C  C409  1  0.924600  0.194300  0.881700  1.0  0.773
  C  C410  1  0.933600  0.188800  0.650600  1.0  0.7152
  C  C411  1  0.876100  0.141800  0.709600  1.0  -0.0033
  C  C412  1  0.909100  0.174700  0.709300  1.0  -0.1318
  C  C413  1  0.926800  0.191300  0.763400  1.0  -0.01
  C  C414  1  0.908800  0.174800  0.820200  1.0  -0.1062
  C  C415  1  0.867000  0.144000  0.819700  1.0  0.0191
  C  C416  1  0.851800  0.126300  0.763900  1.0  -0.1769
  S  S417  1  0.695010  0.410730  0.266800  1.0  1.3933
  S  S418  1  0.946470  0.336480  0.513200  1.0  1.3992
  S  S419  1  0.695010  0.910730  0.766800  1.0  1.3933
  S  S420  1  0.946470  0.836480  0.013200  1.0  1.3992
  S  S421  1  0.195010  0.410730  0.766800  1.0  1.3933
  S  S422  1  0.446470  0.336480  0.013200  1.0  1.3992
  S  S423  1  0.195010  0.910730  0.266800  1.0  1.3933
  S  S424  1  0.446470  0.836480  0.513200  1.0  1.3992
  S  S425  1  0.304990  0.589270  0.266800  1.0  1.3942
  S  S426  1  0.053530  0.663520  0.513200  1.0  1.3981
  S  S427  1  0.304990  0.089270  0.766800  1.0  1.3942
  S  S428  1  0.053530  0.163520  0.013200  1.0  1.3981
  S  S429  1  0.804990  0.589270  0.766800  1.0  1.3942
  S  S430  1  0.553530  0.663520  0.013200  1.0  1.3981
  S  S431  1  0.804990  0.089270  0.266800  1.0  1.3942
  S  S432  1  0.553530  0.163520  0.513200  1.0  1.3981
  S  S433  1  0.945010  0.839270  0.516800  1.0  1.393
  S  S434  1  0.196470  0.913520  0.763200  1.0  1.3992
  S  S435  1  0.945010  0.339270  0.016800  1.0  1.393
  S  S436  1  0.196470  0.413520  0.263200  1.0  1.3992
  S  S437  1  0.445010  0.839270  0.016800  1.0  1.393
  S  S438  1  0.696470  0.913520  0.263200  1.0  1.3992
  S  S439  1  0.445010  0.339270  0.516800  1.0  1.393
  S  S440  1  0.696470  0.413520  0.763200  1.0  1.3992
  S  S441  1  0.554990  0.660730  0.516800  1.0  1.3944
  S  S442  1  0.303530  0.586480  0.763200  1.0  1.3983
  S  S443  1  0.554990  0.160730  0.016800  1.0  1.3944
  S  S444  1  0.303530  0.086480  0.263200  1.0  1.3983
  S  S445  1  0.054990  0.660730  0.016800  1.0  1.3944
  S  S446  1  0.803530  0.586480  0.263200  1.0  1.3983
  S  S447  1  0.054990  0.160730  0.516800  1.0  1.3944
  S  S448  1  0.803530  0.086480  0.763200  1.0  1.3983
  O  O449  1  0.543300  0.274500  0.150900  1.0  -0.5557
  O  O450  1  0.593800  0.322300  0.101900  1.0  -0.6269
  O  O451  1  0.691000  0.432900  0.208800  1.0  -0.6652
  O  O452  1  0.744300  0.386810  0.273100  1.0  -0.682
  O  O453  1  0.685800  0.437300  0.320400  1.0  -0.6879
  O  O454  1  0.551600  0.267260  0.013700  1.0  -0.8111
  O  O455  1  0.459200  0.229080  0.012400  1.0  -0.8228
  O  O456  1  0.785800  0.470100  0.401200  1.0  -0.5626
  O  O457  1  0.831600  0.422100  0.676200  1.0  -0.6169
  O  O458  1  0.797100  0.475700  0.630300  1.0  -0.5514
  O  O459  1  0.533200  0.279900  0.380900  1.0  -0.55
  O  O460  1  0.575100  0.331900  0.425300  1.0  -0.5897
  O  O461  1  0.839400  0.423300  0.351300  1.0  -0.6263
  O  O462  1  0.939000  0.311600  0.568200  1.0  -0.6821
  O  O463  1  0.997000  0.357300  0.517500  1.0  -0.6056
  O  O464  1  0.939200  0.315400  0.458800  1.0  -0.5271
  O  O465  1  0.543300  0.774500  0.650900  1.0  -0.5557
  O  O466  1  0.593800  0.822300  0.601900  1.0  -0.6269
  O  O467  1  0.691000  0.932900  0.708800  1.0  -0.6652
  O  O468  1  0.744300  0.886810  0.773100  1.0  -0.682
  O  O469  1  0.685800  0.937300  0.820400  1.0  -0.6879
  O  O470  1  0.551600  0.767260  0.513700  1.0  -0.8111
  O  O471  1  0.459200  0.729080  0.512400  1.0  -0.8228
  O  O472  1  0.785800  0.970100  0.901200  1.0  -0.5626
  O  O473  1  0.831600  0.922100  0.176200  1.0  -0.6169
  O  O474  1  0.797100  0.975700  0.130300  1.0  -0.5514
  O  O475  1  0.533200  0.779900  0.880900  1.0  -0.55
  O  O476  1  0.575100  0.831900  0.925300  1.0  -0.5897
  O  O477  1  0.839400  0.923300  0.851300  1.0  -0.6263
  O  O478  1  0.939000  0.811600  0.068200  1.0  -0.6821
  O  O479  1  0.997000  0.857300  0.017500  1.0  -0.6056
  O  O480  1  0.939200  0.815400  0.958800  1.0  -0.5271
  O  O481  1  0.043300  0.274500  0.650900  1.0  -0.5557
  O  O482  1  0.093800  0.322300  0.601900  1.0  -0.6269
  O  O483  1  0.191000  0.432900  0.708800  1.0  -0.6652
  O  O484  1  0.244300  0.386810  0.773100  1.0  -0.682
  O  O485  1  0.185800  0.437300  0.820400  1.0  -0.6879
  O  O486  1  0.051600  0.267260  0.513700  1.0  -0.8111
  O  O487  1  0.959200  0.229080  0.512400  1.0  -0.8228
  O  O488  1  0.285800  0.470100  0.901200  1.0  -0.5626
  O  O489  1  0.331600  0.422100  0.176200  1.0  -0.6169
  O  O490  1  0.297100  0.475700  0.130300  1.0  -0.5514
  O  O491  1  0.033200  0.279900  0.880900  1.0  -0.55
  O  O492  1  0.075100  0.331900  0.925300  1.0  -0.5897
  O  O493  1  0.339400  0.423300  0.851300  1.0  -0.6263
  O  O494  1  0.439000  0.311600  0.068200  1.0  -0.6824
  O  O495  1  0.497000  0.357300  0.017500  1.0  -0.6056
  O  O496  1  0.439200  0.315400  0.958800  1.0  -0.5268
  O  O497  1  0.043300  0.774500  0.150900  1.0  -0.5557
  O  O498  1  0.093800  0.822300  0.101900  1.0  -0.6269
  O  O499  1  0.191000  0.932900  0.208800  1.0  -0.6652
  O  O500  1  0.244300  0.886810  0.273100  1.0  -0.682
  O  O501  1  0.185800  0.937300  0.320400  1.0  -0.6879
  O  O502  1  0.051600  0.767260  0.013700  1.0  -0.8111
  O  O503  1  0.959200  0.729080  0.012400  1.0  -0.8228
  O  O504  1  0.285800  0.970100  0.401200  1.0  -0.5626
  O  O505  1  0.331600  0.922100  0.676200  1.0  -0.6169
  O  O506  1  0.297100  0.975700  0.630300  1.0  -0.5514
  O  O507  1  0.033200  0.779900  0.380900  1.0  -0.55
  O  O508  1  0.075100  0.831900  0.425300  1.0  -0.5897
  O  O509  1  0.339400  0.923300  0.351300  1.0  -0.6263
  O  O510  1  0.439000  0.811600  0.568200  1.0  -0.6824
  O  O511  1  0.497000  0.857300  0.517500  1.0  -0.6056
  O  O512  1  0.439200  0.815400  0.458800  1.0  -0.5268
  O  O513  1  0.456700  0.725500  0.150900  1.0  -0.5565
  O  O514  1  0.406200  0.677700  0.101900  1.0  -0.6287
  O  O515  1  0.309000  0.567100  0.208800  1.0  -0.6657
  O  O516  1  0.255700  0.613190  0.273100  1.0  -0.6819
  O  O517  1  0.314200  0.562700  0.320400  1.0  -0.6863
  O  O518  1  0.448400  0.732740  0.013700  1.0  -0.8105
  O  O519  1  0.540800  0.770920  0.012400  1.0  -0.8228
  O  O520  1  0.214200  0.529900  0.401200  1.0  -0.5615
  O  O521  1  0.168400  0.577900  0.676200  1.0  -0.6178
  O  O522  1  0.202900  0.524300  0.630300  1.0  -0.5513
  O  O523  1  0.466800  0.720100  0.380900  1.0  -0.5509
  O  O524  1  0.424900  0.668100  0.425300  1.0  -0.5906
  O  O525  1  0.160600  0.576700  0.351300  1.0  -0.6264
  O  O526  1  0.061000  0.688400  0.568200  1.0  -0.6796
  O  O527  1  0.003000  0.642700  0.517500  1.0  -0.6069
  O  O528  1  0.060800  0.684600  0.458800  1.0  -0.5277
  O  O529  1  0.456700  0.225500  0.650900  1.0  -0.5565
  O  O530  1  0.406200  0.177700  0.601900  1.0  -0.6287
  O  O531  1  0.309000  0.067100  0.708800  1.0  -0.6657
  O  O532  1  0.255700  0.113190  0.773100  1.0  -0.6819
  O  O533  1  0.314200  0.062700  0.820400  1.0  -0.6863
  O  O534  1  0.448400  0.232740  0.513700  1.0  -0.8105
  O  O535  1  0.540800  0.270920  0.512400  1.0  -0.8228
  O  O536  1  0.214200  0.029900  0.901200  1.0  -0.5615
  O  O537  1  0.168400  0.077900  0.176200  1.0  -0.6178
  O  O538  1  0.202900  0.024300  0.130300  1.0  -0.5513
  O  O539  1  0.466800  0.220100  0.880900  1.0  -0.5509
  O  O540  1  0.424900  0.168100  0.925300  1.0  -0.5906
  O  O541  1  0.160600  0.076700  0.851300  1.0  -0.6264
  O  O542  1  0.061000  0.188400  0.068200  1.0  -0.6796
  O  O543  1  0.003000  0.142700  0.017500  1.0  -0.6069
  O  O544  1  0.060800  0.184600  0.958800  1.0  -0.5277
  O  O545  1  0.956700  0.725500  0.650900  1.0  -0.5565
  O  O546  1  0.906200  0.677700  0.601900  1.0  -0.6287
  O  O547  1  0.809000  0.567100  0.708800  1.0  -0.6657
  O  O548  1  0.755700  0.613190  0.773100  1.0  -0.6819
  O  O549  1  0.814200  0.562700  0.820400  1.0  -0.6863
  O  O550  1  0.948400  0.732740  0.513700  1.0  -0.8105
  O  O551  1  0.040800  0.770920  0.512400  1.0  -0.8228
  O  O552  1  0.714200  0.529900  0.901200  1.0  -0.5615
  O  O553  1  0.668400  0.577900  0.176200  1.0  -0.6178
  O  O554  1  0.702900  0.524300  0.130300  1.0  -0.5513
  O  O555  1  0.966800  0.720100  0.880900  1.0  -0.5509
  O  O556  1  0.924900  0.668100  0.925300  1.0  -0.5906
  O  O557  1  0.660600  0.576700  0.851300  1.0  -0.6264
  O  O558  1  0.561000  0.688400  0.068200  1.0  -0.6798
  O  O559  1  0.503000  0.642700  0.017500  1.0  -0.6069
  O  O560  1  0.560800  0.684600  0.958800  1.0  -0.5274
  O  O561  1  0.956700  0.225500  0.150900  1.0  -0.5565
  O  O562  1  0.906200  0.177700  0.101900  1.0  -0.6287
  O  O563  1  0.809000  0.067100  0.208800  1.0  -0.6657
  O  O564  1  0.755700  0.113190  0.273100  1.0  -0.6819
  O  O565  1  0.814200  0.062700  0.320400  1.0  -0.6863
  O  O566  1  0.948400  0.232740  0.013700  1.0  -0.8105
  O  O567  1  0.040800  0.270920  0.012400  1.0  -0.8228
  O  O568  1  0.714200  0.029900  0.401200  1.0  -0.5615
  O  O569  1  0.668400  0.077900  0.676200  1.0  -0.6178
  O  O570  1  0.702900  0.024300  0.630300  1.0  -0.5513
  O  O571  1  0.966800  0.220100  0.380900  1.0  -0.5509
  O  O572  1  0.924900  0.168100  0.425300  1.0  -0.5906
  O  O573  1  0.660600  0.076700  0.351300  1.0  -0.6264
  O  O574  1  0.561000  0.188400  0.568200  1.0  -0.6798
  O  O575  1  0.503000  0.142700  0.517500  1.0  -0.6069
  O  O576  1  0.560800  0.184600  0.458800  1.0  -0.5274
  O  O577  1  0.793300  0.975500  0.400900  1.0  -0.5552
  O  O578  1  0.843800  0.927700  0.351900  1.0  -0.6273
  O  O579  1  0.941000  0.817100  0.458800  1.0  -0.666
  O  O580  1  0.994300  0.863190  0.523100  1.0  -0.682
  O  O581  1  0.935800  0.812700  0.570400  1.0  -0.6884
  O  O582  1  0.801600  0.982740  0.263700  1.0  -0.8107
  O  O583  1  0.709200  0.020920  0.262400  1.0  -0.8231
  O  O584  1  0.035800  0.779900  0.651200  1.0  -0.5615
  O  O585  1  0.081600  0.827900  0.926200  1.0  -0.6167
  O  O586  1  0.047100  0.774300  0.880300  1.0  -0.5517
  O  O587  1  0.783200  0.970100  0.630900  1.0  -0.5502
  O  O588  1  0.825100  0.918100  0.675300  1.0  -0.5906
  O  O589  1  0.089400  0.826700  0.601300  1.0  -0.6255
  O  O590  1  0.189000  0.938400  0.818200  1.0  -0.6811
  O  O591  1  0.247000  0.892700  0.767500  1.0  -0.6063
  O  O592  1  0.189200  0.934600  0.708800  1.0  -0.5274
  O  O593  1  0.793300  0.475500  0.900900  1.0  -0.5552
  O  O594  1  0.843800  0.427700  0.851900  1.0  -0.6273
  O  O595  1  0.941000  0.317100  0.958800  1.0  -0.666
  O  O596  1  0.994300  0.363190  0.023100  1.0  -0.682
  O  O597  1  0.935800  0.312700  0.070400  1.0  -0.6884
  O  O598  1  0.801600  0.482740  0.763700  1.0  -0.8107
  O  O599  1  0.709200  0.520920  0.762400  1.0  -0.8231
  O  O600  1  0.035800  0.279900  0.151200  1.0  -0.5615
  O  O601  1  0.081600  0.327900  0.426200  1.0  -0.6167
  O  O602  1  0.047100  0.274300  0.380300  1.0  -0.5517
  O  O603  1  0.783200  0.470100  0.130900  1.0  -0.5502
  O  O604  1  0.825100  0.418100  0.175300  1.0  -0.5906
  O  O605  1  0.089400  0.326700  0.101300  1.0  -0.6255
  O  O606  1  0.189000  0.438400  0.318200  1.0  -0.6811
  O  O607  1  0.247000  0.392700  0.267500  1.0  -0.6063
  O  O608  1  0.189200  0.434600  0.208800  1.0  -0.5274
  O  O609  1  0.293300  0.975500  0.900900  1.0  -0.5552
  O  O610  1  0.343800  0.927700  0.851900  1.0  -0.6273
  O  O611  1  0.441000  0.817100  0.958800  1.0  -0.666
  O  O612  1  0.494300  0.863190  0.023100  1.0  -0.682
  O  O613  1  0.435800  0.812700  0.070400  1.0  -0.6884
  O  O614  1  0.301600  0.982740  0.763700  1.0  -0.8107
  O  O615  1  0.209200  0.020920  0.762400  1.0  -0.8231
  O  O616  1  0.535800  0.779900  0.151200  1.0  -0.5615
  O  O617  1  0.581600  0.827900  0.426200  1.0  -0.6168
  O  O618  1  0.547100  0.774300  0.380300  1.0  -0.5517
  O  O619  1  0.283200  0.970100  0.130900  1.0  -0.5502
  O  O620  1  0.325100  0.918100  0.175300  1.0  -0.5906
  O  O621  1  0.589400  0.826700  0.101300  1.0  -0.6255
  O  O622  1  0.689000  0.938400  0.318200  1.0  -0.6814
  O  O623  1  0.747000  0.892700  0.267500  1.0  -0.6063
  O  O624  1  0.689200  0.934600  0.208800  1.0  -0.5271
  O  O625  1  0.293300  0.475500  0.400900  1.0  -0.5552
  O  O626  1  0.343800  0.427700  0.351900  1.0  -0.6273
  O  O627  1  0.441000  0.317100  0.458800  1.0  -0.666
  O  O628  1  0.494300  0.363190  0.523100  1.0  -0.682
  O  O629  1  0.435800  0.312700  0.570400  1.0  -0.6884
  O  O630  1  0.301600  0.482740  0.263700  1.0  -0.8107
  O  O631  1  0.209200  0.520920  0.262400  1.0  -0.8231
  O  O632  1  0.535800  0.279900  0.651200  1.0  -0.5615
  O  O633  1  0.581600  0.327900  0.926200  1.0  -0.6168
  O  O634  1  0.547100  0.274300  0.880300  1.0  -0.5517
  O  O635  1  0.283200  0.470100  0.630900  1.0  -0.5502
  O  O636  1  0.325100  0.418100  0.675300  1.0  -0.5906
  O  O637  1  0.589400  0.326700  0.601300  1.0  -0.6255
  O  O638  1  0.689000  0.438400  0.818200  1.0  -0.6814
  O  O639  1  0.747000  0.392700  0.767500  1.0  -0.6063
  O  O640  1  0.689200  0.434600  0.708800  1.0  -0.5271
  O  O641  1  0.706700  0.524500  0.400900  1.0  -0.5548
  O  O642  1  0.656200  0.572300  0.351900  1.0  -0.6287
  O  O643  1  0.559000  0.682900  0.458800  1.0  -0.6648
  O  O644  1  0.505700  0.636810  0.523100  1.0  -0.6829
  O  O645  1  0.564200  0.687300  0.570400  1.0  -0.6853
  O  O646  1  0.698400  0.517260  0.263700  1.0  -0.8111
  O  O647  1  0.790800  0.479080  0.262400  1.0  -0.8226
  O  O648  1  0.464200  0.720100  0.651200  1.0  -0.5625
  O  O649  1  0.418400  0.672100  0.926200  1.0  -0.6168
  O  O650  1  0.452900  0.725700  0.880300  1.0  -0.551
  O  O651  1  0.716800  0.529900  0.630900  1.0  -0.5507
  O  O652  1  0.674900  0.581900  0.675300  1.0  -0.5899
  O  O653  1  0.410600  0.673300  0.601300  1.0  -0.6269
  O  O654  1  0.311000  0.561600  0.818200  1.0  -0.681
  O  O655  1  0.253000  0.607300  0.767500  1.0  -0.6057
  O  O656  1  0.310800  0.565400  0.708800  1.0  -0.5276
  O  O657  1  0.706700  0.024500  0.900900  1.0  -0.5548
  O  O658  1  0.656200  0.072300  0.851900  1.0  -0.6287
  O  O659  1  0.559000  0.182900  0.958800  1.0  -0.6648
  O  O660  1  0.505700  0.136810  0.023100  1.0  -0.6829
  O  O661  1  0.564200  0.187300  0.070400  1.0  -0.6853
  O  O662  1  0.698400  0.017260  0.763700  1.0  -0.8111
  O  O663  1  0.790800  0.979080  0.762400  1.0  -0.8226
  O  O664  1  0.464200  0.220100  0.151200  1.0  -0.5625
  O  O665  1  0.418400  0.172100  0.426200  1.0  -0.6168
  O  O666  1  0.452900  0.225700  0.380300  1.0  -0.551
  O  O667  1  0.716800  0.029900  0.130900  1.0  -0.5507
  O  O668  1  0.674900  0.081900  0.175300  1.0  -0.5899
  O  O669  1  0.410600  0.173300  0.101300  1.0  -0.6269
  O  O670  1  0.311000  0.061600  0.318200  1.0  -0.681
  O  O671  1  0.253000  0.107300  0.267500  1.0  -0.6057
  O  O672  1  0.310800  0.065400  0.208800  1.0  -0.5276
  O  O673  1  0.206700  0.524500  0.900900  1.0  -0.5548
  O  O674  1  0.156200  0.572300  0.851900  1.0  -0.6287
  O  O675  1  0.059000  0.682900  0.958800  1.0  -0.6648
  O  O676  1  0.005700  0.636810  0.023100  1.0  -0.6829
  O  O677  1  0.064200  0.687300  0.070400  1.0  -0.6853
  O  O678  1  0.198400  0.517260  0.763700  1.0  -0.8111
  O  O679  1  0.290800  0.479080  0.762400  1.0  -0.8226
  O  O680  1  0.964200  0.720100  0.151200  1.0  -0.5625
  O  O681  1  0.918400  0.672100  0.426200  1.0  -0.6167
  O  O682  1  0.952900  0.725700  0.380300  1.0  -0.551
  O  O683  1  0.216800  0.529900  0.130900  1.0  -0.5507
  O  O684  1  0.174900  0.581900  0.175300  1.0  -0.5899
  O  O685  1  0.910600  0.673300  0.101300  1.0  -0.6269
  O  O686  1  0.811000  0.561600  0.318200  1.0  -0.6813
  O  O687  1  0.753000  0.607300  0.267500  1.0  -0.6057
  O  O688  1  0.810800  0.565400  0.208800  1.0  -0.5273
  O  O689  1  0.206700  0.024500  0.400900  1.0  -0.5548
  O  O690  1  0.156200  0.072300  0.351900  1.0  -0.6287
  O  O691  1  0.059000  0.182900  0.458800  1.0  -0.6648
  O  O692  1  0.005700  0.136810  0.523100  1.0  -0.6829
  O  O693  1  0.064200  0.187300  0.570400  1.0  -0.6853
  O  O694  1  0.198400  0.017260  0.263700  1.0  -0.8111
  O  O695  1  0.290800  0.979080  0.262400  1.0  -0.8226
  O  O696  1  0.964200  0.220100  0.651200  1.0  -0.5625
  O  O697  1  0.918400  0.172100  0.926200  1.0  -0.6167
  O  O698  1  0.952900  0.225700  0.880300  1.0  -0.551
  O  O699  1  0.216800  0.029900  0.630900  1.0  -0.5507
  O  O700  1  0.174900  0.081900  0.675300  1.0  -0.5899
  O  O701  1  0.910600  0.173300  0.601300  1.0  -0.6269
  O  O702  1  0.811000  0.061600  0.818200  1.0  -0.6813
  O  O703  1  0.753000  0.107300  0.767500  1.0  -0.6057
  O  O704  1  0.810800  0.065400  0.708800  1.0  -0.5273
