# generated using pymatgen
data_Zn4H30C48N12O13
_symmetry_space_group_name_H-M   'P 1'
_cell_length_a   26.03380000
_cell_length_b   26.34150000
_cell_length_c   27.53270000
_cell_angle_alpha   90.00000000
_cell_angle_beta   97.83600000
_cell_angle_gamma   90.00000000
_symmetry_Int_Tables_number   1
_chemical_formula_structural   Zn4H30C48N12O13
_chemical_formula_sum   'Zn32 H240 C384 N96 O104'
_cell_volume   18704.77707141
_cell_formula_units_Z   8
loop_
 _symmetry_equiv_pos_site_id
 _symmetry_equiv_pos_as_xyz
  1  'x, y, z'
loop_
 _atom_site_type_symbol
 _atom_site_label
 _atom_site_symmetry_multiplicity
 _atom_site_fract_x
 _atom_site_fract_y
 _atom_site_fract_z
 _atom_site_occupancy
 _atom_site_charge
  Zn  Zn1  1  0.742730  0.218560  0.169810  1.0  1.0097
  Zn  Zn2  1  0.704410  0.322450  0.203830  1.0  1.0678
  Zn  Zn3  1  0.727240  0.232760  0.283010  1.0  1.1433
  Zn  Zn4  1  0.628540  0.232280  0.197710  1.0  1.059
  Zn  Zn5  1  0.242730  0.718560  0.169810  1.0  1.0097
  Zn  Zn6  1  0.204410  0.822450  0.203830  1.0  1.0678
  Zn  Zn7  1  0.227240  0.732760  0.283010  1.0  1.1433
  Zn  Zn8  1  0.128540  0.732280  0.197710  1.0  1.059
  Zn  Zn9  1  0.742730  0.781440  0.669810  1.0  1.0099
  Zn  Zn10  1  0.704410  0.677550  0.703830  1.0  1.0676
  Zn  Zn11  1  0.727240  0.767240  0.783010  1.0  1.1438
  Zn  Zn12  1  0.628540  0.767720  0.697710  1.0  1.0591
  Zn  Zn13  1  0.242730  0.281440  0.669810  1.0  1.0099
  Zn  Zn14  1  0.204410  0.177550  0.703830  1.0  1.0676
  Zn  Zn15  1  0.227240  0.267240  0.783010  1.0  1.1438
  Zn  Zn16  1  0.128540  0.267720  0.697710  1.0  1.0591
  Zn  Zn17  1  0.257270  0.218560  0.330190  1.0  1.0109
  Zn  Zn18  1  0.295590  0.322450  0.296170  1.0  1.0682
  Zn  Zn19  1  0.272760  0.232760  0.216990  1.0  1.1415
  Zn  Zn20  1  0.371460  0.232280  0.302290  1.0  1.0589
  Zn  Zn21  1  0.757270  0.718560  0.330190  1.0  1.0109
  Zn  Zn22  1  0.795590  0.822450  0.296170  1.0  1.0682
  Zn  Zn23  1  0.772760  0.732760  0.216990  1.0  1.1415
  Zn  Zn24  1  0.871460  0.732280  0.302290  1.0  1.0589
  Zn  Zn25  1  0.257270  0.781440  0.830190  1.0  1.0108
  Zn  Zn26  1  0.295590  0.677550  0.796170  1.0  1.0679
  Zn  Zn27  1  0.272760  0.767240  0.716990  1.0  1.1416
  Zn  Zn28  1  0.371460  0.767720  0.802290  1.0  1.059
  Zn  Zn29  1  0.757270  0.281440  0.830190  1.0  1.0108
  Zn  Zn30  1  0.795590  0.177550  0.796170  1.0  1.0679
  Zn  Zn31  1  0.772760  0.267240  0.716990  1.0  1.1416
  Zn  Zn32  1  0.871460  0.267720  0.802290  1.0  1.059
  H  H33  1  0.854700  0.287300  0.085800  1.0  0.1018
  H  H34  1  0.923500  0.330000  0.057900  1.0  0.1214
  H  H35  1  0.900300  0.448100  0.147200  1.0  0.1198
  H  H36  1  0.830600  0.404700  0.172600  1.0  0.1038
  H  H37  1  0.111800  0.083100  0.604200  1.0  0.103
  H  H38  1  0.063100  0.044300  0.536900  1.0  0.1103
  H  H39  1  0.960700  0.161000  0.529400  1.0  0.1151
  H  H40  1  0.010000  0.199200  0.595900  1.0  0.087
  H  H41  1  0.069700  0.606000  0.119600  1.0  0.099
  H  H42  1  0.040800  0.535300  0.073500  1.0  0.1074
  H  H43  1  0.170100  0.541400  0.006600  1.0  0.1148
  H  H44  1  0.198700  0.610300  0.053800  1.0  0.0982
  H  H45  1  0.138900  0.928700  0.284500  1.0  0.1053
  H  H46  1  0.098200  0.979800  0.336600  1.0  0.0972
  H  H47  1  0.140900  0.885000  0.447700  1.0  0.1096
  H  H48  1  0.176800  0.830100  0.394200  1.0  0.1096
  H  H49  1  0.815100  0.121700  0.328000  1.0  0.101
  H  H50  1  0.878500  0.067100  0.365200  1.0  0.1021
  H  H51  1  0.928200  0.043900  0.234100  1.0  0.0996
  H  H52  1  0.864000  0.098900  0.196900  1.0  0.1027
  H  H53  1  0.015900  0.275300  0.806400  1.0  0.0981
  H  H54  1  0.974900  0.293100  0.874400  1.0  0.103
  H  H55  1  0.106800  0.360500  0.940600  1.0  0.1199
  H  H56  1  0.146800  0.342100  0.872300  1.0  0.1006
  H  H57  1  0.966000  0.450300  0.104600  1.0  0.247
  H  H58  1  0.948400  0.094800  0.474900  1.0  0.2269
  H  H59  1  0.108900  0.480500  0.984800  1.0  0.2246
  H  H60  1  0.108400  0.967800  0.460600  1.0  0.2031
  H  H61  1  0.963400  0.998800  0.303600  1.0  0.2235
  H  H62  1  0.988100  0.313700  0.961100  1.0  0.212
  H  H63  1  0.354700  0.787300  0.085800  1.0  0.1018
  H  H64  1  0.423500  0.830000  0.057900  1.0  0.1214
  H  H65  1  0.400300  0.948100  0.147200  1.0  0.1198
  H  H66  1  0.330600  0.904700  0.172600  1.0  0.1038
  H  H67  1  0.611800  0.583100  0.604200  1.0  0.103
  H  H68  1  0.563100  0.544300  0.536900  1.0  0.1103
  H  H69  1  0.460700  0.661000  0.529400  1.0  0.1151
  H  H70  1  0.510000  0.699200  0.595900  1.0  0.087
  H  H71  1  0.569700  0.106000  0.119600  1.0  0.099
  H  H72  1  0.540800  0.035300  0.073500  1.0  0.1074
  H  H73  1  0.670100  0.041400  0.006600  1.0  0.1148
  H  H74  1  0.698700  0.110300  0.053800  1.0  0.0982
  H  H75  1  0.638900  0.428700  0.284500  1.0  0.1053
  H  H76  1  0.598200  0.479800  0.336600  1.0  0.0972
  H  H77  1  0.640900  0.385000  0.447700  1.0  0.1096
  H  H78  1  0.676800  0.330100  0.394200  1.0  0.1096
  H  H79  1  0.315100  0.621700  0.328000  1.0  0.101
  H  H80  1  0.378500  0.567100  0.365200  1.0  0.1021
  H  H81  1  0.428200  0.543900  0.234100  1.0  0.0996
  H  H82  1  0.364000  0.598900  0.196900  1.0  0.1027
  H  H83  1  0.515900  0.775300  0.806400  1.0  0.0981
  H  H84  1  0.474900  0.793100  0.874400  1.0  0.103
  H  H85  1  0.606800  0.860500  0.940600  1.0  0.1199
  H  H86  1  0.646800  0.842100  0.872300  1.0  0.1006
  H  H87  1  0.466000  0.950300  0.104600  1.0  0.247
  H  H88  1  0.448400  0.594800  0.474900  1.0  0.2269
  H  H89  1  0.608900  0.980500  0.984800  1.0  0.2246
  H  H90  1  0.608400  0.467800  0.460600  1.0  0.2031
  H  H91  1  0.463400  0.498800  0.303600  1.0  0.2235
  H  H92  1  0.488100  0.813700  0.961100  1.0  0.212
  H  H93  1  0.854700  0.712700  0.585800  1.0  0.1024
  H  H94  1  0.923500  0.670000  0.557900  1.0  0.121
  H  H95  1  0.900300  0.551900  0.647200  1.0  0.1197
  H  H96  1  0.830600  0.595300  0.672600  1.0  0.1038
  H  H97  1  0.111800  0.916900  0.104200  1.0  0.1028
  H  H98  1  0.063100  0.955700  0.036900  1.0  0.1099
  H  H99  1  0.960700  0.839000  0.029400  1.0  0.1147
  H  H100  1  0.010000  0.800800  0.095900  1.0  0.087
  H  H101  1  0.069700  0.394000  0.619600  1.0  0.0991
  H  H102  1  0.040800  0.464700  0.573500  1.0  0.107
  H  H103  1  0.170100  0.458600  0.506600  1.0  0.115
  H  H104  1  0.198700  0.389700  0.553800  1.0  0.098
  H  H105  1  0.138900  0.071300  0.784500  1.0  0.1055
  H  H106  1  0.098200  0.020200  0.836600  1.0  0.0967
  H  H107  1  0.140900  0.115000  0.947700  1.0  0.1102
  H  H108  1  0.176800  0.169900  0.894200  1.0  0.1095
  H  H109  1  0.815100  0.878300  0.828000  1.0  0.1011
  H  H110  1  0.878500  0.932900  0.865200  1.0  0.1027
  H  H111  1  0.928200  0.956100  0.734100  1.0  0.0995
  H  H112  1  0.864000  0.901100  0.696900  1.0  0.1024
  H  H113  1  0.015900  0.724700  0.306400  1.0  0.0979
  H  H114  1  0.974900  0.706900  0.374400  1.0  0.1033
  H  H115  1  0.106800  0.639500  0.440600  1.0  0.12
  H  H116  1  0.146800  0.657900  0.372300  1.0  0.1007
  H  H117  1  0.966000  0.549700  0.604600  1.0  0.2471
  H  H118  1  0.948400  0.905200  0.974900  1.0  0.2272
  H  H119  1  0.108900  0.519500  0.484800  1.0  0.224
  H  H120  1  0.108400  0.032200  0.960600  1.0  0.2037
  H  H121  1  0.963400  0.001200  0.803600  1.0  0.223
  H  H122  1  0.988100  0.686300  0.461100  1.0  0.2106
  H  H123  1  0.354700  0.212700  0.585800  1.0  0.1024
  H  H124  1  0.423500  0.170000  0.557900  1.0  0.121
  H  H125  1  0.400300  0.051900  0.647200  1.0  0.1197
  H  H126  1  0.330600  0.095300  0.672600  1.0  0.1038
  H  H127  1  0.611800  0.416900  0.104200  1.0  0.1028
  H  H128  1  0.563100  0.455700  0.036900  1.0  0.1099
  H  H129  1  0.460700  0.339000  0.029400  1.0  0.1147
  H  H130  1  0.510000  0.300800  0.095900  1.0  0.087
  H  H131  1  0.569700  0.894000  0.619600  1.0  0.0991
  H  H132  1  0.540800  0.964700  0.573500  1.0  0.107
  H  H133  1  0.670100  0.958600  0.506600  1.0  0.115
  H  H134  1  0.698700  0.889700  0.553800  1.0  0.098
  H  H135  1  0.638900  0.571300  0.784500  1.0  0.1055
  H  H136  1  0.598200  0.520200  0.836600  1.0  0.0967
  H  H137  1  0.640900  0.615000  0.947700  1.0  0.1102
  H  H138  1  0.676800  0.669900  0.894200  1.0  0.1095
  H  H139  1  0.315100  0.378300  0.828000  1.0  0.1011
  H  H140  1  0.378500  0.432900  0.865200  1.0  0.1027
  H  H141  1  0.428200  0.456100  0.734100  1.0  0.0995
  H  H142  1  0.364000  0.401100  0.696900  1.0  0.1024
  H  H143  1  0.515900  0.224700  0.306400  1.0  0.0979
  H  H144  1  0.474900  0.206900  0.374400  1.0  0.1033
  H  H145  1  0.606800  0.139500  0.440600  1.0  0.12
  H  H146  1  0.646800  0.157900  0.372300  1.0  0.1007
  H  H147  1  0.466000  0.049700  0.604600  1.0  0.2471
  H  H148  1  0.448400  0.405200  0.974900  1.0  0.2272
  H  H149  1  0.608900  0.019500  0.484800  1.0  0.224
  H  H150  1  0.608400  0.532200  0.960600  1.0  0.2037
  H  H151  1  0.463400  0.501200  0.803600  1.0  0.223
  H  H152  1  0.488100  0.186300  0.461100  1.0  0.2106
  H  H153  1  0.145300  0.287300  0.414200  1.0  0.1017
  H  H154  1  0.076500  0.330000  0.442100  1.0  0.1203
  H  H155  1  0.099700  0.448100  0.352800  1.0  0.1202
  H  H156  1  0.169400  0.404700  0.327400  1.0  0.1042
  H  H157  1  0.888200  0.083100  0.895800  1.0  0.1027
  H  H158  1  0.936900  0.044300  0.963100  1.0  0.1085
  H  H159  1  0.039300  0.161000  0.970600  1.0  0.1156
  H  H160  1  0.990000  0.199200  0.904100  1.0  0.0873
  H  H161  1  0.930300  0.606000  0.380400  1.0  0.0992
  H  H162  1  0.959200  0.535300  0.426500  1.0  0.1079
  H  H163  1  0.829900  0.541400  0.493400  1.0  0.116
  H  H164  1  0.801300  0.610300  0.446200  1.0  0.0978
  H  H165  1  0.861100  0.928700  0.215500  1.0  0.1039
  H  H166  1  0.901800  0.979800  0.163400  1.0  0.0974
  H  H167  1  0.859100  0.885000  0.052300  1.0  0.1105
  H  H168  1  0.823200  0.830100  0.105800  1.0  0.1098
  H  H169  1  0.184900  0.121700  0.172000  1.0  0.1009
  H  H170  1  0.121500  0.067100  0.134800  1.0  0.1029
  H  H171  1  0.071800  0.043900  0.265900  1.0  0.0997
  H  H172  1  0.136000  0.098900  0.303100  1.0  0.1036
  H  H173  1  0.984100  0.275300  0.693600  1.0  0.0985
  H  H174  1  0.025100  0.293100  0.625600  1.0  0.1038
  H  H175  1  0.893200  0.360500  0.559400  1.0  0.1202
  H  H176  1  0.853200  0.342100  0.627700  1.0  0.1005
  H  H177  1  0.034000  0.450300  0.395400  1.0  0.2458
  H  H178  1  0.051600  0.094800  0.025100  1.0  0.2267
  H  H179  1  0.891100  0.480500  0.515200  1.0  0.2255
  H  H180  1  0.891600  0.967800  0.039400  1.0  0.2045
  H  H181  1  0.036600  0.998800  0.196400  1.0  0.224
  H  H182  1  0.011900  0.313700  0.538900  1.0  0.2115
  H  H183  1  0.645300  0.787300  0.414200  1.0  0.1017
  H  H184  1  0.576500  0.830000  0.442100  1.0  0.1203
  H  H185  1  0.599700  0.948100  0.352800  1.0  0.1202
  H  H186  1  0.669400  0.904700  0.327400  1.0  0.1042
  H  H187  1  0.388200  0.583100  0.895800  1.0  0.1027
  H  H188  1  0.436900  0.544300  0.963100  1.0  0.1085
  H  H189  1  0.539300  0.661000  0.970600  1.0  0.1156
  H  H190  1  0.490000  0.699200  0.904100  1.0  0.0873
  H  H191  1  0.430300  0.106000  0.380400  1.0  0.0992
  H  H192  1  0.459200  0.035300  0.426500  1.0  0.1079
  H  H193  1  0.329900  0.041400  0.493400  1.0  0.116
  H  H194  1  0.301300  0.110300  0.446200  1.0  0.0978
  H  H195  1  0.361100  0.428700  0.215500  1.0  0.1039
  H  H196  1  0.401800  0.479800  0.163400  1.0  0.0974
  H  H197  1  0.359100  0.385000  0.052300  1.0  0.1105
  H  H198  1  0.323200  0.330100  0.105800  1.0  0.1098
  H  H199  1  0.684900  0.621700  0.172000  1.0  0.1009
  H  H200  1  0.621500  0.567100  0.134800  1.0  0.1029
  H  H201  1  0.571800  0.543900  0.265900  1.0  0.0997
  H  H202  1  0.636000  0.598900  0.303100  1.0  0.1036
  H  H203  1  0.484100  0.775300  0.693600  1.0  0.0985
  H  H204  1  0.525100  0.793100  0.625600  1.0  0.1038
  H  H205  1  0.393200  0.860500  0.559400  1.0  0.1202
  H  H206  1  0.353200  0.842100  0.627700  1.0  0.1005
  H  H207  1  0.534000  0.950300  0.395400  1.0  0.2458
  H  H208  1  0.551600  0.594800  0.025100  1.0  0.2267
  H  H209  1  0.391100  0.980500  0.515200  1.0  0.2255
  H  H210  1  0.391600  0.467800  0.039400  1.0  0.2045
  H  H211  1  0.536600  0.498800  0.196400  1.0  0.224
  H  H212  1  0.511900  0.813700  0.538900  1.0  0.2115
  H  H213  1  0.145300  0.712700  0.914200  1.0  0.1019
  H  H214  1  0.076500  0.670000  0.942100  1.0  0.1202
  H  H215  1  0.099700  0.551900  0.852800  1.0  0.1198
  H  H216  1  0.169400  0.595300  0.827400  1.0  0.1041
  H  H217  1  0.888200  0.916900  0.395800  1.0  0.1027
  H  H218  1  0.936900  0.955700  0.463100  1.0  0.1087
  H  H219  1  0.039300  0.839000  0.470600  1.0  0.1153
  H  H220  1  0.990000  0.800800  0.404100  1.0  0.0872
  H  H221  1  0.930300  0.394000  0.880400  1.0  0.0994
  H  H222  1  0.959200  0.464700  0.926500  1.0  0.1078
  H  H223  1  0.829900  0.458600  0.993400  1.0  0.116
  H  H224  1  0.801300  0.389700  0.946200  1.0  0.0984
  H  H225  1  0.861100  0.071300  0.715500  1.0  0.1042
  H  H226  1  0.901800  0.020200  0.663400  1.0  0.0978
  H  H227  1  0.859100  0.115000  0.552300  1.0  0.1104
  H  H228  1  0.823200  0.169900  0.605800  1.0  0.11
  H  H229  1  0.184900  0.878300  0.672000  1.0  0.101
  H  H230  1  0.121500  0.932900  0.634800  1.0  0.103
  H  H231  1  0.071800  0.956100  0.765900  1.0  0.0996
  H  H232  1  0.136000  0.901100  0.803100  1.0  0.1036
  H  H233  1  0.984100  0.724700  0.193600  1.0  0.0982
  H  H234  1  0.025100  0.706900  0.125600  1.0  0.1038
  H  H235  1  0.893200  0.639500  0.059400  1.0  0.1201
  H  H236  1  0.853200  0.657900  0.127700  1.0  0.1005
  H  H237  1  0.034000  0.549700  0.895400  1.0  0.2458
  H  H238  1  0.051600  0.905200  0.525100  1.0  0.2275
  H  H239  1  0.891100  0.519500  0.015200  1.0  0.2258
  H  H240  1  0.891600  0.032200  0.539400  1.0  0.2047
  H  H241  1  0.036600  0.001200  0.696400  1.0  0.2231
  H  H242  1  0.011900  0.686300  0.038900  1.0  0.2099
  H  H243  1  0.645300  0.212700  0.914200  1.0  0.1019
  H  H244  1  0.576500  0.170000  0.942100  1.0  0.1202
  H  H245  1  0.599700  0.051900  0.852800  1.0  0.1198
  H  H246  1  0.669400  0.095300  0.827400  1.0  0.1041
  H  H247  1  0.388200  0.416900  0.395800  1.0  0.1027
  H  H248  1  0.436900  0.455700  0.463100  1.0  0.1087
  H  H249  1  0.539300  0.339000  0.470600  1.0  0.1153
  H  H250  1  0.490000  0.300800  0.404100  1.0  0.0872
  H  H251  1  0.430300  0.894000  0.880400  1.0  0.0994
  H  H252  1  0.459200  0.964700  0.926500  1.0  0.1078
  H  H253  1  0.329900  0.958600  0.993400  1.0  0.116
  H  H254  1  0.301300  0.889700  0.946200  1.0  0.0984
  H  H255  1  0.361100  0.571300  0.715500  1.0  0.1042
  H  H256  1  0.401800  0.520200  0.663400  1.0  0.0978
  H  H257  1  0.359100  0.615000  0.552300  1.0  0.1104
  H  H258  1  0.323200  0.669900  0.605800  1.0  0.11
  H  H259  1  0.684900  0.378300  0.672000  1.0  0.101
  H  H260  1  0.621500  0.432900  0.634800  1.0  0.103
  H  H261  1  0.571800  0.456100  0.765900  1.0  0.0996
  H  H262  1  0.636000  0.401100  0.803100  1.0  0.1036
  H  H263  1  0.484100  0.224700  0.193600  1.0  0.0982
  H  H264  1  0.525100  0.206900  0.125600  1.0  0.1038
  H  H265  1  0.393200  0.139500  0.059400  1.0  0.1201
  H  H266  1  0.353200  0.157900  0.127700  1.0  0.1005
  H  H267  1  0.534000  0.049700  0.895400  1.0  0.2458
  H  H268  1  0.551600  0.405200  0.525100  1.0  0.2275
  H  H269  1  0.391100  0.019500  0.015200  1.0  0.2258
  H  H270  1  0.391600  0.532200  0.539400  1.0  0.2047
  H  H271  1  0.536600  0.501200  0.696400  1.0  0.2231
  H  H272  1  0.511900  0.186300  0.038900  1.0  0.2099
  C  C273  1  0.790670  0.316300  0.148080  1.0  0.7051
  C  C274  1  0.835980  0.342190  0.131350  1.0  -0.1451
  C  C275  1  0.863800  0.320300  0.097800  1.0  -0.0426
  C  C276  1  0.904800  0.345500  0.081300  1.0  -0.1467
  C  C277  1  0.918400  0.394110  0.099340  1.0  0.2529
  C  C278  1  0.890900  0.415620  0.134030  1.0  -0.1588
  C  C279  1  0.849670  0.389550  0.149330  1.0  -0.0209
  C  C280  1  0.989100  0.416900  0.049850  1.0  0.5309
  C  C281  1  0.102440  0.173500  0.642980  1.0  0.707
  C  C282  1  0.067100  0.146100  0.605180  1.0  -0.1447
  C  C283  1  0.081600  0.099500  0.588180  1.0  -0.041
  C  C284  1  0.052700  0.076300  0.548200  1.0  -0.1859
  C  C285  1  0.008900  0.100000  0.524810  1.0  0.2169
  C  C286  1  0.992100  0.145700  0.543850  1.0  -0.202
  C  C287  1  0.021300  0.168100  0.583360  1.0  -0.0064
  C  C288  1  0.155200  0.659540  0.123880  1.0  0.7322
  C  C289  1  0.137900  0.614520  0.092530  1.0  -0.1576
  C  C290  1  0.090700  0.592050  0.097300  1.0  -0.0256
  C  C291  1  0.073600  0.549800  0.070200  1.0  -0.1596
  C  C292  1  0.104500  0.528350  0.037930  1.0  0.2876
  C  C293  1  0.150310  0.553380  0.030800  1.0  -0.1917
  C  C294  1  0.166720  0.594690  0.058250  1.0  -0.0654
  C  C295  1  0.053100  0.450500  0.013500  1.0  0.5888
  C  C296  1  0.188800  0.842500  0.300500  1.0  0.693
  C  C297  1  0.163600  0.876100  0.333980  1.0  -0.1344
  C  C298  1  0.139400  0.919000  0.317770  1.0  -0.0647
  C  C299  1  0.115100  0.949500  0.348800  1.0  -0.192
  C  C300  1  0.115400  0.936300  0.397430  1.0  0.2762
  C  C301  1  0.139400  0.893700  0.414090  1.0  -0.1207
  C  C302  1  0.162200  0.861600  0.382600  1.0  -0.0849
  C  C303  1  0.794100  0.153350  0.237800  1.0  0.6956
  C  C304  1  0.834050  0.116900  0.258800  1.0  -0.1489
  C  C305  1  0.838600  0.106400  0.308900  1.0  -0.0373
  C  C306  1  0.876700  0.074300  0.331200  1.0  -0.1723
  C  C307  1  0.912600  0.052400  0.303860  1.0  0.2268
  C  C308  1  0.906100  0.060600  0.253630  1.0  -0.1398
  C  C309  1  0.867320  0.093100  0.231200  1.0  -0.071
  C  C310  1  0.979600  0.021500  0.370370  1.0  0.6194
  C  C311  1  0.994300  0.050000  0.447300  1.0  0.6338
  C  C312  1  0.049100  0.995300  0.420000  1.0  0.645
  C  C313  1  0.113660  0.297000  0.789770  1.0  0.6794
  C  C314  1  0.085810  0.307740  0.832320  1.0  -0.1507
  C  C315  1  0.034240  0.292790  0.833580  1.0  -0.045
  C  C316  1  0.009850  0.303270  0.874030  1.0  -0.1624
  C  C317  1  0.036410  0.328700  0.914180  1.0  0.2272
  C  C318  1  0.088180  0.343300  0.913430  1.0  -0.1798
  C  C319  1  0.111730  0.332390  0.872610  1.0  -0.0298
  C  C320  1  0.017100  0.376600  0.987230  1.0  0.5908
  C  C321  1  0.290670  0.816300  0.148080  1.0  0.7051
  C  C322  1  0.335980  0.842190  0.131350  1.0  -0.1451
  C  C323  1  0.363800  0.820300  0.097800  1.0  -0.0426
  C  C324  1  0.404800  0.845500  0.081300  1.0  -0.1467
  C  C325  1  0.418400  0.894110  0.099340  1.0  0.2529
  C  C326  1  0.390900  0.915620  0.134030  1.0  -0.1588
  C  C327  1  0.349670  0.889550  0.149330  1.0  -0.0209
  C  C328  1  0.489100  0.916900  0.049850  1.0  0.5309
  C  C329  1  0.602440  0.673500  0.642980  1.0  0.707
  C  C330  1  0.567100  0.646100  0.605180  1.0  -0.1447
  C  C331  1  0.581600  0.599500  0.588180  1.0  -0.041
  C  C332  1  0.552700  0.576300  0.548200  1.0  -0.1859
  C  C333  1  0.508900  0.600000  0.524810  1.0  0.2169
  C  C334  1  0.492100  0.645700  0.543850  1.0  -0.202
  C  C335  1  0.521300  0.668100  0.583360  1.0  -0.0064
  C  C336  1  0.655200  0.159540  0.123880  1.0  0.7322
  C  C337  1  0.637900  0.114520  0.092530  1.0  -0.1579
  C  C338  1  0.590700  0.092050  0.097300  1.0  -0.0254
  C  C339  1  0.573600  0.049800  0.070200  1.0  -0.1595
  C  C340  1  0.604500  0.028350  0.037930  1.0  0.2875
  C  C341  1  0.650310  0.053380  0.030800  1.0  -0.1923
  C  C342  1  0.666667  0.094690  0.058250  1.0  -0.0448
  C  C343  1  0.553100  0.950500  0.013500  1.0  0.5888
  C  C344  1  0.688800  0.342500  0.300500  1.0  0.693
  C  C345  1  0.663600  0.376100  0.333980  1.0  -0.1344
  C  C346  1  0.639400  0.419000  0.317770  1.0  -0.0647
  C  C347  1  0.615100  0.449500  0.348800  1.0  -0.192
  C  C348  1  0.615400  0.436300  0.397430  1.0  0.2762
  C  C349  1  0.639400  0.393700  0.414090  1.0  -0.1207
  C  C350  1  0.662200  0.361600  0.382600  1.0  -0.0849
  C  C351  1  0.294100  0.653350  0.237800  1.0  0.6957
  C  C352  1  0.334050  0.616900  0.258800  1.0  -0.1489
  C  C353  1  0.338600  0.606400  0.308900  1.0  -0.0373
  C  C354  1  0.376700  0.574300  0.331200  1.0  -0.1723
  C  C355  1  0.412600  0.552400  0.303860  1.0  0.2268
  C  C356  1  0.406100  0.560600  0.253630  1.0  -0.1398
  C  C357  1  0.367320  0.593100  0.231200  1.0  -0.071
  C  C358  1  0.479600  0.521500  0.370370  1.0  0.6194
  C  C359  1  0.494300  0.550000  0.447300  1.0  0.6338
  C  C360  1  0.549100  0.495300  0.420000  1.0  0.645
  C  C361  1  0.613660  0.797000  0.789770  1.0  0.6794
  C  C362  1  0.585810  0.807740  0.832320  1.0  -0.1507
  C  C363  1  0.534240  0.792790  0.833580  1.0  -0.045
  C  C364  1  0.509850  0.803270  0.874030  1.0  -0.1624
  C  C365  1  0.536410  0.828700  0.914180  1.0  0.2272
  C  C366  1  0.588180  0.843300  0.913430  1.0  -0.1798
  C  C367  1  0.611730  0.832390  0.872610  1.0  -0.0298
  C  C368  1  0.517100  0.876600  0.987230  1.0  0.5908
  C  C369  1  0.790670  0.683700  0.648080  1.0  0.7051
  C  C370  1  0.835980  0.657810  0.631350  1.0  -0.1448
  C  C371  1  0.863800  0.679700  0.597800  1.0  -0.0434
  C  C372  1  0.904800  0.654500  0.581300  1.0  -0.1481
  C  C373  1  0.918400  0.605890  0.599340  1.0  0.2529
  C  C374  1  0.890900  0.584380  0.634030  1.0  -0.1599
  C  C375  1  0.849670  0.610450  0.649330  1.0  -0.0207
  C  C376  1  0.989100  0.583100  0.549850  1.0  0.5298
  C  C377  1  0.102440  0.826500  0.142980  1.0  0.7065
  C  C378  1  0.067100  0.853900  0.105180  1.0  -0.145
  C  C379  1  0.081600  0.900500  0.088180  1.0  -0.0412
  C  C380  1  0.052700  0.923700  0.048200  1.0  -0.1847
  C  C381  1  0.008900  0.900000  0.024810  1.0  0.2175
  C  C382  1  0.992100  0.854300  0.043850  1.0  -0.2004
  C  C383  1  0.021300  0.831900  0.083360  1.0  -0.0075
  C  C384  1  0.155200  0.340460  0.623880  1.0  0.7326
  C  C385  1  0.137900  0.385480  0.592530  1.0  -0.1581
  C  C386  1  0.090700  0.407950  0.597300  1.0  -0.0258
  C  C387  1  0.073600  0.450200  0.570200  1.0  -0.16
  C  C388  1  0.104500  0.471650  0.537930  1.0  0.2893
  C  C389  1  0.150310  0.446620  0.530800  1.0  -0.1936
  C  C390  1  0.166720  0.405310  0.558250  1.0  -0.066
  C  C391  1  0.053100  0.549500  0.513500  1.0  0.5894
  C  C392  1  0.188800  0.157500  0.800500  1.0  0.6935
  C  C393  1  0.163600  0.123900  0.833980  1.0  -0.1349
  C  C394  1  0.139400  0.081000  0.817770  1.0  -0.0646
  C  C395  1  0.115100  0.050500  0.848800  1.0  -0.1923
  C  C396  1  0.115400  0.063700  0.897430  1.0  0.2765
  C  C397  1  0.139400  0.106300  0.914090  1.0  -0.1211
  C  C398  1  0.162200  0.138400  0.882600  1.0  -0.0847
  C  C399  1  0.794100  0.846650  0.737800  1.0  0.6954
  C  C400  1  0.834050  0.883100  0.758800  1.0  -0.1502
  C  C401  1  0.838600  0.893600  0.808900  1.0  -0.037
  C  C402  1  0.876700  0.925700  0.831200  1.0  -0.1725
  C  C403  1  0.912600  0.947600  0.803860  1.0  0.2269
  C  C404  1  0.906100  0.939400  0.753630  1.0  -0.14
  C  C405  1  0.867320  0.906900  0.731200  1.0  -0.0703
  C  C406  1  0.979600  0.978500  0.870370  1.0  0.6192
  C  C407  1  0.994300  0.950000  0.947300  1.0  0.6351
  C  C408  1  0.049100  0.004700  0.920000  1.0  0.6455
  C  C409  1  0.113660  0.703000  0.289770  1.0  0.6789
  C  C410  1  0.085810  0.692260  0.332320  1.0  -0.1508
  C  C411  1  0.034240  0.707210  0.333580  1.0  -0.0455
  C  C412  1  0.009850  0.696730  0.374030  1.0  -0.1621
  C  C413  1  0.036410  0.671300  0.414180  1.0  0.2273
  C  C414  1  0.088180  0.656700  0.413430  1.0  -0.1804
  C  C415  1  0.111730  0.667610  0.372610  1.0  -0.0308
  C  C416  1  0.017100  0.623400  0.487230  1.0  0.5906
  C  C417  1  0.290670  0.183700  0.648080  1.0  0.7051
  C  C418  1  0.335980  0.157810  0.631350  1.0  -0.1448
  C  C419  1  0.363800  0.179700  0.597800  1.0  -0.0434
  C  C420  1  0.404800  0.154500  0.581300  1.0  -0.1481
  C  C421  1  0.418400  0.105890  0.599340  1.0  0.2529
  C  C422  1  0.390900  0.084380  0.634030  1.0  -0.1599
  C  C423  1  0.349670  0.110450  0.649330  1.0  -0.0207
  C  C424  1  0.489100  0.083100  0.549850  1.0  0.5298
  C  C425  1  0.602440  0.326500  0.142980  1.0  0.7065
  C  C426  1  0.567100  0.353900  0.105180  1.0  -0.145
  C  C427  1  0.581600  0.400500  0.088180  1.0  -0.0412
  C  C428  1  0.552700  0.423700  0.048200  1.0  -0.1847
  C  C429  1  0.508900  0.400000  0.024810  1.0  0.2175
  C  C430  1  0.492100  0.354300  0.043850  1.0  -0.2004
  C  C431  1  0.521300  0.331900  0.083360  1.0  -0.0075
  C  C432  1  0.655200  0.840460  0.623880  1.0  0.7326
  C  C433  1  0.637900  0.885480  0.592530  1.0  -0.1588
  C  C434  1  0.590700  0.907950  0.597300  1.0  -0.0256
  C  C435  1  0.573600  0.950200  0.570200  1.0  -0.1598
  C  C436  1  0.604500  0.971650  0.537930  1.0  0.2892
  C  C437  1  0.650310  0.946620  0.530800  1.0  -0.1941
  C  C438  1  0.666667  0.905310  0.558250  1.0  -0.0456
  C  C439  1  0.553100  0.049500  0.513500  1.0  0.5894
  C  C440  1  0.688800  0.657500  0.800500  1.0  0.6935
  C  C441  1  0.663600  0.623900  0.833980  1.0  -0.1349
  C  C442  1  0.639400  0.581000  0.817770  1.0  -0.0646
  C  C443  1  0.615100  0.550500  0.848800  1.0  -0.1923
  C  C444  1  0.615400  0.563700  0.897430  1.0  0.2765
  C  C445  1  0.639400  0.606300  0.914090  1.0  -0.1211
  C  C446  1  0.662200  0.638400  0.882600  1.0  -0.0847
  C  C447  1  0.294100  0.346650  0.737800  1.0  0.6956
  C  C448  1  0.334050  0.383100  0.758800  1.0  -0.1502
  C  C449  1  0.338600  0.393600  0.808900  1.0  -0.037
  C  C450  1  0.376700  0.425700  0.831200  1.0  -0.1725
  C  C451  1  0.412600  0.447600  0.803860  1.0  0.2269
  C  C452  1  0.406100  0.439400  0.753630  1.0  -0.14
  C  C453  1  0.367320  0.406900  0.731200  1.0  -0.0703
  C  C454  1  0.479600  0.478500  0.870370  1.0  0.6192
  C  C455  1  0.494300  0.450000  0.947300  1.0  0.6351
  C  C456  1  0.549100  0.504700  0.920000  1.0  0.6455
  C  C457  1  0.613660  0.203000  0.289770  1.0  0.6789
  C  C458  1  0.585810  0.192260  0.332320  1.0  -0.1508
  C  C459  1  0.534240  0.207210  0.333580  1.0  -0.0455
  C  C460  1  0.509850  0.196730  0.374030  1.0  -0.1621
  C  C461  1  0.536410  0.171300  0.414180  1.0  0.2273
  C  C462  1  0.588180  0.156700  0.413430  1.0  -0.1804
  C  C463  1  0.611730  0.167610  0.372610  1.0  -0.0308
  C  C464  1  0.517100  0.123400  0.487230  1.0  0.5906
  C  C465  1  0.209330  0.316300  0.351920  1.0  0.7049
  C  C466  1  0.164020  0.342190  0.368650  1.0  -0.1442
  C  C467  1  0.136200  0.320300  0.402200  1.0  -0.0438
  C  C468  1  0.095200  0.345500  0.418700  1.0  -0.1462
  C  C469  1  0.081600  0.394110  0.400660  1.0  0.2543
  C  C470  1  0.109100  0.415620  0.365970  1.0  -0.1592
  C  C471  1  0.150330  0.389550  0.350670  1.0  -0.0205
  C  C472  1  0.010900  0.416900  0.450150  1.0  0.5263
  C  C473  1  0.897560  0.173500  0.857020  1.0  0.7065
  C  C474  1  0.932900  0.146100  0.894820  1.0  -0.1445
  C  C475  1  0.918400  0.099500  0.911820  1.0  -0.0429
  C  C476  1  0.947300  0.076300  0.951800  1.0  -0.1861
  C  C477  1  0.991100  0.100000  0.975190  1.0  0.2169
  C  C478  1  0.007900  0.145700  0.956150  1.0  -0.2007
  C  C479  1  0.978700  0.168100  0.916640  1.0  -0.0063
  C  C480  1  0.844800  0.659540  0.376120  1.0  0.7315
  C  C481  1  0.862100  0.614520  0.407470  1.0  -0.1563
  C  C482  1  0.909300  0.592050  0.402700  1.0  -0.0253
  C  C483  1  0.926400  0.549800  0.429800  1.0  -0.1574
  C  C484  1  0.895500  0.528350  0.462070  1.0  0.2892
  C  C485  1  0.849690  0.553380  0.469200  1.0  -0.1974
  C  C486  1  0.833280  0.594690  0.441750  1.0  -0.0639
  C  C487  1  0.946900  0.450500  0.486500  1.0  0.5904
  C  C488  1  0.811200  0.842500  0.199500  1.0  0.6915
  C  C489  1  0.836400  0.876100  0.166020  1.0  -0.1354
  C  C490  1  0.860600  0.919000  0.182230  1.0  -0.066
  C  C491  1  0.884900  0.949500  0.151200  1.0  -0.1932
  C  C492  1  0.884600  0.936300  0.102570  1.0  0.2768
  C  C493  1  0.860600  0.893700  0.085910  1.0  -0.1208
  C  C494  1  0.837800  0.861600  0.117400  1.0  -0.0853
  C  C495  1  0.205900  0.153350  0.262200  1.0  0.6964
  C  C496  1  0.165950  0.116900  0.241200  1.0  -0.1492
  C  C497  1  0.161400  0.106400  0.191100  1.0  -0.0379
  C  C498  1  0.123300  0.074300  0.168800  1.0  -0.1714
  C  C499  1  0.087400  0.052400  0.196140  1.0  0.227
  C  C500  1  0.093900  0.060600  0.246370  1.0  -0.1431
  C  C501  1  0.132680  0.093100  0.268800  1.0  -0.0702
  C  C502  1  0.020400  0.021500  0.129630  1.0  0.6185
  C  C503  1  0.005700  0.050000  0.052700  1.0  0.634
  C  C504  1  0.950900  0.995300  0.080000  1.0  0.6439
  C  C505  1  0.886340  0.297000  0.710230  1.0  0.6803
  C  C506  1  0.914190  0.307740  0.667680  1.0  -0.152
  C  C507  1  0.965760  0.292790  0.666420  1.0  -0.0459
  C  C508  1  0.990150  0.303270  0.625970  1.0  -0.1629
  C  C509  1  0.963590  0.328700  0.585820  1.0  0.2279
  C  C510  1  0.911820  0.343300  0.586570  1.0  -0.1802
  C  C511  1  0.888270  0.332390  0.627390  1.0  -0.0298
  C  C512  1  0.982900  0.376600  0.512770  1.0  0.5911
  C  C513  1  0.709330  0.816300  0.351920  1.0  0.7049
  C  C514  1  0.664020  0.842190  0.368650  1.0  -0.1442
  C  C515  1  0.636200  0.820300  0.402200  1.0  -0.0438
  C  C516  1  0.595200  0.845500  0.418700  1.0  -0.1462
  C  C517  1  0.581600  0.894110  0.400660  1.0  0.2543
  C  C518  1  0.609100  0.915620  0.365970  1.0  -0.1592
  C  C519  1  0.650330  0.889550  0.350670  1.0  -0.0205
  C  C520  1  0.510900  0.916900  0.450150  1.0  0.5263
  C  C521  1  0.397560  0.673500  0.857020  1.0  0.7065
  C  C522  1  0.432900  0.646100  0.894820  1.0  -0.1445
  C  C523  1  0.418400  0.599500  0.911820  1.0  -0.0429
  C  C524  1  0.447300  0.576300  0.951800  1.0  -0.1861
  C  C525  1  0.491100  0.600000  0.975190  1.0  0.2169
  C  C526  1  0.507900  0.645700  0.956150  1.0  -0.2007
  C  C527  1  0.478700  0.668100  0.916640  1.0  -0.0063
  C  C528  1  0.344800  0.159540  0.376120  1.0  0.7315
  C  C529  1  0.362100  0.114520  0.407470  1.0  -0.1563
  C  C530  1  0.409300  0.092050  0.402700  1.0  -0.0253
  C  C531  1  0.426400  0.049800  0.429800  1.0  -0.1574
  C  C532  1  0.395500  0.028350  0.462070  1.0  0.2892
  C  C533  1  0.349690  0.053380  0.469200  1.0  -0.1974
  C  C534  1  0.333280  0.094690  0.441750  1.0  -0.0639
  C  C535  1  0.446900  0.950500  0.486500  1.0  0.5904
  C  C536  1  0.311200  0.342500  0.199500  1.0  0.6915
  C  C537  1  0.336400  0.376100  0.166020  1.0  -0.1354
  C  C538  1  0.360600  0.419000  0.182230  1.0  -0.066
  C  C539  1  0.384900  0.449500  0.151200  1.0  -0.1933
  C  C540  1  0.384600  0.436300  0.102570  1.0  0.2768
  C  C541  1  0.360600  0.393700  0.085910  1.0  -0.1208
  C  C542  1  0.337800  0.361600  0.117400  1.0  -0.0853
  C  C543  1  0.705900  0.653350  0.262200  1.0  0.6964
  C  C544  1  0.665950  0.616900  0.241200  1.0  -0.1492
  C  C545  1  0.661400  0.606400  0.191100  1.0  -0.0379
  C  C546  1  0.623300  0.574300  0.168800  1.0  -0.1714
  C  C547  1  0.587400  0.552400  0.196140  1.0  0.227
  C  C548  1  0.593900  0.560600  0.246370  1.0  -0.1431
  C  C549  1  0.632680  0.593100  0.268800  1.0  -0.0702
  C  C550  1  0.520400  0.521500  0.129630  1.0  0.6185
  C  C551  1  0.505700  0.550000  0.052700  1.0  0.634
  C  C552  1  0.450900  0.495300  0.080000  1.0  0.6439
  C  C553  1  0.386340  0.797000  0.710230  1.0  0.6803
  C  C554  1  0.414190  0.807740  0.667680  1.0  -0.152
  C  C555  1  0.465760  0.792790  0.666420  1.0  -0.0459
  C  C556  1  0.490150  0.803270  0.625970  1.0  -0.1629
  C  C557  1  0.463590  0.828700  0.585820  1.0  0.2279
  C  C558  1  0.411820  0.843300  0.586570  1.0  -0.1802
  C  C559  1  0.388270  0.832390  0.627390  1.0  -0.0298
  C  C560  1  0.482900  0.876600  0.512770  1.0  0.5911
  C  C561  1  0.209330  0.683700  0.851920  1.0  0.705
  C  C562  1  0.164020  0.657810  0.868650  1.0  -0.1441
  C  C563  1  0.136200  0.679700  0.902200  1.0  -0.0425
  C  C564  1  0.095200  0.654500  0.918700  1.0  -0.1481
  C  C565  1  0.081600  0.605890  0.900660  1.0  0.2543
  C  C566  1  0.109100  0.584380  0.865970  1.0  -0.1602
  C  C567  1  0.150330  0.610450  0.850670  1.0  -0.0209
  C  C568  1  0.010900  0.583100  0.950150  1.0  0.5261
  C  C569  1  0.897560  0.826500  0.357020  1.0  0.706
  C  C570  1  0.932900  0.853900  0.394820  1.0  -0.1453
  C  C571  1  0.918400  0.900500  0.411820  1.0  -0.0432
  C  C572  1  0.947300  0.923700  0.451800  1.0  -0.1861
  C  C573  1  0.991100  0.900000  0.475190  1.0  0.2174
  C  C574  1  0.007900  0.854300  0.456150  1.0  -0.2018
  C  C575  1  0.978700  0.831900  0.416640  1.0  -0.0074
  C  C576  1  0.844800  0.340460  0.876120  1.0  0.7314
  C  C577  1  0.862100  0.385480  0.907470  1.0  -0.1589
  C  C578  1  0.909300  0.407950  0.902700  1.0  -0.0255
  C  C579  1  0.926400  0.450200  0.929800  1.0  -0.1567
  C  C580  1  0.895500  0.471650  0.962070  1.0  0.2899
  C  C581  1  0.849690  0.446620  0.969200  1.0  -0.199
  C  C582  1  0.833280  0.405310  0.941750  1.0  -0.0631
  C  C583  1  0.946900  0.549500  0.986500  1.0  0.5909
  C  C584  1  0.811200  0.157500  0.699500  1.0  0.6919
  C  C585  1  0.836400  0.123900  0.666020  1.0  -0.1355
  C  C586  1  0.860600  0.081000  0.682230  1.0  -0.0655
  C  C587  1  0.884900  0.050500  0.651200  1.0  -0.1937
  C  C588  1  0.884600  0.063700  0.602570  1.0  0.2771
  C  C589  1  0.860600  0.106300  0.585910  1.0  -0.1206
  C  C590  1  0.837800  0.138400  0.617400  1.0  -0.0867
  C  C591  1  0.205900  0.846650  0.762200  1.0  0.696
  C  C592  1  0.165950  0.883100  0.741200  1.0  -0.1495
  C  C593  1  0.161400  0.893600  0.691100  1.0  -0.0374
  C  C594  1  0.123300  0.925700  0.668800  1.0  -0.1716
  C  C595  1  0.087400  0.947600  0.696140  1.0  0.227
  C  C596  1  0.093900  0.939400  0.746370  1.0  -0.1429
  C  C597  1  0.132680  0.906900  0.768800  1.0  -0.0706
  C  C598  1  0.020400  0.978500  0.629630  1.0  0.6186
  C  C599  1  0.005700  0.950000  0.552700  1.0  0.6358
  C  C600  1  0.950900  0.004700  0.580000  1.0  0.6443
  C  C601  1  0.886340  0.703000  0.210230  1.0  0.6804
  C  C602  1  0.914190  0.692260  0.167680  1.0  -0.152
  C  C603  1  0.965760  0.707210  0.166420  1.0  -0.0457
  C  C604  1  0.990150  0.696730  0.125970  1.0  -0.1625
  C  C605  1  0.963590  0.671300  0.085820  1.0  0.2277
  C  C606  1  0.911820  0.656700  0.086570  1.0  -0.1806
  C  C607  1  0.888270  0.667610  0.127390  1.0  -0.0294
  C  C608  1  0.982900  0.623400  0.012770  1.0  0.5908
  C  C609  1  0.709330  0.183700  0.851920  1.0  0.705
  C  C610  1  0.664020  0.157810  0.868650  1.0  -0.1441
  C  C611  1  0.636200  0.179700  0.902200  1.0  -0.0425
  C  C612  1  0.595200  0.154500  0.918700  1.0  -0.1481
  C  C613  1  0.581600  0.105890  0.900660  1.0  0.2543
  C  C614  1  0.609100  0.084380  0.865970  1.0  -0.1602
  C  C615  1  0.650330  0.110450  0.850670  1.0  -0.0209
  C  C616  1  0.510900  0.083100  0.950150  1.0  0.5261
  C  C617  1  0.397560  0.326500  0.357020  1.0  0.706
  C  C618  1  0.432900  0.353900  0.394820  1.0  -0.1453
  C  C619  1  0.418400  0.400500  0.411820  1.0  -0.0432
  C  C620  1  0.447300  0.423700  0.451800  1.0  -0.1861
  C  C621  1  0.491100  0.400000  0.475190  1.0  0.2174
  C  C622  1  0.507900  0.354300  0.456150  1.0  -0.2018
  C  C623  1  0.478700  0.331900  0.416640  1.0  -0.0074
  C  C624  1  0.344800  0.840460  0.876120  1.0  0.7314
  C  C625  1  0.362100  0.885480  0.907470  1.0  -0.1589
  C  C626  1  0.409300  0.907950  0.902700  1.0  -0.0255
  C  C627  1  0.426400  0.950200  0.929800  1.0  -0.1567
  C  C628  1  0.395500  0.971650  0.962070  1.0  0.2899
  C  C629  1  0.349690  0.946620  0.969200  1.0  -0.199
  C  C630  1  0.333280  0.905310  0.941750  1.0  -0.0631
  C  C631  1  0.446900  0.049500  0.986500  1.0  0.5909
  C  C632  1  0.311200  0.657500  0.699500  1.0  0.6919
  C  C633  1  0.336400  0.623900  0.666020  1.0  -0.1355
  C  C634  1  0.360600  0.581000  0.682230  1.0  -0.0655
  C  C635  1  0.384900  0.550500  0.651200  1.0  -0.1937
  C  C636  1  0.384600  0.563700  0.602570  1.0  0.2771
  C  C637  1  0.360600  0.606300  0.585910  1.0  -0.1206
  C  C638  1  0.337800  0.638400  0.617400  1.0  -0.0867
  C  C639  1  0.705900  0.346650  0.762200  1.0  0.696
  C  C640  1  0.665950  0.383100  0.741200  1.0  -0.1495
  C  C641  1  0.661400  0.393600  0.691100  1.0  -0.0374
  C  C642  1  0.623300  0.425700  0.668800  1.0  -0.1716
  C  C643  1  0.587400  0.447600  0.696140  1.0  0.227
  C  C644  1  0.593900  0.439400  0.746370  1.0  -0.1429
  C  C645  1  0.632680  0.406900  0.768800  1.0  -0.0706
  C  C646  1  0.520400  0.478500  0.629630  1.0  0.6186
  C  C647  1  0.505700  0.450000  0.552700  1.0  0.6358
  C  C648  1  0.450900  0.504700  0.580000  1.0  0.6443
  C  C649  1  0.386340  0.203000  0.210230  1.0  0.6804
  C  C650  1  0.414190  0.192260  0.167680  1.0  -0.152
  C  C651  1  0.465760  0.207210  0.166420  1.0  -0.0457
  C  C652  1  0.490150  0.196730  0.125970  1.0  -0.1625
  C  C653  1  0.463590  0.171300  0.085820  1.0  0.2277
  C  C654  1  0.411820  0.156700  0.086570  1.0  -0.1806
  C  C655  1  0.388270  0.167610  0.127390  1.0  -0.0294
  C  C656  1  0.482900  0.123400  0.012770  1.0  0.5908
  N  N657  1  0.958660  0.423130  0.086320  1.0  -0.2782
  N  N658  1  0.984650  0.376250  0.021700  1.0  -0.5853
  N  N659  1  0.022810  0.455940  0.048360  1.0  -0.5398
  N  N660  1  0.980100  0.082700  0.481230  1.0  -0.3997
  N  N661  1  0.090780  0.485560  0.009070  1.0  -0.301
  N  N662  1  0.092800  0.966900  0.430190  1.0  -0.3818
  N  N663  1  0.953160  0.021500  0.323690  1.0  -0.32
  N  N664  1  0.962830  0.050600  0.404520  1.0  -0.5208
  N  N665  1  0.037400  0.023000  0.457870  1.0  -0.6839
  N  N666  1  0.022290  0.993700  0.374520  1.0  -0.5275
  N  N667  1  0.010750  0.336900  0.955360  1.0  -0.4062
  N  N668  1  0.052060  0.412360  0.981290  1.0  -0.5138
  N  N669  1  0.458660  0.923130  0.086320  1.0  -0.2782
  N  N670  1  0.484650  0.876250  0.021700  1.0  -0.5853
  N  N671  1  0.522810  0.955940  0.048360  1.0  -0.5398
  N  N672  1  0.480100  0.582700  0.481230  1.0  -0.3997
  N  N673  1  0.590780  0.985560  0.009070  1.0  -0.301
  N  N674  1  0.592800  0.466900  0.430190  1.0  -0.3818
  N  N675  1  0.453160  0.521500  0.323690  1.0  -0.32
  N  N676  1  0.462830  0.550600  0.404520  1.0  -0.5208
  N  N677  1  0.537400  0.523000  0.457870  1.0  -0.6839
  N  N678  1  0.522290  0.493700  0.374520  1.0  -0.5275
  N  N679  1  0.510750  0.836900  0.955360  1.0  -0.4062
  N  N680  1  0.552060  0.912360  0.981290  1.0  -0.5138
  N  N681  1  0.958660  0.576870  0.586320  1.0  -0.2791
  N  N682  1  0.984650  0.623750  0.521700  1.0  -0.5851
  N  N683  1  0.022810  0.544060  0.548360  1.0  -0.54
  N  N684  1  0.980100  0.917300  0.981230  1.0  -0.3988
  N  N685  1  0.090780  0.514440  0.509070  1.0  -0.3031
  N  N686  1  0.092800  0.033100  0.930190  1.0  -0.3816
  N  N687  1  0.953160  0.978500  0.823690  1.0  -0.3198
  N  N688  1  0.962830  0.949400  0.904520  1.0  -0.5215
  N  N689  1  0.037400  0.977000  0.957870  1.0  -0.6836
  N  N690  1  0.022290  0.006300  0.874520  1.0  -0.5266
  N  N691  1  0.010750  0.663100  0.455360  1.0  -0.4058
  N  N692  1  0.052060  0.587640  0.481290  1.0  -0.5137
  N  N693  1  0.458660  0.076870  0.586320  1.0  -0.2791
  N  N694  1  0.484650  0.123750  0.521700  1.0  -0.5851
  N  N695  1  0.522810  0.044060  0.548360  1.0  -0.54
  N  N696  1  0.480100  0.417300  0.981230  1.0  -0.3988
  N  N697  1  0.590780  0.014440  0.509070  1.0  -0.3032
  N  N698  1  0.592800  0.533100  0.930190  1.0  -0.3816
  N  N699  1  0.453160  0.478500  0.823690  1.0  -0.3198
  N  N700  1  0.462830  0.449400  0.904520  1.0  -0.5215
  N  N701  1  0.537400  0.477000  0.957870  1.0  -0.6836
  N  N702  1  0.522290  0.506300  0.874520  1.0  -0.5266
  N  N703  1  0.510750  0.163100  0.455360  1.0  -0.4058
  N  N704  1  0.552060  0.087640  0.481290  1.0  -0.5137
  N  N705  1  0.041340  0.423130  0.413680  1.0  -0.2773
  N  N706  1  0.015350  0.376250  0.478300  1.0  -0.586
  N  N707  1  0.977190  0.455940  0.451640  1.0  -0.5368
  N  N708  1  0.019900  0.082700  0.018770  1.0  -0.3988
  N  N709  1  0.909220  0.485560  0.490930  1.0  -0.3028
  N  N710  1  0.907200  0.966900  0.069810  1.0  -0.383
  N  N711  1  0.046840  0.021500  0.176310  1.0  -0.3207
  N  N712  1  0.037170  0.050600  0.095480  1.0  -0.522
  N  N713  1  0.962600  0.023000  0.042130  1.0  -0.6864
  N  N714  1  0.977710  0.993700  0.125480  1.0  -0.5266
  N  N715  1  0.989250  0.336900  0.544640  1.0  -0.4091
  N  N716  1  0.947940  0.412360  0.518710  1.0  -0.5158
  N  N717  1  0.541340  0.923130  0.413680  1.0  -0.2773
  N  N718  1  0.515350  0.876250  0.478300  1.0  -0.586
  N  N719  1  0.477190  0.955940  0.451640  1.0  -0.5368
  N  N720  1  0.519900  0.582700  0.018770  1.0  -0.3988
  N  N721  1  0.409220  0.985560  0.490930  1.0  -0.3028
  N  N722  1  0.407200  0.466900  0.069810  1.0  -0.383
  N  N723  1  0.546840  0.521500  0.176310  1.0  -0.3207
  N  N724  1  0.537170  0.550600  0.095480  1.0  -0.522
  N  N725  1  0.462600  0.523000  0.042130  1.0  -0.6864
  N  N726  1  0.477710  0.493700  0.125480  1.0  -0.5266
  N  N727  1  0.489250  0.836900  0.544640  1.0  -0.4091
  N  N728  1  0.447940  0.912360  0.518710  1.0  -0.5158
  N  N729  1  0.041340  0.576870  0.913680  1.0  -0.277
  N  N730  1  0.015350  0.623750  0.978300  1.0  -0.5872
  N  N731  1  0.977190  0.544060  0.951640  1.0  -0.5387
  N  N732  1  0.019900  0.917300  0.518770  1.0  -0.3974
  N  N733  1  0.909220  0.514440  0.990930  1.0  -0.3044
  N  N734  1  0.907200  0.033100  0.569810  1.0  -0.3831
  N  N735  1  0.046840  0.978500  0.676310  1.0  -0.3203
  N  N736  1  0.037170  0.949400  0.595480  1.0  -0.5209
  N  N737  1  0.962600  0.977000  0.542130  1.0  -0.6868
  N  N738  1  0.977710  0.006300  0.625480  1.0  -0.527
  N  N739  1  0.989250  0.663100  0.044640  1.0  -0.4081
  N  N740  1  0.947940  0.587640  0.018710  1.0  -0.5152
  N  N741  1  0.541340  0.076870  0.913680  1.0  -0.277
  N  N742  1  0.515350  0.123750  0.978300  1.0  -0.5872
  N  N743  1  0.477190  0.044060  0.951640  1.0  -0.5387
  N  N744  1  0.519900  0.417300  0.518770  1.0  -0.3974
  N  N745  1  0.409220  0.014440  0.990930  1.0  -0.3044
  N  N746  1  0.407200  0.533100  0.569810  1.0  -0.3831
  N  N747  1  0.546840  0.478500  0.676310  1.0  -0.3203
  N  N748  1  0.537170  0.449400  0.595480  1.0  -0.5209
  N  N749  1  0.462600  0.477000  0.542130  1.0  -0.6868
  N  N750  1  0.477710  0.506300  0.625480  1.0  -0.527
  N  N751  1  0.489250  0.163100  0.044640  1.0  -0.4081
  N  N752  1  0.447940  0.087640  0.018710  1.0  -0.5152
  O  O753  1  0.782140  0.269890  0.136240  1.0  -0.6168
  O  O754  1  0.765120  0.341840  0.174510  1.0  -0.6127
  O  O755  1  0.146640  0.153110  0.656570  1.0  -0.6256
  O  O756  1  0.087800  0.214610  0.659570  1.0  -0.5937
  O  O757  1  0.126040  0.672980  0.154220  1.0  -0.5956
  O  O758  1  0.198130  0.679250  0.119080  1.0  -0.586
  O  O759  1  0.197640  0.862590  0.260610  1.0  -0.6015
  O  O760  1  0.196600  0.797040  0.312320  1.0  -0.66
  O  O761  1  0.795740  0.169680  0.194600  1.0  -0.581
  O  O762  1  0.759120  0.165020  0.262280  1.0  -0.6348
  O  O763  1  0.087590  0.278860  0.750940  1.0  -0.6053
  O  O764  1  0.160550  0.308560  0.793060  1.0  -0.6179
  O  O765  1  0.700140  0.250910  0.212520  1.0  -1.2308
  O  O766  1  0.282140  0.769890  0.136240  1.0  -0.6168
  O  O767  1  0.265120  0.841840  0.174510  1.0  -0.6127
  O  O768  1  0.646640  0.653110  0.656570  1.0  -0.6256
  O  O769  1  0.587800  0.714610  0.659570  1.0  -0.5937
  O  O770  1  0.626040  0.172980  0.154220  1.0  -0.5956
  O  O771  1  0.698130  0.179250  0.119080  1.0  -0.5859
  O  O772  1  0.697640  0.362590  0.260610  1.0  -0.6015
  O  O773  1  0.696600  0.297040  0.312320  1.0  -0.6604
  O  O774  1  0.295740  0.669680  0.194600  1.0  -0.5807
  O  O775  1  0.259120  0.665020  0.262280  1.0  -0.6348
  O  O776  1  0.587590  0.778860  0.750940  1.0  -0.6053
  O  O777  1  0.660550  0.808560  0.793060  1.0  -0.6179
  O  O778  1  0.200140  0.750910  0.212520  1.0  -1.2308
  O  O779  1  0.782140  0.730110  0.636240  1.0  -0.6175
  O  O780  1  0.765120  0.658160  0.674510  1.0  -0.6127
  O  O781  1  0.146640  0.846890  0.156570  1.0  -0.6254
  O  O782  1  0.087800  0.785390  0.159570  1.0  -0.5946
  O  O783  1  0.126040  0.327020  0.654220  1.0  -0.5959
  O  O784  1  0.198130  0.320750  0.619080  1.0  -0.5856
  O  O785  1  0.197640  0.137410  0.760610  1.0  -0.6012
  O  O786  1  0.196600  0.202960  0.812320  1.0  -0.6574
  O  O787  1  0.795740  0.830320  0.694600  1.0  -0.5814
  O  O788  1  0.759120  0.834980  0.762280  1.0  -0.6355
  O  O789  1  0.087590  0.721140  0.250940  1.0  -0.6054
  O  O790  1  0.160550  0.691440  0.293060  1.0  -0.6165
  O  O791  1  0.700140  0.749090  0.712520  1.0  -1.2309
  O  O792  1  0.282140  0.230110  0.636240  1.0  -0.6175
  O  O793  1  0.265120  0.158160  0.674510  1.0  -0.6127
  O  O794  1  0.646640  0.346890  0.156570  1.0  -0.6254
  O  O795  1  0.587800  0.285390  0.159570  1.0  -0.5946
  O  O796  1  0.626040  0.827020  0.654220  1.0  -0.5959
  O  O797  1  0.698130  0.820750  0.619080  1.0  -0.5856
  O  O798  1  0.697640  0.637410  0.760610  1.0  -0.6012
  O  O799  1  0.696600  0.702960  0.812320  1.0  -0.6575
  O  O800  1  0.295740  0.330320  0.694600  1.0  -0.581
  O  O801  1  0.259120  0.334980  0.762280  1.0  -0.6355
  O  O802  1  0.587590  0.221140  0.250940  1.0  -0.6054
  O  O803  1  0.660550  0.191440  0.293060  1.0  -0.6165
  O  O804  1  0.200140  0.249090  0.712520  1.0  -1.2309
  O  O805  1  0.217860  0.269890  0.363760  1.0  -0.6173
  O  O806  1  0.234880  0.341840  0.325490  1.0  -0.6134
  O  O807  1  0.853360  0.153110  0.843430  1.0  -0.6248
  O  O808  1  0.912200  0.214610  0.840430  1.0  -0.5939
  O  O809  1  0.873960  0.672980  0.345780  1.0  -0.5959
  O  O810  1  0.801870  0.679250  0.380920  1.0  -0.5873
  O  O811  1  0.802360  0.862590  0.239390  1.0  -0.6024
  O  O812  1  0.803400  0.797040  0.187680  1.0  -0.6602
  O  O813  1  0.204260  0.169680  0.305400  1.0  -0.5824
  O  O814  1  0.240880  0.165020  0.237720  1.0  -0.6361
  O  O815  1  0.912410  0.278860  0.749060  1.0  -0.6048
  O  O816  1  0.839450  0.308560  0.706940  1.0  -0.6183
  O  O817  1  0.299860  0.250910  0.287480  1.0  -1.2304
  O  O818  1  0.717860  0.769890  0.363760  1.0  -0.6173
  O  O819  1  0.734880  0.841840  0.325490  1.0  -0.6134
  O  O820  1  0.353360  0.653110  0.843430  1.0  -0.6248
  O  O821  1  0.412200  0.714610  0.840430  1.0  -0.5939
  O  O822  1  0.373960  0.172980  0.345780  1.0  -0.5959
  O  O823  1  0.301870  0.179250  0.380920  1.0  -0.5872
  O  O824  1  0.302360  0.362590  0.239390  1.0  -0.6024
  O  O825  1  0.303400  0.297040  0.187680  1.0  -0.6605
  O  O826  1  0.704260  0.669680  0.305400  1.0  -0.5819
  O  O827  1  0.740880  0.665020  0.237720  1.0  -0.6361
  O  O828  1  0.412410  0.778860  0.749060  1.0  -0.6048
  O  O829  1  0.339450  0.808560  0.706940  1.0  -0.6183
  O  O830  1  0.799860  0.750910  0.287480  1.0  -1.2304
  O  O831  1  0.217860  0.730110  0.863760  1.0  -0.6184
  O  O832  1  0.234880  0.658160  0.825490  1.0  -0.6128
  O  O833  1  0.853360  0.846890  0.343430  1.0  -0.6252
  O  O834  1  0.912200  0.785390  0.340430  1.0  -0.5941
  O  O835  1  0.873960  0.327020  0.845780  1.0  -0.5962
  O  O836  1  0.801870  0.320750  0.880920  1.0  -0.5876
  O  O837  1  0.802360  0.137410  0.739390  1.0  -0.6017
  O  O838  1  0.803400  0.202960  0.687680  1.0  -0.659
  O  O839  1  0.204260  0.830320  0.805400  1.0  -0.5822
  O  O840  1  0.240880  0.834980  0.737720  1.0  -0.6366
  O  O841  1  0.912410  0.721140  0.249060  1.0  -0.6049
  O  O842  1  0.839450  0.691440  0.206940  1.0  -0.6171
  O  O843  1  0.299860  0.749090  0.787480  1.0  -1.2304
  O  O844  1  0.717860  0.230110  0.863760  1.0  -0.6184
  O  O845  1  0.734880  0.158160  0.825490  1.0  -0.6128
  O  O846  1  0.353360  0.346890  0.343430  1.0  -0.6252
  O  O847  1  0.412200  0.285390  0.340430  1.0  -0.5941
  O  O848  1  0.373960  0.827020  0.845780  1.0  -0.5962
  O  O849  1  0.301870  0.820750  0.880920  1.0  -0.5876
  O  O850  1  0.302360  0.637410  0.739390  1.0  -0.6017
  O  O851  1  0.303400  0.702960  0.687680  1.0  -0.6591
  O  O852  1  0.704260  0.330320  0.805400  1.0  -0.5816
  O  O853  1  0.740880  0.334980  0.737720  1.0  -0.6366
  O  O854  1  0.412410  0.221140  0.249060  1.0  -0.6049
  O  O855  1  0.339450  0.191440  0.206940  1.0  -0.6171
  O  O856  1  0.799860  0.249090  0.787480  1.0  -1.2304
