# generated using pymatgen
data_Co2H40C53(N2O7)2
_symmetry_space_group_name_H-M   'P 1'
_cell_length_a   46.33000000
_cell_length_b   10.72700000
_cell_length_c   23.71400000
_cell_angle_alpha   90.00000000
_cell_angle_beta   95.87200000
_cell_angle_gamma   90.00000000
_symmetry_Int_Tables_number   1
_chemical_formula_structural   Co2H40C53(N2O7)2
_chemical_formula_sum   'Co16 H320 C424 N32 O112'
_cell_volume   11723.59006921
_cell_formula_units_Z   8
loop_
 _symmetry_equiv_pos_site_id
 _symmetry_equiv_pos_as_xyz
  1  'x, y, z'
loop_
 _atom_site_type_symbol
 _atom_site_label
 _atom_site_symmetry_multiplicity
 _atom_site_fract_x
 _atom_site_fract_y
 _atom_site_fract_z
 _atom_site_occupancy
 _atom_site_charge
  Co  Co1  1  0.008540  0.331050  0.069110  1.0  0.9204
  Co  Co2  1  0.714900  0.151640  0.074690  1.0  0.9243
  Co  Co3  1  0.508540  0.831050  0.069110  1.0  0.9204
  Co  Co4  1  0.214900  0.651640  0.074690  1.0  0.9243
  Co  Co5  1  0.991460  0.331050  0.430890  1.0  0.92
  Co  Co6  1  0.285100  0.151640  0.425310  1.0  0.9233
  Co  Co7  1  0.491460  0.831050  0.430890  1.0  0.92
  Co  Co8  1  0.785100  0.651640  0.425310  1.0  0.9233
  Co  Co9  1  0.991460  0.668950  0.930890  1.0  0.923
  Co  Co10  1  0.285100  0.848360  0.925310  1.0  0.9256
  Co  Co11  1  0.491460  0.168950  0.930890  1.0  0.923
  Co  Co12  1  0.785100  0.348360  0.925310  1.0  0.9256
  Co  Co13  1  0.008540  0.668950  0.569110  1.0  0.9232
  Co  Co14  1  0.714900  0.848360  0.574690  1.0  0.9274
  Co  Co15  1  0.508540  0.168950  0.569110  1.0  0.9232
  Co  Co16  1  0.214900  0.348360  0.574690  1.0  0.9274
  H  H17  1  0.892200  0.220800  0.866400  1.0  0.1115
  H  H18  1  0.942400  0.027000  0.020300  1.0  0.0966
  H  H19  1  0.905000  0.923000  0.967000  1.0  0.0962
  H  H20  1  0.928700  0.326100  0.921200  1.0  0.0964
  H  H21  1  0.841500  0.000400  0.949200  1.0  0.0988
  H  H22  1  0.876500  0.773500  0.844200  1.0  0.1158
  H  H23  1  0.848300  0.611600  0.873500  1.0  0.0904
  H  H24  1  0.815400  0.839100  0.982400  1.0  0.1041
  H  H25  1  0.798400  0.145100  0.202700  1.0  0.0999
  H  H26  1  0.789400  0.446700  0.106400  1.0  0.0977
  H  H27  1  0.839900  0.228500  0.251400  1.0  0.1117
  H  H28  1  0.831600  0.531600  0.154100  1.0  0.1226
  H  H29  1  0.951100  0.577500  0.240300  1.0  0.0993
  H  H30  1  0.879000  0.339400  0.145900  1.0  0.0875
  H  H31  1  0.906500  0.562700  0.275100  1.0  0.1184
  H  H32  1  0.924500  0.344700  0.114700  1.0  0.0926
  H  H33  1  0.052500  0.355500  0.173500  1.0  0.0556
  H  H34  1  0.079400  0.239000  0.239400  1.0  0.1035
  H  H35  1  0.022600  0.064600  0.094400  1.0  0.0613
  H  H36  1  0.046800  0.936700  0.160100  1.0  0.1332
  H  H37  1  0.091600  0.102300  0.308600  1.0  0.0454
  H  H38  1  0.117200  0.084700  0.270300  1.0  0.055
  H  H39  1  0.009800  0.778600  0.451400  1.0  0.0619
  H  H40  1  0.071300  0.605100  0.541500  1.0  0.0612
  H  H41  1  0.103600  0.654000  0.480200  1.0  0.1239
  H  H42  1  0.039800  0.835900  0.386100  1.0  0.1303
  H  H43  1  0.077300  0.949000  0.367300  1.0  0.0695
  H  H44  1  0.073700  0.845100  0.320500  1.0  0.0791
  H  H45  1  0.135000  0.770600  0.312700  1.0  0.0567
  H  H46  1  0.112400  0.801100  0.260100  1.0  0.0571
  H  H47  1  0.142700  0.909900  0.392500  1.0  0.0694
  H  H48  1  0.153100  0.007400  0.349500  1.0  0.0536
  H  H49  1  0.175000  0.578300  0.164600  1.0  0.0671
  H  H50  1  0.209400  0.893900  0.136200  1.0  0.0668
  H  H51  1  0.148800  0.661300  0.232300  1.0  0.1116
  H  H52  1  0.184800  0.991400  0.202500  1.0  0.13
  H  H53  1  0.149700  0.350600  0.530800  1.0  0.069
  H  H54  1  0.117600  0.250400  0.466700  1.0  0.1085
  H  H55  1  0.181800  0.036400  0.424100  1.0  0.122
  H  H56  1  0.212000  0.142600  0.489100  1.0  0.0623
  H  H57  1  0.392200  0.720800  0.866400  1.0  0.1115
  H  H58  1  0.442400  0.527000  0.020300  1.0  0.0966
  H  H59  1  0.405000  0.423000  0.967000  1.0  0.0962
  H  H60  1  0.428700  0.826100  0.921200  1.0  0.0964
  H  H61  1  0.341500  0.500400  0.949200  1.0  0.0988
  H  H62  1  0.376500  0.273500  0.844200  1.0  0.1158
  H  H63  1  0.348300  0.111600  0.873500  1.0  0.0904
  H  H64  1  0.315400  0.339100  0.982400  1.0  0.1041
  H  H65  1  0.298400  0.645100  0.202700  1.0  0.0999
  H  H66  1  0.289400  0.946700  0.106400  1.0  0.0977
  H  H67  1  0.339900  0.728500  0.251400  1.0  0.1117
  H  H68  1  0.331600  0.031600  0.154100  1.0  0.1226
  H  H69  1  0.451100  0.077500  0.240300  1.0  0.0993
  H  H70  1  0.379000  0.839400  0.145900  1.0  0.0875
  H  H71  1  0.406500  0.062700  0.275100  1.0  0.1184
  H  H72  1  0.424500  0.844700  0.114700  1.0  0.0926
  H  H73  1  0.552500  0.855500  0.173500  1.0  0.0556
  H  H74  1  0.579400  0.739000  0.239400  1.0  0.1035
  H  H75  1  0.522600  0.564600  0.094400  1.0  0.0613
  H  H76  1  0.546800  0.436700  0.160100  1.0  0.1332
  H  H77  1  0.591600  0.602300  0.308600  1.0  0.0454
  H  H78  1  0.617200  0.584700  0.270300  1.0  0.055
  H  H79  1  0.509800  0.278600  0.451400  1.0  0.0619
  H  H80  1  0.571300  0.105100  0.541500  1.0  0.0612
  H  H81  1  0.603600  0.154000  0.480200  1.0  0.1239
  H  H82  1  0.539800  0.335900  0.386100  1.0  0.1303
  H  H83  1  0.577300  0.449000  0.367300  1.0  0.0695
  H  H84  1  0.573700  0.345100  0.320500  1.0  0.0791
  H  H85  1  0.635000  0.270600  0.312700  1.0  0.0567
  H  H86  1  0.612400  0.301100  0.260100  1.0  0.0571
  H  H87  1  0.642700  0.409900  0.392500  1.0  0.0694
  H  H88  1  0.653100  0.507400  0.349500  1.0  0.0536
  H  H89  1  0.675000  0.078300  0.164600  1.0  0.0671
  H  H90  1  0.709400  0.393900  0.136200  1.0  0.0668
  H  H91  1  0.648800  0.161300  0.232300  1.0  0.1116
  H  H92  1  0.684800  0.491400  0.202500  1.0  0.13
  H  H93  1  0.649700  0.850600  0.530800  1.0  0.069
  H  H94  1  0.617600  0.750400  0.466700  1.0  0.1085
  H  H95  1  0.681800  0.536400  0.424100  1.0  0.122
  H  H96  1  0.712000  0.642600  0.489100  1.0  0.0623
  H  H97  1  0.107800  0.220800  0.633600  1.0  0.1115
  H  H98  1  0.057600  0.027000  0.479700  1.0  0.0958
  H  H99  1  0.095000  0.923000  0.533000  1.0  0.0963
  H  H100  1  0.071300  0.326100  0.578800  1.0  0.096
  H  H101  1  0.158500  0.000400  0.550800  1.0  0.099
  H  H102  1  0.123500  0.773500  0.655800  1.0  0.1157
  H  H103  1  0.151700  0.611600  0.626500  1.0  0.0909
  H  H104  1  0.184600  0.839100  0.517600  1.0  0.1038
  H  H105  1  0.201600  0.145100  0.297300  1.0  0.0998
  H  H106  1  0.210600  0.446700  0.393600  1.0  0.0973
  H  H107  1  0.160100  0.228500  0.248600  1.0  0.1124
  H  H108  1  0.168400  0.531600  0.345900  1.0  0.1228
  H  H109  1  0.048900  0.577500  0.259700  1.0  0.0989
  H  H110  1  0.121000  0.339400  0.354100  1.0  0.0874
  H  H111  1  0.093500  0.562700  0.224900  1.0  0.1188
  H  H112  1  0.075500  0.344700  0.385300  1.0  0.0925
  H  H113  1  0.947500  0.355500  0.326500  1.0  0.0556
  H  H114  1  0.920600  0.239000  0.260600  1.0  0.1033
  H  H115  1  0.977400  0.064600  0.405600  1.0  0.0613
  H  H116  1  0.953200  0.936700  0.339900  1.0  0.1332
  H  H117  1  0.908400  0.102300  0.191400  1.0  0.0462
  H  H118  1  0.882800  0.084700  0.229700  1.0  0.0548
  H  H119  1  0.990200  0.778600  0.048600  1.0  0.0594
  H  H120  1  0.928700  0.605100  0.958500  1.0  0.06
  H  H121  1  0.896400  0.654000  0.019800  1.0  0.1234
  H  H122  1  0.960200  0.835900  0.113900  1.0  0.1314
  H  H123  1  0.922700  0.949000  0.132700  1.0  0.0701
  H  H124  1  0.926300  0.845100  0.179500  1.0  0.0793
  H  H125  1  0.865000  0.770600  0.187300  1.0  0.0557
  H  H126  1  0.887600  0.801100  0.239900  1.0  0.0578
  H  H127  1  0.857300  0.909900  0.107500  1.0  0.0687
  H  H128  1  0.846900  0.007400  0.150500  1.0  0.0523
  H  H129  1  0.825000  0.578300  0.335400  1.0  0.0672
  H  H130  1  0.790600  0.893900  0.363800  1.0  0.0663
  H  H131  1  0.851200  0.661300  0.267700  1.0  0.1122
  H  H132  1  0.815200  0.991400  0.297500  1.0  0.1304
  H  H133  1  0.850300  0.350600  0.969200  1.0  0.0696
  H  H134  1  0.882400  0.250400  0.033300  1.0  0.1078
  H  H135  1  0.818200  0.036400  0.075900  1.0  0.1219
  H  H136  1  0.788000  0.142600  0.010900  1.0  0.0631
  H  H137  1  0.607800  0.720800  0.633600  1.0  0.1115
  H  H138  1  0.557600  0.527000  0.479700  1.0  0.0958
  H  H139  1  0.595000  0.423000  0.533000  1.0  0.0963
  H  H140  1  0.571300  0.826100  0.578800  1.0  0.096
  H  H141  1  0.658500  0.500400  0.550800  1.0  0.099
  H  H142  1  0.623500  0.273500  0.655800  1.0  0.1157
  H  H143  1  0.651700  0.111600  0.626500  1.0  0.0909
  H  H144  1  0.684600  0.339100  0.517600  1.0  0.1038
  H  H145  1  0.701600  0.645100  0.297300  1.0  0.0998
  H  H146  1  0.710600  0.946700  0.393600  1.0  0.0973
  H  H147  1  0.660100  0.728500  0.248600  1.0  0.1124
  H  H148  1  0.668400  0.031600  0.345900  1.0  0.1228
  H  H149  1  0.548900  0.077500  0.259700  1.0  0.0989
  H  H150  1  0.621000  0.839400  0.354100  1.0  0.0874
  H  H151  1  0.593500  0.062700  0.224900  1.0  0.1188
  H  H152  1  0.575500  0.844700  0.385300  1.0  0.0925
  H  H153  1  0.447500  0.855500  0.326500  1.0  0.0556
  H  H154  1  0.420600  0.739000  0.260600  1.0  0.1033
  H  H155  1  0.477400  0.564600  0.405600  1.0  0.0613
  H  H156  1  0.453200  0.436700  0.339900  1.0  0.1332
  H  H157  1  0.408400  0.602300  0.191400  1.0  0.0462
  H  H158  1  0.382800  0.584700  0.229700  1.0  0.0548
  H  H159  1  0.490200  0.278600  0.048600  1.0  0.0594
  H  H160  1  0.428700  0.105100  0.958500  1.0  0.06
  H  H161  1  0.396400  0.154000  0.019800  1.0  0.1234
  H  H162  1  0.460200  0.335900  0.113900  1.0  0.1314
  H  H163  1  0.422700  0.449000  0.132700  1.0  0.0701
  H  H164  1  0.426300  0.345100  0.179500  1.0  0.0793
  H  H165  1  0.365000  0.270600  0.187300  1.0  0.0557
  H  H166  1  0.387600  0.301100  0.239900  1.0  0.0578
  H  H167  1  0.357300  0.409900  0.107500  1.0  0.0687
  H  H168  1  0.346900  0.507400  0.150500  1.0  0.0523
  H  H169  1  0.325000  0.078300  0.335400  1.0  0.0672
  H  H170  1  0.290600  0.393900  0.363800  1.0  0.0663
  H  H171  1  0.351200  0.161300  0.267700  1.0  0.1122
  H  H172  1  0.315200  0.491400  0.297500  1.0  0.1304
  H  H173  1  0.350300  0.850600  0.969200  1.0  0.0696
  H  H174  1  0.382400  0.750400  0.033300  1.0  0.1078
  H  H175  1  0.318200  0.536400  0.075900  1.0  0.1219
  H  H176  1  0.288000  0.642600  0.010900  1.0  0.0631
  H  H177  1  0.107800  0.779200  0.133600  1.0  0.112
  H  H178  1  0.057600  0.973000  0.979700  1.0  0.0956
  H  H179  1  0.095000  0.077000  0.033000  1.0  0.096
  H  H180  1  0.071300  0.673900  0.078800  1.0  0.097
  H  H181  1  0.158500  0.999600  0.050800  1.0  0.0992
  H  H182  1  0.123500  0.226500  0.155800  1.0  0.1159
  H  H183  1  0.151700  0.388400  0.126500  1.0  0.0907
  H  H184  1  0.184600  0.160900  0.017600  1.0  0.1037
  H  H185  1  0.201600  0.854900  0.797300  1.0  0.1
  H  H186  1  0.210600  0.553300  0.893600  1.0  0.0969
  H  H187  1  0.160100  0.771500  0.748600  1.0  0.1122
  H  H188  1  0.168400  0.468400  0.845900  1.0  0.1229
  H  H189  1  0.048900  0.422500  0.759700  1.0  0.0985
  H  H190  1  0.121000  0.660600  0.854100  1.0  0.0876
  H  H191  1  0.093500  0.437300  0.724900  1.0  0.119
  H  H192  1  0.075500  0.655300  0.885300  1.0  0.0925
  H  H193  1  0.947500  0.644500  0.826500  1.0  0.0604
  H  H194  1  0.920600  0.761000  0.760600  1.0  0.1032
  H  H195  1  0.977400  0.935400  0.905600  1.0  0.0611
  H  H196  1  0.953200  0.063300  0.839900  1.0  0.1326
  H  H197  1  0.908400  0.897700  0.691400  1.0  0.045
  H  H198  1  0.882800  0.915300  0.729700  1.0  0.0554
  H  H199  1  0.990200  0.221400  0.548600  1.0  0.0596
  H  H200  1  0.928700  0.394900  0.458500  1.0  0.0599
  H  H201  1  0.896400  0.346000  0.519800  1.0  0.1235
  H  H202  1  0.960200  0.164100  0.613900  1.0  0.1312
  H  H203  1  0.922700  0.051000  0.632700  1.0  0.0699
  H  H204  1  0.926300  0.154900  0.679500  1.0  0.0791
  H  H205  1  0.865000  0.229400  0.687300  1.0  0.0564
  H  H206  1  0.887600  0.198900  0.739900  1.0  0.0566
  H  H207  1  0.857300  0.090100  0.607500  1.0  0.07
  H  H208  1  0.846900  0.992600  0.650500  1.0  0.0523
  H  H209  1  0.825000  0.421700  0.835400  1.0  0.0673
  H  H210  1  0.790600  0.106100  0.863800  1.0  0.0662
  H  H211  1  0.851200  0.338700  0.767700  1.0  0.1131
  H  H212  1  0.815200  0.008600  0.797500  1.0  0.1306
  H  H213  1  0.850300  0.649400  0.469200  1.0  0.0698
  H  H214  1  0.882400  0.749600  0.533300  1.0  0.1081
  H  H215  1  0.818200  0.963600  0.575900  1.0  0.1221
  H  H216  1  0.788000  0.857400  0.510900  1.0  0.0623
  H  H217  1  0.607800  0.279200  0.133600  1.0  0.112
  H  H218  1  0.557600  0.473000  0.979700  1.0  0.0956
  H  H219  1  0.595000  0.577000  0.033000  1.0  0.096
  H  H220  1  0.571300  0.173900  0.078800  1.0  0.097
  H  H221  1  0.658500  0.499600  0.050800  1.0  0.0992
  H  H222  1  0.623500  0.726500  0.155800  1.0  0.1159
  H  H223  1  0.651700  0.888400  0.126500  1.0  0.0907
  H  H224  1  0.684600  0.660900  0.017600  1.0  0.1037
  H  H225  1  0.701600  0.354900  0.797300  1.0  0.1
  H  H226  1  0.710600  0.053300  0.893600  1.0  0.0969
  H  H227  1  0.660100  0.271500  0.748600  1.0  0.1122
  H  H228  1  0.668400  0.968400  0.845900  1.0  0.1229
  H  H229  1  0.548900  0.922500  0.759700  1.0  0.0985
  H  H230  1  0.621000  0.160600  0.854100  1.0  0.0876
  H  H231  1  0.593500  0.937300  0.724900  1.0  0.119
  H  H232  1  0.575500  0.155300  0.885300  1.0  0.0925
  H  H233  1  0.447500  0.144500  0.826500  1.0  0.0604
  H  H234  1  0.420600  0.261000  0.760600  1.0  0.1032
  H  H235  1  0.477400  0.435400  0.905600  1.0  0.0611
  H  H236  1  0.453200  0.563300  0.839900  1.0  0.1326
  H  H237  1  0.408400  0.397700  0.691400  1.0  0.045
  H  H238  1  0.382800  0.415300  0.729700  1.0  0.0554
  H  H239  1  0.490200  0.721400  0.548600  1.0  0.0596
  H  H240  1  0.428700  0.894900  0.458500  1.0  0.0599
  H  H241  1  0.396400  0.846000  0.519800  1.0  0.1235
  H  H242  1  0.460200  0.664100  0.613900  1.0  0.1312
  H  H243  1  0.422700  0.551000  0.632700  1.0  0.0699
  H  H244  1  0.426300  0.654900  0.679500  1.0  0.0791
  H  H245  1  0.365000  0.729400  0.687300  1.0  0.0564
  H  H246  1  0.387600  0.698900  0.739900  1.0  0.0566
  H  H247  1  0.357300  0.590100  0.607500  1.0  0.07
  H  H248  1  0.346900  0.492600  0.650500  1.0  0.0523
  H  H249  1  0.325000  0.921700  0.835400  1.0  0.0673
  H  H250  1  0.290600  0.606100  0.863800  1.0  0.0662
  H  H251  1  0.351200  0.838700  0.767700  1.0  0.1131
  H  H252  1  0.315200  0.508600  0.797500  1.0  0.1306
  H  H253  1  0.350300  0.149400  0.469200  1.0  0.0698
  H  H254  1  0.382400  0.249600  0.533300  1.0  0.1081
  H  H255  1  0.318200  0.463600  0.575900  1.0  0.1221
  H  H256  1  0.288000  0.357400  0.510900  1.0  0.0623
  H  H257  1  0.892200  0.779200  0.366400  1.0  0.1115
  H  H258  1  0.942400  0.973000  0.520300  1.0  0.0965
  H  H259  1  0.905000  0.077000  0.467000  1.0  0.0963
  H  H260  1  0.928700  0.673900  0.421200  1.0  0.0972
  H  H261  1  0.841500  0.999600  0.449200  1.0  0.0989
  H  H262  1  0.876500  0.226500  0.344200  1.0  0.1159
  H  H263  1  0.848300  0.388400  0.373500  1.0  0.0905
  H  H264  1  0.815400  0.160900  0.482400  1.0  0.1042
  H  H265  1  0.798400  0.854900  0.702700  1.0  0.1003
  H  H266  1  0.789400  0.553300  0.606400  1.0  0.0967
  H  H267  1  0.839900  0.771500  0.751400  1.0  0.1112
  H  H268  1  0.831600  0.468400  0.654100  1.0  0.1228
  H  H269  1  0.951100  0.422500  0.740300  1.0  0.0992
  H  H270  1  0.879000  0.660600  0.645900  1.0  0.0874
  H  H271  1  0.906500  0.437300  0.775100  1.0  0.1185
  H  H272  1  0.924500  0.655300  0.614700  1.0  0.0924
  H  H273  1  0.052500  0.644500  0.673500  1.0  0.0601
  H  H274  1  0.079400  0.761000  0.739400  1.0  0.1043
  H  H275  1  0.022600  0.935400  0.594400  1.0  0.0611
  H  H276  1  0.046800  0.063300  0.660100  1.0  0.1327
  H  H277  1  0.091600  0.897700  0.808600  1.0  0.046
  H  H278  1  0.117200  0.915300  0.770300  1.0  0.0546
  H  H279  1  0.009800  0.221400  0.951400  1.0  0.062
  H  H280  1  0.071300  0.394900  0.041500  1.0  0.0605
  H  H281  1  0.103600  0.346000  0.980200  1.0  0.1242
  H  H282  1  0.039800  0.164100  0.886100  1.0  0.1301
  H  H283  1  0.077300  0.051000  0.867300  1.0  0.07
  H  H284  1  0.073700  0.154900  0.820500  1.0  0.079
  H  H285  1  0.135000  0.229400  0.812700  1.0  0.055
  H  H286  1  0.112400  0.198900  0.760100  1.0  0.057
  H  H287  1  0.142700  0.090100  0.892500  1.0  0.0675
  H  H288  1  0.153100  0.992600  0.849500  1.0  0.054
  H  H289  1  0.175000  0.421700  0.664600  1.0  0.0672
  H  H290  1  0.209400  0.106100  0.636200  1.0  0.0661
  H  H291  1  0.148800  0.338700  0.732300  1.0  0.1118
  H  H292  1  0.184800  0.008600  0.702500  1.0  0.1307
  H  H293  1  0.149700  0.649400  0.030800  1.0  0.0694
  H  H294  1  0.117600  0.749600  0.966700  1.0  0.1081
  H  H295  1  0.181800  0.963600  0.924100  1.0  0.1228
  H  H296  1  0.212000  0.857400  0.989100  1.0  0.062
  H  H297  1  0.392200  0.279200  0.366400  1.0  0.1115
  H  H298  1  0.442400  0.473000  0.520300  1.0  0.0965
  H  H299  1  0.405000  0.577000  0.467000  1.0  0.0963
  H  H300  1  0.428700  0.173900  0.421200  1.0  0.0972
  H  H301  1  0.341500  0.499600  0.449200  1.0  0.0989
  H  H302  1  0.376500  0.726500  0.344200  1.0  0.1159
  H  H303  1  0.348300  0.888400  0.373500  1.0  0.0905
  H  H304  1  0.315400  0.660900  0.482400  1.0  0.1042
  H  H305  1  0.298400  0.354900  0.702700  1.0  0.1003
  H  H306  1  0.289400  0.053300  0.606400  1.0  0.0967
  H  H307  1  0.339900  0.271500  0.751400  1.0  0.1112
  H  H308  1  0.331600  0.968400  0.654100  1.0  0.1228
  H  H309  1  0.451100  0.922500  0.740300  1.0  0.0992
  H  H310  1  0.379000  0.160600  0.645900  1.0  0.0874
  H  H311  1  0.406500  0.937300  0.775100  1.0  0.1185
  H  H312  1  0.424500  0.155300  0.614700  1.0  0.0924
  H  H313  1  0.552500  0.144500  0.673500  1.0  0.0601
  H  H314  1  0.579400  0.261000  0.739400  1.0  0.1043
  H  H315  1  0.522600  0.435400  0.594400  1.0  0.0611
  H  H316  1  0.546800  0.563300  0.660100  1.0  0.1327
  H  H317  1  0.591600  0.397700  0.808600  1.0  0.046
  H  H318  1  0.617200  0.415300  0.770300  1.0  0.0546
  H  H319  1  0.509800  0.721400  0.951400  1.0  0.062
  H  H320  1  0.571300  0.894900  0.041500  1.0  0.0605
  H  H321  1  0.603600  0.846000  0.980200  1.0  0.1242
  H  H322  1  0.539800  0.664100  0.886100  1.0  0.1301
  H  H323  1  0.577300  0.551000  0.867300  1.0  0.07
  H  H324  1  0.573700  0.654900  0.820500  1.0  0.079
  H  H325  1  0.635000  0.729400  0.812700  1.0  0.055
  H  H326  1  0.612400  0.698900  0.760100  1.0  0.057
  H  H327  1  0.642700  0.590100  0.892500  1.0  0.0675
  H  H328  1  0.653100  0.492600  0.849500  1.0  0.054
  H  H329  1  0.675000  0.921700  0.664600  1.0  0.0672
  H  H330  1  0.709400  0.606100  0.636200  1.0  0.0662
  H  H331  1  0.648800  0.838700  0.732300  1.0  0.1118
  H  H332  1  0.684800  0.508600  0.702500  1.0  0.1307
  H  H333  1  0.649700  0.149400  0.030800  1.0  0.0694
  H  H334  1  0.617600  0.249600  0.966700  1.0  0.1081
  H  H335  1  0.681800  0.463600  0.924100  1.0  0.1228
  H  H336  1  0.712000  0.357400  0.989100  1.0  0.062
  C  C337  1  0.965360  0.245800  0.007620  1.0  0.6193
  C  C338  1  0.939690  0.186000  0.974410  1.0  -0.1547
  C  C339  1  0.902510  0.181700  0.897180  1.0  -0.1765
  C  C340  1  0.896280  0.061700  0.911070  1.0  0.2934
  C  C341  1  0.932370  0.065700  0.989020  1.0  -0.0272
  C  C342  1  0.910250  0.003200  0.957170  1.0  -0.1843
  C  C343  1  0.924420  0.244100  0.929770  1.0  -0.018
  C  C344  1  0.828670  0.708400  0.930310  1.0  -0.1492
  C  C345  1  0.861510  0.899600  0.895000  1.0  0.3041
  C  C346  1  0.843230  0.920600  0.934700  1.0  -0.1976
  C  C347  1  0.863900  0.786900  0.871660  1.0  -0.1832
  C  C348  1  0.847010  0.690200  0.889610  1.0  -0.0221
  C  C349  1  0.827260  0.825100  0.953680  1.0  -0.0557
  C  C350  1  0.810270  0.603400  0.948870  1.0  0.7359
  C  C351  1  0.762320  0.237400  0.120120  1.0  0.6352
  C  C352  1  0.789560  0.289500  0.150040  1.0  -0.1395
  C  C353  1  0.804830  0.223600  0.193020  1.0  -0.0029
  C  C354  1  0.799520  0.402200  0.135810  1.0  -0.0202
  C  C355  1  0.839140  0.388400  0.207020  1.0  0.2834
  C  C356  1  0.829720  0.273000  0.222120  1.0  -0.1831
  C  C357  1  0.824850  0.454000  0.164350  1.0  -0.2382
  C  C358  1  0.936840  0.527100  0.221800  1.0  -0.0249
  C  C359  1  0.942860  0.461000  0.174190  1.0  -0.1632
  C  C360  1  0.893750  0.385200  0.165800  1.0  -0.2032
  C  C361  1  0.888580  0.447500  0.213840  1.0  0.2999
  C  C362  1  0.972230  0.463300  0.152470  1.0  0.6587
  C  C363  1  0.910020  0.519700  0.242410  1.0  -0.1879
  C  C364  1  0.920940  0.390000  0.146660  1.0  -0.0155
  C  C365  1  0.067050  0.073300  0.207040  1.0  0.3463
  C  C366  1  0.051430  0.269200  0.170360  1.0  0.194
  C  C367  1  0.067830  0.199800  0.210290  1.0  -0.2665
  C  C368  1  0.033840  0.100900  0.124810  1.0  0.1926
  C  C369  1  0.048890  0.022700  0.163420  1.0  -0.3024
  C  C370  1  0.101350  0.042700  0.286280  1.0  0.0679
  C  C371  1  0.029220  0.755400  0.457650  1.0  0.1784
  C  C372  1  0.065050  0.654000  0.510220  1.0  0.1719
  C  C373  1  0.084540  0.682300  0.473650  1.0  -0.2771
  C  C374  1  0.046890  0.790000  0.417760  1.0  -0.3342
  C  C375  1  0.075870  0.754200  0.426070  1.0  0.3054
  C  C376  1  0.087230  0.882000  0.349710  1.0  0.0415
  C  C377  1  0.126680  0.836900  0.288350  1.0  0.0665
  C  C378  1  0.112790  0.934800  0.322890  1.0  -0.0505
  C  C379  1  0.136470  0.979000  0.367800  1.0  0.0468
  C  C380  1  0.176790  0.663200  0.172040  1.0  0.1748
  C  C381  1  0.163260  0.837300  0.225080  1.0  0.3242
  C  C382  1  0.196750  0.846300  0.155460  1.0  0.1784
  C  C383  1  0.160830  0.712000  0.213180  1.0  -0.3325
  C  C384  1  0.182130  0.906600  0.195520  1.0  -0.2063
  C  C385  1  0.156530  0.287300  0.508850  1.0  0.1698
  C  C386  1  0.146060  0.133300  0.437770  1.0  0.3522
  C  C387  1  0.137050  0.226900  0.470390  1.0  -0.2218
  C  C388  1  0.174670  0.100700  0.445020  1.0  -0.291
  C  C389  1  0.192540  0.166000  0.484300  1.0  0.1665
  C  C390  1  0.465360  0.745800  0.007620  1.0  0.6193
  C  C391  1  0.439690  0.686000  0.974410  1.0  -0.1547
  C  C392  1  0.402510  0.681700  0.897180  1.0  -0.1765
  C  C393  1  0.396280  0.561700  0.911070  1.0  0.2934
  C  C394  1  0.432370  0.565700  0.989020  1.0  -0.0272
  C  C395  1  0.410250  0.503200  0.957170  1.0  -0.1843
  C  C396  1  0.424420  0.744100  0.929770  1.0  -0.018
  C  C397  1  0.328670  0.208400  0.930310  1.0  -0.1492
  C  C398  1  0.361510  0.399600  0.895000  1.0  0.3041
  C  C399  1  0.343230  0.420600  0.934700  1.0  -0.1976
  C  C400  1  0.363900  0.286900  0.871660  1.0  -0.1832
  C  C401  1  0.347010  0.190200  0.889610  1.0  -0.0221
  C  C402  1  0.327260  0.325100  0.953680  1.0  -0.0557
  C  C403  1  0.310270  0.103400  0.948870  1.0  0.7359
  C  C404  1  0.262320  0.737400  0.120120  1.0  0.6352
  C  C405  1  0.289560  0.789500  0.150040  1.0  -0.1395
  C  C406  1  0.304830  0.723600  0.193020  1.0  -0.0029
  C  C407  1  0.299520  0.902200  0.135810  1.0  -0.0202
  C  C408  1  0.339140  0.888400  0.207020  1.0  0.2834
  C  C409  1  0.329720  0.773000  0.222120  1.0  -0.1831
  C  C410  1  0.324850  0.954000  0.164350  1.0  -0.2382
  C  C411  1  0.436840  0.027100  0.221800  1.0  -0.0249
  C  C412  1  0.442860  0.961000  0.174190  1.0  -0.1632
  C  C413  1  0.393750  0.885200  0.165800  1.0  -0.2032
  C  C414  1  0.388580  0.947500  0.213840  1.0  0.2999
  C  C415  1  0.472230  0.963300  0.152470  1.0  0.6587
  C  C416  1  0.410020  0.019700  0.242410  1.0  -0.1879
  C  C417  1  0.420940  0.890000  0.146660  1.0  -0.0155
  C  C418  1  0.567050  0.573300  0.207040  1.0  0.3463
  C  C419  1  0.551430  0.769200  0.170360  1.0  0.194
  C  C420  1  0.567830  0.699800  0.210290  1.0  -0.2665
  C  C421  1  0.533840  0.600900  0.124810  1.0  0.1926
  C  C422  1  0.548890  0.522700  0.163420  1.0  -0.3024
  C  C423  1  0.601350  0.542700  0.286280  1.0  0.0679
  C  C424  1  0.529220  0.255400  0.457650  1.0  0.1784
  C  C425  1  0.565050  0.154000  0.510220  1.0  0.1719
  C  C426  1  0.584540  0.182300  0.473650  1.0  -0.2771
  C  C427  1  0.546890  0.290000  0.417760  1.0  -0.3342
  C  C428  1  0.575870  0.254200  0.426070  1.0  0.3054
  C  C429  1  0.587230  0.382000  0.349710  1.0  0.0415
  C  C430  1  0.626680  0.336900  0.288350  1.0  0.0665
  C  C431  1  0.612790  0.434800  0.322890  1.0  -0.0505
  C  C432  1  0.636470  0.479000  0.367800  1.0  0.0468
  C  C433  1  0.676790  0.163200  0.172040  1.0  0.1748
  C  C434  1  0.663260  0.337300  0.225080  1.0  0.3242
  C  C435  1  0.696750  0.346300  0.155460  1.0  0.1784
  C  C436  1  0.660830  0.212000  0.213180  1.0  -0.3325
  C  C437  1  0.682130  0.406600  0.195520  1.0  -0.2063
  C  C438  1  0.656530  0.787300  0.508850  1.0  0.1698
  C  C439  1  0.646060  0.633300  0.437770  1.0  0.3522
  C  C440  1  0.637050  0.726900  0.470390  1.0  -0.2218
  C  C441  1  0.674670  0.600700  0.445020  1.0  -0.291
  C  C442  1  0.692540  0.666000  0.484300  1.0  0.1665
  C  C443  1  0.034640  0.245800  0.492380  1.0  0.6181
  C  C444  1  0.060310  0.186000  0.525590  1.0  -0.1547
  C  C445  1  0.097490  0.181700  0.602820  1.0  -0.1763
  C  C446  1  0.103720  0.061700  0.588930  1.0  0.2924
  C  C447  1  0.067630  0.065700  0.510980  1.0  -0.025
  C  C448  1  0.089750  0.003200  0.542830  1.0  -0.184
  C  C449  1  0.075580  0.244100  0.570230  1.0  -0.0184
  C  C450  1  0.171330  0.708400  0.569690  1.0  -0.1505
  C  C451  1  0.138490  0.899600  0.605000  1.0  0.3046
  C  C452  1  0.156770  0.920600  0.565300  1.0  -0.199
  C  C453  1  0.136100  0.786900  0.628340  1.0  -0.1832
  C  C454  1  0.152990  0.690200  0.610390  1.0  -0.0224
  C  C455  1  0.172740  0.825100  0.546320  1.0  -0.0572
  C  C456  1  0.189730  0.603400  0.551130  1.0  0.7352
  C  C457  1  0.237680  0.237400  0.379880  1.0  0.6363
  C  C458  1  0.210440  0.289500  0.349960  1.0  -0.1371
  C  C459  1  0.195170  0.223600  0.306980  1.0  -0.0027
  C  C460  1  0.200480  0.402200  0.364190  1.0  -0.0213
  C  C461  1  0.160860  0.388400  0.292980  1.0  0.2861
  C  C462  1  0.170280  0.273000  0.277880  1.0  -0.1847
  C  C463  1  0.175150  0.454000  0.335650  1.0  -0.2394
  C  C464  1  0.063160  0.527100  0.278200  1.0  -0.0226
  C  C465  1  0.057140  0.461000  0.325810  1.0  -0.1626
  C  C466  1  0.106250  0.385200  0.334200  1.0  -0.2036
  C  C467  1  0.111420  0.447500  0.286160  1.0  0.2999
  C  C468  1  0.027770  0.463300  0.347530  1.0  0.6599
  C  C469  1  0.089980  0.519700  0.257590  1.0  -0.1858
  C  C470  1  0.079060  0.390000  0.353340  1.0  -0.0142
  C  C471  1  0.932950  0.073300  0.292960  1.0  0.347
  C  C472  1  0.948570  0.269200  0.329640  1.0  0.1945
  C  C473  1  0.932170  0.199800  0.289710  1.0  -0.2659
  C  C474  1  0.966160  0.100900  0.375190  1.0  0.1913
  C  C475  1  0.951110  0.022700  0.336580  1.0  -0.3018
  C  C476  1  0.898650  0.042700  0.213720  1.0  0.0681
  C  C477  1  0.970780  0.755400  0.042350  1.0  0.1793
  C  C478  1  0.934950  0.654000  0.989780  1.0  0.1701
  C  C479  1  0.915460  0.682300  0.026350  1.0  -0.2771
  C  C480  1  0.953110  0.790000  0.082240  1.0  -0.3322
  C  C481  1  0.924130  0.754200  0.073930  1.0  0.305
  C  C482  1  0.912770  0.882000  0.150290  1.0  0.0413
  C  C483  1  0.873320  0.836900  0.211650  1.0  0.066
  C  C484  1  0.887210  0.934800  0.177110  1.0  -0.0508
  C  C485  1  0.863530  0.979000  0.132200  1.0  0.0476
  C  C486  1  0.823210  0.663200  0.327960  1.0  0.1737
  C  C487  1  0.836740  0.837300  0.274920  1.0  0.3253
  C  C488  1  0.803250  0.846300  0.344540  1.0  0.1774
  C  C489  1  0.839170  0.712000  0.286820  1.0  -0.3319
  C  C490  1  0.817870  0.906600  0.304480  1.0  -0.2062
  C  C491  1  0.843470  0.287300  0.991150  1.0  0.1699
  C  C492  1  0.853940  0.133300  0.062230  1.0  0.3522
  C  C493  1  0.862950  0.226900  0.029610  1.0  -0.2214
  C  C494  1  0.825330  0.100700  0.054980  1.0  -0.2909
  C  C495  1  0.807460  0.166000  0.015700  1.0  0.1668
  C  C496  1  0.534640  0.745800  0.492380  1.0  0.6181
  C  C497  1  0.560310  0.686000  0.525590  1.0  -0.1547
  C  C498  1  0.597490  0.681700  0.602820  1.0  -0.1763
  C  C499  1  0.603720  0.561700  0.588930  1.0  0.2924
  C  C500  1  0.567630  0.565700  0.510980  1.0  -0.025
  C  C501  1  0.589750  0.503200  0.542830  1.0  -0.184
  C  C502  1  0.575580  0.744100  0.570230  1.0  -0.0184
  C  C503  1  0.671330  0.208400  0.569690  1.0  -0.1505
  C  C504  1  0.638490  0.399600  0.605000  1.0  0.3046
  C  C505  1  0.656770  0.420600  0.565300  1.0  -0.199
  C  C506  1  0.636100  0.286900  0.628340  1.0  -0.1832
  C  C507  1  0.652990  0.190200  0.610390  1.0  -0.0224
  C  C508  1  0.672740  0.325100  0.546320  1.0  -0.0572
  C  C509  1  0.689730  0.103400  0.551130  1.0  0.7352
  C  C510  1  0.737680  0.737400  0.379880  1.0  0.6363
  C  C511  1  0.710440  0.789500  0.349960  1.0  -0.1371
  C  C512  1  0.695170  0.723600  0.306980  1.0  -0.0027
  C  C513  1  0.700480  0.902200  0.364190  1.0  -0.0213
  C  C514  1  0.660860  0.888400  0.292980  1.0  0.2861
  C  C515  1  0.670280  0.773000  0.277880  1.0  -0.1847
  C  C516  1  0.675150  0.954000  0.335650  1.0  -0.2394
  C  C517  1  0.563160  0.027100  0.278200  1.0  -0.0226
  C  C518  1  0.557140  0.961000  0.325810  1.0  -0.1626
  C  C519  1  0.606250  0.885200  0.334200  1.0  -0.2036
  C  C520  1  0.611420  0.947500  0.286160  1.0  0.2999
  C  C521  1  0.527770  0.963300  0.347530  1.0  0.6599
  C  C522  1  0.589980  0.019700  0.257590  1.0  -0.1858
  C  C523  1  0.579060  0.890000  0.353340  1.0  -0.0142
  C  C524  1  0.432950  0.573300  0.292960  1.0  0.347
  C  C525  1  0.448570  0.769200  0.329640  1.0  0.1945
  C  C526  1  0.432170  0.699800  0.289710  1.0  -0.2659
  C  C527  1  0.466160  0.600900  0.375190  1.0  0.1913
  C  C528  1  0.451110  0.522700  0.336580  1.0  -0.3018
  C  C529  1  0.398650  0.542700  0.213720  1.0  0.0681
  C  C530  1  0.470780  0.255400  0.042350  1.0  0.1793
  C  C531  1  0.434950  0.154000  0.989780  1.0  0.1701
  C  C532  1  0.415460  0.182300  0.026350  1.0  -0.2771
  C  C533  1  0.453110  0.290000  0.082240  1.0  -0.3322
  C  C534  1  0.424130  0.254200  0.073930  1.0  0.305
  C  C535  1  0.412770  0.382000  0.150290  1.0  0.0413
  C  C536  1  0.373320  0.336900  0.211650  1.0  0.066
  C  C537  1  0.387210  0.434800  0.177110  1.0  -0.0508
  C  C538  1  0.363530  0.479000  0.132200  1.0  0.0476
  C  C539  1  0.323210  0.163200  0.327960  1.0  0.1737
  C  C540  1  0.336740  0.337300  0.274920  1.0  0.3253
  C  C541  1  0.303250  0.346300  0.344540  1.0  0.1774
  C  C542  1  0.339170  0.212000  0.286820  1.0  -0.3319
  C  C543  1  0.317870  0.406600  0.304480  1.0  -0.2062
  C  C544  1  0.343470  0.787300  0.991150  1.0  0.1699
  C  C545  1  0.353940  0.633300  0.062230  1.0  0.3522
  C  C546  1  0.362950  0.726900  0.029610  1.0  -0.2214
  C  C547  1  0.325330  0.600700  0.054980  1.0  -0.2909
  C  C548  1  0.307460  0.666000  0.015700  1.0  0.1668
  C  C549  1  0.034640  0.754200  0.992380  1.0  0.6177
  C  C550  1  0.060310  0.814000  0.025590  1.0  -0.1557
  C  C551  1  0.097490  0.818300  0.102820  1.0  -0.175
  C  C552  1  0.103720  0.938300  0.088930  1.0  0.2926
  C  C553  1  0.067630  0.934300  0.010980  1.0  -0.0245
  C  C554  1  0.089750  0.996800  0.042830  1.0  -0.1834
  C  C555  1  0.075580  0.755900  0.070230  1.0  -0.0187
  C  C556  1  0.171330  0.291600  0.069690  1.0  -0.1499
  C  C557  1  0.138490  0.100400  0.105000  1.0  0.3046
  C  C558  1  0.156770  0.079400  0.065300  1.0  -0.2004
  C  C559  1  0.136100  0.213100  0.128340  1.0  -0.1848
  C  C560  1  0.152990  0.309800  0.110390  1.0  -0.0235
  C  C561  1  0.172740  0.174900  0.046320  1.0  -0.0567
  C  C562  1  0.189730  0.396600  0.051130  1.0  0.7365
  C  C563  1  0.237680  0.762600  0.879880  1.0  0.6364
  C  C564  1  0.210440  0.710500  0.849960  1.0  -0.1366
  C  C565  1  0.195170  0.776400  0.806980  1.0  -0.0028
  C  C566  1  0.200480  0.597800  0.864190  1.0  -0.0218
  C  C567  1  0.160860  0.611600  0.792980  1.0  0.2857
  C  C568  1  0.170280  0.727000  0.777880  1.0  -0.1851
  C  C569  1  0.175150  0.546000  0.835650  1.0  -0.2379
  C  C570  1  0.063160  0.472900  0.778200  1.0  -0.0222
  C  C571  1  0.057140  0.539000  0.825810  1.0  -0.1627
  C  C572  1  0.106250  0.614800  0.834200  1.0  -0.2033
  C  C573  1  0.111420  0.552500  0.786160  1.0  0.3
  C  C574  1  0.027770  0.536700  0.847530  1.0  0.6597
  C  C575  1  0.089980  0.480300  0.757590  1.0  -0.1853
  C  C576  1  0.079060  0.610000  0.853340  1.0  -0.0135
  C  C577  1  0.932950  0.926700  0.792960  1.0  0.3466
  C  C578  1  0.948570  0.730800  0.829640  1.0  0.194
  C  C579  1  0.932170  0.800200  0.789710  1.0  -0.2655
  C  C580  1  0.966160  0.899100  0.875190  1.0  0.1911
  C  C581  1  0.951110  0.977300  0.836580  1.0  -0.3028
  C  C582  1  0.898650  0.957300  0.713720  1.0  0.0691
  C  C583  1  0.970780  0.244600  0.542350  1.0  0.1792
  C  C584  1  0.934950  0.346000  0.489780  1.0  0.1694
  C  C585  1  0.915460  0.317700  0.526350  1.0  -0.2792
  C  C586  1  0.953110  0.210000  0.582240  1.0  -0.333
  C  C587  1  0.924130  0.245800  0.573930  1.0  0.3053
  C  C588  1  0.912770  0.118000  0.650290  1.0  0.0416
  C  C589  1  0.873320  0.163100  0.711650  1.0  0.0671
  C  C590  1  0.887210  0.065200  0.677110  1.0  -0.0514
  C  C591  1  0.863530  0.021000  0.632200  1.0  0.047
  C  C592  1  0.823210  0.336800  0.827960  1.0  0.1736
  C  C593  1  0.836740  0.162700  0.774920  1.0  0.3251
  C  C594  1  0.803250  0.153700  0.844540  1.0  0.1778
  C  C595  1  0.839170  0.288000  0.786820  1.0  -0.3319
  C  C596  1  0.817870  0.093400  0.804480  1.0  -0.2057
  C  C597  1  0.843470  0.712700  0.491150  1.0  0.1696
  C  C598  1  0.853940  0.866700  0.562230  1.0  0.352
  C  C599  1  0.862950  0.773100  0.529610  1.0  -0.2205
  C  C600  1  0.825330  0.899300  0.554980  1.0  -0.2908
  C  C601  1  0.807460  0.834000  0.515700  1.0  0.1667
  C  C602  1  0.534640  0.254200  0.992380  1.0  0.6177
  C  C603  1  0.560310  0.314000  0.025590  1.0  -0.1557
  C  C604  1  0.597490  0.318300  0.102820  1.0  -0.175
  C  C605  1  0.603720  0.438300  0.088930  1.0  0.2926
  C  C606  1  0.567630  0.434300  0.010980  1.0  -0.0245
  C  C607  1  0.589750  0.496800  0.042830  1.0  -0.1834
  C  C608  1  0.575580  0.255900  0.070230  1.0  -0.0187
  C  C609  1  0.671330  0.791600  0.069690  1.0  -0.1499
  C  C610  1  0.638490  0.600400  0.105000  1.0  0.3046
  C  C611  1  0.656770  0.579400  0.065300  1.0  -0.2004
  C  C612  1  0.636100  0.713100  0.128340  1.0  -0.1848
  C  C613  1  0.652990  0.809800  0.110390  1.0  -0.0235
  C  C614  1  0.672740  0.674900  0.046320  1.0  -0.0567
  C  C615  1  0.689730  0.896600  0.051130  1.0  0.7365
  C  C616  1  0.737680  0.262600  0.879880  1.0  0.6364
  C  C617  1  0.710440  0.210500  0.849960  1.0  -0.1366
  C  C618  1  0.695170  0.276400  0.806980  1.0  -0.0028
  C  C619  1  0.700480  0.097800  0.864190  1.0  -0.0218
  C  C620  1  0.660860  0.111600  0.792980  1.0  0.2857
  C  C621  1  0.670280  0.227000  0.777880  1.0  -0.1851
  C  C622  1  0.675150  0.046000  0.835650  1.0  -0.2379
  C  C623  1  0.563160  0.972900  0.778200  1.0  -0.0222
  C  C624  1  0.557140  0.039000  0.825810  1.0  -0.1627
  C  C625  1  0.606250  0.114800  0.834200  1.0  -0.2033
  C  C626  1  0.611420  0.052500  0.786160  1.0  0.3
  C  C627  1  0.527770  0.036700  0.847530  1.0  0.6597
  C  C628  1  0.589980  0.980300  0.757590  1.0  -0.1853
  C  C629  1  0.579060  0.110000  0.853340  1.0  -0.0135
  C  C630  1  0.432950  0.426700  0.792960  1.0  0.3466
  C  C631  1  0.448570  0.230800  0.829640  1.0  0.194
  C  C632  1  0.432170  0.300200  0.789710  1.0  -0.2655
  C  C633  1  0.466160  0.399100  0.875190  1.0  0.1911
  C  C634  1  0.451110  0.477300  0.836580  1.0  -0.3028
  C  C635  1  0.398650  0.457300  0.713720  1.0  0.0691
  C  C636  1  0.470780  0.744600  0.542350  1.0  0.1792
  C  C637  1  0.434950  0.846000  0.489780  1.0  0.1694
  C  C638  1  0.415460  0.817700  0.526350  1.0  -0.2792
  C  C639  1  0.453110  0.710000  0.582240  1.0  -0.333
  C  C640  1  0.424130  0.745800  0.573930  1.0  0.3053
  C  C641  1  0.412770  0.618000  0.650290  1.0  0.0416
  C  C642  1  0.373320  0.663100  0.711650  1.0  0.0671
  C  C643  1  0.387210  0.565200  0.677110  1.0  -0.0514
  C  C644  1  0.363530  0.521000  0.632200  1.0  0.047
  C  C645  1  0.323210  0.836800  0.827960  1.0  0.1736
  C  C646  1  0.336740  0.662700  0.774920  1.0  0.3251
  C  C647  1  0.303250  0.653700  0.844540  1.0  0.1778
  C  C648  1  0.339170  0.788000  0.786820  1.0  -0.3319
  C  C649  1  0.317870  0.593400  0.804480  1.0  -0.2057
  C  C650  1  0.343470  0.212700  0.491150  1.0  0.1696
  C  C651  1  0.353940  0.366700  0.562230  1.0  0.352
  C  C652  1  0.362950  0.273100  0.529610  1.0  -0.2205
  C  C653  1  0.325330  0.399300  0.554980  1.0  -0.2908
  C  C654  1  0.307460  0.334000  0.515700  1.0  0.1667
  C  C655  1  0.965360  0.754200  0.507620  1.0  0.6191
  C  C656  1  0.939690  0.814000  0.474410  1.0  -0.155
  C  C657  1  0.902510  0.818300  0.397180  1.0  -0.1755
  C  C658  1  0.896280  0.938300  0.411070  1.0  0.2933
  C  C659  1  0.932370  0.934300  0.489020  1.0  -0.0263
  C  C660  1  0.910250  0.996800  0.457170  1.0  -0.1838
  C  C661  1  0.924420  0.755900  0.429770  1.0  -0.019
  C  C662  1  0.828670  0.291600  0.430310  1.0  -0.1487
  C  C663  1  0.861510  0.100400  0.395000  1.0  0.3035
  C  C664  1  0.843230  0.079400  0.434700  1.0  -0.1993
  C  C665  1  0.863900  0.213100  0.371660  1.0  -0.1839
  C  C666  1  0.847010  0.309800  0.389610  1.0  -0.0229
  C  C667  1  0.827260  0.174900  0.453680  1.0  -0.056
  C  C668  1  0.810270  0.396600  0.448870  1.0  0.7364
  C  C669  1  0.762320  0.762600  0.620120  1.0  0.6349
  C  C670  1  0.789560  0.710500  0.650040  1.0  -0.1398
  C  C671  1  0.804830  0.776400  0.693020  1.0  -0.0038
  C  C672  1  0.799520  0.597800  0.635810  1.0  -0.0202
  C  C673  1  0.839140  0.611600  0.707020  1.0  0.2838
  C  C674  1  0.829720  0.727000  0.722120  1.0  -0.1829
  C  C675  1  0.824850  0.546000  0.664350  1.0  -0.2385
  C  C676  1  0.936840  0.472900  0.721800  1.0  -0.0236
  C  C677  1  0.942860  0.539000  0.674190  1.0  -0.1631
  C  C678  1  0.893750  0.614800  0.665800  1.0  -0.2034
  C  C679  1  0.888580  0.552500  0.713840  1.0  0.2998
  C  C680  1  0.972230  0.536700  0.652470  1.0  0.6587
  C  C681  1  0.910020  0.480300  0.742410  1.0  -0.1876
  C  C682  1  0.920940  0.610000  0.646660  1.0  -0.0151
  C  C683  1  0.067050  0.926700  0.707040  1.0  0.3465
  C  C684  1  0.051430  0.730800  0.670360  1.0  0.1936
  C  C685  1  0.067830  0.800200  0.710290  1.0  -0.2661
  C  C686  1  0.033840  0.899100  0.624810  1.0  0.1929
  C  C687  1  0.048890  0.977300  0.663420  1.0  -0.3025
  C  C688  1  0.101350  0.957300  0.786280  1.0  0.0671
  C  C689  1  0.029220  0.244600  0.957650  1.0  0.1786
  C  C690  1  0.065050  0.346000  0.010220  1.0  0.1719
  C  C691  1  0.084540  0.317700  0.973650  1.0  -0.2791
  C  C692  1  0.046890  0.210000  0.917760  1.0  -0.3345
  C  C693  1  0.075870  0.245800  0.926070  1.0  0.3053
  C  C694  1  0.087230  0.118000  0.849710  1.0  0.0408
  C  C695  1  0.126680  0.163100  0.788350  1.0  0.0674
  C  C696  1  0.112790  0.065200  0.822890  1.0  -0.051
  C  C697  1  0.136470  0.021000  0.867800  1.0  0.046
  C  C698  1  0.176790  0.336800  0.672040  1.0  0.1731
  C  C699  1  0.163260  0.162700  0.725080  1.0  0.3245
  C  C700  1  0.196750  0.153700  0.655460  1.0  0.1789
  C  C701  1  0.160830  0.288000  0.713180  1.0  -0.3323
  C  C702  1  0.182130  0.093400  0.695520  1.0  -0.2062
  C  C703  1  0.156530  0.712700  0.008850  1.0  0.1698
  C  C704  1  0.146060  0.866700  0.937770  1.0  0.3518
  C  C705  1  0.137050  0.773100  0.970390  1.0  -0.2204
  C  C706  1  0.174670  0.899300  0.945020  1.0  -0.2913
  C  C707  1  0.192540  0.834000  0.984300  1.0  0.1661
  C  C708  1  0.465360  0.254200  0.507620  1.0  0.6191
  C  C709  1  0.439690  0.314000  0.474410  1.0  -0.155
  C  C710  1  0.402510  0.318300  0.397180  1.0  -0.1755
  C  C711  1  0.396280  0.438300  0.411070  1.0  0.2933
  C  C712  1  0.432370  0.434300  0.489020  1.0  -0.0263
  C  C713  1  0.410250  0.496800  0.457170  1.0  -0.1838
  C  C714  1  0.424420  0.255900  0.429770  1.0  -0.019
  C  C715  1  0.328670  0.791600  0.430310  1.0  -0.1487
  C  C716  1  0.361510  0.600400  0.395000  1.0  0.3035
  C  C717  1  0.343230  0.579400  0.434700  1.0  -0.1993
  C  C718  1  0.363900  0.713100  0.371660  1.0  -0.1839
  C  C719  1  0.347010  0.809800  0.389610  1.0  -0.0229
  C  C720  1  0.327260  0.674900  0.453680  1.0  -0.056
  C  C721  1  0.310270  0.896600  0.448870  1.0  0.7364
  C  C722  1  0.262320  0.262600  0.620120  1.0  0.6349
  C  C723  1  0.289560  0.210500  0.650040  1.0  -0.1398
  C  C724  1  0.304830  0.276400  0.693020  1.0  -0.0038
  C  C725  1  0.299520  0.097800  0.635810  1.0  -0.0202
  C  C726  1  0.339140  0.111600  0.707020  1.0  0.2838
  C  C727  1  0.329720  0.227000  0.722120  1.0  -0.1829
  C  C728  1  0.324850  0.046000  0.664350  1.0  -0.2385
  C  C729  1  0.436840  0.972900  0.721800  1.0  -0.0236
  C  C730  1  0.442860  0.039000  0.674190  1.0  -0.1631
  C  C731  1  0.393750  0.114800  0.665800  1.0  -0.2034
  C  C732  1  0.388580  0.052500  0.713840  1.0  0.2998
  C  C733  1  0.472230  0.036700  0.652470  1.0  0.6587
  C  C734  1  0.410020  0.980300  0.742410  1.0  -0.1876
  C  C735  1  0.420940  0.110000  0.646660  1.0  -0.0151
  C  C736  1  0.567050  0.426700  0.707040  1.0  0.3465
  C  C737  1  0.551430  0.230800  0.670360  1.0  0.1936
  C  C738  1  0.567830  0.300200  0.710290  1.0  -0.2661
  C  C739  1  0.533840  0.399100  0.624810  1.0  0.1929
  C  C740  1  0.548890  0.477300  0.663420  1.0  -0.3025
  C  C741  1  0.601350  0.457300  0.786280  1.0  0.0671
  C  C742  1  0.529220  0.744600  0.957650  1.0  0.1786
  C  C743  1  0.565050  0.846000  0.010220  1.0  0.1719
  C  C744  1  0.584540  0.817700  0.973650  1.0  -0.2791
  C  C745  1  0.546890  0.710000  0.917760  1.0  -0.3345
  C  C746  1  0.575870  0.745800  0.926070  1.0  0.3053
  C  C747  1  0.587230  0.618000  0.849710  1.0  0.0408
  C  C748  1  0.626680  0.663100  0.788350  1.0  0.0674
  C  C749  1  0.612790  0.565200  0.822890  1.0  -0.051
  C  C750  1  0.636470  0.521000  0.867800  1.0  0.046
  C  C751  1  0.676790  0.836800  0.672040  1.0  0.1731
  C  C752  1  0.663260  0.662700  0.725080  1.0  0.3245
  C  C753  1  0.696750  0.653700  0.655460  1.0  0.1789
  C  C754  1  0.660830  0.788000  0.713180  1.0  -0.3323
  C  C755  1  0.682130  0.593400  0.695520  1.0  -0.2062
  C  C756  1  0.656530  0.212700  0.008850  1.0  0.1698
  C  C757  1  0.646060  0.366700  0.937770  1.0  0.3518
  C  C758  1  0.637050  0.273100  0.970390  1.0  -0.2204
  C  C759  1  0.674670  0.399300  0.945020  1.0  -0.2913
  C  C760  1  0.692540  0.334000  0.984300  1.0  0.1661
  N  N761  1  0.037330  0.691500  0.504750  1.0  -0.3377
  N  N762  1  0.184740  0.259400  0.516050  1.0  -0.3463
  N  N763  1  0.034260  0.222600  0.127910  1.0  -0.3352
  N  N764  1  0.194410  0.728300  0.142280  1.0  -0.3336
  N  N765  1  0.537330  0.191500  0.504750  1.0  -0.3377
  N  N766  1  0.684740  0.759400  0.516050  1.0  -0.3463
  N  N767  1  0.534260  0.722600  0.127910  1.0  -0.3352
  N  N768  1  0.694410  0.228300  0.142280  1.0  -0.3336
  N  N769  1  0.962670  0.691500  0.995250  1.0  -0.3398
  N  N770  1  0.815260  0.259400  0.983950  1.0  -0.3457
  N  N771  1  0.965740  0.222600  0.372090  1.0  -0.334
  N  N772  1  0.805590  0.728300  0.357720  1.0  -0.3352
  N  N773  1  0.462670  0.191500  0.995250  1.0  -0.3398
  N  N774  1  0.315260  0.759400  0.983950  1.0  -0.3457
  N  N775  1  0.465740  0.722600  0.372090  1.0  -0.334
  N  N776  1  0.305590  0.228300  0.357720  1.0  -0.3352
  N  N777  1  0.962670  0.308500  0.495250  1.0  -0.3389
  N  N778  1  0.815260  0.740600  0.483950  1.0  -0.3463
  N  N779  1  0.965740  0.777400  0.872090  1.0  -0.3339
  N  N780  1  0.805590  0.271700  0.857720  1.0  -0.3341
  N  N781  1  0.462670  0.808500  0.495250  1.0  -0.3389
  N  N782  1  0.315260  0.240600  0.483950  1.0  -0.3463
  N  N783  1  0.465740  0.277400  0.872090  1.0  -0.3339
  N  N784  1  0.305590  0.771700  0.857720  1.0  -0.3341
  N  N785  1  0.037330  0.308500  0.004750  1.0  -0.3385
  N  N786  1  0.184740  0.740600  0.016050  1.0  -0.3452
  N  N787  1  0.034260  0.777400  0.627910  1.0  -0.3365
  N  N788  1  0.194410  0.271700  0.642280  1.0  -0.3335
  N  N789  1  0.537330  0.808500  0.004750  1.0  -0.3385
  N  N790  1  0.684740  0.240600  0.016050  1.0  -0.3452
  N  N791  1  0.534260  0.277400  0.627910  1.0  -0.3365
  N  N792  1  0.694410  0.771700  0.642280  1.0  -0.3335
  O  O793  1  0.748150  0.298070  0.081690  1.0  -0.5772
  O  O794  1  0.753720  0.130460  0.134150  1.0  -0.5704
  O  O795  1  0.977630  0.370510  0.122930  1.0  -0.6089
  O  O796  1  0.988890  0.551550  0.164210  1.0  -0.5365
  O  O797  1  0.981000  0.180320  0.043030  1.0  -0.5805
  O  O798  1  0.971320  0.358760  0.999700  1.0  -0.5886
  O  O799  1  0.808180  0.508270  0.918640  1.0  -0.6022
  O  O800  1  0.798190  0.619100  0.992930  1.0  -0.5599
  O  O801  1  0.876180  0.000290  0.873260  1.0  -0.2708
  O  O802  1  0.863240  0.439800  0.239250  1.0  -0.268
  O  O803  1  0.081420  0.992620  0.242220  1.0  -0.2764
  O  O804  1  0.126210  0.078240  0.400720  1.0  -0.2679
  O  O805  1  0.096130  0.788810  0.391890  1.0  -0.2815
  O  O806  1  0.148700  0.899300  0.261830  1.0  -0.2789
  O  O807  1  0.248150  0.798070  0.081690  1.0  -0.5772
  O  O808  1  0.253720  0.630460  0.134150  1.0  -0.5704
  O  O809  1  0.477630  0.870510  0.122930  1.0  -0.6089
  O  O810  1  0.488890  0.051550  0.164210  1.0  -0.5365
  O  O811  1  0.481000  0.680320  0.043030  1.0  -0.5805
  O  O812  1  0.471320  0.858760  0.999700  1.0  -0.5886
  O  O813  1  0.308180  0.008270  0.918640  1.0  -0.6022
  O  O814  1  0.298190  0.119100  0.992930  1.0  -0.5599
  O  O815  1  0.376180  0.500290  0.873260  1.0  -0.2708
  O  O816  1  0.363240  0.939800  0.239250  1.0  -0.268
  O  O817  1  0.581420  0.492620  0.242220  1.0  -0.2764
  O  O818  1  0.626210  0.578240  0.400720  1.0  -0.2679
  O  O819  1  0.596130  0.288810  0.391890  1.0  -0.2815
  O  O820  1  0.648700  0.399300  0.261830  1.0  -0.2789
  O  O821  1  0.251850  0.298070  0.418310  1.0  -0.5772
  O  O822  1  0.246280  0.130460  0.365850  1.0  -0.57
  O  O823  1  0.022370  0.370510  0.377070  1.0  -0.6101
  O  O824  1  0.011110  0.551550  0.335790  1.0  -0.535
  O  O825  1  0.019000  0.180320  0.456970  1.0  -0.5824
  O  O826  1  0.028680  0.358760  0.500300  1.0  -0.5888
  O  O827  1  0.191820  0.508270  0.581360  1.0  -0.6024
  O  O828  1  0.201810  0.619100  0.507070  1.0  -0.5586
  O  O829  1  0.123820  0.000290  0.626740  1.0  -0.27
  O  O830  1  0.136760  0.439800  0.260750  1.0  -0.2659
  O  O831  1  0.918580  0.992620  0.257780  1.0  -0.2793
  O  O832  1  0.873790  0.078240  0.099280  1.0  -0.2626
  O  O833  1  0.903870  0.788810  0.108110  1.0  -0.2835
  O  O834  1  0.851300  0.899300  0.238170  1.0  -0.2804
  O  O835  1  0.751850  0.798070  0.418310  1.0  -0.5772
  O  O836  1  0.746280  0.630460  0.365850  1.0  -0.57
  O  O837  1  0.522370  0.870510  0.377070  1.0  -0.6101
  O  O838  1  0.511110  0.051550  0.335790  1.0  -0.535
  O  O839  1  0.519000  0.680320  0.456970  1.0  -0.5824
  O  O840  1  0.528680  0.858760  0.500300  1.0  -0.5888
  O  O841  1  0.691820  0.008270  0.581360  1.0  -0.6024
  O  O842  1  0.701810  0.119100  0.507070  1.0  -0.5586
  O  O843  1  0.623820  0.500290  0.626740  1.0  -0.27
  O  O844  1  0.636760  0.939800  0.260750  1.0  -0.2659
  O  O845  1  0.418580  0.492620  0.257780  1.0  -0.2793
  O  O846  1  0.373790  0.578240  0.099280  1.0  -0.2626
  O  O847  1  0.403870  0.288810  0.108110  1.0  -0.2835
  O  O848  1  0.351300  0.399300  0.238170  1.0  -0.2804
  O  O849  1  0.251850  0.701930  0.918310  1.0  -0.5774
  O  O850  1  0.246280  0.869540  0.865850  1.0  -0.57
  O  O851  1  0.022370  0.629490  0.877070  1.0  -0.6095
  O  O852  1  0.011110  0.448450  0.835790  1.0  -0.5335
  O  O853  1  0.019000  0.819680  0.956970  1.0  -0.582
  O  O854  1  0.028680  0.641240  0.000300  1.0  -0.5907
  O  O855  1  0.191820  0.491730  0.081360  1.0  -0.602
  O  O856  1  0.201810  0.380900  0.007070  1.0  -0.5589
  O  O857  1  0.123820  0.999710  0.126740  1.0  -0.2705
  O  O858  1  0.136760  0.560200  0.760750  1.0  -0.2669
  O  O859  1  0.918580  0.007380  0.757780  1.0  -0.2783
  O  O860  1  0.873790  0.921760  0.599280  1.0  -0.2624
  O  O861  1  0.903870  0.211190  0.608110  1.0  -0.2819
  O  O862  1  0.851300  0.100700  0.738170  1.0  -0.2795
  O  O863  1  0.751850  0.201930  0.918310  1.0  -0.5774
  O  O864  1  0.746280  0.369540  0.865850  1.0  -0.57
  O  O865  1  0.522370  0.129490  0.877070  1.0  -0.6095
  O  O866  1  0.511110  0.948450  0.835790  1.0  -0.5335
  O  O867  1  0.519000  0.319680  0.956970  1.0  -0.582
  O  O868  1  0.528680  0.141240  0.000300  1.0  -0.5907
  O  O869  1  0.691820  0.991730  0.081360  1.0  -0.602
  O  O870  1  0.701810  0.880900  0.007070  1.0  -0.5589
  O  O871  1  0.623820  0.499710  0.126740  1.0  -0.2705
  O  O872  1  0.636760  0.060200  0.760750  1.0  -0.2669
  O  O873  1  0.418580  0.507380  0.757780  1.0  -0.2783
  O  O874  1  0.373790  0.421760  0.599280  1.0  -0.2624
  O  O875  1  0.403870  0.711190  0.608110  1.0  -0.2819
  O  O876  1  0.351300  0.600700  0.738170  1.0  -0.2795
  O  O877  1  0.748150  0.701930  0.581690  1.0  -0.578
  O  O878  1  0.753720  0.869540  0.634150  1.0  -0.5709
  O  O879  1  0.977630  0.629490  0.622930  1.0  -0.6085
  O  O880  1  0.988890  0.448450  0.664210  1.0  -0.5348
  O  O881  1  0.981000  0.819680  0.543030  1.0  -0.5805
  O  O882  1  0.971320  0.641240  0.499700  1.0  -0.5905
  O  O883  1  0.808180  0.491730  0.418640  1.0  -0.6024
  O  O884  1  0.798190  0.380900  0.492930  1.0  -0.5594
  O  O885  1  0.876180  0.999710  0.373260  1.0  -0.2712
  O  O886  1  0.863240  0.560200  0.739250  1.0  -0.268
  O  O887  1  0.081420  0.007380  0.742220  1.0  -0.2765
  O  O888  1  0.126210  0.921760  0.900720  1.0  -0.2663
  O  O889  1  0.096130  0.211190  0.891890  1.0  -0.2823
  O  O890  1  0.148700  0.100700  0.761830  1.0  -0.2797
  O  O891  1  0.248150  0.201930  0.581690  1.0  -0.578
  O  O892  1  0.253720  0.369540  0.634150  1.0  -0.5709
  O  O893  1  0.477630  0.129490  0.622930  1.0  -0.6085
  O  O894  1  0.488890  0.948450  0.664210  1.0  -0.5348
  O  O895  1  0.481000  0.319680  0.543030  1.0  -0.5805
  O  O896  1  0.471320  0.141240  0.499700  1.0  -0.5905
  O  O897  1  0.308180  0.991730  0.418640  1.0  -0.6024
  O  O898  1  0.298190  0.880900  0.492930  1.0  -0.5594
  O  O899  1  0.376180  0.499710  0.373260  1.0  -0.2712
  O  O900  1  0.363240  0.060200  0.739250  1.0  -0.268
  O  O901  1  0.581420  0.507380  0.742220  1.0  -0.2765
  O  O902  1  0.626210  0.421760  0.900720  1.0  -0.2663
  O  O903  1  0.596130  0.711190  0.891890  1.0  -0.2823
  O  O904  1  0.648700  0.600700  0.761830  1.0  -0.2797
