# generated using pymatgen
data_EuInH35(C9O2)7
_symmetry_space_group_name_H-M   'P 1'
_cell_length_a   41.60400000
_cell_length_b   41.60400000
_cell_length_c   40.24600000
_cell_angle_alpha   90.00000000
_cell_angle_beta   90.00000000
_cell_angle_gamma   120.00000000
_symmetry_Int_Tables_number   1
_chemical_formula_structural   EuInH35(C9O2)7
_chemical_formula_sum   'Eu18 In18 H630 C1134 O252'
_cell_volume   60328.63929423
_cell_formula_units_Z   18
loop_
 _symmetry_equiv_pos_site_id
 _symmetry_equiv_pos_as_xyz
  1  'x, y, z'
loop_
 _atom_site_type_symbol
 _atom_site_label
 _atom_site_symmetry_multiplicity
 _atom_site_fract_x
 _atom_site_fract_y
 _atom_site_fract_z
 _atom_site_occupancy
 _atom_site_charge
  Eu  Eu1  1  0.627010  0.091200  0.788370  1.0  2.0803
  Eu  Eu2  1  0.293680  0.424530  0.121710  1.0  2.0803
  Eu  Eu3  1  0.960340  0.757860  0.455040  1.0  2.0803
  Eu  Eu4  1  0.908800  0.535820  0.788370  1.0  2.0809
  Eu  Eu5  1  0.575470  0.869150  0.121710  1.0  2.0812
  Eu  Eu6  1  0.242140  0.202480  0.455040  1.0  2.0812
  Eu  Eu7  1  0.464180  0.372990  0.788370  1.0  2.0817
  Eu  Eu8  1  0.130850  0.706320  0.121710  1.0  2.0817
  Eu  Eu9  1  0.797520  0.039660  0.455040  1.0  2.0818
  Eu  Eu10  1  0.372990  0.908810  0.211630  1.0  2.0785
  Eu  Eu11  1  0.039660  0.242140  0.544960  1.0  2.08
  Eu  Eu12  1  0.706320  0.575470  0.878290  1.0  2.0801
  Eu  Eu13  1  0.091200  0.464180  0.211630  1.0  2.081
  Eu  Eu14  1  0.757860  0.797520  0.544960  1.0  2.0813
  Eu  Eu15  1  0.424530  0.130850  0.878290  1.0  2.0812
  Eu  Eu16  1  0.535820  0.627010  0.211630  1.0  2.0808
  Eu  Eu17  1  0.202480  0.960340  0.544960  1.0  2.0808
  Eu  Eu18  1  0.869150  0.293680  0.878290  1.0  2.0808
  In  In19  1  0.860880  0.304410  0.136610  1.0  1.2607
  In  In20  1  0.527550  0.637740  0.469940  1.0  1.2604
  In  In21  1  0.194210  0.971080  0.803280  1.0  1.2573
  In  In22  1  0.695590  0.556470  0.136610  1.0  1.2495
  In  In23  1  0.362260  0.889800  0.469940  1.0  1.2501
  In  In24  1  0.028920  0.223140  0.803280  1.0  1.2704
  In  In25  1  0.443530  0.139120  0.136610  1.0  1.2454
  In  In26  1  0.110200  0.472450  0.469940  1.0  1.2455
  In  In27  1  0.776860  0.805790  0.803280  1.0  1.255
  In  In28  1  0.139120  0.695590  0.863390  1.0  1.2595
  In  In29  1  0.805790  0.028920  0.196720  1.0  1.2575
  In  In30  1  0.472450  0.362260  0.530060  1.0  1.2599
  In  In31  1  0.304410  0.443530  0.863390  1.0  1.25
  In  In32  1  0.971080  0.776860  0.196720  1.0  1.269
  In  In33  1  0.637740  0.110200  0.530060  1.0  1.2508
  In  In34  1  0.556470  0.860880  0.863390  1.0  1.2499
  In  In35  1  0.223140  0.194210  0.196720  1.0  1.2584
  In  In36  1  0.889800  0.527550  0.530060  1.0  1.2505
  H  H37  1  0.601300  0.182200  0.821900  1.0  0.1136
  H  H38  1  0.612900  0.242300  0.822100  1.0  0.0795
  H  H39  1  0.697300  0.272100  0.760400  1.0  0.1039
  H  H40  1  0.686900  0.212900  0.760700  1.0  0.1035
  H  H41  1  0.609500  0.284600  0.791600  1.0  0.083
  H  H42  1  0.710900  0.131900  0.875700  1.0  0.1048
  H  H43  1  0.724500  0.135900  0.933000  1.0  0.0763
  H  H44  1  0.618100  0.063800  0.952500  1.0  0.1066
  H  H45  1  0.604100  0.060400  0.896100  1.0  0.1
  H  H46  1  0.713000  0.152900  0.986100  1.0  0.0983
  H  H47  1  0.704700  0.099600  0.066300  1.0  0.0776
  H  H48  1  0.645900  0.046900  0.987300  1.0  0.1137
  H  H49  1  0.698800  0.041400  0.072800  1.0  0.0576
  H  H50  1  0.673500  0.985400  0.098800  1.0  0.1013
  H  H51  1  0.578700  0.958000  0.054800  1.0  0.1014
  H  H52  1  0.606200  0.011100  0.025500  1.0  0.1056
  H  H53  1  0.738400  0.199300  0.012700  1.0  0.1026
  H  H54  1  0.774400  0.250600  0.047100  1.0  0.0961
  H  H55  1  0.801800  0.188000  0.103300  1.0  0.0995
  H  H56  1  0.762200  0.136200  0.071700  1.0  0.0898
  H  H57  1  0.500900  0.019700  0.783500  1.0  0.0818
  H  H58  1  0.447000  0.995000  0.761400  1.0  0.1048
  H  H59  1  0.491800  0.035500  0.673800  1.0  0.098
  H  H60  1  0.548600  0.060600  0.698000  1.0  0.1012
  H  H61  1  0.403400  0.008900  0.736600  1.0  0.0818
  H  H62  1  0.339400  0.963400  0.661300  1.0  0.0738
  H  H63  1  0.441300  0.977500  0.657400  1.0  0.1183
  H  H64  1  0.328600  0.919500  0.625000  1.0  0.0748
  H  H65  1  0.320100  0.894000  0.574800  1.0  0.0972
  H  H66  1  0.423000  0.962500  0.554200  1.0  0.115
  H  H67  1  0.428900  0.984600  0.606300  1.0  0.0882
  H  H68  1  0.341300  0.967900  0.758200  1.0  0.1057
  H  H69  1  0.324600  0.007900  0.672800  1.0  0.1021
  H  H70  1  0.274200  0.010200  0.698000  1.0  0.1024
  H  H71  1  0.296400  0.977900  0.785000  1.0  0.1054
  H  H72  1  0.267970  0.515530  0.155230  1.0  0.1136
  H  H73  1  0.279570  0.575630  0.155430  1.0  0.0795
  H  H74  1  0.363970  0.605430  0.093730  1.0  0.1039
  H  H75  1  0.353570  0.546230  0.094030  1.0  0.1035
  H  H76  1  0.276170  0.617930  0.124930  1.0  0.083
  H  H77  1  0.377570  0.465230  0.209030  1.0  0.1048
  H  H78  1  0.391170  0.469230  0.266330  1.0  0.0763
  H  H79  1  0.284770  0.397130  0.285830  1.0  0.1066
  H  H80  1  0.270770  0.393730  0.229430  1.0  0.1
  H  H81  1  0.379670  0.486230  0.319430  1.0  0.0983
  H  H82  1  0.371370  0.432930  0.399630  1.0  0.0776
  H  H83  1  0.312570  0.380230  0.320630  1.0  0.1137
  H  H84  1  0.365470  0.374730  0.406130  1.0  0.0576
  H  H85  1  0.340170  0.318730  0.432130  1.0  0.1013
  H  H86  1  0.245370  0.291330  0.388130  1.0  0.1014
  H  H87  1  0.272870  0.344430  0.358830  1.0  0.1056
  H  H88  1  0.405070  0.532630  0.346030  1.0  0.1026
  H  H89  1  0.441070  0.583930  0.380430  1.0  0.0961
  H  H90  1  0.468470  0.521330  0.436630  1.0  0.0996
  H  H91  1  0.428870  0.469530  0.405030  1.0  0.0898
  H  H92  1  0.167570  0.353030  0.116830  1.0  0.0818
  H  H93  1  0.113670  0.328330  0.094730  1.0  0.1038
  H  H94  1  0.158470  0.368830  0.007130  1.0  0.098
  H  H95  1  0.215270  0.393930  0.031330  1.0  0.1012
  H  H96  1  0.070070  0.342230  0.069930  1.0  0.0818
  H  H97  1  0.006070  0.296730  0.994630  1.0  0.0738
  H  H98  1  0.107970  0.310830  0.990730  1.0  0.1183
  H  H99  1  0.995270  0.252830  0.958330  1.0  0.0736
  H  H100  1  0.986770  0.227330  0.908130  1.0  0.0971
  H  H101  1  0.089670  0.295830  0.887530  1.0  0.115
  H  H102  1  0.095570  0.317930  0.939630  1.0  0.0882
  H  H103  1  0.007970  0.301230  0.091530  1.0  0.1054
  H  H104  1  0.991270  0.341230  0.006130  1.0  0.1021
  H  H105  1  0.940870  0.343530  0.031330  1.0  0.1024
  H  H106  1  0.963070  0.311230  0.118330  1.0  0.1054
  H  H107  1  0.934630  0.848870  0.488570  1.0  0.1137
  H  H108  1  0.946230  0.908970  0.488770  1.0  0.0795
  H  H109  1  0.030630  0.938770  0.427070  1.0  0.1041
  H  H110  1  0.020230  0.879570  0.427370  1.0  0.1035
  H  H111  1  0.942830  0.951270  0.458270  1.0  0.0834
  H  H112  1  0.044230  0.798570  0.542370  1.0  0.1048
  H  H113  1  0.057830  0.802570  0.599670  1.0  0.0764
  H  H114  1  0.951430  0.730470  0.619170  1.0  0.1066
  H  H115  1  0.937430  0.727070  0.562770  1.0  0.1001
  H  H116  1  0.046330  0.819570  0.652770  1.0  0.0988
  H  H117  1  0.038030  0.766270  0.732970  1.0  0.0777
  H  H118  1  0.979230  0.713570  0.653970  1.0  0.1136
  H  H119  1  0.032130  0.708070  0.739470  1.0  0.0576
  H  H120  1  0.006830  0.652070  0.765470  1.0  0.1013
  H  H121  1  0.912030  0.624670  0.721470  1.0  0.1012
  H  H122  1  0.939530  0.677770  0.692170  1.0  0.1054
  H  H123  1  0.071730  0.865970  0.679370  1.0  0.1046
  H  H124  1  0.107730  0.917270  0.713770  1.0  0.0938
  H  H125  1  0.135130  0.854670  0.769970  1.0  0.0996
  H  H126  1  0.095530  0.802870  0.738370  1.0  0.0897
  H  H127  1  0.834230  0.686370  0.450170  1.0  0.0818
  H  H128  1  0.780330  0.661670  0.428070  1.0  0.1048
  H  H129  1  0.825130  0.702170  0.340470  1.0  0.0981
  H  H130  1  0.881930  0.727270  0.364670  1.0  0.1012
  H  H131  1  0.736730  0.675570  0.403270  1.0  0.0818
  H  H132  1  0.672730  0.630070  0.327970  1.0  0.0738
  H  H133  1  0.774630  0.644170  0.324070  1.0  0.1183
  H  H134  1  0.661930  0.586170  0.291670  1.0  0.0748
  H  H135  1  0.653430  0.560670  0.241470  1.0  0.0973
  H  H136  1  0.756330  0.629170  0.220870  1.0  0.1149
  H  H137  1  0.762230  0.651270  0.272970  1.0  0.0881
  H  H138  1  0.674630  0.634570  0.424870  1.0  0.1057
  H  H139  1  0.657930  0.674570  0.339470  1.0  0.1021
  H  H140  1  0.607530  0.676870  0.364670  1.0  0.1024
  H  H141  1  0.629730  0.644570  0.451670  1.0  0.1054
  H  H142  1  0.817800  0.419100  0.821900  1.0  0.1131
  H  H143  1  0.757700  0.370600  0.822100  1.0  0.0813
  H  H144  1  0.727900  0.425200  0.760400  1.0  0.1017
  H  H145  1  0.787100  0.474000  0.760700  1.0  0.1028
  H  H146  1  0.715400  0.324900  0.791600  1.0  0.085
  H  H147  1  0.868100  0.579000  0.875700  1.0  0.1047
  H  H148  1  0.864100  0.588600  0.933000  1.0  0.0766
  H  H149  1  0.936200  0.554300  0.952500  1.0  0.1084
  H  H150  1  0.939600  0.543700  0.896100  1.0  0.1005
  H  H151  1  0.847100  0.560100  0.986100  1.0  0.0973
  H  H152  1  0.900400  0.605100  0.066300  1.0  0.0773
  H  H153  1  0.953100  0.599000  0.987300  1.0  0.1144
  H  H154  1  0.958600  0.657400  0.072800  1.0  0.0594
  H  H155  1  0.014600  0.688100  0.098800  1.0  0.1002
  H  H156  1  0.042000  0.620700  0.054800  1.0  0.1013
  H  H157  1  0.988900  0.595100  0.025500  1.0  0.1073
  H  H158  1  0.800700  0.539100  0.012700  1.0  0.1028
  H  H159  1  0.749400  0.523800  0.047100  1.0  0.0928
  H  H160  1  0.812000  0.613800  0.103300  1.0  0.0997
  H  H161  1  0.863800  0.626000  0.071700  1.0  0.0904
  H  H162  1  0.980300  0.481200  0.783500  1.0  0.0821
  H  H163  1  0.005000  0.452000  0.761400  1.0  0.1033
  H  H164  1  0.964500  0.456300  0.673800  1.0  0.0969
  H  H165  1  0.939400  0.488000  0.698000  1.0  0.1011
  H  H166  1  0.991100  0.394500  0.736600  1.0  0.0832
  H  H167  1  0.036600  0.376000  0.661300  1.0  0.073
  H  H168  1  0.022500  0.463800  0.657400  1.0  0.118
  H  H169  1  0.080500  0.409100  0.625000  1.0  0.0721
  H  H170  1  0.106000  0.426100  0.574800  1.0  0.105
  H  H171  1  0.037500  0.460500  0.554200  1.0  0.114
  H  H172  1  0.015400  0.444300  0.606300  1.0  0.0877
  H  H173  1  0.032100  0.373400  0.758200  1.0  0.103
  H  H174  1  0.992100  0.316700  0.672800  1.0  0.1017
  H  H175  1  0.989800  0.264000  0.698000  1.0  0.102
  H  H176  1  0.022100  0.318500  0.785000  1.0  0.1053
  H  H177  1  0.484470  0.752430  0.155230  1.0  0.1131
  H  H178  1  0.424370  0.703930  0.155430  1.0  0.0813
  H  H179  1  0.394570  0.758530  0.093730  1.0  0.1017
  H  H180  1  0.453770  0.807330  0.094030  1.0  0.1028
  H  H181  1  0.382070  0.658230  0.124930  1.0  0.085
  H  H182  1  0.534770  0.912330  0.209030  1.0  0.1047
  H  H183  1  0.530770  0.921930  0.266330  1.0  0.0766
  H  H184  1  0.602870  0.887630  0.285830  1.0  0.1084
  H  H185  1  0.606270  0.877030  0.229430  1.0  0.1005
  H  H186  1  0.513770  0.893430  0.319430  1.0  0.0973
  H  H187  1  0.567070  0.938430  0.399630  1.0  0.0773
  H  H188  1  0.619770  0.932330  0.320630  1.0  0.1144
  H  H189  1  0.625270  0.990730  0.406130  1.0  0.0594
  H  H190  1  0.681270  0.021430  0.432130  1.0  0.1002
  H  H191  1  0.708670  0.954030  0.388130  1.0  0.1013
  H  H192  1  0.655570  0.928430  0.358830  1.0  0.1073
  H  H193  1  0.467370  0.872430  0.346030  1.0  0.1028
  H  H194  1  0.416070  0.857130  0.380430  1.0  0.0927
  H  H195  1  0.478670  0.947130  0.436630  1.0  0.0996
  H  H196  1  0.530470  0.959330  0.405030  1.0  0.0904
  H  H197  1  0.646970  0.814530  0.116830  1.0  0.0821
  H  H198  1  0.671670  0.785330  0.094730  1.0  0.1033
  H  H199  1  0.631170  0.789630  0.007130  1.0  0.097
  H  H200  1  0.606070  0.821330  0.031330  1.0  0.1011
  H  H201  1  0.657770  0.727830  0.069930  1.0  0.0832
  H  H202  1  0.703270  0.709330  0.994630  1.0  0.073
  H  H203  1  0.689170  0.797130  0.990730  1.0  0.118
  H  H204  1  0.747170  0.742430  0.958330  1.0  0.0721
  H  H205  1  0.772670  0.759430  0.908130  1.0  0.1057
  H  H206  1  0.704170  0.793830  0.887530  1.0  0.114
  H  H207  1  0.682070  0.777630  0.939630  1.0  0.0877
  H  H208  1  0.698770  0.706730  0.091530  1.0  0.1029
  H  H209  1  0.658770  0.650030  0.006130  1.0  0.1017
  H  H210  1  0.656470  0.597330  0.031330  1.0  0.102
  H  H211  1  0.688770  0.651830  0.118330  1.0  0.1053
  H  H212  1  0.151130  0.085770  0.488570  1.0  0.1132
  H  H213  1  0.091030  0.037270  0.488770  1.0  0.0813
  H  H214  1  0.061230  0.091870  0.427070  1.0  0.1043
  H  H215  1  0.120430  0.140670  0.427370  1.0  0.1028
  H  H216  1  0.048730  0.991570  0.458270  1.0  0.0851
  H  H217  1  0.201430  0.245670  0.542370  1.0  0.1047
  H  H218  1  0.197430  0.255270  0.599670  1.0  0.0766
  H  H219  1  0.269530  0.220970  0.619170  1.0  0.1084
  H  H220  1  0.272930  0.210370  0.562770  1.0  0.1005
  H  H221  1  0.180430  0.226770  0.652770  1.0  0.0973
  H  H222  1  0.233730  0.271770  0.732970  1.0  0.0772
  H  H223  1  0.286430  0.265670  0.653970  1.0  0.1144
  H  H224  1  0.291930  0.324070  0.739470  1.0  0.0594
  H  H225  1  0.347930  0.354770  0.765470  1.0  0.1001
  H  H226  1  0.375330  0.287370  0.721470  1.0  0.1013
  H  H227  1  0.322230  0.261770  0.692170  1.0  0.1073
  H  H228  1  0.134030  0.205770  0.679370  1.0  0.1028
  H  H229  1  0.082730  0.190470  0.713770  1.0  0.0949
  H  H230  1  0.145330  0.280470  0.769970  1.0  0.0996
  H  H231  1  0.197130  0.292670  0.738370  1.0  0.0904
  H  H232  1  0.313630  0.147870  0.450170  1.0  0.0821
  H  H233  1  0.338330  0.118670  0.428070  1.0  0.1033
  H  H234  1  0.297830  0.122970  0.340470  1.0  0.0969
  H  H235  1  0.272730  0.154670  0.364670  1.0  0.1011
  H  H236  1  0.324430  0.061170  0.403270  1.0  0.0832
  H  H237  1  0.369930  0.042670  0.327970  1.0  0.073
  H  H238  1  0.355830  0.130470  0.324070  1.0  0.118
  H  H239  1  0.413830  0.075770  0.291670  1.0  0.0721
  H  H240  1  0.439330  0.092770  0.241470  1.0  0.105
  H  H241  1  0.370830  0.127170  0.220870  1.0  0.114
  H  H242  1  0.348730  0.110970  0.272970  1.0  0.0876
  H  H243  1  0.365430  0.040070  0.424870  1.0  0.103
  H  H244  1  0.325430  0.983370  0.339470  1.0  0.1017
  H  H245  1  0.323130  0.930670  0.364670  1.0  0.102
  H  H246  1  0.355430  0.985170  0.451670  1.0  0.1053
  H  H247  1  0.580900  0.398700  0.821900  1.0  0.1137
  H  H248  1  0.629400  0.387100  0.822100  1.0  0.0797
  H  H249  1  0.574800  0.302700  0.760400  1.0  0.1017
  H  H250  1  0.526000  0.313100  0.760700  1.0  0.102
  H  H251  1  0.675100  0.390500  0.791600  1.0  0.0833
  H  H252  1  0.421000  0.289100  0.875700  1.0  0.1045
  H  H253  1  0.411400  0.275500  0.933000  1.0  0.0782
  H  H254  1  0.445700  0.381900  0.952500  1.0  0.1048
  H  H255  1  0.456300  0.395900  0.896100  1.0  0.0983
  H  H256  1  0.439900  0.287000  0.986100  1.0  0.0974
  H  H257  1  0.394900  0.295300  0.066300  1.0  0.0752
  H  H258  1  0.401000  0.354100  0.987300  1.0  0.1146
  H  H259  1  0.342600  0.301200  0.072800  1.0  0.0589
  H  H260  1  0.311900  0.326500  0.098800  1.0  0.1014
  H  H261  1  0.379300  0.421300  0.054800  1.0  0.0998
  H  H262  1  0.404900  0.393800  0.025500  1.0  0.1071
  H  H263  1  0.460900  0.261600  0.012700  1.0  0.1002
  H  H264  1  0.476200  0.225600  0.047100  1.0  0.0928
  H  H265  1  0.386200  0.198200  0.103300  1.0  0.0995
  H  H266  1  0.374000  0.237800  0.071700  1.0  0.0906
  H  H267  1  0.518800  0.499100  0.783500  1.0  0.0828
  H  H268  1  0.548000  0.553000  0.761400  1.0  0.1049
  H  H269  1  0.543700  0.508200  0.673800  1.0  0.097
  H  H270  1  0.512000  0.451400  0.698000  1.0  0.0999
  H  H271  1  0.605500  0.596600  0.736600  1.0  0.0842
  H  H272  1  0.624000  0.660600  0.661300  1.0  0.0723
  H  H273  1  0.536200  0.558700  0.657400  1.0  0.117
  H  H274  1  0.590900  0.671400  0.625000  1.0  0.0739
  H  H275  1  0.573900  0.679900  0.574800  1.0  0.0988
  H  H276  1  0.539500  0.577000  0.554200  1.0  0.1124
  H  H277  1  0.555700  0.571100  0.606300  1.0  0.0872
  H  H278  1  0.626600  0.658700  0.758200  1.0  0.1048
  H  H279  1  0.683300  0.675400  0.672800  1.0  0.0996
  H  H280  1  0.736000  0.725800  0.698000  1.0  0.1019
  H  H281  1  0.681500  0.703600  0.785000  1.0  0.1054
  H  H282  1  0.247570  0.732030  0.155230  1.0  0.1137
  H  H283  1  0.296070  0.720430  0.155430  1.0  0.0797
  H  H284  1  0.241470  0.636030  0.093730  1.0  0.1017
  H  H285  1  0.192670  0.646430  0.094030  1.0  0.102
  H  H286  1  0.341770  0.723830  0.124930  1.0  0.0833
  H  H287  1  0.087670  0.622430  0.209030  1.0  0.1045
  H  H288  1  0.078070  0.608830  0.266330  1.0  0.0782
  H  H289  1  0.112370  0.715230  0.285830  1.0  0.1048
  H  H290  1  0.122970  0.729230  0.229430  1.0  0.0983
  H  H291  1  0.106570  0.620330  0.319430  1.0  0.0974
  H  H292  1  0.061570  0.628630  0.399630  1.0  0.0752
  H  H293  1  0.067670  0.687430  0.320630  1.0  0.1146
  H  H294  1  0.009270  0.634530  0.406130  1.0  0.0589
  H  H295  1  0.978570  0.659830  0.432130  1.0  0.1014
  H  H296  1  0.045970  0.754630  0.388130  1.0  0.0998
  H  H297  1  0.071570  0.727130  0.358830  1.0  0.1071
  H  H298  1  0.127570  0.594930  0.346030  1.0  0.1002
  H  H299  1  0.142870  0.558930  0.380430  1.0  0.0928
  H  H300  1  0.052870  0.531530  0.436630  1.0  0.0995
  H  H301  1  0.040670  0.571130  0.405030  1.0  0.0906
  H  H302  1  0.185470  0.832430  0.116830  1.0  0.0828
  H  H303  1  0.214670  0.886330  0.094730  1.0  0.1038
  H  H304  1  0.210370  0.841530  0.007130  1.0  0.097
  H  H305  1  0.178670  0.784730  0.031330  1.0  0.0999
  H  H306  1  0.272170  0.929930  0.069930  1.0  0.0842
  H  H307  1  0.290670  0.993930  0.994630  1.0  0.0723
  H  H308  1  0.202870  0.892030  0.990730  1.0  0.117
  H  H309  1  0.257570  0.004730  0.958330  1.0  0.0728
  H  H310  1  0.240570  0.013230  0.908130  1.0  0.0975
  H  H311  1  0.206170  0.910330  0.887530  1.0  0.1124
  H  H312  1  0.222370  0.904430  0.939630  1.0  0.0872
  H  H313  1  0.293270  0.992030  0.091530  1.0  0.1046
  H  H314  1  0.349970  0.008730  0.006130  1.0  0.0996
  H  H315  1  0.402670  0.059130  0.031330  1.0  0.1019
  H  H316  1  0.348170  0.036930  0.118330  1.0  0.1053
  H  H317  1  0.914230  0.065370  0.488570  1.0  0.1137
  H  H318  1  0.962730  0.053770  0.488770  1.0  0.0798
  H  H319  1  0.908130  0.969370  0.427070  1.0  0.1026
  H  H320  1  0.859330  0.979770  0.427370  1.0  0.102
  H  H321  1  0.008430  0.057170  0.458270  1.0  0.0836
  H  H322  1  0.754330  0.955770  0.542370  1.0  0.1045
  H  H323  1  0.744730  0.942170  0.599670  1.0  0.078
  H  H324  1  0.779030  0.048570  0.619170  1.0  0.1048
  H  H325  1  0.789630  0.062570  0.562770  1.0  0.0983
  H  H326  1  0.773230  0.953670  0.652770  1.0  0.0971
  H  H327  1  0.728230  0.961970  0.732970  1.0  0.0758
  H  H328  1  0.734330  0.020770  0.653970  1.0  0.1146
  H  H329  1  0.675930  0.967870  0.739470  1.0  0.0589
  H  H330  1  0.645230  0.993170  0.765470  1.0  0.1015
  H  H331  1  0.712630  0.087970  0.721470  1.0  0.0998
  H  H332  1  0.738230  0.060470  0.692170  1.0  0.1071
  H  H333  1  0.794230  0.928270  0.679370  1.0  0.1026
  H  H334  1  0.809530  0.892270  0.713770  1.0  0.0945
  H  H335  1  0.719530  0.864870  0.769970  1.0  0.0995
  H  H336  1  0.707330  0.904470  0.738370  1.0  0.0906
  H  H337  1  0.852130  0.165770  0.450170  1.0  0.0828
  H  H338  1  0.881330  0.219670  0.428070  1.0  0.1049
  H  H339  1  0.877030  0.174870  0.340470  1.0  0.0969
  H  H340  1  0.845330  0.118070  0.364670  1.0  0.1007
  H  H341  1  0.938830  0.263270  0.403270  1.0  0.0843
  H  H342  1  0.957330  0.327270  0.327970  1.0  0.0723
  H  H343  1  0.869530  0.225370  0.324070  1.0  0.117
  H  H344  1  0.924230  0.338070  0.291670  1.0  0.0741
  H  H345  1  0.907230  0.346570  0.241470  1.0  0.0988
  H  H346  1  0.872830  0.243670  0.220870  1.0  0.1123
  H  H347  1  0.889030  0.237770  0.272970  1.0  0.0872
  H  H348  1  0.959930  0.325370  0.424870  1.0  0.1048
  H  H349  1  0.016630  0.342070  0.339470  1.0  0.0996
  H  H350  1  0.069330  0.392470  0.364670  1.0  0.1019
  H  H351  1  0.014830  0.370270  0.451670  1.0  0.1054
  H  H352  1  0.398700  0.817800  0.178100  1.0  0.1134
  H  H353  1  0.387100  0.757700  0.177900  1.0  0.0792
  H  H354  1  0.302700  0.727900  0.239600  1.0  0.103
  H  H355  1  0.313100  0.787100  0.239300  1.0  0.1032
  H  H356  1  0.390500  0.715400  0.208400  1.0  0.0823
  H  H357  1  0.289100  0.868100  0.124300  1.0  0.1049
  H  H358  1  0.275500  0.864100  0.067000  1.0  0.0762
  H  H359  1  0.381900  0.936200  0.047500  1.0  0.1066
  H  H360  1  0.395900  0.939600  0.103900  1.0  0.1005
  H  H361  1  0.287000  0.847100  0.013900  1.0  0.0981
  H  H362  1  0.295300  0.900400  0.933700  1.0  0.078
  H  H363  1  0.354100  0.953100  0.012700  1.0  0.1137
  H  H364  1  0.301200  0.958600  0.927200  1.0  0.0596
  H  H365  1  0.326500  0.014600  0.901200  1.0  0.1005
  H  H366  1  0.421300  0.042000  0.945200  1.0  0.102
  H  H367  1  0.393800  0.988900  0.974500  1.0  0.1058
  H  H368  1  0.261600  0.800700  0.987300  1.0  0.1019
  H  H369  1  0.225600  0.749400  0.952900  1.0  0.0949
  H  H370  1  0.198200  0.812000  0.896700  1.0  0.0995
  H  H371  1  0.237800  0.863800  0.928300  1.0  0.0889
  H  H372  1  0.499100  0.980300  0.216500  1.0  0.0821
  H  H373  1  0.553000  0.005000  0.238600  1.0  0.1049
  H  H374  1  0.508200  0.964500  0.326200  1.0  0.0984
  H  H375  1  0.451400  0.939400  0.302000  1.0  0.1015
  H  H376  1  0.596600  0.991100  0.263400  1.0  0.0811
  H  H377  1  0.660600  0.036600  0.338700  1.0  0.074
  H  H378  1  0.558700  0.022500  0.342600  1.0  0.1185
  H  H379  1  0.671400  0.080500  0.375000  1.0  0.0753
  H  H380  1  0.679900  0.106000  0.425200  1.0  0.0962
  H  H381  1  0.577000  0.037500  0.445800  1.0  0.1147
  H  H382  1  0.571100  0.015400  0.393700  1.0  0.0883
  H  H383  1  0.658700  0.032100  0.241800  1.0  0.1043
  H  H384  1  0.675400  0.992100  0.327200  1.0  0.1008
  H  H385  1  0.725800  0.989800  0.302000  1.0  0.1021
  H  H386  1  0.703600  0.022100  0.215000  1.0  0.1045
  H  H387  1  0.065370  0.151130  0.511430  1.0  0.1135
  H  H388  1  0.053770  0.091030  0.511230  1.0  0.0791
  H  H389  1  0.969370  0.061230  0.572930  1.0  0.1034
  H  H390  1  0.979770  0.120430  0.572630  1.0  0.1032
  H  H391  1  0.057170  0.048730  0.541730  1.0  0.0827
  H  H392  1  0.955770  0.201430  0.457630  1.0  0.1049
  H  H393  1  0.942170  0.197430  0.400330  1.0  0.0764
  H  H394  1  0.048570  0.269530  0.380830  1.0  0.1066
  H  H395  1  0.062570  0.272930  0.437230  1.0  0.1006
  H  H396  1  0.953670  0.180430  0.347230  1.0  0.0981
  H  H397  1  0.961970  0.233730  0.267030  1.0  0.0783
  H  H398  1  0.020770  0.286430  0.346030  1.0  0.1137
  H  H399  1  0.967870  0.291930  0.260530  1.0  0.0595
  H  H400  1  0.993170  0.347930  0.234530  1.0  0.1005
  H  H401  1  0.087970  0.375330  0.278530  1.0  0.1019
  H  H402  1  0.060470  0.322230  0.307830  1.0  0.1058
  H  H403  1  0.928270  0.134030  0.320630  1.0  0.1049
  H  H404  1  0.892270  0.082730  0.286230  1.0  0.0927
  H  H405  1  0.864870  0.145330  0.230030  1.0  0.0995
  H  H406  1  0.904470  0.197130  0.261630  1.0  0.0888
  H  H407  1  0.165770  0.313630  0.549830  1.0  0.0821
  H  H408  1  0.219670  0.338330  0.571930  1.0  0.1049
  H  H409  1  0.174870  0.297830  0.659530  1.0  0.0985
  H  H410  1  0.118070  0.272730  0.635330  1.0  0.1015
  H  H411  1  0.263270  0.324430  0.596730  1.0  0.0811
  H  H412  1  0.327270  0.369930  0.672030  1.0  0.0739
  H  H413  1  0.225370  0.355830  0.675930  1.0  0.1186
  H  H414  1  0.338070  0.413830  0.708330  1.0  0.0753
  H  H415  1  0.346570  0.439330  0.758530  1.0  0.0962
  H  H416  1  0.243670  0.370830  0.779130  1.0  0.1145
  H  H417  1  0.237770  0.348730  0.727030  1.0  0.0883
  H  H418  1  0.325370  0.365430  0.575130  1.0  0.1043
  H  H419  1  0.342070  0.325430  0.660530  1.0  0.1008
  H  H420  1  0.392470  0.323130  0.635330  1.0  0.1021
  H  H421  1  0.370270  0.355430  0.548330  1.0  0.1045
  H  H422  1  0.732030  0.484470  0.844770  1.0  0.1134
  H  H423  1  0.720430  0.424370  0.844570  1.0  0.0792
  H  H424  1  0.636030  0.394570  0.906270  1.0  0.103
  H  H425  1  0.646430  0.453770  0.905970  1.0  0.1032
  H  H426  1  0.723830  0.382070  0.875070  1.0  0.0823
  H  H427  1  0.622430  0.534770  0.790970  1.0  0.1049
  H  H428  1  0.608830  0.530770  0.733670  1.0  0.0762
  H  H429  1  0.715230  0.602870  0.714170  1.0  0.1066
  H  H430  1  0.729230  0.606270  0.770570  1.0  0.1005
  H  H431  1  0.620330  0.513770  0.680570  1.0  0.0981
  H  H432  1  0.628630  0.567070  0.600370  1.0  0.078
  H  H433  1  0.687430  0.619770  0.679370  1.0  0.1137
  H  H434  1  0.634530  0.625270  0.593870  1.0  0.0596
  H  H435  1  0.659830  0.681270  0.567870  1.0  0.1005
  H  H436  1  0.754630  0.708670  0.611870  1.0  0.102
  H  H437  1  0.727130  0.655570  0.641170  1.0  0.1058
  H  H438  1  0.594930  0.467370  0.653970  1.0  0.1019
  H  H439  1  0.558930  0.416070  0.619570  1.0  0.0949
  H  H440  1  0.531530  0.478670  0.563370  1.0  0.0996
  H  H441  1  0.571130  0.530470  0.594970  1.0  0.0889
  H  H442  1  0.832430  0.646970  0.883170  1.0  0.0821
  H  H443  1  0.886330  0.671670  0.905270  1.0  0.1041
  H  H444  1  0.841530  0.631170  0.992870  1.0  0.0984
  H  H445  1  0.784730  0.606070  0.968670  1.0  0.1015
  H  H446  1  0.929930  0.657770  0.930070  1.0  0.0811
  H  H447  1  0.993930  0.703270  0.005370  1.0  0.0739
  H  H448  1  0.892030  0.689170  0.009270  1.0  0.1185
  H  H449  1  0.004730  0.747170  0.041670  1.0  0.0742
  H  H450  1  0.013230  0.772670  0.091870  1.0  0.0959
  H  H451  1  0.910330  0.704170  0.112470  1.0  0.1147
  H  H452  1  0.904430  0.682070  0.060370  1.0  0.0883
  H  H453  1  0.992030  0.698770  0.908470  1.0  0.1046
  H  H454  1  0.008730  0.658770  0.993870  1.0  0.1008
  H  H455  1  0.059130  0.656470  0.968670  1.0  0.1021
  H  H456  1  0.036930  0.688770  0.881670  1.0  0.1045
  H  H457  1  0.182200  0.580900  0.178100  1.0  0.113
  H  H458  1  0.242300  0.629400  0.177900  1.0  0.0799
  H  H459  1  0.272100  0.574800  0.239600  1.0  0.1021
  H  H460  1  0.212900  0.526000  0.239300  1.0  0.1025
  H  H461  1  0.284600  0.675100  0.208400  1.0  0.0866
  H  H462  1  0.131900  0.421000  0.124300  1.0  0.1049
  H  H463  1  0.135900  0.411400  0.067000  1.0  0.0773
  H  H464  1  0.063800  0.445700  0.047500  1.0  0.1088
  H  H465  1  0.060400  0.456300  0.103900  1.0  0.1003
  H  H466  1  0.152900  0.439900  0.013900  1.0  0.0953
  H  H467  1  0.099600  0.394900  0.933700  1.0  0.077
  H  H468  1  0.046900  0.401000  0.012700  1.0  0.1147
  H  H469  1  0.041400  0.342600  0.927200  1.0  0.0595
  H  H470  1  0.985400  0.311900  0.901200  1.0  0.0996
  H  H471  1  0.958000  0.379300  0.945200  1.0  0.1009
  H  H472  1  0.011100  0.404900  0.974500  1.0  0.1069
  H  H473  1  0.199300  0.460900  0.987300  1.0  0.1033
  H  H474  1  0.250600  0.476200  0.952900  1.0  0.0926
  H  H475  1  0.188000  0.386200  0.896700  1.0  0.0995
  H  H476  1  0.136200  0.374000  0.928300  1.0  0.0889
  H  H477  1  0.019700  0.518800  0.216500  1.0  0.0825
  H  H478  1  0.995000  0.548000  0.238600  1.0  0.1025
  H  H479  1  0.035500  0.543700  0.326200  1.0  0.0962
  H  H480  1  0.060600  0.512000  0.302000  1.0  0.1009
  H  H481  1  0.008900  0.605500  0.263400  1.0  0.0828
  H  H482  1  0.963400  0.624000  0.338700  1.0  0.0728
  H  H483  1  0.977500  0.536200  0.342600  1.0  0.1172
  H  H484  1  0.919500  0.590900  0.375000  1.0  0.0726
  H  H485  1  0.894000  0.573900  0.425200  1.0  0.0982
  H  H486  1  0.962500  0.539500  0.445800  1.0  0.1145
  H  H487  1  0.984600  0.555700  0.393700  1.0  0.0896
  H  H488  1  0.967900  0.626600  0.241800  1.0  0.1026
  H  H489  1  0.007900  0.683300  0.327200  1.0  0.1007
  H  H490  1  0.010200  0.736000  0.302000  1.0  0.102
  H  H491  1  0.977900  0.681500  0.215000  1.0  0.1048
  H  H492  1  0.848870  0.914230  0.511430  1.0  0.113
  H  H493  1  0.908970  0.962730  0.511230  1.0  0.0798
  H  H494  1  0.938770  0.908130  0.572930  1.0  0.104
  H  H495  1  0.879570  0.859330  0.572630  1.0  0.1025
  H  H496  1  0.951270  0.008430  0.541730  1.0  0.0867
  H  H497  1  0.798570  0.754330  0.457630  1.0  0.1049
  H  H498  1  0.802570  0.744730  0.400330  1.0  0.0773
  H  H499  1  0.730470  0.779030  0.380830  1.0  0.1088
  H  H500  1  0.727070  0.789630  0.437230  1.0  0.1003
  H  H501  1  0.819570  0.773230  0.347230  1.0  0.0953
  H  H502  1  0.766270  0.728230  0.267030  1.0  0.077
  H  H503  1  0.713570  0.734330  0.346030  1.0  0.1147
  H  H504  1  0.708070  0.675930  0.260530  1.0  0.0596
  H  H505  1  0.652070  0.645230  0.234530  1.0  0.0995
  H  H506  1  0.624670  0.712630  0.278530  1.0  0.1009
  H  H507  1  0.677770  0.738230  0.307830  1.0  0.1069
  H  H508  1  0.865970  0.794230  0.320630  1.0  0.1033
  H  H509  1  0.917270  0.809530  0.286230  1.0  0.0943
  H  H510  1  0.854670  0.719530  0.230030  1.0  0.0993
  H  H511  1  0.802870  0.707330  0.261630  1.0  0.0889
  H  H512  1  0.686370  0.852130  0.549830  1.0  0.0825
  H  H513  1  0.661670  0.881330  0.571930  1.0  0.1025
  H  H514  1  0.702170  0.877030  0.659530  1.0  0.0962
  H  H515  1  0.727270  0.845330  0.635330  1.0  0.1009
  H  H516  1  0.675570  0.938830  0.596730  1.0  0.0829
  H  H517  1  0.630070  0.957330  0.672030  1.0  0.0729
  H  H518  1  0.644170  0.869530  0.675930  1.0  0.1172
  H  H519  1  0.586170  0.924230  0.708330  1.0  0.0726
  H  H520  1  0.560670  0.907230  0.758530  1.0  0.0982
  H  H521  1  0.629170  0.872830  0.779130  1.0  0.1146
  H  H522  1  0.651270  0.889030  0.727030  1.0  0.0896
  H  H523  1  0.634570  0.959930  0.575130  1.0  0.1026
  H  H524  1  0.674570  0.016630  0.660530  1.0  0.1007
  H  H525  1  0.676870  0.069330  0.635330  1.0  0.102
  H  H526  1  0.644570  0.014830  0.548330  1.0  0.1048
  H  H527  1  0.515530  0.247570  0.844770  1.0  0.113
  H  H528  1  0.575630  0.296070  0.844570  1.0  0.0799
  H  H529  1  0.605430  0.241470  0.906270  1.0  0.1021
  H  H530  1  0.546230  0.192670  0.905970  1.0  0.1025
  H  H531  1  0.617930  0.341770  0.875070  1.0  0.0866
  H  H532  1  0.465230  0.087670  0.790970  1.0  0.1049
  H  H533  1  0.469230  0.078070  0.733670  1.0  0.0773
  H  H534  1  0.397130  0.112370  0.714170  1.0  0.1088
  H  H535  1  0.393730  0.122970  0.770570  1.0  0.1003
  H  H536  1  0.486230  0.106570  0.680570  1.0  0.0953
  H  H537  1  0.432930  0.061570  0.600370  1.0  0.077
  H  H538  1  0.380230  0.067670  0.679370  1.0  0.1147
  H  H539  1  0.374730  0.009270  0.593870  1.0  0.0595
  H  H540  1  0.318730  0.978570  0.567870  1.0  0.0996
  H  H541  1  0.291330  0.045970  0.611870  1.0  0.1009
  H  H542  1  0.344430  0.071570  0.641170  1.0  0.1069
  H  H543  1  0.532630  0.127570  0.653970  1.0  0.1033
  H  H544  1  0.583930  0.142870  0.619570  1.0  0.0926
  H  H545  1  0.521330  0.052870  0.563370  1.0  0.0993
  H  H546  1  0.469530  0.040670  0.594970  1.0  0.0889
  H  H547  1  0.353030  0.185470  0.883170  1.0  0.0825
  H  H548  1  0.328330  0.214670  0.905270  1.0  0.1025
  H  H549  1  0.368830  0.210370  0.992870  1.0  0.0963
  H  H550  1  0.393930  0.178670  0.968670  1.0  0.1009
  H  H551  1  0.342230  0.272170  0.930070  1.0  0.0828
  H  H552  1  0.296730  0.290670  0.005370  1.0  0.0728
  H  H553  1  0.310830  0.202870  0.009270  1.0  0.1172
  H  H554  1  0.252830  0.257570  0.041670  1.0  0.0726
  H  H555  1  0.227330  0.240570  0.091870  1.0  0.0985
  H  H556  1  0.295830  0.206170  0.112470  1.0  0.1145
  H  H557  1  0.317930  0.222370  0.060370  1.0  0.0896
  H  H558  1  0.301230  0.293270  0.908470  1.0  0.1026
  H  H559  1  0.341230  0.349970  0.993870  1.0  0.1007
  H  H560  1  0.343530  0.402670  0.968670  1.0  0.102
  H  H561  1  0.311230  0.348170  0.881670  1.0  0.1048
  H  H562  1  0.419100  0.601300  0.178100  1.0  0.1134
  H  H563  1  0.370600  0.612900  0.177900  1.0  0.08
  H  H564  1  0.425200  0.697300  0.239600  1.0  0.1025
  H  H565  1  0.474000  0.686900  0.239300  1.0  0.1032
  H  H566  1  0.324900  0.609500  0.208400  1.0  0.082
  H  H567  1  0.579000  0.710900  0.124300  1.0  0.1048
  H  H568  1  0.588600  0.724500  0.067000  1.0  0.0788
  H  H569  1  0.554300  0.618100  0.047500  1.0  0.1046
  H  H570  1  0.543700  0.604100  0.103900  1.0  0.0988
  H  H571  1  0.560100  0.713000  0.013900  1.0  0.0953
  H  H572  1  0.605100  0.704700  0.933700  1.0  0.0768
  H  H573  1  0.599000  0.645900  0.012700  1.0  0.1145
  H  H574  1  0.657400  0.698800  0.927200  1.0  0.0596
  H  H575  1  0.688100  0.673500  0.901200  1.0  0.1004
  H  H576  1  0.620700  0.578700  0.945200  1.0  0.1003
  H  H577  1  0.595100  0.606200  0.974500  1.0  0.1062
  H  H578  1  0.539100  0.738400  0.987300  1.0  0.1028
  H  H579  1  0.523800  0.774400  0.952900  1.0  0.0935
  H  H580  1  0.613800  0.801800  0.896700  1.0  0.0993
  H  H581  1  0.626000  0.762200  0.928300  1.0  0.0897
  H  H582  1  0.481200  0.500900  0.216500  1.0  0.0835
  H  H583  1  0.452000  0.447000  0.238600  1.0  0.105
  H  H584  1  0.456300  0.491800  0.326200  1.0  0.0969
  H  H585  1  0.488000  0.548600  0.302000  1.0  0.1004
  H  H586  1  0.394500  0.403400  0.263400  1.0  0.0835
  H  H587  1  0.376000  0.339400  0.338700  1.0  0.0734
  H  H588  1  0.463800  0.441300  0.342600  1.0  0.1168
  H  H589  1  0.409100  0.328600  0.375000  1.0  0.0726
  H  H590  1  0.426100  0.320100  0.425200  1.0  0.1002
  H  H591  1  0.460500  0.423000  0.445800  1.0  0.113
  H  H592  1  0.444300  0.428900  0.393700  1.0  0.0901
  H  H593  1  0.373400  0.341300  0.241800  1.0  0.1045
  H  H594  1  0.316700  0.324600  0.327200  1.0  0.1004
  H  H595  1  0.264000  0.274200  0.302000  1.0  0.1023
  H  H596  1  0.318500  0.296400  0.215000  1.0  0.1046
  H  H597  1  0.085770  0.934630  0.511430  1.0  0.1134
  H  H598  1  0.037270  0.946230  0.511230  1.0  0.08
  H  H599  1  0.091870  0.030630  0.572930  1.0  0.1031
  H  H600  1  0.140670  0.020230  0.572630  1.0  0.1032
  H  H601  1  0.991570  0.942830  0.541730  1.0  0.0823
  H  H602  1  0.245670  0.044230  0.457630  1.0  0.1048
  H  H603  1  0.255270  0.057830  0.400330  1.0  0.0786
  H  H604  1  0.220970  0.951430  0.380830  1.0  0.1046
  H  H605  1  0.210370  0.937430  0.437230  1.0  0.0988
  H  H606  1  0.226770  0.046330  0.347230  1.0  0.0957
  H  H607  1  0.271770  0.038030  0.267030  1.0  0.0769
  H  H608  1  0.265670  0.979230  0.346030  1.0  0.1145
  H  H609  1  0.324070  0.032130  0.260530  1.0  0.0596
  H  H610  1  0.354770  0.006830  0.234530  1.0  0.1005
  H  H611  1  0.287370  0.912030  0.278530  1.0  0.1004
  H  H612  1  0.261770  0.939530  0.307830  1.0  0.1062
  H  H613  1  0.205770  0.071730  0.320630  1.0  0.1053
  H  H614  1  0.190470  0.107730  0.286230  1.0  0.0948
  H  H615  1  0.280470  0.135130  0.230030  1.0  0.0993
  H  H616  1  0.292670  0.095530  0.261630  1.0  0.0897
  H  H617  1  0.147870  0.834230  0.549830  1.0  0.0835
  H  H618  1  0.118670  0.780330  0.571930  1.0  0.105
  H  H619  1  0.122970  0.825130  0.659530  1.0  0.0965
  H  H620  1  0.154670  0.881930  0.635330  1.0  0.1013
  H  H621  1  0.061170  0.736730  0.596730  1.0  0.0835
  H  H622  1  0.042670  0.672730  0.672030  1.0  0.0735
  H  H623  1  0.130470  0.774630  0.675930  1.0  0.1168
  H  H624  1  0.075770  0.661930  0.708330  1.0  0.0728
  H  H625  1  0.092770  0.653430  0.758530  1.0  0.1002
  H  H626  1  0.127170  0.756330  0.779130  1.0  0.1129
  H  H627  1  0.110970  0.762230  0.727030  1.0  0.0901
  H  H628  1  0.040070  0.674630  0.575130  1.0  0.1045
  H  H629  1  0.983370  0.657930  0.660530  1.0  0.1005
  H  H630  1  0.930670  0.607530  0.635330  1.0  0.1023
  H  H631  1  0.985170  0.629730  0.548330  1.0  0.1046
  H  H632  1  0.752430  0.267970  0.844770  1.0  0.1134
  H  H633  1  0.703930  0.279570  0.844570  1.0  0.08
  H  H634  1  0.758530  0.363970  0.906270  1.0  0.1025
  H  H635  1  0.807330  0.353570  0.905970  1.0  0.1032
  H  H636  1  0.658230  0.276170  0.875070  1.0  0.082
  H  H637  1  0.912330  0.377570  0.790970  1.0  0.1048
  H  H638  1  0.921930  0.391170  0.733670  1.0  0.0788
  H  H639  1  0.887630  0.284770  0.714170  1.0  0.1046
  H  H640  1  0.877030  0.270770  0.770570  1.0  0.0988
  H  H641  1  0.893430  0.379670  0.680570  1.0  0.0953
  H  H642  1  0.938430  0.371370  0.600370  1.0  0.0768
  H  H643  1  0.932330  0.312570  0.679370  1.0  0.1145
  H  H644  1  0.990730  0.365470  0.593870  1.0  0.0596
  H  H645  1  0.021430  0.340170  0.567870  1.0  0.1004
  H  H646  1  0.954030  0.245370  0.611870  1.0  0.1003
  H  H647  1  0.928430  0.272870  0.641170  1.0  0.1062
  H  H648  1  0.872430  0.405070  0.653970  1.0  0.1028
  H  H649  1  0.857130  0.441070  0.619570  1.0  0.0935
  H  H650  1  0.947130  0.468470  0.563370  1.0  0.0993
  H  H651  1  0.959330  0.428870  0.594970  1.0  0.0897
  H  H652  1  0.814530  0.167570  0.883170  1.0  0.0835
  H  H653  1  0.785330  0.113670  0.905270  1.0  0.104
  H  H654  1  0.789630  0.158470  0.992870  1.0  0.0969
  H  H655  1  0.821330  0.215270  0.968670  1.0  0.1004
  H  H656  1  0.727830  0.070070  0.930070  1.0  0.0835
  H  H657  1  0.709330  0.006070  0.005370  1.0  0.0735
  H  H658  1  0.797130  0.107970  0.009270  1.0  0.1168
  H  H659  1  0.742430  0.995270  0.041670  1.0  0.0711
  H  H660  1  0.759430  0.986770  0.091870  1.0  0.0986
  H  H661  1  0.793830  0.089670  0.112470  1.0  0.113
  H  H662  1  0.777630  0.095570  0.060370  1.0  0.0901
  H  H663  1  0.706730  0.007970  0.908470  1.0  0.1044
  H  H664  1  0.650030  0.991270  0.993870  1.0  0.1004
  H  H665  1  0.597330  0.940870  0.968670  1.0  0.1023
  H  H666  1  0.651830  0.963070  0.881670  1.0  0.1046
  C  C667  1  0.637100  0.155600  0.790300  1.0  0.6595
  C  C668  1  0.643700  0.192290  0.791500  1.0  -0.0486
  C  C669  1  0.620900  0.200400  0.809600  1.0  -0.1416
  C  C670  1  0.627700  0.236300  0.809200  1.0  -0.1764
  C  C671  1  0.655200  0.263400  0.790700  1.0  0.159
  C  C672  1  0.677700  0.254000  0.772800  1.0  -0.1814
  C  C673  1  0.671800  0.218900  0.773100  1.0  -0.1044
  C  C674  1  0.660400  0.298300  0.790500  1.0  0.3242
  C  C675  1  0.633500  0.304800  0.790900  1.0  -0.1129
  C  C676  1  0.645500  0.090800  0.848300  1.0  0.4984
  C  C677  1  0.657100  0.094600  0.880500  1.0  0.0064
  C  C678  1  0.692300  0.117800  0.890900  1.0  -0.0991
  C  C679  1  0.700500  0.120300  0.925600  1.0  -0.1964
  C  C680  1  0.673500  0.100100  0.947400  1.0  0.0924
  C  C681  1  0.636700  0.077200  0.937100  1.0  -0.2199
  C  C682  1  0.628500  0.074900  0.903400  1.0  -0.2021
  C  C683  1  0.681700  0.100300  0.981300  1.0  0.2285
  C  C684  1  0.704600  0.130300  0.996800  1.0  -0.0992
  C  C685  1  0.716500  0.130000  0.027600  1.0  0.2653
  C  C686  1  0.698900  0.099400  0.043900  1.0  -0.0603
  C  C687  1  0.672200  0.066900  0.030300  1.0  0.105
  C  C688  1  0.663900  0.068200  0.997900  1.0  -0.1861
  C  C689  1  0.656200  0.032500  0.047500  1.0  0.2369
  C  C690  1  0.674200  0.023800  0.068400  1.0  -0.0728
  C  C691  1  0.659700  0.991200  0.084300  1.0  -0.1669
  C  C692  1  0.622700  0.966700  0.077400  1.0  -0.0413
  C  C693  1  0.603900  0.974700  0.057700  1.0  -0.1532
  C  C694  1  0.619600  0.006300  0.041300  1.0  -0.1856
  C  C695  1  0.605500  0.931100  0.094600  1.0  0.6596
  C  C696  1  0.741900  0.161600  0.042500  1.0  0.1733
  C  C697  1  0.749100  0.196600  0.032100  1.0  -0.1909
  C  C698  1  0.772800  0.227900  0.051400  1.0  -0.0629
  C  C699  1  0.793700  0.225200  0.076600  1.0  -0.0197
  C  C700  1  0.788700  0.190300  0.085500  1.0  -0.0513
  C  C701  1  0.764000  0.159000  0.067300  1.0  -0.1845
  C  C702  1  0.822300  0.257300  0.096200  1.0  0.401
  C  C703  1  0.565900  0.060400  0.759100  1.0  0.6445
  C  C704  1  0.530700  0.042700  0.743900  1.0  -0.0734
  C  C705  1  0.499300  0.022700  0.760800  1.0  -0.124
  C  C706  1  0.467700  0.007800  0.747800  1.0  -0.2105
  C  C707  1  0.462800  0.009800  0.714600  1.0  0.1576
  C  C708  1  0.493900  0.031400  0.696300  1.0  -0.2118
  C  C709  1  0.527400  0.046900  0.710800  1.0  -0.1067
  C  C710  1  0.427800  0.994100  0.698700  1.0  0.0771
  C  C711  1  0.399500  0.997800  0.715700  1.0  -0.2277
  C  C712  1  0.367700  0.984400  0.699700  1.0  0.3578
  C  C713  1  0.362200  0.970800  0.671200  1.0  -0.075
  C  C714  1  0.387300  0.966000  0.653700  1.0  0.119
  C  C715  1  0.422500  0.979200  0.668400  1.0  -0.2187
  C  C716  1  0.380700  0.950000  0.622100  1.0  0.2243
  C  C717  1  0.349100  0.927100  0.611100  1.0  -0.1792
  C  C718  1  0.343500  0.913400  0.580400  1.0  -0.1276
  C  C719  1  0.368700  0.925600  0.558900  1.0  0.0648
  C  C720  1  0.402900  0.952700  0.568700  1.0  -0.1231
  C  C721  1  0.406300  0.964400  0.600000  1.0  -0.1446
  C  C722  1  0.363000  0.913500  0.527500  1.0  0.4689
  C  C723  1  0.328800  0.977600  0.746500  1.0  -0.1644
  C  C724  1  0.336800  0.987000  0.713300  1.0  0.0267
  C  C725  1  0.318100  0.000700  0.694800  1.0  -0.1539
  C  C726  1  0.288600  0.003300  0.710300  1.0  -0.1374
  C  C727  1  0.281800  0.995300  0.743900  1.0  0.1775
  C  C728  1  0.301200  0.982800  0.762500  1.0  -0.1417
  C  C729  1  0.256300  0.000300  0.759100  1.0  0.319
  C  C730  1  0.303770  0.488930  0.123630  1.0  0.6595
  C  C731  1  0.310370  0.525620  0.124830  1.0  -0.0486
  C  C732  1  0.287570  0.533730  0.142930  1.0  -0.1416
  C  C733  1  0.294370  0.569630  0.142530  1.0  -0.1764
  C  C734  1  0.321870  0.596730  0.124030  1.0  0.159
  C  C735  1  0.344370  0.587330  0.106130  1.0  -0.1814
  C  C736  1  0.338470  0.552230  0.106430  1.0  -0.1044
  C  C737  1  0.327070  0.631630  0.123830  1.0  0.3242
  C  C738  1  0.300170  0.638130  0.124230  1.0  -0.1129
  C  C739  1  0.312170  0.424130  0.181630  1.0  0.4983
  C  C740  1  0.323770  0.427930  0.213830  1.0  0.0064
  C  C741  1  0.358970  0.451130  0.224230  1.0  -0.0991
  C  C742  1  0.367170  0.453630  0.258930  1.0  -0.1964
  C  C743  1  0.340170  0.433430  0.280730  1.0  0.0924
  C  C744  1  0.303370  0.410530  0.270430  1.0  -0.2199
  C  C745  1  0.295170  0.408230  0.236730  1.0  -0.2021
  C  C746  1  0.348370  0.433630  0.314630  1.0  0.2285
  C  C747  1  0.371270  0.463630  0.330130  1.0  -0.0992
  C  C748  1  0.383170  0.463330  0.360930  1.0  0.2653
  C  C749  1  0.365570  0.432730  0.377230  1.0  -0.0603
  C  C750  1  0.338870  0.400230  0.363630  1.0  0.105
  C  C751  1  0.330570  0.401530  0.331230  1.0  -0.1861
  C  C752  1  0.322870  0.365830  0.380830  1.0  0.2369
  C  C753  1  0.340870  0.357130  0.401730  1.0  -0.0728
  C  C754  1  0.326370  0.324530  0.417630  1.0  -0.1669
  C  C755  1  0.289370  0.300030  0.410730  1.0  -0.0413
  C  C756  1  0.270570  0.308030  0.391030  1.0  -0.1532
  C  C757  1  0.286270  0.339630  0.374630  1.0  -0.1856
  C  C758  1  0.272170  0.264430  0.427930  1.0  0.6596
  C  C759  1  0.408570  0.494930  0.375830  1.0  0.1733
  C  C760  1  0.415770  0.529930  0.365430  1.0  -0.1909
  C  C761  1  0.439470  0.561230  0.384730  1.0  -0.0629
  C  C762  1  0.460370  0.558530  0.409930  1.0  -0.0197
  C  C763  1  0.455370  0.523630  0.418830  1.0  -0.0513
  C  C764  1  0.430670  0.492330  0.400630  1.0  -0.1845
  C  C765  1  0.488970  0.590630  0.429530  1.0  0.4012
  C  C766  1  0.232570  0.393730  0.092430  1.0  0.6446
  C  C767  1  0.197370  0.376030  0.077230  1.0  -0.0733
  C  C768  1  0.165970  0.356030  0.094130  1.0  -0.124
  C  C769  1  0.134370  0.341130  0.081130  1.0  -0.2105
  C  C770  1  0.129470  0.343130  0.047930  1.0  0.1576
  C  C771  1  0.160570  0.364730  0.029630  1.0  -0.2118
  C  C772  1  0.194070  0.380230  0.044130  1.0  -0.1067
  C  C773  1  0.094470  0.327430  0.032030  1.0  0.0771
  C  C774  1  0.066170  0.331130  0.049030  1.0  -0.2277
  C  C775  1  0.034370  0.317730  0.033030  1.0  0.3578
  C  C776  1  0.028870  0.304130  0.004530  1.0  -0.075
  C  C777  1  0.053970  0.299330  0.987030  1.0  0.119
  C  C778  1  0.089170  0.312530  0.001730  1.0  -0.2187
  C  C779  1  0.047370  0.283330  0.955430  1.0  0.2243
  C  C780  1  0.015770  0.260430  0.944430  1.0  -0.1792
  C  C781  1  0.010170  0.246730  0.913730  1.0  -0.1274
  C  C782  1  0.035370  0.258930  0.892230  1.0  0.0649
  C  C783  1  0.069570  0.286030  0.902030  1.0  -0.123
  C  C784  1  0.072970  0.297730  0.933330  1.0  -0.1446
  C  C785  1  0.029670  0.246830  0.860830  1.0  0.4699
  C  C786  1  0.995470  0.310930  0.079830  1.0  -0.1644
  C  C787  1  0.003470  0.320330  0.046630  1.0  0.0267
  C  C788  1  0.984770  0.334030  0.028130  1.0  -0.1539
  C  C789  1  0.955270  0.336630  0.043630  1.0  -0.1374
  C  C790  1  0.948470  0.328630  0.077230  1.0  0.1775
  C  C791  1  0.967870  0.316130  0.095830  1.0  -0.1418
  C  C792  1  0.922970  0.333630  0.092430  1.0  0.3191
  C  C793  1  0.970430  0.822270  0.456970  1.0  0.6595
  C  C794  1  0.977030  0.858960  0.458170  1.0  -0.0486
  C  C795  1  0.954230  0.867070  0.476270  1.0  -0.1415
  C  C796  1  0.961030  0.902970  0.475870  1.0  -0.1766
  C  C797  1  0.988530  0.930070  0.457370  1.0  0.159
  C  C798  1  0.011030  0.920670  0.439470  1.0  -0.1817
  C  C799  1  0.005130  0.885570  0.439770  1.0  -0.1044
  C  C800  1  0.993730  0.964970  0.457170  1.0  0.3241
  C  C801  1  0.966830  0.971470  0.457570  1.0  -0.1129
  C  C802  1  0.978830  0.757470  0.514970  1.0  0.4982
  C  C803  1  0.990430  0.761270  0.547170  1.0  0.0071
  C  C804  1  0.025630  0.784470  0.557570  1.0  -0.0991
  C  C805  1  0.033830  0.786970  0.592270  1.0  -0.1971
  C  C806  1  0.006830  0.766770  0.614070  1.0  0.0925
  C  C807  1  0.970030  0.743870  0.603770  1.0  -0.2199
  C  C808  1  0.961830  0.741570  0.570070  1.0  -0.2021
  C  C809  1  0.015030  0.766970  0.647970  1.0  0.2286
  C  C810  1  0.037930  0.796970  0.663470  1.0  -0.091
  C  C811  1  0.049830  0.796670  0.694270  1.0  0.2655
  C  C812  1  0.032230  0.766070  0.710570  1.0  -0.0678
  C  C813  1  0.005530  0.733570  0.696970  1.0  0.105
  C  C814  1  0.997230  0.734870  0.664570  1.0  -0.186
  C  C815  1  0.989530  0.699170  0.714170  1.0  0.2369
  C  C816  1  0.007530  0.690470  0.735070  1.0  -0.073
  C  C817  1  0.993030  0.657870  0.750970  1.0  -0.1671
  C  C818  1  0.956030  0.633370  0.744070  1.0  -0.0413
  C  C819  1  0.937230  0.641370  0.724370  1.0  -0.1532
  C  C820  1  0.952930  0.672970  0.707970  1.0  -0.1854
  C  C821  1  0.938830  0.597770  0.761270  1.0  0.6596
  C  C822  1  0.075230  0.828270  0.709170  1.0  0.1733
  C  C823  1  0.082430  0.863270  0.698770  1.0  -0.1929
  C  C824  1  0.106130  0.894570  0.718070  1.0  -0.0575
  C  C825  1  0.127030  0.891870  0.743270  1.0  -0.0162
  C  C826  1  0.122030  0.856970  0.752170  1.0  -0.0514
  C  C827  1  0.097330  0.825670  0.733970  1.0  -0.1845
  C  C828  1  0.155630  0.923970  0.762870  1.0  0.4028
  C  C829  1  0.899230  0.727070  0.425770  1.0  0.6446
  C  C830  1  0.864030  0.709370  0.410570  1.0  -0.0734
  C  C831  1  0.832630  0.689370  0.427470  1.0  -0.1241
  C  C832  1  0.801030  0.674470  0.414470  1.0  -0.2104
  C  C833  1  0.796130  0.676470  0.381270  1.0  0.1576
  C  C834  1  0.827230  0.698070  0.362970  1.0  -0.2118
  C  C835  1  0.860730  0.713570  0.377470  1.0  -0.1066
  C  C836  1  0.761130  0.660770  0.365370  1.0  0.0772
  C  C837  1  0.732830  0.664470  0.382370  1.0  -0.2277
  C  C838  1  0.701030  0.651070  0.366370  1.0  0.3578
  C  C839  1  0.695530  0.637470  0.337870  1.0  -0.0749
  C  C840  1  0.720630  0.632670  0.320370  1.0  0.119
  C  C841  1  0.755830  0.645870  0.335070  1.0  -0.2198
  C  C842  1  0.714030  0.616670  0.288770  1.0  0.2243
  C  C843  1  0.682430  0.593770  0.277770  1.0  -0.1792
  C  C844  1  0.676830  0.580070  0.247070  1.0  -0.1272
  C  C845  1  0.702030  0.592270  0.225570  1.0  0.0652
  C  C846  1  0.736230  0.619370  0.235370  1.0  -0.123
  C  C847  1  0.739630  0.631070  0.266670  1.0  -0.144
  C  C848  1  0.696330  0.580170  0.194170  1.0  0.4689
  C  C849  1  0.662130  0.644270  0.413170  1.0  -0.1644
  C  C850  1  0.670130  0.653670  0.379970  1.0  0.0267
  C  C851  1  0.651430  0.667370  0.361470  1.0  -0.1539
  C  C852  1  0.621930  0.669970  0.376970  1.0  -0.1373
  C  C853  1  0.615130  0.661970  0.410570  1.0  0.1774
  C  C854  1  0.634530  0.649470  0.429170  1.0  -0.1418
  C  C855  1  0.589630  0.666970  0.425770  1.0  0.3192
  C  C856  1  0.844400  0.481500  0.790300  1.0  0.6589
  C  C857  1  0.807710  0.451410  0.791500  1.0  -0.0525
  C  C858  1  0.799600  0.420500  0.809600  1.0  -0.1351
  C  C859  1  0.763700  0.391400  0.809200  1.0  -0.1742
  C  C860  1  0.736600  0.391800  0.790700  1.0  0.1597
  C  C861  1  0.746000  0.423700  0.772800  1.0  -0.1781
  C  C862  1  0.781100  0.452900  0.773100  1.0  -0.106
  C  C863  1  0.701700  0.362100  0.790500  1.0  0.3232
  C  C864  1  0.695200  0.328700  0.790900  1.0  -0.112
  C  C865  1  0.909200  0.554700  0.848300  1.0  0.4977
  C  C866  1  0.905400  0.562500  0.880500  1.0  0.0082
  C  C867  1  0.882200  0.574500  0.890900  1.0  -0.0954
  C  C868  1  0.879700  0.580200  0.925600  1.0  -0.1978
  C  C869  1  0.899900  0.573400  0.947400  1.0  0.0953
  C  C870  1  0.922800  0.559500  0.937100  1.0  -0.2188
  C  C871  1  0.925100  0.553600  0.903400  1.0  -0.2005
  C  C872  1  0.899700  0.581400  0.981300  1.0  0.2368
  C  C873  1  0.869700  0.574300  0.996800  1.0  -0.0975
  C  C874  1  0.870000  0.586500  0.027600  1.0  0.2666
  C  C875  1  0.900600  0.599500  0.043900  1.0  -0.062
  C  C876  1  0.933100  0.605300  0.030300  1.0  0.1078
  C  C877  1  0.931800  0.595700  0.997900  1.0  -0.1901
  C  C878  1  0.967500  0.623700  0.047500  1.0  0.2389
  C  C879  1  0.976200  0.650400  0.068400  1.0  -0.0715
  C  C880  1  0.008800  0.668500  0.084300  1.0  -0.1681
  C  C881  1  0.033300  0.656000  0.077400  1.0  -0.0472
  C  C882  1  0.025300  0.629200  0.057700  1.0  -0.1483
  C  C883  1  0.993700  0.613300  0.041300  1.0  -0.1899
  C  C884  1  0.068900  0.674400  0.094600  1.0  0.6564
  C  C885  1  0.838400  0.580300  0.042500  1.0  0.1738
  C  C886  1  0.803400  0.552500  0.032100  1.0  -0.1894
  C  C887  1  0.772100  0.544900  0.051400  1.0  -0.0652
  C  C888  1  0.774800  0.568500  0.076600  1.0  -0.0213
  C  C889  1  0.809700  0.598400  0.085500  1.0  -0.0536
  C  C890  1  0.841000  0.605000  0.067300  1.0  -0.1843
  C  C891  1  0.742700  0.565000  0.096200  1.0  0.4016
  C  C892  1  0.939600  0.505500  0.759100  1.0  0.6464
  C  C893  1  0.957300  0.488000  0.743900  1.0  -0.0705
  C  C894  1  0.977300  0.476600  0.760800  1.0  -0.125
  C  C895  1  0.992200  0.459900  0.747800  1.0  -0.2086
  C  C896  1  0.990200  0.453000  0.714600  1.0  0.156
  C  C897  1  0.968600  0.462500  0.696300  1.0  -0.2115
  C  C898  1  0.953100  0.480500  0.710800  1.0  -0.1119
  C  C899  1  0.005900  0.433700  0.698700  1.0  0.0777
  C  C900  1  0.002200  0.401700  0.715700  1.0  -0.2215
  C  C901  1  0.015600  0.383300  0.699700  1.0  0.3551
  C  C902  1  0.029200  0.391400  0.671200  1.0  -0.0772
  C  C903  1  0.034000  0.421300  0.653700  1.0  0.1153
  C  C904  1  0.020800  0.443300  0.668400  1.0  -0.2134
  C  C905  1  0.050000  0.430700  0.622100  1.0  0.2248
  C  C906  1  0.072900  0.422000  0.611100  1.0  -0.1747
  C  C907  1  0.086600  0.430100  0.580400  1.0  -0.1186
  C  C908  1  0.074400  0.443100  0.558900  1.0  0.0646
  C  C909  1  0.047300  0.450200  0.568700  1.0  -0.1252
  C  C910  1  0.035600  0.441900  0.600000  1.0  -0.1489
  C  C911  1  0.086500  0.449500  0.527500  1.0  0.4673
  C  C912  1  0.022400  0.351200  0.746500  1.0  -0.1567
  C  C913  1  0.013000  0.349800  0.713300  1.0  0.0232
  C  C914  1  0.999300  0.317400  0.694800  1.0  -0.1528
  C  C915  1  0.996700  0.285300  0.710300  1.0  -0.1398
  C  C916  1  0.004700  0.286500  0.743900  1.0  0.1761
  C  C917  1  0.017200  0.318400  0.762500  1.0  -0.1409
  C  C918  1  0.999700  0.256000  0.759100  1.0  0.3157
  C  C919  1  0.511070  0.814830  0.123630  1.0  0.6589
  C  C920  1  0.474380  0.784740  0.124830  1.0  -0.0525
  C  C921  1  0.466270  0.753830  0.142930  1.0  -0.1351
  C  C922  1  0.430370  0.724730  0.142530  1.0  -0.1742
  C  C923  1  0.403270  0.725130  0.124030  1.0  0.1597
  C  C924  1  0.412670  0.757030  0.106130  1.0  -0.1781
  C  C925  1  0.447770  0.786230  0.106430  1.0  -0.106
  C  C926  1  0.368370  0.695430  0.123830  1.0  0.3232
  C  C927  1  0.361870  0.662030  0.124230  1.0  -0.112
  C  C928  1  0.575870  0.888030  0.181630  1.0  0.4977
  C  C929  1  0.572070  0.895830  0.213830  1.0  0.0082
  C  C930  1  0.548870  0.907830  0.224230  1.0  -0.0954
  C  C931  1  0.546370  0.913530  0.258930  1.0  -0.1978
  C  C932  1  0.566570  0.906730  0.280730  1.0  0.0953
  C  C933  1  0.589470  0.892830  0.270430  1.0  -0.2188
  C  C934  1  0.591770  0.886930  0.236730  1.0  -0.2005
  C  C935  1  0.566370  0.914730  0.314630  1.0  0.2368
  C  C936  1  0.536370  0.907630  0.330130  1.0  -0.0975
  C  C937  1  0.536670  0.919830  0.360930  1.0  0.2666
  C  C938  1  0.567270  0.932830  0.377230  1.0  -0.062
  C  C939  1  0.599770  0.938630  0.363630  1.0  0.1078
  C  C940  1  0.598470  0.929030  0.331230  1.0  -0.1901
  C  C941  1  0.634170  0.957030  0.380830  1.0  0.2389
  C  C942  1  0.642870  0.983730  0.401730  1.0  -0.0715
  C  C943  1  0.675470  0.001830  0.417630  1.0  -0.1681
  C  C944  1  0.699970  0.989330  0.410730  1.0  -0.0472
  C  C945  1  0.691970  0.962530  0.391030  1.0  -0.1483
  C  C946  1  0.660370  0.946630  0.374630  1.0  -0.1899
  C  C947  1  0.735570  0.007730  0.427930  1.0  0.6565
  C  C948  1  0.505070  0.913630  0.375830  1.0  0.1738
  C  C949  1  0.470070  0.885830  0.365430  1.0  -0.1894
  C  C950  1  0.438770  0.878230  0.384730  1.0  -0.0652
  C  C951  1  0.441470  0.901830  0.409930  1.0  -0.0213
  C  C952  1  0.476370  0.931730  0.418830  1.0  -0.0536
  C  C953  1  0.507670  0.938330  0.400630  1.0  -0.1843
  C  C954  1  0.409370  0.898330  0.429530  1.0  0.4016
  C  C955  1  0.606270  0.838830  0.092430  1.0  0.6463
  C  C956  1  0.623970  0.821330  0.077230  1.0  -0.0706
  C  C957  1  0.643970  0.809930  0.094130  1.0  -0.125
  C  C958  1  0.658870  0.793230  0.081130  1.0  -0.2086
  C  C959  1  0.656870  0.786330  0.047930  1.0  0.156
  C  C960  1  0.635270  0.795830  0.029630  1.0  -0.2115
  C  C961  1  0.619770  0.813830  0.044130  1.0  -0.1119
  C  C962  1  0.672570  0.767030  0.032030  1.0  0.0777
  C  C963  1  0.668870  0.735030  0.049030  1.0  -0.2215
  C  C964  1  0.682270  0.716630  0.033030  1.0  0.3551
  C  C965  1  0.695870  0.724730  0.004530  1.0  -0.0772
  C  C966  1  0.700670  0.754630  0.987030  1.0  0.1153
  C  C967  1  0.687470  0.776630  0.001730  1.0  -0.2134
  C  C968  1  0.716670  0.764030  0.955430  1.0  0.2248
  C  C969  1  0.739570  0.755330  0.944430  1.0  -0.1746
  C  C970  1  0.753270  0.763430  0.913730  1.0  -0.1186
  C  C971  1  0.741070  0.776430  0.892230  1.0  0.0671
  C  C972  1  0.713970  0.783530  0.902030  1.0  -0.1252
  C  C973  1  0.702270  0.775230  0.933330  1.0  -0.1489
  C  C974  1  0.753170  0.782830  0.860830  1.0  0.4593
  C  C975  1  0.689070  0.684530  0.079830  1.0  -0.1566
  C  C976  1  0.679670  0.683130  0.046630  1.0  0.0233
  C  C977  1  0.665970  0.650730  0.028130  1.0  -0.1528
  C  C978  1  0.663370  0.618630  0.043630  1.0  -0.1398
  C  C979  1  0.671370  0.619830  0.077230  1.0  0.176
  C  C980  1  0.683870  0.651730  0.095830  1.0  -0.1409
  C  C981  1  0.666370  0.589330  0.092430  1.0  0.316
  C  C982  1  0.177730  0.148170  0.456970  1.0  0.6589
  C  C983  1  0.141040  0.118080  0.458170  1.0  -0.0524
  C  C984  1  0.132930  0.087170  0.476270  1.0  -0.1349
  C  C985  1  0.097030  0.058070  0.475870  1.0  -0.1745
  C  C986  1  0.069930  0.058470  0.457370  1.0  0.1597
  C  C987  1  0.079330  0.090370  0.439470  1.0  -0.1778
  C  C988  1  0.114430  0.119570  0.439770  1.0  -0.1061
  C  C989  1  0.035030  0.028770  0.457170  1.0  0.3231
  C  C990  1  0.028530  0.995370  0.457570  1.0  -0.1132
  C  C991  1  0.242530  0.221370  0.514970  1.0  0.4975
  C  C992  1  0.238730  0.229170  0.547170  1.0  0.0082
  C  C993  1  0.215530  0.241170  0.557570  1.0  -0.0954
  C  C994  1  0.213030  0.246870  0.592270  1.0  -0.1972
  C  C995  1  0.233230  0.240070  0.614070  1.0  0.0953
  C  C996  1  0.256130  0.226170  0.603770  1.0  -0.2189
  C  C997  1  0.258430  0.220270  0.570070  1.0  -0.2004
  C  C998  1  0.233030  0.248070  0.647970  1.0  0.2368
  C  C999  1  0.203030  0.240970  0.663470  1.0  -0.0975
  C  C1000  1  0.203330  0.253170  0.694270  1.0  0.2668
  C  C1001  1  0.233930  0.266170  0.710570  1.0  -0.0624
  C  C1002  1  0.266430  0.271970  0.696970  1.0  0.1078
  C  C1003  1  0.265130  0.262370  0.664570  1.0  -0.1915
  C  C1004  1  0.300830  0.290370  0.714170  1.0  0.2389
  C  C1005  1  0.309530  0.317070  0.735070  1.0  -0.0715
  C  C1006  1  0.342130  0.335170  0.750970  1.0  -0.168
  C  C1007  1  0.366630  0.322670  0.744070  1.0  -0.0471
  C  C1008  1  0.358630  0.295870  0.724370  1.0  -0.1483
  C  C1009  1  0.327030  0.279970  0.707970  1.0  -0.1899
  C  C1010  1  0.402230  0.341070  0.761270  1.0  0.6564
  C  C1011  1  0.171730  0.246970  0.709170  1.0  0.1737
  C  C1012  1  0.136730  0.219170  0.698770  1.0  -0.1894
  C  C1013  1  0.105430  0.211570  0.718070  1.0  -0.0651
  C  C1014  1  0.108130  0.235170  0.743270  1.0  -0.0213
  C  C1015  1  0.143030  0.265070  0.752170  1.0  -0.0536
  C  C1016  1  0.174330  0.271670  0.733970  1.0  -0.1843
  C  C1017  1  0.076030  0.231670  0.762870  1.0  0.4017
  C  C1018  1  0.272930  0.172170  0.425770  1.0  0.6463
  C  C1019  1  0.290630  0.154670  0.410570  1.0  -0.0705
  C  C1020  1  0.310630  0.143270  0.427470  1.0  -0.125
  C  C1021  1  0.325530  0.126570  0.414470  1.0  -0.2086
  C  C1022  1  0.323530  0.119670  0.381270  1.0  0.1559
  C  C1023  1  0.301930  0.129170  0.362970  1.0  -0.2114
  C  C1024  1  0.286430  0.147170  0.377470  1.0  -0.1119
  C  C1025  1  0.339230  0.100370  0.365370  1.0  0.0777
  C  C1026  1  0.335530  0.068370  0.382370  1.0  -0.2215
  C  C1027  1  0.348930  0.049970  0.366370  1.0  0.3551
  C  C1028  1  0.362530  0.058070  0.337870  1.0  -0.0772
  C  C1029  1  0.367330  0.087970  0.320370  1.0  0.1153
  C  C1030  1  0.354130  0.109970  0.335070  1.0  -0.2138
  C  C1031  1  0.383330  0.097370  0.288770  1.0  0.2248
  C  C1032  1  0.406230  0.088670  0.277770  1.0  -0.1747
  C  C1033  1  0.419930  0.096770  0.247070  1.0  -0.1186
  C  C1034  1  0.407730  0.109770  0.225570  1.0  0.0646
  C  C1035  1  0.380630  0.116870  0.235370  1.0  -0.1251
  C  C1036  1  0.368930  0.108570  0.266670  1.0  -0.1486
  C  C1037  1  0.419830  0.116170  0.194170  1.0  0.4673
  C  C1038  1  0.355730  0.017870  0.413170  1.0  -0.1567
  C  C1039  1  0.346330  0.016470  0.379970  1.0  0.0233
  C  C1040  1  0.332630  0.984070  0.361470  1.0  -0.1528
  C  C1041  1  0.330030  0.951970  0.376970  1.0  -0.1399
  C  C1042  1  0.338030  0.953170  0.410570  1.0  0.176
  C  C1043  1  0.350530  0.985070  0.429170  1.0  -0.1408
  C  C1044  1  0.333030  0.922670  0.425770  1.0  0.3155
  C  C1045  1  0.518500  0.362900  0.790300  1.0  0.657
  C  C1046  1  0.548590  0.356300  0.791500  1.0  -0.0501
  C  C1047  1  0.579500  0.379100  0.809600  1.0  -0.1416
  C  C1048  1  0.608600  0.372300  0.809200  1.0  -0.1752
  C  C1049  1  0.608200  0.344800  0.790700  1.0  0.1608
  C  C1050  1  0.576300  0.322300  0.772800  1.0  -0.1788
  C  C1051  1  0.547100  0.328200  0.773100  1.0  -0.1067
  C  C1052  1  0.637900  0.339600  0.790500  1.0  0.322
  C  C1053  1  0.671300  0.366500  0.790900  1.0  -0.1156
  C  C1054  1  0.445300  0.354500  0.848300  1.0  0.4993
  C  C1055  1  0.437500  0.342900  0.880500  1.0  0.0058
  C  C1056  1  0.425500  0.307700  0.890900  1.0  -0.0999
  C  C1057  1  0.419800  0.299500  0.925600  1.0  -0.1928
  C  C1058  1  0.426600  0.326500  0.947400  1.0  0.0946
  C  C1059  1  0.440500  0.363300  0.937100  1.0  -0.2163
  C  C1060  1  0.446400  0.371500  0.903400  1.0  -0.1961
  C  C1061  1  0.418600  0.318300  0.981300  1.0  0.2316
  C  C1062  1  0.425700  0.295400  0.996800  1.0  -0.0984
  C  C1063  1  0.413500  0.283500  0.027600  1.0  0.2668
  C  C1064  1  0.400500  0.301100  0.043900  1.0  -0.0555
  C  C1065  1  0.394700  0.327800  0.030300  1.0  0.1036
  C  C1066  1  0.404300  0.336100  0.997900  1.0  -0.1818
  C  C1067  1  0.376300  0.343800  0.047500  1.0  0.239
  C  C1068  1  0.349600  0.325800  0.068400  1.0  -0.0727
  C  C1069  1  0.331500  0.340300  0.084300  1.0  -0.1708
  C  C1070  1  0.344000  0.377300  0.077400  1.0  -0.0455
  C  C1071  1  0.370800  0.396100  0.057700  1.0  -0.1515
  C  C1072  1  0.386700  0.380400  0.041300  1.0  -0.1879
  C  C1073  1  0.325600  0.394500  0.094600  1.0  0.6568
  C  C1074  1  0.419700  0.258100  0.042500  1.0  0.1726
  C  C1075  1  0.447500  0.250900  0.032100  1.0  -0.1844
  C  C1076  1  0.455100  0.227200  0.051400  1.0  -0.0616
  C  C1077  1  0.431500  0.206300  0.076600  1.0  -0.0197
  C  C1078  1  0.401600  0.211300  0.085500  1.0  -0.052
  C  C1079  1  0.395000  0.236000  0.067300  1.0  -0.1861
  C  C1080  1  0.435000  0.177700  0.096200  1.0  0.4047
  C  C1081  1  0.494500  0.434100  0.759100  1.0  0.6472
  C  C1082  1  0.512000  0.469300  0.743900  1.0  -0.0733
  C  C1083  1  0.523400  0.500700  0.760800  1.0  -0.121
  C  C1084  1  0.540100  0.532300  0.747800  1.0  -0.2087
  C  C1085  1  0.547000  0.537200  0.714600  1.0  0.1564
  C  C1086  1  0.537500  0.506100  0.696300  1.0  -0.2114
  C  C1087  1  0.519500  0.472600  0.710800  1.0  -0.1101
  C  C1088  1  0.566300  0.572200  0.698700  1.0  0.073
  C  C1089  1  0.598300  0.600500  0.715700  1.0  -0.2273
  C  C1090  1  0.616700  0.632300  0.699700  1.0  0.3527
  C  C1091  1  0.608600  0.637800  0.671200  1.0  -0.077
  C  C1092  1  0.578700  0.612700  0.653700  1.0  0.1128
  C  C1093  1  0.556700  0.577500  0.668400  1.0  -0.2192
  C  C1094  1  0.569300  0.619300  0.622100  1.0  0.2211
  C  C1095  1  0.578000  0.650900  0.611100  1.0  -0.1776
  C  C1096  1  0.569900  0.656500  0.580400  1.0  -0.1243
  C  C1097  1  0.556900  0.631300  0.558900  1.0  0.0661
  C  C1098  1  0.549800  0.597100  0.568700  1.0  -0.121
  C  C1099  1  0.558100  0.593700  0.600000  1.0  -0.146
  C  C1100  1  0.550500  0.637000  0.527500  1.0  0.4698
  C  C1101  1  0.648800  0.671200  0.746500  1.0  -0.1597
  C  C1102  1  0.650200  0.663200  0.713300  1.0  0.0254
  C  C1103  1  0.682600  0.681900  0.694800  1.0  -0.1544
  C  C1104  1  0.714700  0.711400  0.710300  1.0  -0.1376
  C  C1105  1  0.713500  0.718200  0.743900  1.0  0.1764
  C  C1106  1  0.681600  0.698800  0.762500  1.0  -0.1429
  C  C1107  1  0.744000  0.743700  0.759100  1.0  0.32
  C  C1108  1  0.185170  0.696230  0.123630  1.0  0.657
  C  C1109  1  0.215260  0.689630  0.124830  1.0  -0.0501
  C  C1110  1  0.246170  0.712430  0.142930  1.0  -0.1416
  C  C1111  1  0.275270  0.705630  0.142530  1.0  -0.1752
  C  C1112  1  0.274870  0.678130  0.124030  1.0  0.1608
  C  C1113  1  0.242970  0.655630  0.106130  1.0  -0.1788
  C  C1114  1  0.213770  0.661530  0.106430  1.0  -0.1067
  C  C1115  1  0.304570  0.672930  0.123830  1.0  0.322
  C  C1116  1  0.337970  0.699830  0.124230  1.0  -0.1156
  C  C1117  1  0.111970  0.687830  0.181630  1.0  0.4992
  C  C1118  1  0.104170  0.676230  0.213830  1.0  0.0058
  C  C1119  1  0.092170  0.641030  0.224230  1.0  -0.0999
  C  C1120  1  0.086470  0.632830  0.258930  1.0  -0.1928
  C  C1121  1  0.093270  0.659830  0.280730  1.0  0.0946
  C  C1122  1  0.107170  0.696630  0.270430  1.0  -0.2163
  C  C1123  1  0.113070  0.704830  0.236730  1.0  -0.1961
  C  C1124  1  0.085270  0.651630  0.314630  1.0  0.2316
  C  C1125  1  0.092370  0.628730  0.330130  1.0  -0.0984
  C  C1126  1  0.080170  0.616830  0.360930  1.0  0.2668
  C  C1127  1  0.067170  0.634430  0.377230  1.0  -0.0555
  C  C1128  1  0.061370  0.661130  0.363630  1.0  0.1036
  C  C1129  1  0.070970  0.669430  0.331230  1.0  -0.1818
  C  C1130  1  0.042970  0.677130  0.380830  1.0  0.239
  C  C1131  1  0.016270  0.659130  0.401730  1.0  -0.0727
  C  C1132  1  0.998170  0.673630  0.417630  1.0  -0.1708
  C  C1133  1  0.010670  0.710630  0.410730  1.0  -0.0454
  C  C1134  1  0.037470  0.729430  0.391030  1.0  -0.1515
  C  C1135  1  0.053370  0.713730  0.374630  1.0  -0.1879
  C  C1136  1  0.992270  0.727830  0.427930  1.0  0.6571
  C  C1137  1  0.086370  0.591430  0.375830  1.0  0.1726
  C  C1138  1  0.114170  0.584230  0.365430  1.0  -0.1844
  C  C1139  1  0.121770  0.560530  0.384730  1.0  -0.0616
  C  C1140  1  0.098170  0.539630  0.409930  1.0  -0.0198
  C  C1141  1  0.068270  0.544630  0.418830  1.0  -0.052
  C  C1142  1  0.061670  0.569330  0.400630  1.0  -0.1861
  C  C1143  1  0.101670  0.511030  0.429530  1.0  0.4047
  C  C1144  1  0.161170  0.767430  0.092430  1.0  0.6472
  C  C1145  1  0.178670  0.802630  0.077230  1.0  -0.0734
  C  C1146  1  0.190070  0.834030  0.094130  1.0  -0.121
  C  C1147  1  0.206770  0.865630  0.081130  1.0  -0.2087
  C  C1148  1  0.213670  0.870530  0.047930  1.0  0.1564
  C  C1149  1  0.204170  0.839430  0.029630  1.0  -0.2114
  C  C1150  1  0.186170  0.805930  0.044130  1.0  -0.1101
  C  C1151  1  0.232970  0.905530  0.032030  1.0  0.073
  C  C1152  1  0.264970  0.933830  0.049030  1.0  -0.2273
  C  C1153  1  0.283370  0.965630  0.033030  1.0  0.3527
  C  C1154  1  0.275270  0.971130  0.004530  1.0  -0.077
  C  C1155  1  0.245370  0.946030  0.987030  1.0  0.1128
  C  C1156  1  0.223370  0.910830  0.001730  1.0  -0.2192
  C  C1157  1  0.235970  0.952630  0.955430  1.0  0.2211
  C  C1158  1  0.244670  0.984230  0.944430  1.0  -0.1777
  C  C1159  1  0.236570  0.989830  0.913730  1.0  -0.1243
  C  C1160  1  0.223570  0.964630  0.892230  1.0  0.0686
  C  C1161  1  0.216470  0.930430  0.902030  1.0  -0.121
  C  C1162  1  0.224770  0.927030  0.933330  1.0  -0.146
  C  C1163  1  0.217170  0.970330  0.860830  1.0  0.4622
  C  C1164  1  0.315470  0.004530  0.079830  1.0  -0.1597
  C  C1165  1  0.316870  0.996530  0.046630  1.0  0.0254
  C  C1166  1  0.349270  0.015230  0.028130  1.0  -0.1544
  C  C1167  1  0.381370  0.044730  0.043630  1.0  -0.1376
  C  C1168  1  0.380170  0.051530  0.077230  1.0  0.1762
  C  C1169  1  0.348270  0.032130  0.095830  1.0  -0.1429
  C  C1170  1  0.410670  0.077030  0.092430  1.0  0.3199
  C  C1171  1  0.851830  0.029570  0.456970  1.0  0.657
  C  C1172  1  0.881920  0.022970  0.458170  1.0  -0.0501
  C  C1173  1  0.912830  0.045770  0.476270  1.0  -0.1416
  C  C1174  1  0.941930  0.038970  0.475870  1.0  -0.1751
  C  C1175  1  0.941530  0.011470  0.457370  1.0  0.1608
  C  C1176  1  0.909630  0.988970  0.439470  1.0  -0.1786
  C  C1177  1  0.880430  0.994870  0.439770  1.0  -0.1067
  C  C1178  1  0.971230  0.006270  0.457170  1.0  0.3219
  C  C1179  1  0.004630  0.033170  0.457570  1.0  -0.1148
  C  C1180  1  0.778630  0.021170  0.514970  1.0  0.4993
  C  C1181  1  0.770830  0.009570  0.547170  1.0  0.0052
  C  C1182  1  0.758830  0.974370  0.557570  1.0  -0.0999
  C  C1183  1  0.753130  0.966170  0.592270  1.0  -0.1929
  C  C1184  1  0.759930  0.993170  0.614070  1.0  0.0947
  C  C1185  1  0.773830  0.029970  0.603770  1.0  -0.2163
  C  C1186  1  0.779730  0.038170  0.570070  1.0  -0.196
  C  C1187  1  0.751930  0.984970  0.647970  1.0  0.2315
  C  C1188  1  0.759030  0.962070  0.663470  1.0  -0.0902
  C  C1189  1  0.746830  0.950170  0.694270  1.0  0.2668
  C  C1190  1  0.733830  0.967770  0.710570  1.0  -0.0639
  C  C1191  1  0.728030  0.994470  0.696970  1.0  0.1036
  C  C1192  1  0.737630  0.002770  0.664570  1.0  -0.1823
  C  C1193  1  0.709630  0.010470  0.714170  1.0  0.2391
  C  C1194  1  0.682930  0.992470  0.735070  1.0  -0.0731
  C  C1195  1  0.664830  0.006970  0.750970  1.0  -0.1708
  C  C1196  1  0.677330  0.043970  0.744070  1.0  -0.0455
  C  C1197  1  0.704130  0.062770  0.724370  1.0  -0.1515
  C  C1198  1  0.720030  0.047070  0.707970  1.0  -0.1877
  C  C1199  1  0.658930  0.061170  0.761270  1.0  0.6569
  C  C1200  1  0.753030  0.924770  0.709170  1.0  0.1725
  C  C1201  1  0.780830  0.917570  0.698770  1.0  -0.187
  C  C1202  1  0.788430  0.893870  0.718070  1.0  -0.0566
  C  C1203  1  0.764830  0.872970  0.743270  1.0  -0.017
  C  C1204  1  0.734930  0.877970  0.752170  1.0  -0.0518
  C  C1205  1  0.728330  0.902670  0.733970  1.0  -0.1861
  C  C1206  1  0.768330  0.844370  0.762870  1.0  0.4064
  C  C1207  1  0.827830  0.100770  0.425770  1.0  0.6472
  C  C1208  1  0.845330  0.135970  0.410570  1.0  -0.0734
  C  C1209  1  0.856730  0.167370  0.427470  1.0  -0.121
  C  C1210  1  0.873430  0.198970  0.414470  1.0  -0.2088
  C  C1211  1  0.880330  0.203870  0.381270  1.0  0.1559
  C  C1212  1  0.870830  0.172770  0.362970  1.0  -0.2114
  C  C1213  1  0.852830  0.139270  0.377470  1.0  -0.1103
  C  C1214  1  0.899630  0.238870  0.365370  1.0  0.0731
  C  C1215  1  0.931630  0.267170  0.382370  1.0  -0.2269
  C  C1216  1  0.950030  0.298970  0.366370  1.0  0.3527
  C  C1217  1  0.941930  0.304470  0.337870  1.0  -0.0771
  C  C1218  1  0.912030  0.279370  0.320370  1.0  0.1128
  C  C1219  1  0.890030  0.244170  0.335070  1.0  -0.22
  C  C1220  1  0.902630  0.285970  0.288770  1.0  0.2211
  C  C1221  1  0.911330  0.317570  0.277770  1.0  -0.1776
  C  C1222  1  0.903230  0.323170  0.247070  1.0  -0.1244
  C  C1223  1  0.890230  0.297970  0.225570  1.0  0.0656
  C  C1224  1  0.883130  0.263770  0.235370  1.0  -0.1211
  C  C1225  1  0.891430  0.260370  0.266670  1.0  -0.1456
  C  C1226  1  0.883830  0.303670  0.194170  1.0  0.4698
  C  C1227  1  0.982130  0.337870  0.413170  1.0  -0.1592
  C  C1228  1  0.983530  0.329870  0.379970  1.0  0.0254
  C  C1229  1  0.015930  0.348570  0.361470  1.0  -0.1545
  C  C1230  1  0.048030  0.378070  0.376970  1.0  -0.1378
  C  C1231  1  0.046830  0.384870  0.410570  1.0  0.1765
  C  C1232  1  0.014930  0.365470  0.429170  1.0  -0.143
  C  C1233  1  0.077330  0.410370  0.425770  1.0  0.3203
  C  C1234  1  0.362900  0.844400  0.209700  1.0  0.6598
  C  C1235  1  0.356300  0.807710  0.208500  1.0  -0.0482
  C  C1236  1  0.379100  0.799600  0.190400  1.0  -0.1425
  C  C1237  1  0.372300  0.763700  0.190800  1.0  -0.1786
  C  C1238  1  0.344800  0.736600  0.209300  1.0  0.1601
  C  C1239  1  0.322300  0.746000  0.227200  1.0  -0.1777
  C  C1240  1  0.328200  0.781100  0.226900  1.0  -0.1071
  C  C1241  1  0.339600  0.701700  0.209500  1.0  0.3272
  C  C1242  1  0.366500  0.695200  0.209100  1.0  -0.1112
  C  C1243  1  0.354500  0.909200  0.151700  1.0  0.4981
  C  C1244  1  0.342900  0.905400  0.119500  1.0  0.0055
  C  C1245  1  0.307700  0.882200  0.109100  1.0  -0.0993
  C  C1246  1  0.299500  0.879700  0.074400  1.0  -0.1951
  C  C1247  1  0.326500  0.899900  0.052600  1.0  0.095
  C  C1248  1  0.363300  0.922800  0.062900  1.0  -0.2159
  C  C1249  1  0.371500  0.925100  0.096600  1.0  -0.1989
  C  C1250  1  0.318300  0.899700  0.018700  1.0  0.2305
  C  C1251  1  0.295400  0.869700  0.003200  1.0  -0.0963
  C  C1252  1  0.283500  0.870000  0.972400  1.0  0.2648
  C  C1253  1  0.301100  0.900600  0.956100  1.0  -0.0583
  C  C1254  1  0.327800  0.933100  0.969700  1.0  0.1024
  C  C1255  1  0.336100  0.931800  0.002100  1.0  -0.1887
  C  C1256  1  0.343800  0.967500  0.952500  1.0  0.2372
  C  C1257  1  0.325800  0.976200  0.931600  1.0  -0.0685
  C  C1258  1  0.340300  0.008800  0.915700  1.0  -0.1659
  C  C1259  1  0.377300  0.033300  0.922600  1.0  -0.0475
  C  C1260  1  0.396100  0.025300  0.942300  1.0  -0.1496
  C  C1261  1  0.380400  0.993700  0.958700  1.0  -0.1802
  C  C1262  1  0.394500  0.068900  0.905400  1.0  0.6589
  C  C1263  1  0.258100  0.838400  0.957500  1.0  0.1732
  C  C1264  1  0.250900  0.803400  0.967900  1.0  -0.1879
  C  C1265  1  0.227200  0.772100  0.948600  1.0  -0.0638
  C  C1266  1  0.206300  0.774800  0.923400  1.0  -0.0211
  C  C1267  1  0.211300  0.809700  0.914500  1.0  -0.051
  C  C1268  1  0.236000  0.841000  0.932700  1.0  -0.1853
  C  C1269  1  0.177700  0.742700  0.903800  1.0  0.3988
  C  C1270  1  0.434100  0.939600  0.240900  1.0  0.6433
  C  C1271  1  0.469300  0.957300  0.256100  1.0  -0.0729
  C  C1272  1  0.500700  0.977300  0.239200  1.0  -0.125
  C  C1273  1  0.532300  0.992200  0.252200  1.0  -0.2114
  C  C1274  1  0.537200  0.990200  0.285400  1.0  0.1565
  C  C1275  1  0.506100  0.968600  0.303700  1.0  -0.2094
  C  C1276  1  0.472600  0.953100  0.289200  1.0  -0.108
  C  C1277  1  0.572200  0.005900  0.301300  1.0  0.0757
  C  C1278  1  0.600500  0.002200  0.284300  1.0  -0.2293
  C  C1279  1  0.632300  0.015600  0.300300  1.0  0.3579
  C  C1280  1  0.637800  0.029200  0.328800  1.0  -0.0762
  C  C1281  1  0.612700  0.034000  0.346300  1.0  0.1165
  C  C1282  1  0.577500  0.020800  0.331600  1.0  -0.2175
  C  C1283  1  0.619300  0.050000  0.377900  1.0  0.2288
  C  C1284  1  0.650900  0.072900  0.388900  1.0  -0.1771
  C  C1285  1  0.656500  0.086600  0.419600  1.0  -0.1231
  C  C1286  1  0.631300  0.074400  0.441100  1.0  0.0691
  C  C1287  1  0.597100  0.047300  0.431300  1.0  -0.1243
  C  C1288  1  0.593700  0.035600  0.400000  1.0  -0.1491
  C  C1289  1  0.637000  0.086500  0.472500  1.0  0.4703
  C  C1290  1  0.671200  0.022400  0.253500  1.0  -0.1639
  C  C1291  1  0.663200  0.013000  0.286700  1.0  0.0238
  C  C1292  1  0.681900  0.999300  0.305200  1.0  -0.1525
  C  C1293  1  0.711400  0.996700  0.289700  1.0  -0.1376
  C  C1294  1  0.718200  0.004700  0.256100  1.0  0.1752
  C  C1295  1  0.698800  0.017200  0.237500  1.0  -0.1469
  C  C1296  1  0.743700  0.999700  0.240900  1.0  0.319
  C  C1297  1  0.029570  0.177730  0.543030  1.0  0.6598
  C  C1298  1  0.022970  0.141040  0.541830  1.0  -0.0482
  C  C1299  1  0.045770  0.132930  0.523730  1.0  -0.1424
  C  C1300  1  0.038970  0.097030  0.524130  1.0  -0.1787
  C  C1301  1  0.011470  0.069930  0.542630  1.0  0.16
  C  C1302  1  0.988970  0.079330  0.560530  1.0  -0.178
  C  C1303  1  0.994870  0.114430  0.560230  1.0  -0.1072
  C  C1304  1  0.006270  0.035030  0.542830  1.0  0.3271
  C  C1305  1  0.033170  0.028530  0.542430  1.0  -0.1112
  C  C1306  1  0.021170  0.242530  0.485030  1.0  0.498
  C  C1307  1  0.009570  0.238730  0.452830  1.0  0.0062
  C  C1308  1  0.974370  0.215530  0.442430  1.0  -0.0993
  C  C1309  1  0.966170  0.213030  0.407730  1.0  -0.1959
  C  C1310  1  0.993170  0.233230  0.385930  1.0  0.095
  C  C1311  1  0.029970  0.256130  0.396230  1.0  -0.2159
  C  C1312  1  0.038170  0.258430  0.429930  1.0  -0.1989
  C  C1313  1  0.984970  0.233030  0.352030  1.0  0.2306
  C  C1314  1  0.962070  0.203030  0.336530  1.0  -0.0886
  C  C1315  1  0.950170  0.203330  0.305730  1.0  0.2649
  C  C1316  1  0.967770  0.233930  0.289430  1.0  -0.0666
  C  C1317  1  0.994470  0.266430  0.303030  1.0  0.1024
  C  C1318  1  0.002770  0.265130  0.335430  1.0  -0.1886
  C  C1319  1  0.010470  0.300830  0.285830  1.0  0.2372
  C  C1320  1  0.992470  0.309530  0.264930  1.0  -0.0688
  C  C1321  1  0.006970  0.342130  0.249030  1.0  -0.1659
  C  C1322  1  0.043970  0.366630  0.255930  1.0  -0.0475
  C  C1323  1  0.062770  0.358630  0.275630  1.0  -0.1497
  C  C1324  1  0.047070  0.327030  0.292030  1.0  -0.1802
  C  C1325  1  0.061170  0.402230  0.238730  1.0  0.6589
  C  C1326  1  0.924770  0.171730  0.290830  1.0  0.1732
  C  C1327  1  0.917570  0.136730  0.301230  1.0  -0.1912
  C  C1328  1  0.893870  0.105430  0.281930  1.0  -0.0598
  C  C1329  1  0.872970  0.108130  0.256730  1.0  -0.0179
  C  C1330  1  0.877970  0.143030  0.247830  1.0  -0.051
  C  C1331  1  0.902670  0.174330  0.266030  1.0  -0.1854
  C  C1332  1  0.844370  0.076030  0.237130  1.0  0.4009
  C  C1333  1  0.100770  0.272930  0.574230  1.0  0.6432
  C  C1334  1  0.135970  0.290630  0.589430  1.0  -0.0729
  C  C1335  1  0.167370  0.310630  0.572530  1.0  -0.1251
  C  C1336  1  0.198970  0.325530  0.585530  1.0  -0.2113
  C  C1337  1  0.203870  0.323530  0.618730  1.0  0.1565
  C  C1338  1  0.172770  0.301930  0.637030  1.0  -0.2094
  C  C1339  1  0.139270  0.286430  0.622530  1.0  -0.1079
  C  C1340  1  0.238870  0.339230  0.634630  1.0  0.0757
  C  C1341  1  0.267170  0.335530  0.617630  1.0  -0.2293
  C  C1342  1  0.298970  0.348930  0.633630  1.0  0.3579
  C  C1343  1  0.304470  0.362530  0.662130  1.0  -0.0762
  C  C1344  1  0.279370  0.367330  0.679630  1.0  0.1165
  C  C1345  1  0.244170  0.354130  0.664930  1.0  -0.2184
  C  C1346  1  0.285970  0.383330  0.711230  1.0  0.2288
  C  C1347  1  0.317570  0.406230  0.722230  1.0  -0.1771
  C  C1348  1  0.323170  0.419930  0.752930  1.0  -0.123
  C  C1349  1  0.297970  0.407730  0.774430  1.0  0.0696
  C  C1350  1  0.263770  0.380630  0.764630  1.0  -0.1242
  C  C1351  1  0.260370  0.368930  0.733330  1.0  -0.149
  C  C1352  1  0.303670  0.419830  0.805830  1.0  0.4703
  C  C1353  1  0.337870  0.355730  0.586830  1.0  -0.1639
  C  C1354  1  0.329870  0.346330  0.620030  1.0  0.0238
  C  C1355  1  0.348570  0.332630  0.638530  1.0  -0.1526
  C  C1356  1  0.378070  0.330030  0.623030  1.0  -0.1375
  C  C1357  1  0.384870  0.338030  0.589430  1.0  0.1751
  C  C1358  1  0.365470  0.350530  0.570830  1.0  -0.147
  C  C1359  1  0.410370  0.333030  0.574230  1.0  0.3193
  C  C1360  1  0.696230  0.511070  0.876370  1.0  0.6598
  C  C1361  1  0.689630  0.474380  0.875170  1.0  -0.0482
  C  C1362  1  0.712430  0.466270  0.857070  1.0  -0.1425
  C  C1363  1  0.705630  0.430370  0.857470  1.0  -0.1786
  C  C1364  1  0.678130  0.403270  0.875970  1.0  0.1601
  C  C1365  1  0.655630  0.412670  0.893870  1.0  -0.1777
  C  C1366  1  0.661530  0.447770  0.893570  1.0  -0.1071
  C  C1367  1  0.672930  0.368370  0.876170  1.0  0.3272
  C  C1368  1  0.699830  0.361870  0.875770  1.0  -0.1112
  C  C1369  1  0.687830  0.575870  0.818370  1.0  0.4981
  C  C1370  1  0.676230  0.572070  0.786170  1.0  0.0055
  C  C1371  1  0.641030  0.548870  0.775770  1.0  -0.0993
  C  C1372  1  0.632830  0.546370  0.741070  1.0  -0.1951
  C  C1373  1  0.659830  0.566570  0.719270  1.0  0.095
  C  C1374  1  0.696630  0.589470  0.729570  1.0  -0.2159
  C  C1375  1  0.704830  0.591770  0.763270  1.0  -0.1989
  C  C1376  1  0.651630  0.566370  0.685370  1.0  0.2305
  C  C1377  1  0.628730  0.536370  0.669870  1.0  -0.0963
  C  C1378  1  0.616830  0.536670  0.639070  1.0  0.2648
  C  C1379  1  0.634430  0.567270  0.622770  1.0  -0.0583
  C  C1380  1  0.661130  0.599770  0.636370  1.0  0.1024
  C  C1381  1  0.669430  0.598470  0.668770  1.0  -0.1887
  C  C1382  1  0.677130  0.634170  0.619170  1.0  0.2372
  C  C1383  1  0.659130  0.642870  0.598270  1.0  -0.0685
  C  C1384  1  0.673630  0.675470  0.582370  1.0  -0.1659
  C  C1385  1  0.710630  0.699970  0.589270  1.0  -0.0475
  C  C1386  1  0.729430  0.691970  0.608970  1.0  -0.1496
  C  C1387  1  0.713730  0.660370  0.625370  1.0  -0.1802
  C  C1388  1  0.727830  0.735570  0.572070  1.0  0.6589
  C  C1389  1  0.591430  0.505070  0.624170  1.0  0.1732
  C  C1390  1  0.584230  0.470070  0.634570  1.0  -0.1879
  C  C1391  1  0.560530  0.438770  0.615270  1.0  -0.0638
  C  C1392  1  0.539630  0.441470  0.590070  1.0  -0.0211
  C  C1393  1  0.544630  0.476370  0.581170  1.0  -0.051
  C  C1394  1  0.569330  0.507670  0.599370  1.0  -0.1853
  C  C1395  1  0.511030  0.409370  0.570470  1.0  0.3991
  C  C1396  1  0.767430  0.606270  0.907570  1.0  0.6433
  C  C1397  1  0.802630  0.623970  0.922770  1.0  -0.0728
  C  C1398  1  0.834030  0.643970  0.905870  1.0  -0.125
  C  C1399  1  0.865630  0.658870  0.918870  1.0  -0.2114
  C  C1400  1  0.870530  0.656870  0.952070  1.0  0.1565
  C  C1401  1  0.839430  0.635270  0.970370  1.0  -0.2094
  C  C1402  1  0.805930  0.619770  0.955870  1.0  -0.108
  C  C1403  1  0.905530  0.672570  0.967970  1.0  0.0757
  C  C1404  1  0.933830  0.668870  0.950970  1.0  -0.2293
  C  C1405  1  0.965630  0.682270  0.966970  1.0  0.3579
  C  C1406  1  0.971130  0.695870  0.995470  1.0  -0.0762
  C  C1407  1  0.946030  0.700670  0.012970  1.0  0.1165
  C  C1408  1  0.910830  0.687470  0.998270  1.0  -0.2175
  C  C1409  1  0.952630  0.716670  0.044570  1.0  0.2288
  C  C1410  1  0.984230  0.739570  0.055570  1.0  -0.177
  C  C1411  1  0.989830  0.753270  0.086270  1.0  -0.123
  C  C1412  1  0.964630  0.741070  0.107770  1.0  0.0691
  C  C1413  1  0.930430  0.713970  0.097970  1.0  -0.1242
  C  C1414  1  0.927030  0.702270  0.066670  1.0  -0.1491
  C  C1415  1  0.970330  0.753170  0.139170  1.0  0.4715
  C  C1416  1  0.004530  0.689070  0.920170  1.0  -0.1639
  C  C1417  1  0.996530  0.679670  0.953370  1.0  0.0238
  C  C1418  1  0.015230  0.665970  0.971870  1.0  -0.1525
  C  C1419  1  0.044730  0.663370  0.956370  1.0  -0.1376
  C  C1420  1  0.051530  0.671370  0.922770  1.0  0.1752
  C  C1421  1  0.032130  0.683870  0.904170  1.0  -0.147
  C  C1422  1  0.077030  0.666370  0.907570  1.0  0.3191
  C  C1423  1  0.155600  0.518500  0.209700  1.0  0.6601
  C  C1424  1  0.192290  0.548590  0.208500  1.0  -0.0518
  C  C1425  1  0.200400  0.579500  0.190400  1.0  -0.1364
  C  C1426  1  0.236300  0.608600  0.190800  1.0  -0.1767
  C  C1427  1  0.263400  0.608200  0.209300  1.0  0.1611
  C  C1428  1  0.254000  0.576300  0.227200  1.0  -0.176
  C  C1429  1  0.218900  0.547100  0.226900  1.0  -0.1063
  C  C1430  1  0.298300  0.637900  0.209500  1.0  0.3262
  C  C1431  1  0.304800  0.671300  0.209100  1.0  -0.1132
  C  C1432  1  0.090800  0.445300  0.151700  1.0  0.4971
  C  C1433  1  0.094600  0.437500  0.119500  1.0  0.0073
  C  C1434  1  0.117800  0.425500  0.109100  1.0  -0.0978
  C  C1435  1  0.120300  0.419800  0.074400  1.0  -0.1961
  C  C1436  1  0.100100  0.426600  0.052600  1.0  0.0939
  C  C1437  1  0.077200  0.440500  0.062900  1.0  -0.2204
  C  C1438  1  0.074900  0.446400  0.096600  1.0  -0.2005
  C  C1439  1  0.100300  0.418600  0.018700  1.0  0.2319
  C  C1440  1  0.130300  0.425700  0.003200  1.0  -0.0965
  C  C1441  1  0.130000  0.413500  0.972400  1.0  0.2671
  C  C1442  1  0.099400  0.400500  0.956100  1.0  -0.0631
  C  C1443  1  0.066900  0.394700  0.969700  1.0  0.1058
  C  C1444  1  0.068200  0.404300  0.002100  1.0  -0.1911
  C  C1445  1  0.032500  0.376300  0.952500  1.0  0.2358
  C  C1446  1  0.023800  0.349600  0.931600  1.0  -0.0698
  C  C1447  1  0.991200  0.331500  0.915700  1.0  -0.1676
  C  C1448  1  0.966700  0.344000  0.922600  1.0  -0.0448
  C  C1449  1  0.974700  0.370800  0.942300  1.0  -0.1497
  C  C1450  1  0.006300  0.386700  0.958700  1.0  -0.1871
  C  C1451  1  0.931100  0.325600  0.905400  1.0  0.6583
  C  C1452  1  0.161600  0.419700  0.957500  1.0  0.1735
  C  C1453  1  0.196600  0.447500  0.967900  1.0  -0.1889
  C  C1454  1  0.227900  0.455100  0.948600  1.0  -0.0637
  C  C1455  1  0.225200  0.431500  0.923400  1.0  -0.0206
  C  C1456  1  0.190300  0.401600  0.914500  1.0  -0.0517
  C  C1457  1  0.159000  0.395000  0.932700  1.0  -0.1828
  C  C1458  1  0.257300  0.435000  0.903800  1.0  0.4048
  C  C1459  1  0.060400  0.494500  0.240900  1.0  0.6459
  C  C1460  1  0.042700  0.512000  0.256100  1.0  -0.0701
  C  C1461  1  0.022700  0.523400  0.239200  1.0  -0.1294
  C  C1462  1  0.007800  0.540100  0.252200  1.0  -0.2112
  C  C1463  1  0.009800  0.547000  0.285400  1.0  0.1572
  C  C1464  1  0.031400  0.537500  0.303700  1.0  -0.2111
  C  C1465  1  0.046900  0.519500  0.289200  1.0  -0.1089
  C  C1466  1  0.994100  0.566300  0.301300  1.0  0.0778
  C  C1467  1  0.997800  0.598300  0.284300  1.0  -0.2247
  C  C1468  1  0.984400  0.616700  0.300300  1.0  0.3531
  C  C1469  1  0.970800  0.608600  0.328800  1.0  -0.0779
  C  C1470  1  0.966000  0.578700  0.346300  1.0  0.1177
  C  C1471  1  0.979200  0.556700  0.331600  1.0  -0.2191
  C  C1472  1  0.950000  0.569300  0.377900  1.0  0.2236
  C  C1473  1  0.927100  0.578000  0.388900  1.0  -0.1757
  C  C1474  1  0.913400  0.569900  0.419600  1.0  -0.1173
  C  C1475  1  0.925600  0.556900  0.441100  1.0  0.0688
  C  C1476  1  0.952700  0.549800  0.431300  1.0  -0.1271
  C  C1477  1  0.964400  0.558100  0.400000  1.0  -0.1469
  C  C1478  1  0.913500  0.550500  0.472500  1.0  0.4686
  C  C1479  1  0.977600  0.648800  0.253500  1.0  -0.1576
  C  C1480  1  0.987000  0.650200  0.286700  1.0  0.0224
  C  C1481  1  0.000700  0.682600  0.305200  1.0  -0.1506
  C  C1482  1  0.003300  0.714700  0.289700  1.0  -0.1387
  C  C1483  1  0.995300  0.713500  0.256100  1.0  0.1766
  C  C1484  1  0.982800  0.681600  0.237500  1.0  -0.1465
  C  C1485  1  0.000300  0.744000  0.240900  1.0  0.3185
  C  C1486  1  0.822270  0.851830  0.543030  1.0  0.6601
  C  C1487  1  0.858960  0.881920  0.541830  1.0  -0.0518
  C  C1488  1  0.867070  0.912830  0.523730  1.0  -0.1362
  C  C1489  1  0.902970  0.941930  0.524130  1.0  -0.177
  C  C1490  1  0.930070  0.941530  0.542630  1.0  0.161
  C  C1491  1  0.920670  0.909630  0.560530  1.0  -0.1757
  C  C1492  1  0.885570  0.880430  0.560230  1.0  -0.1064
  C  C1493  1  0.964970  0.971230  0.542830  1.0  0.3261
  C  C1494  1  0.971470  0.004630  0.542430  1.0  -0.1141
  C  C1495  1  0.757470  0.778630  0.485030  1.0  0.4969
  C  C1496  1  0.761270  0.770830  0.452830  1.0  0.0073
  C  C1497  1  0.784470  0.758830  0.442430  1.0  -0.0978
  C  C1498  1  0.786970  0.753130  0.407730  1.0  -0.1955
  C  C1499  1  0.766770  0.759930  0.385930  1.0  0.094
  C  C1500  1  0.743870  0.773830  0.396230  1.0  -0.2203
  C  C1501  1  0.741570  0.779730  0.429930  1.0  -0.2004
  C  C1502  1  0.766970  0.751930  0.352030  1.0  0.2319
  C  C1503  1  0.796970  0.759030  0.336530  1.0  -0.0966
  C  C1504  1  0.796670  0.746830  0.305730  1.0  0.2672
  C  C1505  1  0.766070  0.733830  0.289430  1.0  -0.0634
  C  C1506  1  0.733570  0.728030  0.303030  1.0  0.1057
  C  C1507  1  0.734870  0.737630  0.335430  1.0  -0.1924
  C  C1508  1  0.699170  0.709630  0.285830  1.0  0.2358
  C  C1509  1  0.690470  0.682930  0.264930  1.0  -0.0698
  C  C1510  1  0.657870  0.664830  0.249030  1.0  -0.1675
  C  C1511  1  0.633370  0.677330  0.255930  1.0  -0.0448
  C  C1512  1  0.641370  0.704130  0.275630  1.0  -0.1497
  C  C1513  1  0.672970  0.720030  0.292030  1.0  -0.1871
  C  C1514  1  0.597770  0.658930  0.238730  1.0  0.6584
  C  C1515  1  0.828270  0.753030  0.290830  1.0  0.1734
  C  C1516  1  0.863270  0.780830  0.301230  1.0  -0.1889
  C  C1517  1  0.894570  0.788430  0.281930  1.0  -0.0637
  C  C1518  1  0.891870  0.764830  0.256730  1.0  -0.0206
  C  C1519  1  0.856970  0.734930  0.247830  1.0  -0.0517
  C  C1520  1  0.825670  0.728330  0.266030  1.0  -0.1828
  C  C1521  1  0.923970  0.768330  0.237130  1.0  0.4049
  C  C1522  1  0.727070  0.827830  0.574230  1.0  0.6459
  C  C1523  1  0.709370  0.845330  0.589430  1.0  -0.0701
  C  C1524  1  0.689370  0.856730  0.572530  1.0  -0.1294
  C  C1525  1  0.674470  0.873430  0.585530  1.0  -0.2112
  C  C1526  1  0.676470  0.880330  0.618730  1.0  0.157
  C  C1527  1  0.698070  0.870830  0.637030  1.0  -0.2111
  C  C1528  1  0.713570  0.852830  0.622530  1.0  -0.109
  C  C1529  1  0.660770  0.899630  0.634630  1.0  0.0778
  C  C1530  1  0.664470  0.931630  0.617630  1.0  -0.2247
  C  C1531  1  0.651070  0.950030  0.633630  1.0  0.353
  C  C1532  1  0.637470  0.941930  0.662130  1.0  -0.078
  C  C1533  1  0.632670  0.912030  0.679630  1.0  0.1177
  C  C1534  1  0.645870  0.890030  0.664930  1.0  -0.2195
  C  C1535  1  0.616670  0.902630  0.711230  1.0  0.2236
  C  C1536  1  0.593770  0.911330  0.722230  1.0  -0.1757
  C  C1537  1  0.580070  0.903230  0.752930  1.0  -0.1173
  C  C1538  1  0.592270  0.890230  0.774430  1.0  0.0689
  C  C1539  1  0.619370  0.883130  0.764630  1.0  -0.1272
  C  C1540  1  0.631070  0.891430  0.733330  1.0  -0.1469
  C  C1541  1  0.580170  0.883830  0.805830  1.0  0.4686
  C  C1542  1  0.644270  0.982130  0.586830  1.0  -0.1576
  C  C1543  1  0.653670  0.983530  0.620030  1.0  0.0225
  C  C1544  1  0.667370  0.015930  0.638530  1.0  -0.1506
  C  C1545  1  0.669970  0.048030  0.623030  1.0  -0.1389
  C  C1546  1  0.661970  0.046830  0.589430  1.0  0.1766
  C  C1547  1  0.649470  0.014930  0.570830  1.0  -0.1463
  C  C1548  1  0.666970  0.077330  0.574230  1.0  0.3183
  C  C1549  1  0.488930  0.185170  0.876370  1.0  0.6601
  C  C1550  1  0.525620  0.215260  0.875170  1.0  -0.0518
  C  C1551  1  0.533730  0.246170  0.857070  1.0  -0.1364
  C  C1552  1  0.569630  0.275270  0.857470  1.0  -0.1767
  C  C1553  1  0.596730  0.274870  0.875970  1.0  0.1611
  C  C1554  1  0.587330  0.242970  0.893870  1.0  -0.176
  C  C1555  1  0.552230  0.213770  0.893570  1.0  -0.1063
  C  C1556  1  0.631630  0.304570  0.876170  1.0  0.3262
  C  C1557  1  0.638130  0.337970  0.875770  1.0  -0.1132
  C  C1558  1  0.424130  0.111970  0.818370  1.0  0.4971
  C  C1559  1  0.427930  0.104170  0.786170  1.0  0.0073
  C  C1560  1  0.451130  0.092170  0.775770  1.0  -0.0978
  C  C1561  1  0.453630  0.086470  0.741070  1.0  -0.1961
  C  C1562  1  0.433430  0.093270  0.719270  1.0  0.0939
  C  C1563  1  0.410530  0.107170  0.729570  1.0  -0.2204
  C  C1564  1  0.408230  0.113070  0.763270  1.0  -0.2005
  C  C1565  1  0.433630  0.085270  0.685370  1.0  0.2319
  C  C1566  1  0.463630  0.092370  0.669870  1.0  -0.0965
  C  C1567  1  0.463330  0.080170  0.639070  1.0  0.2671
  C  C1568  1  0.432730  0.067170  0.622770  1.0  -0.0631
  C  C1569  1  0.400230  0.061370  0.636370  1.0  0.1058
  C  C1570  1  0.401530  0.070970  0.668770  1.0  -0.1911
  C  C1571  1  0.365830  0.042970  0.619170  1.0  0.2358
  C  C1572  1  0.357130  0.016270  0.598270  1.0  -0.0698
  C  C1573  1  0.324530  0.998170  0.582370  1.0  -0.1676
  C  C1574  1  0.300030  0.010670  0.589270  1.0  -0.0448
  C  C1575  1  0.308030  0.037470  0.608970  1.0  -0.1497
  C  C1576  1  0.339630  0.053370  0.625370  1.0  -0.1871
  C  C1577  1  0.264430  0.992270  0.572070  1.0  0.6584
  C  C1578  1  0.494930  0.086370  0.624170  1.0  0.1735
  C  C1579  1  0.529930  0.114170  0.634570  1.0  -0.1889
  C  C1580  1  0.561230  0.121770  0.615270  1.0  -0.0637
  C  C1581  1  0.558530  0.098170  0.590070  1.0  -0.0206
  C  C1582  1  0.523630  0.068270  0.581170  1.0  -0.0517
  C  C1583  1  0.492330  0.061670  0.599370  1.0  -0.1828
  C  C1584  1  0.590630  0.101670  0.570470  1.0  0.4048
  C  C1585  1  0.393730  0.161170  0.907570  1.0  0.6459
  C  C1586  1  0.376030  0.178670  0.922770  1.0  -0.0702
  C  C1587  1  0.356030  0.190070  0.905870  1.0  -0.1294
  C  C1588  1  0.341130  0.206770  0.918870  1.0  -0.2112
  C  C1589  1  0.343130  0.213670  0.952070  1.0  0.1572
  C  C1590  1  0.364730  0.204170  0.970370  1.0  -0.2111
  C  C1591  1  0.380230  0.186170  0.955870  1.0  -0.1089
  C  C1592  1  0.327430  0.232970  0.967970  1.0  0.0778
  C  C1593  1  0.331130  0.264970  0.950970  1.0  -0.2247
  C  C1594  1  0.317730  0.283370  0.966970  1.0  0.3531
  C  C1595  1  0.304130  0.275270  0.995470  1.0  -0.0779
  C  C1596  1  0.299330  0.245370  0.012970  1.0  0.1177
  C  C1597  1  0.312530  0.223370  0.998270  1.0  -0.2191
  C  C1598  1  0.283330  0.235970  0.044570  1.0  0.2236
  C  C1599  1  0.260430  0.244670  0.055570  1.0  -0.1756
  C  C1600  1  0.246730  0.236570  0.086270  1.0  -0.1173
  C  C1601  1  0.258930  0.223570  0.107770  1.0  0.0707
  C  C1602  1  0.286030  0.216470  0.097970  1.0  -0.1271
  C  C1603  1  0.297730  0.224770  0.066670  1.0  -0.1469
  C  C1604  1  0.246830  0.217170  0.139170  1.0  0.4609
  C  C1605  1  0.310930  0.315470  0.920170  1.0  -0.1576
  C  C1606  1  0.320330  0.316870  0.953370  1.0  0.0225
  C  C1607  1  0.334030  0.349270  0.971870  1.0  -0.1506
  C  C1608  1  0.336630  0.381370  0.956370  1.0  -0.1387
  C  C1609  1  0.328630  0.380170  0.922770  1.0  0.1764
  C  C1610  1  0.316130  0.348270  0.904170  1.0  -0.1464
  C  C1611  1  0.333630  0.410670  0.907570  1.0  0.3187
  C  C1612  1  0.481500  0.637100  0.209700  1.0  0.6567
  C  C1613  1  0.451410  0.643700  0.208500  1.0  -0.0513
  C  C1614  1  0.420500  0.620900  0.190400  1.0  -0.1416
  C  C1615  1  0.391400  0.627700  0.190800  1.0  -0.1739
  C  C1616  1  0.391800  0.655200  0.209300  1.0  0.1617
  C  C1617  1  0.423700  0.677700  0.227200  1.0  -0.1766
  C  C1618  1  0.452900  0.671800  0.226900  1.0  -0.1055
  C  C1619  1  0.362100  0.660400  0.209500  1.0  0.3281
  C  C1620  1  0.328700  0.633500  0.209100  1.0  -0.1131
  C  C1621  1  0.554700  0.645500  0.151700  1.0  0.5004
  C  C1622  1  0.562500  0.657100  0.119500  1.0  0.0059
  C  C1623  1  0.574500  0.692300  0.109100  1.0  -0.101
  C  C1624  1  0.580200  0.700500  0.074400  1.0  -0.1951
  C  C1625  1  0.573400  0.673500  0.052600  1.0  0.0938
  C  C1626  1  0.559500  0.636700  0.062900  1.0  -0.218
  C  C1627  1  0.553600  0.628500  0.096600  1.0  -0.195
  C  C1628  1  0.581400  0.681700  0.018700  1.0  0.2301
  C  C1629  1  0.574300  0.704600  0.003200  1.0  -0.0978
  C  C1630  1  0.586500  0.716500  0.972400  1.0  0.2643
  C  C1631  1  0.599500  0.698900  0.956100  1.0  -0.0602
  C  C1632  1  0.605300  0.672200  0.969700  1.0  0.105
  C  C1633  1  0.595700  0.663900  0.002100  1.0  -0.1842
  C  C1634  1  0.623700  0.656200  0.952500  1.0  0.2354
  C  C1635  1  0.650400  0.674200  0.931600  1.0  -0.0694
  C  C1636  1  0.668500  0.659700  0.915700  1.0  -0.1681
  C  C1637  1  0.656000  0.622700  0.922600  1.0  -0.0439
  C  C1638  1  0.629200  0.603900  0.942300  1.0  -0.1612
  C  C1639  1  0.613300  0.619600  0.958700  1.0  -0.189
  C  C1640  1  0.674400  0.605500  0.905400  1.0  0.655
  C  C1641  1  0.580300  0.741900  0.957500  1.0  0.1742
  C  C1642  1  0.552500  0.749100  0.967900  1.0  -0.1867
  C  C1643  1  0.544900  0.772800  0.948600  1.0  -0.0611
  C  C1644  1  0.568500  0.793700  0.923400  1.0  -0.021
  C  C1645  1  0.598400  0.788700  0.914500  1.0  -0.0511
  C  C1646  1  0.605000  0.764000  0.932700  1.0  -0.1829
  C  C1647  1  0.565000  0.822300  0.903800  1.0  0.402
  C  C1648  1  0.505500  0.565900  0.240900  1.0  0.6463
  C  C1649  1  0.488000  0.530700  0.256100  1.0  -0.0723
  C  C1650  1  0.476600  0.499300  0.239200  1.0  -0.1245
  C  C1651  1  0.459900  0.467700  0.252200  1.0  -0.2144
  C  C1652  1  0.453000  0.462800  0.285400  1.0  0.156
  C  C1653  1  0.462500  0.493900  0.303700  1.0  -0.208
  C  C1654  1  0.480500  0.527400  0.289200  1.0  -0.1098
  C  C1655  1  0.433700  0.427800  0.301300  1.0  0.0735
  C  C1656  1  0.401700  0.399500  0.284300  1.0  -0.2264
  C  C1657  1  0.383300  0.367700  0.300300  1.0  0.358
  C  C1658  1  0.391400  0.362200  0.328800  1.0  -0.0745
  C  C1659  1  0.421300  0.387300  0.346300  1.0  0.1153
  C  C1660  1  0.443300  0.422500  0.331600  1.0  -0.2201
  C  C1661  1  0.430700  0.380700  0.377900  1.0  0.2199
  C  C1662  1  0.422000  0.349100  0.388900  1.0  -0.18
  C  C1663  1  0.430100  0.343500  0.419600  1.0  -0.1205
  C  C1664  1  0.443100  0.368700  0.441100  1.0  0.0673
  C  C1665  1  0.450200  0.402900  0.431300  1.0  -0.1215
  C  C1666  1  0.441900  0.406300  0.400000  1.0  -0.1439
  C  C1667  1  0.449500  0.363000  0.472500  1.0  0.4704
  C  C1668  1  0.351200  0.328800  0.253500  1.0  -0.1594
  C  C1669  1  0.349800  0.336800  0.286700  1.0  0.0251
  C  C1670  1  0.317400  0.318100  0.305200  1.0  -0.1544
  C  C1671  1  0.285300  0.288600  0.289700  1.0  -0.1399
  C  C1672  1  0.286500  0.281800  0.256100  1.0  0.1758
  C  C1673  1  0.318400  0.301200  0.237500  1.0  -0.1451
  C  C1674  1  0.256000  0.256300  0.240900  1.0  0.3223
  C  C1675  1  0.148170  0.970430  0.543030  1.0  0.6567
  C  C1676  1  0.118080  0.977030  0.541830  1.0  -0.0513
  C  C1677  1  0.087170  0.954230  0.523730  1.0  -0.1416
  C  C1678  1  0.058070  0.961030  0.524130  1.0  -0.1739
  C  C1679  1  0.058470  0.988530  0.542630  1.0  0.1617
  C  C1680  1  0.090370  0.011030  0.560530  1.0  -0.1764
  C  C1681  1  0.119570  0.005130  0.560230  1.0  -0.1055
  C  C1682  1  0.028770  0.993730  0.542830  1.0  0.328
  C  C1683  1  0.995370  0.966830  0.542430  1.0  -0.1114
  C  C1684  1  0.221370  0.978830  0.485030  1.0  0.5004
  C  C1685  1  0.229170  0.990430  0.452830  1.0  0.0054
  C  C1686  1  0.241170  0.025630  0.442430  1.0  -0.101
  C  C1687  1  0.246870  0.033830  0.407730  1.0  -0.1952
  C  C1688  1  0.240070  0.006830  0.385930  1.0  0.094
  C  C1689  1  0.226170  0.970030  0.396230  1.0  -0.218
  C  C1690  1  0.220270  0.961830  0.429930  1.0  -0.195
  C  C1691  1  0.248070  0.015030  0.352030  1.0  0.23
  C  C1692  1  0.240970  0.037930  0.336530  1.0  -0.0918
  C  C1693  1  0.253170  0.049830  0.305730  1.0  0.2643
  C  C1694  1  0.266170  0.032230  0.289430  1.0  -0.0677
  C  C1695  1  0.271970  0.005530  0.303030  1.0  0.1049
  C  C1696  1  0.262370  0.997230  0.335430  1.0  -0.1846
  C  C1697  1  0.290370  0.989530  0.285830  1.0  0.2354
  C  C1698  1  0.317070  0.007530  0.264930  1.0  -0.0696
  C  C1699  1  0.335170  0.993030  0.249030  1.0  -0.168
  C  C1700  1  0.322670  0.956030  0.255930  1.0  -0.0439
  C  C1701  1  0.295870  0.937230  0.275630  1.0  -0.1612
  C  C1702  1  0.279970  0.952930  0.292030  1.0  -0.189
  C  C1703  1  0.341070  0.938830  0.238730  1.0  0.655
  C  C1704  1  0.246970  0.075230  0.290830  1.0  0.1741
  C  C1705  1  0.219170  0.082430  0.301230  1.0  -0.1885
  C  C1706  1  0.211570  0.106130  0.281930  1.0  -0.055
  C  C1707  1  0.235170  0.127030  0.256730  1.0  -0.0173
  C  C1708  1  0.265070  0.122030  0.247830  1.0  -0.051
  C  C1709  1  0.271670  0.097330  0.266030  1.0  -0.1829
  C  C1710  1  0.231670  0.155630  0.237130  1.0  0.4035
  C  C1711  1  0.172170  0.899230  0.574230  1.0  0.6464
  C  C1712  1  0.154670  0.864030  0.589430  1.0  -0.0723
  C  C1713  1  0.143270  0.832630  0.572530  1.0  -0.1245
  C  C1714  1  0.126570  0.801030  0.585530  1.0  -0.2144
  C  C1715  1  0.119670  0.796130  0.618730  1.0  0.1558
  C  C1716  1  0.129170  0.827230  0.637030  1.0  -0.208
  C  C1717  1  0.147170  0.860730  0.622530  1.0  -0.1099
  C  C1718  1  0.100370  0.761130  0.634630  1.0  0.0735
  C  C1719  1  0.068370  0.732830  0.617630  1.0  -0.2262
  C  C1720  1  0.049970  0.701030  0.633630  1.0  0.358
  C  C1721  1  0.058070  0.695530  0.662130  1.0  -0.0745
  C  C1722  1  0.087970  0.720630  0.679630  1.0  0.1153
  C  C1723  1  0.109970  0.755830  0.664930  1.0  -0.2209
  C  C1724  1  0.097370  0.714030  0.711230  1.0  0.2199
  C  C1725  1  0.088670  0.682430  0.722230  1.0  -0.18
  C  C1726  1  0.096770  0.676830  0.752930  1.0  -0.1206
  C  C1727  1  0.109770  0.702030  0.774430  1.0  0.0669
  C  C1728  1  0.116870  0.736230  0.764630  1.0  -0.1216
  C  C1729  1  0.108570  0.739630  0.733330  1.0  -0.1437
  C  C1730  1  0.116170  0.696330  0.805830  1.0  0.4704
  C  C1731  1  0.017870  0.662130  0.586830  1.0  -0.1589
  C  C1732  1  0.016470  0.670130  0.620030  1.0  0.0251
  C  C1733  1  0.984070  0.651430  0.638530  1.0  -0.1545
  C  C1734  1  0.951970  0.621930  0.623030  1.0  -0.1401
  C  C1735  1  0.953170  0.615130  0.589430  1.0  0.1759
  C  C1736  1  0.985070  0.634530  0.570830  1.0  -0.1452
  C  C1737  1  0.922670  0.589630  0.574230  1.0  0.3225
  C  C1738  1  0.814830  0.303770  0.876370  1.0  0.6567
  C  C1739  1  0.784740  0.310370  0.875170  1.0  -0.0513
  C  C1740  1  0.753830  0.287570  0.857070  1.0  -0.1416
  C  C1741  1  0.724730  0.294370  0.857470  1.0  -0.1739
  C  C1742  1  0.725130  0.321870  0.875970  1.0  0.1617
  C  C1743  1  0.757030  0.344370  0.893870  1.0  -0.1766
  C  C1744  1  0.786230  0.338470  0.893570  1.0  -0.1055
  C  C1745  1  0.695430  0.327070  0.876170  1.0  0.3281
  C  C1746  1  0.662030  0.300170  0.875770  1.0  -0.1131
  C  C1747  1  0.888030  0.312170  0.818370  1.0  0.5004
  C  C1748  1  0.895830  0.323770  0.786170  1.0  0.0059
  C  C1749  1  0.907830  0.358970  0.775770  1.0  -0.101
  C  C1750  1  0.913530  0.367170  0.741070  1.0  -0.1951
  C  C1751  1  0.906730  0.340170  0.719270  1.0  0.0938
  C  C1752  1  0.892830  0.303370  0.729570  1.0  -0.218
  C  C1753  1  0.886930  0.295170  0.763270  1.0  -0.195
  C  C1754  1  0.914730  0.348370  0.685370  1.0  0.2301
  C  C1755  1  0.907630  0.371270  0.669870  1.0  -0.0978
  C  C1756  1  0.919830  0.383170  0.639070  1.0  0.2643
  C  C1757  1  0.932830  0.365570  0.622770  1.0  -0.0602
  C  C1758  1  0.938630  0.338870  0.636370  1.0  0.105
  C  C1759  1  0.929030  0.330570  0.668770  1.0  -0.1842
  C  C1760  1  0.957030  0.322870  0.619170  1.0  0.2354
  C  C1761  1  0.983730  0.340870  0.598270  1.0  -0.0694
  C  C1762  1  0.001830  0.326370  0.582370  1.0  -0.1681
  C  C1763  1  0.989330  0.289370  0.589270  1.0  -0.0439
  C  C1764  1  0.962530  0.270570  0.608970  1.0  -0.1612
  C  C1765  1  0.946630  0.286270  0.625370  1.0  -0.189
  C  C1766  1  0.007730  0.272170  0.572070  1.0  0.6552
  C  C1767  1  0.913630  0.408570  0.624170  1.0  0.1742
  C  C1768  1  0.885830  0.415770  0.634570  1.0  -0.1867
  C  C1769  1  0.878230  0.439470  0.615270  1.0  -0.0611
  C  C1770  1  0.901830  0.460370  0.590070  1.0  -0.021
  C  C1771  1  0.931730  0.455370  0.581170  1.0  -0.0511
  C  C1772  1  0.938330  0.430670  0.599370  1.0  -0.1829
  C  C1773  1  0.898330  0.488970  0.570470  1.0  0.402
  C  C1774  1  0.838830  0.232570  0.907570  1.0  0.6463
  C  C1775  1  0.821330  0.197370  0.922770  1.0  -0.0724
  C  C1776  1  0.809930  0.165970  0.905870  1.0  -0.1245
  C  C1777  1  0.793230  0.134370  0.918870  1.0  -0.2144
  C  C1778  1  0.786330  0.129470  0.952070  1.0  0.156
  C  C1779  1  0.795830  0.160570  0.970370  1.0  -0.208
  C  C1780  1  0.813830  0.194070  0.955870  1.0  -0.1098
  C  C1781  1  0.767030  0.094470  0.967970  1.0  0.0735
  C  C1782  1  0.735030  0.066170  0.950970  1.0  -0.2264
  C  C1783  1  0.716630  0.034370  0.966970  1.0  0.358
  C  C1784  1  0.724730  0.028870  0.995470  1.0  -0.0745
  C  C1785  1  0.754630  0.053970  0.012970  1.0  0.1153
  C  C1786  1  0.776630  0.089170  0.998270  1.0  -0.2201
  C  C1787  1  0.764030  0.047370  0.044570  1.0  0.2199
  C  C1788  1  0.755330  0.015770  0.055570  1.0  -0.1801
  C  C1789  1  0.763430  0.010170  0.086270  1.0  -0.1205
  C  C1790  1  0.776430  0.035370  0.107770  1.0  0.0689
  C  C1791  1  0.783530  0.069570  0.097970  1.0  -0.1215
  C  C1792  1  0.775230  0.072970  0.066670  1.0  -0.1439
  C  C1793  1  0.782830  0.029670  0.139170  1.0  0.4621
  C  C1794  1  0.684530  0.995470  0.920170  1.0  -0.1594
  C  C1795  1  0.683130  0.003470  0.953370  1.0  0.0251
  C  C1796  1  0.650730  0.984770  0.971870  1.0  -0.1544
  C  C1797  1  0.618630  0.955270  0.956370  1.0  -0.1399
  C  C1798  1  0.619830  0.948470  0.922770  1.0  0.1756
  C  C1799  1  0.651730  0.967870  0.904170  1.0  -0.1451
  C  C1800  1  0.589330  0.922970  0.907570  1.0  0.3221
  O  O1801  1  0.656860  0.149080  0.771820  1.0  -0.592
  O  O1802  1  0.611730  0.131100  0.806620  1.0  -0.5415
  O  O1803  1  0.615580  0.071640  0.838960  1.0  -0.5586
  O  O1804  1  0.670400  0.111490  0.827910  1.0  -0.6454
  O  O1805  1  0.624960  0.924220  0.111180  1.0  -0.5745
  O  O1806  1  0.572270  0.909140  0.089000  1.0  -0.5901
  O  O1807  1  0.593800  0.081100  0.742410  1.0  -0.5589
  O  O1808  1  0.568300  0.053780  0.787800  1.0  -0.5469
  O  O1809  1  0.841100  0.255200  0.118000  1.0  -0.5587
  O  O1810  1  0.824800  0.283600  0.088700  1.0  -0.481
  O  O1811  1  0.334800  0.889400  0.517900  1.0  -0.5063
  O  O1812  1  0.389700  0.929400  0.507800  1.0  -0.5941
  O  O1813  1  0.248700  0.988700  0.784400  1.0  -0.6022
  O  O1814  1  0.243600  0.014400  0.740300  1.0  -0.4376
  O  O1815  1  0.323530  0.482410  0.105150  1.0  -0.5922
  O  O1816  1  0.278400  0.464430  0.139950  1.0  -0.5419
  O  O1817  1  0.282250  0.404970  0.172290  1.0  -0.5585
  O  O1818  1  0.337070  0.444820  0.161240  1.0  -0.6455
  O  O1819  1  0.291630  0.257550  0.444510  1.0  -0.5714
  O  O1820  1  0.238940  0.242470  0.422330  1.0  -0.5901
  O  O1821  1  0.260470  0.414430  0.075740  1.0  -0.559
  O  O1822  1  0.234970  0.387110  0.121130  1.0  -0.5469
  O  O1823  1  0.507770  0.588530  0.451330  1.0  -0.5587
  O  O1824  1  0.491470  0.616930  0.422030  1.0  -0.481
  O  O1825  1  0.001470  0.222730  0.851230  1.0  -0.5037
  O  O1826  1  0.056370  0.262730  0.841130  1.0  -0.5952
  O  O1827  1  0.915370  0.322030  0.117730  1.0  -0.6021
  O  O1828  1  0.910270  0.347730  0.073630  1.0  -0.4381
  O  O1829  1  0.990190  0.815750  0.438490  1.0  -0.5923
  O  O1830  1  0.945060  0.797770  0.473290  1.0  -0.5416
  O  O1831  1  0.948910  0.738310  0.505630  1.0  -0.5583
  O  O1832  1  0.003730  0.778160  0.494580  1.0  -0.6451
  O  O1833  1  0.958290  0.590890  0.777850  1.0  -0.5745
  O  O1834  1  0.905600  0.575810  0.755670  1.0  -0.5901
  O  O1835  1  0.927130  0.747770  0.409080  1.0  -0.5589
  O  O1836  1  0.901630  0.720450  0.454470  1.0  -0.5469
  O  O1837  1  0.174430  0.921870  0.784670  1.0  -0.5588
  O  O1838  1  0.158130  0.950270  0.755370  1.0  -0.4843
  O  O1839  1  0.668130  0.556070  0.184570  1.0  -0.5067
  O  O1840  1  0.723030  0.596070  0.174470  1.0  -0.5941
  O  O1841  1  0.582030  0.655370  0.451070  1.0  -0.6023
  O  O1842  1  0.576930  0.681070  0.406970  1.0  -0.4381
  O  O1843  1  0.850920  0.507780  0.771820  1.0  -0.593
  O  O1844  1  0.868900  0.480630  0.806620  1.0  -0.5412
  O  O1845  1  0.928360  0.543940  0.838960  1.0  -0.5597
  O  O1846  1  0.888510  0.558910  0.827910  1.0  -0.6436
  O  O1847  1  0.075780  0.700740  0.111180  1.0  -0.5717
  O  O1848  1  0.090860  0.663130  0.089000  1.0  -0.591
  O  O1849  1  0.918900  0.512700  0.742410  1.0  -0.5592
  O  O1850  1  0.946220  0.514520  0.787800  1.0  -0.5463
  O  O1851  1  0.744800  0.585900  0.118000  1.0  -0.5597
  O  O1852  1  0.716400  0.541200  0.088700  1.0  -0.4792
  O  O1853  1  0.110600  0.445400  0.517900  1.0  -0.4973
  O  O1854  1  0.070600  0.460300  0.507800  1.0  -0.5944
  O  O1855  1  0.011300  0.260000  0.784400  1.0  -0.6006
  O  O1856  1  0.985600  0.229200  0.740300  1.0  -0.4389
  O  O1857  1  0.517590  0.841110  0.105150  1.0  -0.593
  O  O1858  1  0.535570  0.813960  0.139950  1.0  -0.5412
  O  O1859  1  0.595030  0.877270  0.172290  1.0  -0.5597
  O  O1860  1  0.555180  0.892240  0.161240  1.0  -0.6436
  O  O1861  1  0.742450  0.034070  0.444510  1.0  -0.5687
  O  O1862  1  0.757530  0.996460  0.422330  1.0  -0.591
  O  O1863  1  0.585570  0.846030  0.075740  1.0  -0.5591
  O  O1864  1  0.612890  0.847850  0.121130  1.0  -0.5463
  O  O1865  1  0.411470  0.919230  0.451330  1.0  -0.5597
  O  O1866  1  0.383070  0.874530  0.422030  1.0  -0.4792
  O  O1867  1  0.777270  0.778730  0.851230  1.0  -0.4997
  O  O1868  1  0.737270  0.793630  0.841130  1.0  -0.5947
  O  O1869  1  0.677970  0.593330  0.117730  1.0  -0.6007
  O  O1870  1  0.652270  0.562530  0.073630  1.0  -0.4395
  O  O1871  1  0.184250  0.174450  0.438490  1.0  -0.5932
  O  O1872  1  0.202230  0.147300  0.473290  1.0  -0.5416
  O  O1873  1  0.261690  0.210610  0.505630  1.0  -0.5599
  O  O1874  1  0.221840  0.225580  0.494580  1.0  -0.6442
  O  O1875  1  0.409110  0.367410  0.777850  1.0  -0.5718
  O  O1876  1  0.424190  0.329800  0.755670  1.0  -0.591
  O  O1877  1  0.252230  0.179370  0.409080  1.0  -0.5592
  O  O1878  1  0.279550  0.181190  0.454470  1.0  -0.5463
  O  O1879  1  0.078130  0.252570  0.784670  1.0  -0.5596
  O  O1880  1  0.049730  0.207870  0.755370  1.0  -0.4795
  O  O1881  1  0.443930  0.112070  0.184570  1.0  -0.4973
  O  O1882  1  0.403930  0.126970  0.174470  1.0  -0.5945
  O  O1883  1  0.344630  0.926670  0.451070  1.0  -0.6005
  O  O1884  1  0.318930  0.895870  0.406970  1.0  -0.4394
  O  O1885  1  0.492220  0.343140  0.771820  1.0  -0.5928
  O  O1886  1  0.519370  0.388270  0.806620  1.0  -0.5406
  O  O1887  1  0.456060  0.384420  0.838960  1.0  -0.5569
  O  O1888  1  0.441090  0.329600  0.827910  1.0  -0.6397
  O  O1889  1  0.299260  0.375040  0.111180  1.0  -0.5693
  O  O1890  1  0.336870  0.427730  0.089000  1.0  -0.5877
  O  O1891  1  0.487300  0.406200  0.742410  1.0  -0.5585
  O  O1892  1  0.485480  0.431700  0.787800  1.0  -0.5459
  O  O1893  1  0.414100  0.158900  0.118000  1.0  -0.5567
  O  O1894  1  0.458800  0.175200  0.088700  1.0  -0.4808
  O  O1895  1  0.554600  0.665200  0.517900  1.0  -0.4971
  O  O1896  1  0.539700  0.610300  0.507800  1.0  -0.5979
  O  O1897  1  0.740000  0.751300  0.784400  1.0  -0.6025
  O  O1898  1  0.770800  0.756400  0.740300  1.0  -0.4363
  O  O1899  1  0.158890  0.676470  0.105150  1.0  -0.5928
  O  O1900  1  0.186040  0.721600  0.139950  1.0  -0.5407
  O  O1901  1  0.122730  0.717750  0.172290  1.0  -0.5569
  O  O1902  1  0.107760  0.662930  0.161240  1.0  -0.6402
  O  O1903  1  0.965930  0.708370  0.444510  1.0  -0.5725
  O  O1904  1  0.003540  0.761060  0.422330  1.0  -0.5877
  O  O1905  1  0.153970  0.739530  0.075740  1.0  -0.5584
  O  O1906  1  0.152150  0.765030  0.121130  1.0  -0.5459
  O  O1907  1  0.080770  0.492230  0.451330  1.0  -0.5567
  O  O1908  1  0.125470  0.508530  0.422030  1.0  -0.4808
  O  O1909  1  0.221270  0.998530  0.851230  1.0  -0.501
  O  O1910  1  0.206370  0.943630  0.841130  1.0  -0.598
  O  O1911  1  0.406670  0.084630  0.117730  1.0  -0.6024
  O  O1912  1  0.437470  0.089730  0.073630  1.0  -0.4368
  O  O1913  1  0.825550  0.009810  0.438490  1.0  -0.5925
  O  O1914  1  0.852700  0.054940  0.473290  1.0  -0.5406
  O  O1915  1  0.789390  0.051090  0.505630  1.0  -0.557
  O  O1916  1  0.774420  0.996270  0.494580  1.0  -0.6402
  O  O1917  1  0.632590  0.041710  0.777850  1.0  -0.5693
  O  O1918  1  0.670200  0.094400  0.755670  1.0  -0.5877
  O  O1919  1  0.820630  0.072870  0.409080  1.0  -0.5585
  O  O1920  1  0.818810  0.098370  0.454470  1.0  -0.5459
  O  O1921  1  0.747430  0.825570  0.784670  1.0  -0.5568
  O  O1922  1  0.792130  0.841870  0.755370  1.0  -0.4847
  O  O1923  1  0.887930  0.331870  0.184570  1.0  -0.4974
  O  O1924  1  0.873030  0.276970  0.174470  1.0  -0.5982
  O  O1925  1  0.073330  0.417970  0.451070  1.0  -0.6026
  O  O1926  1  0.104130  0.423070  0.406970  1.0  -0.4367
  O  O1927  1  0.343140  0.850920  0.228180  1.0  -0.5932
  O  O1928  1  0.388270  0.868900  0.193380  1.0  -0.5399
  O  O1929  1  0.384420  0.928360  0.161040  1.0  -0.5593
  O  O1930  1  0.329600  0.888510  0.172090  1.0  -0.644
  O  O1931  1  0.375040  0.075780  0.888820  1.0  -0.5746
  O  O1932  1  0.427730  0.090860  0.911000  1.0  -0.5897
  O  O1933  1  0.406200  0.918900  0.257590  1.0  -0.5591
  O  O1934  1  0.431700  0.946220  0.212200  1.0  -0.5439
  O  O1935  1  0.158900  0.744800  0.882000  1.0  -0.5596
  O  O1936  1  0.175200  0.716400  0.911300  1.0  -0.4819
  O  O1937  1  0.665200  0.110600  0.482100  1.0  -0.5076
  O  O1938  1  0.610300  0.070600  0.492200  1.0  -0.5958
  O  O1939  1  0.751300  0.011300  0.215600  1.0  -0.6032
  O  O1940  1  0.756400  0.985600  0.259700  1.0  -0.437
  O  O1941  1  0.009810  0.184250  0.561510  1.0  -0.5932
  O  O1942  1  0.054940  0.202230  0.526710  1.0  -0.5399
  O  O1943  1  0.051090  0.261690  0.494370  1.0  -0.559
  O  O1944  1  0.996270  0.221840  0.505420  1.0  -0.6439
  O  O1945  1  0.041710  0.409110  0.222150  1.0  -0.5746
  O  O1946  1  0.094400  0.424190  0.244330  1.0  -0.5897
  O  O1947  1  0.072870  0.252230  0.590920  1.0  -0.5591
  O  O1948  1  0.098370  0.279550  0.545530  1.0  -0.5439
  O  O1949  1  0.825570  0.078130  0.215330  1.0  -0.5597
  O  O1950  1  0.841870  0.049730  0.244630  1.0  -0.4841
  O  O1951  1  0.331870  0.443930  0.815430  1.0  -0.5077
  O  O1952  1  0.276970  0.403930  0.825530  1.0  -0.5954
  O  O1953  1  0.417970  0.344630  0.548930  1.0  -0.6034
  O  O1954  1  0.423070  0.318930  0.593030  1.0  -0.4371
  O  O1955  1  0.676470  0.517590  0.894850  1.0  -0.5931
  O  O1956  1  0.721600  0.535570  0.860050  1.0  -0.5403
  O  O1957  1  0.717750  0.595030  0.827710  1.0  -0.5593
  O  O1958  1  0.662930  0.555180  0.838760  1.0  -0.6444
  O  O1959  1  0.708370  0.742450  0.555490  1.0  -0.5714
  O  O1960  1  0.761060  0.757530  0.577670  1.0  -0.5898
  O  O1961  1  0.739530  0.585570  0.924260  1.0  -0.5591
  O  O1962  1  0.765030  0.612890  0.878870  1.0  -0.5439
  O  O1963  1  0.492230  0.411470  0.548670  1.0  -0.5596
  O  O1964  1  0.508530  0.383070  0.577970  1.0  -0.4819
  O  O1965  1  0.998530  0.777270  0.148770  1.0  -0.5052
  O  O1966  1  0.943630  0.737270  0.158870  1.0  -0.5964
  O  O1967  1  0.084630  0.677970  0.882270  1.0  -0.6032
  O  O1968  1  0.089730  0.652270  0.926370  1.0  -0.4374
  O  O1969  1  0.149080  0.492220  0.228180  1.0  -0.5936
  O  O1970  1  0.131100  0.519370  0.193380  1.0  -0.539
  O  O1971  1  0.071640  0.456060  0.161040  1.0  -0.5602
  O  O1972  1  0.111490  0.441090  0.172090  1.0  -0.6424
  O  O1973  1  0.924220  0.299260  0.888820  1.0  -0.5734
  O  O1974  1  0.909140  0.336870  0.911000  1.0  -0.5883
  O  O1975  1  0.081100  0.487300  0.257590  1.0  -0.5596
  O  O1976  1  0.053780  0.485480  0.212200  1.0  -0.5442
  O  O1977  1  0.255200  0.414100  0.882000  1.0  -0.5593
  O  O1978  1  0.283600  0.458800  0.911300  1.0  -0.4782
  O  O1979  1  0.889400  0.554600  0.482100  1.0  -0.4984
  O  O1980  1  0.929400  0.539700  0.492200  1.0  -0.5937
  O  O1981  1  0.988700  0.740000  0.215600  1.0  -0.6028
  O  O1982  1  0.014400  0.770800  0.259700  1.0  -0.4358
  O  O1983  1  0.815750  0.825550  0.561510  1.0  -0.5938
  O  O1984  1  0.797770  0.852700  0.526710  1.0  -0.5394
  O  O1985  1  0.738310  0.789390  0.494370  1.0  -0.5604
  O  O1986  1  0.778160  0.774420  0.505420  1.0  -0.6431
  O  O1987  1  0.590890  0.632590  0.222150  1.0  -0.5735
  O  O1988  1  0.575810  0.670200  0.244330  1.0  -0.5883
  O  O1989  1  0.747770  0.820630  0.590920  1.0  -0.5596
  O  O1990  1  0.720450  0.818810  0.545530  1.0  -0.5442
  O  O1991  1  0.921870  0.747430  0.215330  1.0  -0.5592
  O  O1992  1  0.950270  0.792130  0.244630  1.0  -0.4791
  O  O1993  1  0.556070  0.887930  0.815430  1.0  -0.4984
  O  O1994  1  0.596070  0.873030  0.825530  1.0  -0.5935
  O  O1995  1  0.655370  0.073330  0.548930  1.0  -0.6026
  O  O1996  1  0.681070  0.104130  0.593030  1.0  -0.4358
  O  O1997  1  0.482410  0.158890  0.894850  1.0  -0.5936
  O  O1998  1  0.464430  0.186040  0.860050  1.0  -0.539
  O  O1999  1  0.404970  0.122730  0.827710  1.0  -0.5602
  O  O2000  1  0.444820  0.107760  0.838760  1.0  -0.6424
  O  O2001  1  0.257550  0.965930  0.555490  1.0  -0.5705
  O  O2002  1  0.242470  0.003540  0.577670  1.0  -0.5883
  O  O2003  1  0.414430  0.153970  0.924260  1.0  -0.5596
  O  O2004  1  0.387110  0.152150  0.878870  1.0  -0.5442
  O  O2005  1  0.588530  0.080770  0.548670  1.0  -0.5593
  O  O2006  1  0.616930  0.125470  0.577970  1.0  -0.4782
  O  O2007  1  0.222730  0.221270  0.148770  1.0  -0.5005
  O  O2008  1  0.262730  0.206370  0.158870  1.0  -0.5937
  O  O2009  1  0.322030  0.406670  0.882270  1.0  -0.6028
  O  O2010  1  0.347730  0.437470  0.926370  1.0  -0.4364
  O  O2011  1  0.507780  0.656860  0.228180  1.0  -0.5955
  O  O2012  1  0.480630  0.611730  0.193380  1.0  -0.54
  O  O2013  1  0.543940  0.615580  0.161040  1.0  -0.5572
  O  O2014  1  0.558910  0.670400  0.172090  1.0  -0.6408
  O  O2015  1  0.700740  0.624960  0.888820  1.0  -0.568
  O  O2016  1  0.663130  0.572270  0.911000  1.0  -0.5884
  O  O2017  1  0.512700  0.593800  0.257590  1.0  -0.557
  O  O2018  1  0.514520  0.568300  0.212200  1.0  -0.5438
  O  O2019  1  0.585900  0.841100  0.882000  1.0  -0.5594
  O  O2020  1  0.541200  0.824800  0.911300  1.0  -0.4819
  O  O2021  1  0.445400  0.334800  0.482100  1.0  -0.5005
  O  O2022  1  0.460300  0.389700  0.492200  1.0  -0.5947
  O  O2023  1  0.260000  0.248700  0.215600  1.0  -0.6045
  O  O2024  1  0.229200  0.243600  0.259700  1.0  -0.4364
  O  O2025  1  0.174450  0.990190  0.561510  1.0  -0.5952
  O  O2026  1  0.147300  0.945060  0.526710  1.0  -0.54
  O  O2027  1  0.210610  0.948910  0.494370  1.0  -0.5574
  O  O2028  1  0.225580  0.003730  0.505420  1.0  -0.6412
  O  O2029  1  0.367410  0.958290  0.222150  1.0  -0.568
  O  O2030  1  0.329800  0.905600  0.244330  1.0  -0.5884
  O  O2031  1  0.179370  0.927130  0.590920  1.0  -0.557
  O  O2032  1  0.181190  0.901630  0.545530  1.0  -0.5438
  O  O2033  1  0.252570  0.174430  0.215330  1.0  -0.5595
  O  O2034  1  0.207870  0.158130  0.244630  1.0  -0.4864
  O  O2035  1  0.112070  0.668130  0.815430  1.0  -0.5005
  O  O2036  1  0.126970  0.723030  0.825530  1.0  -0.5949
  O  O2037  1  0.926670  0.582030  0.548930  1.0  -0.6047
  O  O2038  1  0.895870  0.576930  0.593030  1.0  -0.4364
  O  O2039  1  0.841110  0.323530  0.894850  1.0  -0.5955
  O  O2040  1  0.813960  0.278400  0.860050  1.0  -0.5401
  O  O2041  1  0.877270  0.282250  0.827710  1.0  -0.5572
  O  O2042  1  0.892240  0.337070  0.838760  1.0  -0.6412
  O  O2043  1  0.034070  0.291630  0.555490  1.0  -0.5707
  O  O2044  1  0.996460  0.238940  0.577670  1.0  -0.5885
  O  O2045  1  0.846030  0.260470  0.924260  1.0  -0.5569
  O  O2046  1  0.847850  0.234970  0.878870  1.0  -0.5438
  O  O2047  1  0.919230  0.507770  0.548670  1.0  -0.5594
  O  O2048  1  0.874530  0.491470  0.577970  1.0  -0.4819
  O  O2049  1  0.778730  0.001470  0.148770  1.0  -0.5022
  O  O2050  1  0.793630  0.056370  0.158870  1.0  -0.5948
  O  O2051  1  0.593330  0.915370  0.882270  1.0  -0.6045
  O  O2052  1  0.562530  0.910270  0.926370  1.0  -0.4371
