# generated using pymatgen
data_CdCoH34C30(NO3)2
_symmetry_space_group_name_H-M   'P 1'
_cell_length_a   14.26970000
_cell_length_b   40.36300000
_cell_length_c   30.93100000
_cell_angle_alpha   90.00000000
_cell_angle_beta   102.62300000
_cell_angle_gamma   90.00000000
_symmetry_Int_Tables_number   1
_chemical_formula_structural   CdCoH34C30(NO3)2
_chemical_formula_sum   'Cd16 Co16 H544 C480 N32 O96'
_cell_volume   17384.65247212
_cell_formula_units_Z   16
loop_
 _symmetry_equiv_pos_site_id
 _symmetry_equiv_pos_as_xyz
  1  'x, y, z'
loop_
 _atom_site_type_symbol
 _atom_site_label
 _atom_site_symmetry_multiplicity
 _atom_site_fract_x
 _atom_site_fract_y
 _atom_site_fract_z
 _atom_site_occupancy
 _atom_site_charge
  Cd  Cd1  1  0.752890  0.525490  0.006590  1.0  1.082
  Cd  Cd2  1  0.248100  0.275340  0.502390  1.0  1.052
  Cd  Cd3  1  0.252890  0.025490  0.006590  1.0  1.082
  Cd  Cd4  1  0.748100  0.775340  0.502390  1.0  1.052
  Cd  Cd5  1  0.247110  0.525490  0.993410  1.0  1.0767
  Cd  Cd6  1  0.751900  0.275340  0.497610  1.0  1.0492
  Cd  Cd7  1  0.747110  0.025490  0.993410  1.0  1.0767
  Cd  Cd8  1  0.251900  0.775340  0.497610  1.0  1.0492
  Cd  Cd9  1  0.500000  0.547000  0.000000  1.0  1.0996
  Cd  Cd10  1  0.500000  0.459680  0.000000  1.0  0.9624
  Cd  Cd11  1  0.000000  0.047000  0.000000  1.0  1.0996
  Cd  Cd12  1  0.000000  0.959680  0.000000  1.0  0.9624
  Cd  Cd13  1  0.000000  0.339600  0.500000  1.0  1.1461
  Cd  Cd14  1  0.000000  0.252700  0.500000  1.0  1.0454
  Cd  Cd15  1  0.500000  0.839600  0.500000  1.0  1.1461
  Cd  Cd16  1  0.500000  0.752700  0.500000  1.0  1.0454
  Co  Co17  1  0.600560  0.604930  0.277340  1.0  0.721
  Co  Co18  1  0.828560  0.353530  0.227550  1.0  0.7397
  Co  Co19  1  0.602240  0.698140  0.777510  1.0  0.7518
  Co  Co20  1  0.330240  0.448190  0.729240  1.0  0.7468
  Co  Co21  1  0.100560  0.104930  0.277340  1.0  0.721
  Co  Co22  1  0.328560  0.853530  0.227550  1.0  0.7397
  Co  Co23  1  0.102240  0.198140  0.777510  1.0  0.7518
  Co  Co24  1  0.830240  0.948190  0.729240  1.0  0.7468
  Co  Co25  1  0.399440  0.604930  0.722660  1.0  0.7269
  Co  Co26  1  0.171440  0.353530  0.772450  1.0  0.7386
  Co  Co27  1  0.397760  0.698140  0.222490  1.0  0.7563
  Co  Co28  1  0.669760  0.448190  0.270760  1.0  0.7412
  Co  Co29  1  0.899440  0.104930  0.722660  1.0  0.7269
  Co  Co30  1  0.671440  0.853530  0.772450  1.0  0.7386
  Co  Co31  1  0.897760  0.198140  0.222490  1.0  0.7563
  Co  Co32  1  0.169760  0.948190  0.270760  1.0  0.7412
  H  H33  1  0.796800  0.675100  0.446200  1.0  0.1176
  H  H34  1  0.512900  0.678600  0.394800  1.0  0.1279
  H  H35  1  0.809300  0.580900  0.424400  1.0  0.1173
  H  H36  1  0.905000  0.577800  0.407700  1.0  0.1075
  H  H37  1  0.806300  0.579900  0.373500  1.0  0.1154
  H  H38  1  0.904000  0.657800  0.360100  1.0  0.1191
  H  H39  1  0.860000  0.625700  0.335200  1.0  0.114
  H  H40  1  0.961200  0.624400  0.367600  1.0  0.1141
  H  H41  1  0.932100  0.659200  0.444500  1.0  0.119
  H  H42  1  0.986900  0.625800  0.441700  1.0  0.1154
  H  H43  1  0.906300  0.627500  0.468900  1.0  0.1097
  H  H44  1  0.447900  0.644100  0.335300  1.0  0.1218
  H  H45  1  0.404400  0.629200  0.244400  1.0  0.137
  H  H46  1  0.311700  0.642100  0.290300  1.0  0.088
  H  H47  1  0.308100  0.605100  0.305800  1.0  0.0902
  H  H48  1  0.167700  0.612400  0.249800  1.0  0.0772
  H  H49  1  0.226000  0.629100  0.218000  1.0  0.0786
  H  H50  1  0.186100  0.572700  0.199500  1.0  0.0907
  H  H51  1  0.252500  0.562400  0.244900  1.0  0.0855
  H  H52  1  0.328400  0.596900  0.179400  1.0  0.0769
  H  H53  1  0.334000  0.557800  0.184000  1.0  0.1012
  H  H54  1  0.419900  0.562300  0.260000  1.0  0.0962
  H  H55  1  0.474000  0.569300  0.171700  1.0  0.1047
  H  H56  1  0.857000  0.565000  0.151300  1.0  0.1192
  H  H57  1  0.568900  0.559500  0.119500  1.0  0.1161
  H  H58  1  0.955100  0.570000  0.299700  1.0  0.1164
  H  H59  1  0.889700  0.542000  0.273800  1.0  0.1212
  H  H60  1  0.843200  0.572300  0.293100  1.0  0.1136
  H  H61  1  0.033800  0.579100  0.236900  1.0  0.102
  H  H62  1  0.974600  0.590500  0.190500  1.0  0.1252
  H  H63  1  0.970400  0.553500  0.205300  1.0  0.1249
  H  H64  1  0.960600  0.623800  0.271900  1.0  0.1076
  H  H65  1  0.848800  0.628200  0.262000  1.0  0.1105
  H  H66  1  0.904900  0.634500  0.224500  1.0  0.1206
  H  H67  1  0.654000  0.427600  0.106900  1.0  0.1216
  H  H68  1  0.905800  0.427100  0.068700  1.0  0.1197
  H  H69  1  0.045400  0.383400  0.182200  1.0  0.1163
  H  H70  1  0.073500  0.412600  0.154100  1.0  0.116
  H  H71  1  0.127700  0.378700  0.156500  1.0  0.1241
  H  H72  1  0.952000  0.331000  0.134800  1.0  0.1164
  H  H73  1  0.040400  0.328500  0.112400  1.0  0.1052
  H  H74  1  0.937000  0.333700  0.083100  1.0  0.1177
  H  H75  1  0.049400  0.410200  0.077700  1.0  0.1131
  H  H76  1  0.991800  0.381900  0.048800  1.0  0.1089
  H  H77  1  0.094900  0.374900  0.077400  1.0  0.1068
  H  H78  1  0.624800  0.394100  0.159100  1.0  0.1042
  H  H79  1  0.624700  0.328300  0.211900  1.0  0.0814
  H  H80  1  0.512000  0.359700  0.181000  1.0  0.0816
  H  H81  1  0.536400  0.385400  0.219900  1.0  0.0772
  H  H82  1  0.467300  0.320200  0.228700  1.0  0.08
  H  H83  1  0.406800  0.352700  0.229400  1.0  0.0878
  H  H84  1  0.506900  0.369200  0.297100  1.0  0.0883
  H  H85  1  0.474700  0.332400  0.303600  1.0  0.0805
  H  H86  1  0.644500  0.339100  0.325900  1.0  0.0859
  H  H87  1  0.614500  0.311300  0.290500  1.0  0.0808
  H  H88  1  0.672100  0.371000  0.281500  1.0  0.0993
  H  H89  1  0.789800  0.319600  0.332700  1.0  0.1276
  H  H90  1  0.185500  0.310000  0.367000  1.0  0.1203
  H  H91  1  0.917300  0.308800  0.387900  1.0  0.1151
  H  H92  1  0.206000  0.364500  0.245600  1.0  0.1183
  H  H93  1  0.183300  0.378200  0.289700  1.0  0.1217
  H  H94  1  0.099400  0.371200  0.248700  1.0  0.1183
  H  H95  1  0.160700  0.315400  0.216800  1.0  0.117
  H  H96  1  0.054800  0.321300  0.221400  1.0  0.1076
  H  H97  1  0.107900  0.288400  0.239100  1.0  0.1205
  H  H98  1  0.294100  0.315500  0.280900  1.0  0.1156
  H  H99  1  0.243200  0.288700  0.304400  1.0  0.115
  H  H100  1  0.279000  0.321900  0.328900  1.0  0.1212
  H  H101  1  0.853300  0.742700  0.651600  1.0  0.1182
  H  H102  1  0.564900  0.741900  0.618800  1.0  0.1163
  H  H103  1  0.979400  0.728200  0.691600  1.0  0.1204
  H  H104  1  0.034000  0.731800  0.741200  1.0  0.1062
  H  H105  1  0.973500  0.761500  0.717000  1.0  0.1261
  H  H106  1  0.900100  0.676400  0.714000  1.0  0.1108
  H  H107  1  0.851800  0.678200  0.754800  1.0  0.1118
  H  H108  1  0.963100  0.682800  0.761500  1.0  0.1154
  H  H109  1  0.185100  0.720500  0.692600  1.0  0.086
  H  H110  1  0.226900  0.684100  0.696200  1.0  0.0854
  H  H111  1  0.840200  0.735400  0.792700  1.0  0.1124
  H  H112  1  0.892900  0.765700  0.776900  1.0  0.1211
  H  H113  1  0.952500  0.735700  0.800800  1.0  0.1084
  H  H114  1  0.475600  0.729200  0.668700  1.0  0.1268
  H  H115  1  0.397700  0.680400  0.721200  1.0  0.0917
  H  H116  1  0.342100  0.719900  0.676800  1.0  0.0915
  H  H117  1  0.338700  0.742700  0.717300  1.0  0.0782
  H  H118  1  0.177900  0.695900  0.761300  1.0  0.0869
  H  H119  1  0.237500  0.728700  0.767300  1.0  0.0895
  H  H120  1  0.317200  0.690600  0.818000  1.0  0.058
  H  H121  1  0.317600  0.664400  0.780300  1.0  0.0673
  H  H122  1  0.410100  0.724200  0.791300  1.0  0.087
  H  H123  1  0.437100  0.659600  0.839500  1.0  0.1188
  H  H124  1  0.796500  0.625300  0.948500  1.0  0.113
  H  H125  1  0.515500  0.618500  0.891900  1.0  0.121
  H  H126  1  0.900900  0.720300  0.903400  1.0  0.1086
  H  H127  1  0.812000  0.714700  0.924700  1.0  0.1145
  H  H128  1  0.798200  0.716000  0.873000  1.0  0.1147
  H  H129  1  0.963800  0.671900  0.864700  1.0  0.119
  H  H130  1  0.861800  0.668200  0.833500  1.0  0.1166
  H  H131  1  0.910500  0.637700  0.860800  1.0  0.1161
  H  H132  1  0.986100  0.672900  0.943500  1.0  0.1111
  H  H133  1  0.936800  0.638100  0.942600  1.0  0.1136
  H  H134  1  0.900000  0.667900  0.966800  1.0  0.1124
  H  H135  1  0.413200  0.491400  0.886100  1.0  0.1171
  H  H136  1  0.680900  0.489600  0.864700  1.0  0.1187
  H  H137  1  0.800200  0.470200  0.785800  1.0  0.127
  H  H138  1  0.779000  0.465200  0.833000  1.0  0.1189
  H  H139  1  0.762500  0.499900  0.810000  1.0  0.1112
  H  H140  1  0.586100  0.422700  0.760700  1.0  0.1158
  H  H141  1  0.670500  0.417200  0.802000  1.0  0.123
  H  H142  1  0.692800  0.423700  0.755300  1.0  0.1155
  H  H143  1  0.570900  0.480800  0.723600  1.0  0.1167
  H  H144  1  0.680100  0.478500  0.722700  1.0  0.1167
  H  H145  1  0.641700  0.508800  0.745500  1.0  0.116
  H  H146  1  0.277600  0.473200  0.832500  1.0  0.1479
  H  H147  1  0.126500  0.458900  0.820800  1.0  0.0861
  H  H148  1  0.132400  0.496700  0.808200  1.0  0.0815
  H  H149  1  0.905600  0.445800  0.731400  1.0  0.0971
  H  H150  1  0.980600  0.424200  0.763900  1.0  0.0883
  H  H151  1  0.007500  0.450000  0.681900  1.0  0.0999
  H  H152  1  0.003600  0.412000  0.694200  1.0  0.1494
  H  H153  1  0.109800  0.410500  0.659800  1.0  0.1795
  H  H154  1  0.157100  0.483200  0.739000  1.0  0.1166
  H  H155  1  0.969000  0.476800  0.791600  1.0  0.0945
  H  H156  1  0.999300  0.492200  0.750500  1.0  0.0928
  H  H157  1  0.146800  0.416600  0.752300  1.0  0.1163
  H  H158  1  0.393500  0.377500  0.561100  1.0  0.1334
  H  H159  1  0.148700  0.371300  0.604800  1.0  0.1178
  H  H160  1  0.626100  0.423600  0.648100  1.0  0.1143
  H  H161  1  0.566400  0.393200  0.658700  1.0  0.1209
  H  H162  1  0.549100  0.428500  0.676700  1.0  0.1013
  H  H163  1  0.576000  0.429600  0.565700  1.0  0.1142
  H  H164  1  0.467300  0.427600  0.541900  1.0  0.1106
  H  H165  1  0.523300  0.395300  0.560000  1.0  0.1267
  H  H166  1  0.541400  0.471200  0.612500  1.0  0.1122
  H  H167  1  0.467500  0.466700  0.642800  1.0  0.1135
  H  H168  1  0.431100  0.469800  0.591400  1.0  0.1103
  H  H169  1  0.296800  0.175100  0.446200  1.0  0.1176
  H  H170  1  0.012900  0.178600  0.394800  1.0  0.1279
  H  H171  1  0.309300  0.080900  0.424400  1.0  0.1173
  H  H172  1  0.405000  0.077800  0.407700  1.0  0.1069
  H  H173  1  0.306300  0.079900  0.373500  1.0  0.1154
  H  H174  1  0.404000  0.157800  0.360100  1.0  0.1191
  H  H175  1  0.360000  0.125700  0.335200  1.0  0.114
  H  H176  1  0.461200  0.124400  0.367600  1.0  0.1141
  H  H177  1  0.432100  0.159200  0.444500  1.0  0.119
  H  H178  1  0.486900  0.125800  0.441700  1.0  0.1154
  H  H179  1  0.406300  0.127500  0.468900  1.0  0.1097
  H  H180  1  0.947900  0.144100  0.335300  1.0  0.1218
  H  H181  1  0.904400  0.129200  0.244400  1.0  0.137
  H  H182  1  0.811700  0.142100  0.290300  1.0  0.088
  H  H183  1  0.808100  0.105100  0.305800  1.0  0.0902
  H  H184  1  0.667700  0.112400  0.249800  1.0  0.0772
  H  H185  1  0.726000  0.129100  0.218000  1.0  0.0786
  H  H186  1  0.686100  0.072700  0.199500  1.0  0.0907
  H  H187  1  0.752500  0.062400  0.244900  1.0  0.0855
  H  H188  1  0.828400  0.096900  0.179400  1.0  0.0769
  H  H189  1  0.834000  0.057800  0.184000  1.0  0.1012
  H  H190  1  0.919900  0.062300  0.260000  1.0  0.0962
  H  H191  1  0.974000  0.069300  0.171700  1.0  0.1047
  H  H192  1  0.357000  0.065000  0.151300  1.0  0.1192
  H  H193  1  0.068900  0.059500  0.119500  1.0  0.1161
  H  H194  1  0.455100  0.070000  0.299700  1.0  0.1164
  H  H195  1  0.389700  0.042000  0.273800  1.0  0.1212
  H  H196  1  0.343200  0.072300  0.293100  1.0  0.1136
  H  H197  1  0.533800  0.079100  0.236900  1.0  0.102
  H  H198  1  0.474600  0.090500  0.190500  1.0  0.1252
  H  H199  1  0.470400  0.053500  0.205300  1.0  0.1249
  H  H200  1  0.460600  0.123800  0.271900  1.0  0.1076
  H  H201  1  0.348800  0.128200  0.262000  1.0  0.1105
  H  H202  1  0.404900  0.134500  0.224500  1.0  0.1206
  H  H203  1  0.154000  0.927600  0.106900  1.0  0.1216
  H  H204  1  0.405800  0.927100  0.068700  1.0  0.1197
  H  H205  1  0.545400  0.883400  0.182200  1.0  0.1163
  H  H206  1  0.573500  0.912600  0.154100  1.0  0.116
  H  H207  1  0.627700  0.878700  0.156500  1.0  0.1241
  H  H208  1  0.452000  0.831000  0.134800  1.0  0.1164
  H  H209  1  0.540400  0.828500  0.112400  1.0  0.1052
  H  H210  1  0.437000  0.833700  0.083100  1.0  0.1177
  H  H211  1  0.549400  0.910200  0.077700  1.0  0.1131
  H  H212  1  0.491800  0.881900  0.048800  1.0  0.1089
  H  H213  1  0.594900  0.874900  0.077400  1.0  0.1068
  H  H214  1  0.124800  0.894100  0.159100  1.0  0.1042
  H  H215  1  0.124700  0.828300  0.211900  1.0  0.0814
  H  H216  1  0.012000  0.859700  0.181000  1.0  0.0816
  H  H217  1  0.036400  0.885400  0.219900  1.0  0.0772
  H  H218  1  0.967300  0.820200  0.228700  1.0  0.08
  H  H219  1  0.906800  0.852700  0.229400  1.0  0.0878
  H  H220  1  0.006900  0.869200  0.297100  1.0  0.0883
  H  H221  1  0.974700  0.832400  0.303600  1.0  0.0805
  H  H222  1  0.144500  0.839100  0.325900  1.0  0.0859
  H  H223  1  0.114500  0.811300  0.290500  1.0  0.0808
  H  H224  1  0.172100  0.871000  0.281500  1.0  0.0993
  H  H225  1  0.289800  0.819600  0.332700  1.0  0.1276
  H  H226  1  0.685500  0.810000  0.367000  1.0  0.1203
  H  H227  1  0.417300  0.808800  0.387900  1.0  0.1151
  H  H228  1  0.706000  0.864500  0.245600  1.0  0.1183
  H  H229  1  0.683300  0.878200  0.289700  1.0  0.1217
  H  H230  1  0.599400  0.871200  0.248700  1.0  0.1183
  H  H231  1  0.660700  0.815400  0.216800  1.0  0.117
  H  H232  1  0.554800  0.821300  0.221400  1.0  0.1076
  H  H233  1  0.607900  0.788400  0.239100  1.0  0.1205
  H  H234  1  0.794100  0.815500  0.280900  1.0  0.1156
  H  H235  1  0.743200  0.788700  0.304400  1.0  0.115
  H  H236  1  0.779000  0.821900  0.328900  1.0  0.1212
  H  H237  1  0.353300  0.242700  0.651600  1.0  0.1182
  H  H238  1  0.064900  0.241900  0.618800  1.0  0.1163
  H  H239  1  0.479400  0.228200  0.691600  1.0  0.1204
  H  H240  1  0.534000  0.231800  0.741200  1.0  0.1062
  H  H241  1  0.473500  0.261500  0.717000  1.0  0.1261
  H  H242  1  0.400100  0.176400  0.714000  1.0  0.1108
  H  H243  1  0.351800  0.178200  0.754800  1.0  0.1118
  H  H244  1  0.463100  0.182800  0.761500  1.0  0.1154
  H  H245  1  0.685100  0.220500  0.692600  1.0  0.086
  H  H246  1  0.726900  0.184100  0.696200  1.0  0.0854
  H  H247  1  0.340200  0.235400  0.792700  1.0  0.1124
  H  H248  1  0.392900  0.265700  0.776900  1.0  0.1211
  H  H249  1  0.452500  0.235700  0.800800  1.0  0.1084
  H  H250  1  0.975600  0.229200  0.668700  1.0  0.1268
  H  H251  1  0.897700  0.180400  0.721200  1.0  0.0917
  H  H252  1  0.842100  0.219900  0.676800  1.0  0.0915
  H  H253  1  0.838700  0.242700  0.717300  1.0  0.0782
  H  H254  1  0.677900  0.195900  0.761300  1.0  0.0869
  H  H255  1  0.737500  0.228700  0.767300  1.0  0.0895
  H  H256  1  0.817200  0.190600  0.818000  1.0  0.058
  H  H257  1  0.817600  0.164400  0.780300  1.0  0.0673
  H  H258  1  0.910100  0.224200  0.791300  1.0  0.087
  H  H259  1  0.937100  0.159600  0.839500  1.0  0.1188
  H  H260  1  0.296500  0.125300  0.948500  1.0  0.113
  H  H261  1  0.015500  0.118500  0.891900  1.0  0.121
  H  H262  1  0.400900  0.220300  0.903400  1.0  0.1086
  H  H263  1  0.312000  0.214700  0.924700  1.0  0.1145
  H  H264  1  0.298200  0.216000  0.873000  1.0  0.1147
  H  H265  1  0.463800  0.171900  0.864700  1.0  0.119
  H  H266  1  0.361800  0.168200  0.833500  1.0  0.1166
  H  H267  1  0.410500  0.137700  0.860800  1.0  0.1161
  H  H268  1  0.486100  0.172900  0.943500  1.0  0.1111
  H  H269  1  0.436800  0.138100  0.942600  1.0  0.1136
  H  H270  1  0.400000  0.167900  0.966800  1.0  0.1124
  H  H271  1  0.913200  0.991400  0.886100  1.0  0.1171
  H  H272  1  0.180900  0.989600  0.864700  1.0  0.1187
  H  H273  1  0.300200  0.970200  0.785800  1.0  0.127
  H  H274  1  0.279000  0.965200  0.833000  1.0  0.1189
  H  H275  1  0.262500  0.999900  0.810000  1.0  0.1112
  H  H276  1  0.086100  0.922700  0.760700  1.0  0.1158
  H  H277  1  0.170500  0.917200  0.802000  1.0  0.123
  H  H278  1  0.192800  0.923700  0.755300  1.0  0.1155
  H  H279  1  0.070900  0.980800  0.723600  1.0  0.1167
  H  H280  1  0.180100  0.978500  0.722700  1.0  0.1167
  H  H281  1  0.141700  0.008800  0.745500  1.0  0.116
  H  H282  1  0.777600  0.973200  0.832500  1.0  0.1479
  H  H283  1  0.626500  0.958900  0.820800  1.0  0.0861
  H  H284  1  0.632400  0.996700  0.808200  1.0  0.0815
  H  H285  1  0.405600  0.945800  0.731400  1.0  0.0971
  H  H286  1  0.480600  0.924200  0.763900  1.0  0.0883
  H  H287  1  0.507500  0.950000  0.681900  1.0  0.0999
  H  H288  1  0.503600  0.912000  0.694200  1.0  0.1494
  H  H289  1  0.609800  0.910500  0.659800  1.0  0.1795
  H  H290  1  0.657100  0.983200  0.739000  1.0  0.1166
  H  H291  1  0.469000  0.976800  0.791600  1.0  0.0945
  H  H292  1  0.499300  0.992200  0.750500  1.0  0.0928
  H  H293  1  0.646800  0.916600  0.752300  1.0  0.1163
  H  H294  1  0.893500  0.877500  0.561100  1.0  0.1334
  H  H295  1  0.648700  0.871300  0.604800  1.0  0.1178
  H  H296  1  0.126100  0.923600  0.648100  1.0  0.1143
  H  H297  1  0.066400  0.893200  0.658700  1.0  0.1209
  H  H298  1  0.049100  0.928500  0.676700  1.0  0.1013
  H  H299  1  0.076000  0.929600  0.565700  1.0  0.1142
  H  H300  1  0.967300  0.927600  0.541900  1.0  0.1106
  H  H301  1  0.023300  0.895300  0.560000  1.0  0.1267
  H  H302  1  0.041400  0.971200  0.612500  1.0  0.1122
  H  H303  1  0.967500  0.966700  0.642800  1.0  0.1135
  H  H304  1  0.931100  0.969800  0.591400  1.0  0.1103
  H  H305  1  0.203200  0.675100  0.553800  1.0  0.1173
  H  H306  1  0.487100  0.678600  0.605200  1.0  0.1297
  H  H307  1  0.190700  0.580900  0.575600  1.0  0.116
  H  H308  1  0.095000  0.577800  0.592300  1.0  0.1092
  H  H309  1  0.193700  0.579900  0.626500  1.0  0.1145
  H  H310  1  0.096000  0.657800  0.639900  1.0  0.1192
  H  H311  1  0.140000  0.625700  0.664800  1.0  0.1121
  H  H312  1  0.038800  0.624400  0.632400  1.0  0.1141
  H  H313  1  0.067900  0.659200  0.555500  1.0  0.1198
  H  H314  1  0.013100  0.625800  0.558300  1.0  0.116
  H  H315  1  0.093700  0.627500  0.531100  1.0  0.1089
  H  H316  1  0.552100  0.644100  0.664700  1.0  0.121
  H  H317  1  0.595600  0.629200  0.755600  1.0  0.1382
  H  H318  1  0.688300  0.642100  0.709700  1.0  0.0888
  H  H319  1  0.691900  0.605100  0.694200  1.0  0.0896
  H  H320  1  0.832300  0.612400  0.750200  1.0  0.0771
  H  H321  1  0.774000  0.629100  0.782000  1.0  0.079
  H  H322  1  0.813900  0.572700  0.800500  1.0  0.0894
  H  H323  1  0.747500  0.562400  0.755100  1.0  0.0819
  H  H324  1  0.671600  0.596900  0.820600  1.0  0.0773
  H  H325  1  0.666000  0.557800  0.816000  1.0  0.1015
  H  H326  1  0.580100  0.562300  0.740000  1.0  0.0945
  H  H327  1  0.526000  0.569300  0.828300  1.0  0.1046
  H  H328  1  0.143000  0.565000  0.848700  1.0  0.1199
  H  H329  1  0.431100  0.559500  0.880500  1.0  0.1165
  H  H330  1  0.044900  0.570000  0.700300  1.0  0.1159
  H  H331  1  0.110300  0.542000  0.726200  1.0  0.1213
  H  H332  1  0.156800  0.572300  0.706900  1.0  0.1135
  H  H333  1  0.966200  0.579100  0.763100  1.0  0.0998
  H  H334  1  0.025400  0.590500  0.809500  1.0  0.1239
  H  H335  1  0.029600  0.553500  0.794700  1.0  0.1248
  H  H336  1  0.039400  0.623800  0.728100  1.0  0.1055
  H  H337  1  0.151200  0.628200  0.738000  1.0  0.1101
  H  H338  1  0.095100  0.634500  0.775500  1.0  0.1204
  H  H339  1  0.346000  0.427600  0.893100  1.0  0.1211
  H  H340  1  0.094200  0.427100  0.931300  1.0  0.1203
  H  H341  1  0.954600  0.383400  0.817800  1.0  0.1182
  H  H342  1  0.926500  0.412600  0.845900  1.0  0.1177
  H  H343  1  0.872300  0.378700  0.843500  1.0  0.1235
  H  H344  1  0.048000  0.331000  0.865200  1.0  0.1173
  H  H345  1  0.959600  0.328500  0.887600  1.0  0.1094
  H  H346  1  0.063000  0.333700  0.916900  1.0  0.1179
  H  H347  1  0.950600  0.410200  0.922300  1.0  0.113
  H  H348  1  0.008200  0.381900  0.951200  1.0  0.1101
  H  H349  1  0.905100  0.374900  0.922600  1.0  0.1098
  H  H350  1  0.375200  0.394100  0.840900  1.0  0.1016
  H  H351  1  0.375300  0.328300  0.788100  1.0  0.0813
  H  H352  1  0.488000  0.359700  0.819000  1.0  0.0821
  H  H353  1  0.463600  0.385400  0.780100  1.0  0.0764
  H  H354  1  0.532700  0.320200  0.771300  1.0  0.0804
  H  H355  1  0.593200  0.352700  0.770600  1.0  0.0887
  H  H356  1  0.493100  0.369200  0.702900  1.0  0.0879
  H  H357  1  0.525300  0.332400  0.696400  1.0  0.0794
  H  H358  1  0.355500  0.339100  0.674100  1.0  0.0844
  H  H359  1  0.385500  0.311300  0.709500  1.0  0.0814
  H  H360  1  0.327900  0.371000  0.718500  1.0  0.0988
  H  H361  1  0.210200  0.319600  0.667300  1.0  0.1265
  H  H362  1  0.814500  0.310000  0.633000  1.0  0.1215
  H  H363  1  0.082700  0.308800  0.612100  1.0  0.1141
  H  H364  1  0.794000  0.364500  0.754400  1.0  0.1172
  H  H365  1  0.816700  0.378200  0.710300  1.0  0.122
  H  H366  1  0.900600  0.371200  0.751300  1.0  0.1179
  H  H367  1  0.839300  0.315400  0.783200  1.0  0.1177
  H  H368  1  0.945200  0.321300  0.778600  1.0  0.1091
  H  H369  1  0.892100  0.288400  0.760900  1.0  0.1215
  H  H370  1  0.705900  0.315500  0.719100  1.0  0.1152
  H  H371  1  0.756800  0.288700  0.695600  1.0  0.113
  H  H372  1  0.721000  0.321900  0.671100  1.0  0.1216
  H  H373  1  0.146700  0.742700  0.348400  1.0  0.1179
  H  H374  1  0.435100  0.741900  0.381200  1.0  0.1177
  H  H375  1  0.020600  0.728200  0.308400  1.0  0.1204
  H  H376  1  0.966000  0.731800  0.258800  1.0  0.1053
  H  H377  1  0.026500  0.761500  0.283000  1.0  0.1272
  H  H378  1  0.099900  0.676400  0.286000  1.0  0.1111
  H  H379  1  0.148200  0.678200  0.245200  1.0  0.1114
  H  H380  1  0.036900  0.682800  0.238500  1.0  0.1129
  H  H381  1  0.814900  0.720500  0.307400  1.0  0.0869
  H  H382  1  0.773100  0.684100  0.303800  1.0  0.086
  H  H383  1  0.159800  0.735400  0.207300  1.0  0.1127
  H  H384  1  0.107100  0.765700  0.223100  1.0  0.1223
  H  H385  1  0.047500  0.735700  0.199200  1.0  0.1084
  H  H386  1  0.524400  0.729200  0.331300  1.0  0.1273
  H  H387  1  0.602300  0.680400  0.278800  1.0  0.0922
  H  H388  1  0.657900  0.719900  0.323200  1.0  0.0902
  H  H389  1  0.661300  0.742700  0.282700  1.0  0.0769
  H  H390  1  0.822100  0.695900  0.238700  1.0  0.0879
  H  H391  1  0.762500  0.728700  0.232700  1.0  0.0907
  H  H392  1  0.682800  0.690600  0.182000  1.0  0.0592
  H  H393  1  0.682400  0.664400  0.219700  1.0  0.0677
  H  H394  1  0.589900  0.724200  0.208700  1.0  0.0866
  H  H395  1  0.562900  0.659600  0.160500  1.0  0.1161
  H  H396  1  0.203500  0.625300  0.051500  1.0  0.1129
  H  H397  1  0.484500  0.618500  0.108100  1.0  0.1209
  H  H398  1  0.099100  0.720300  0.096600  1.0  0.1105
  H  H399  1  0.188000  0.714700  0.075300  1.0  0.1148
  H  H400  1  0.201800  0.716000  0.127000  1.0  0.1125
  H  H401  1  0.036200  0.671900  0.135300  1.0  0.1171
  H  H402  1  0.138200  0.668200  0.166500  1.0  0.1159
  H  H403  1  0.089500  0.637700  0.139200  1.0  0.1164
  H  H404  1  0.013900  0.672900  0.056500  1.0  0.112
  H  H405  1  0.063200  0.638100  0.057400  1.0  0.115
  H  H406  1  0.100000  0.667900  0.033200  1.0  0.1112
  H  H407  1  0.586800  0.491400  0.113900  1.0  0.117
  H  H408  1  0.319100  0.489600  0.135300  1.0  0.1184
  H  H409  1  0.199800  0.470200  0.214200  1.0  0.1266
  H  H410  1  0.221000  0.465200  0.167000  1.0  0.1191
  H  H411  1  0.237500  0.499900  0.190000  1.0  0.1119
  H  H412  1  0.413900  0.422700  0.239300  1.0  0.1151
  H  H413  1  0.329500  0.417200  0.198000  1.0  0.1212
  H  H414  1  0.307200  0.423700  0.244700  1.0  0.1162
  H  H415  1  0.429100  0.480800  0.276400  1.0  0.1145
  H  H416  1  0.319900  0.478500  0.277300  1.0  0.1179
  H  H417  1  0.358300  0.508800  0.254500  1.0  0.1147
  H  H418  1  0.722400  0.473200  0.167500  1.0  0.1468
  H  H419  1  0.873500  0.458900  0.179200  1.0  0.0856
  H  H420  1  0.867600  0.496700  0.191800  1.0  0.0832
  H  H421  1  0.094400  0.445800  0.268600  1.0  0.097
  H  H422  1  0.019400  0.424200  0.236100  1.0  0.0887
  H  H423  1  0.992500  0.450000  0.318100  1.0  0.0995
  H  H424  1  0.996400  0.412000  0.305800  1.0  0.1491
  H  H425  1  0.890200  0.410500  0.340200  1.0  0.1766
  H  H426  1  0.842900  0.483200  0.261000  1.0  0.1146
  H  H427  1  0.031000  0.476800  0.208400  1.0  0.0949
  H  H428  1  0.000700  0.492200  0.249500  1.0  0.0915
  H  H429  1  0.853200  0.416600  0.247700  1.0  0.1163
  H  H430  1  0.606500  0.377500  0.438900  1.0  0.1333
  H  H431  1  0.851300  0.371300  0.395200  1.0  0.1178
  H  H432  1  0.373900  0.423600  0.351900  1.0  0.1117
  H  H433  1  0.433600  0.393200  0.341300  1.0  0.1194
  H  H434  1  0.450900  0.428500  0.323300  1.0  0.1014
  H  H435  1  0.424000  0.429600  0.434300  1.0  0.1136
  H  H436  1  0.532700  0.427600  0.458100  1.0  0.1114
  H  H437  1  0.476700  0.395300  0.440000  1.0  0.1261
  H  H438  1  0.458600  0.471200  0.387500  1.0  0.113
  H  H439  1  0.532500  0.466700  0.357200  1.0  0.1141
  H  H440  1  0.568900  0.469800  0.408600  1.0  0.1107
  H  H441  1  0.703200  0.175100  0.553800  1.0  0.1173
  H  H442  1  0.987100  0.178600  0.605200  1.0  0.1297
  H  H443  1  0.690700  0.080900  0.575600  1.0  0.116
  H  H444  1  0.595000  0.077800  0.592300  1.0  0.1084
  H  H445  1  0.693700  0.079900  0.626500  1.0  0.1145
  H  H446  1  0.596000  0.157800  0.639900  1.0  0.1192
  H  H447  1  0.640000  0.125700  0.664800  1.0  0.1121
  H  H448  1  0.538800  0.124400  0.632400  1.0  0.1141
  H  H449  1  0.567900  0.159200  0.555500  1.0  0.1198
  H  H450  1  0.513100  0.125800  0.558300  1.0  0.116
  H  H451  1  0.593700  0.127500  0.531100  1.0  0.1089
  H  H452  1  0.052100  0.144100  0.664700  1.0  0.121
  H  H453  1  0.095600  0.129200  0.755600  1.0  0.1382
  H  H454  1  0.188300  0.142100  0.709700  1.0  0.0888
  H  H455  1  0.191900  0.105100  0.694200  1.0  0.0896
  H  H456  1  0.332300  0.112400  0.750200  1.0  0.0771
  H  H457  1  0.274000  0.129100  0.782000  1.0  0.079
  H  H458  1  0.313900  0.072700  0.800500  1.0  0.0894
  H  H459  1  0.247500  0.062400  0.755100  1.0  0.0819
  H  H460  1  0.171600  0.096900  0.820600  1.0  0.0773
  H  H461  1  0.166000  0.057800  0.816000  1.0  0.1015
  H  H462  1  0.080100  0.062300  0.740000  1.0  0.0945
  H  H463  1  0.026000  0.069300  0.828300  1.0  0.1046
  H  H464  1  0.643000  0.065000  0.848700  1.0  0.1199
  H  H465  1  0.931100  0.059500  0.880500  1.0  0.1165
  H  H466  1  0.544900  0.070000  0.700300  1.0  0.1159
  H  H467  1  0.610300  0.042000  0.726200  1.0  0.1213
  H  H468  1  0.656800  0.072300  0.706900  1.0  0.1135
  H  H469  1  0.466200  0.079100  0.763100  1.0  0.0998
  H  H470  1  0.525400  0.090500  0.809500  1.0  0.1239
  H  H471  1  0.529600  0.053500  0.794700  1.0  0.1248
  H  H472  1  0.539400  0.123800  0.728100  1.0  0.1055
  H  H473  1  0.651200  0.128200  0.738000  1.0  0.1101
  H  H474  1  0.595100  0.134500  0.775500  1.0  0.1204
  H  H475  1  0.846000  0.927600  0.893100  1.0  0.1211
  H  H476  1  0.594200  0.927100  0.931300  1.0  0.1203
  H  H477  1  0.454600  0.883400  0.817800  1.0  0.1182
  H  H478  1  0.426500  0.912600  0.845900  1.0  0.1177
  H  H479  1  0.372300  0.878700  0.843500  1.0  0.1235
  H  H480  1  0.548000  0.831000  0.865200  1.0  0.1173
  H  H481  1  0.459600  0.828500  0.887600  1.0  0.1094
  H  H482  1  0.563000  0.833700  0.916900  1.0  0.1179
  H  H483  1  0.450600  0.910200  0.922300  1.0  0.113
  H  H484  1  0.508200  0.881900  0.951200  1.0  0.1101
  H  H485  1  0.405100  0.874900  0.922600  1.0  0.1098
  H  H486  1  0.875200  0.894100  0.840900  1.0  0.1016
  H  H487  1  0.875300  0.828300  0.788100  1.0  0.0813
  H  H488  1  0.988000  0.859700  0.819000  1.0  0.0821
  H  H489  1  0.963600  0.885400  0.780100  1.0  0.0764
  H  H490  1  0.032700  0.820200  0.771300  1.0  0.0804
  H  H491  1  0.093200  0.852700  0.770600  1.0  0.0887
  H  H492  1  0.993100  0.869200  0.702900  1.0  0.0879
  H  H493  1  0.025300  0.832400  0.696400  1.0  0.0794
  H  H494  1  0.855500  0.839100  0.674100  1.0  0.0844
  H  H495  1  0.885500  0.811300  0.709500  1.0  0.0814
  H  H496  1  0.827900  0.871000  0.718500  1.0  0.0988
  H  H497  1  0.710200  0.819600  0.667300  1.0  0.1265
  H  H498  1  0.314500  0.810000  0.633000  1.0  0.1215
  H  H499  1  0.582700  0.808800  0.612100  1.0  0.1141
  H  H500  1  0.294000  0.864500  0.754400  1.0  0.1172
  H  H501  1  0.316700  0.878200  0.710300  1.0  0.122
  H  H502  1  0.400600  0.871200  0.751300  1.0  0.1179
  H  H503  1  0.339300  0.815400  0.783200  1.0  0.1177
  H  H504  1  0.445200  0.821300  0.778600  1.0  0.1091
  H  H505  1  0.392100  0.788400  0.760900  1.0  0.1215
  H  H506  1  0.205900  0.815500  0.719100  1.0  0.1152
  H  H507  1  0.256800  0.788700  0.695600  1.0  0.113
  H  H508  1  0.221000  0.821900  0.671100  1.0  0.1216
  H  H509  1  0.646700  0.242700  0.348400  1.0  0.1179
  H  H510  1  0.935100  0.241900  0.381200  1.0  0.1177
  H  H511  1  0.520600  0.228200  0.308400  1.0  0.1204
  H  H512  1  0.466000  0.231800  0.258800  1.0  0.1053
  H  H513  1  0.526500  0.261500  0.283000  1.0  0.1272
  H  H514  1  0.599900  0.176400  0.286000  1.0  0.1111
  H  H515  1  0.648200  0.178200  0.245200  1.0  0.1114
  H  H516  1  0.536900  0.182800  0.238500  1.0  0.1129
  H  H517  1  0.314900  0.220500  0.307400  1.0  0.0869
  H  H518  1  0.273100  0.184100  0.303800  1.0  0.086
  H  H519  1  0.659800  0.235400  0.207300  1.0  0.1127
  H  H520  1  0.607100  0.265700  0.223100  1.0  0.1223
  H  H521  1  0.547500  0.235700  0.199200  1.0  0.1084
  H  H522  1  0.024400  0.229200  0.331300  1.0  0.1273
  H  H523  1  0.102300  0.180400  0.278800  1.0  0.0922
  H  H524  1  0.157900  0.219900  0.323200  1.0  0.0902
  H  H525  1  0.161300  0.242700  0.282700  1.0  0.0769
  H  H526  1  0.322100  0.195900  0.238700  1.0  0.0879
  H  H527  1  0.262500  0.228700  0.232700  1.0  0.0907
  H  H528  1  0.182800  0.190600  0.182000  1.0  0.0592
  H  H529  1  0.182400  0.164400  0.219700  1.0  0.0677
  H  H530  1  0.089900  0.224200  0.208700  1.0  0.0866
  H  H531  1  0.062900  0.159600  0.160500  1.0  0.1161
  H  H532  1  0.703500  0.125300  0.051500  1.0  0.1129
  H  H533  1  0.984500  0.118500  0.108100  1.0  0.1209
  H  H534  1  0.599100  0.220300  0.096600  1.0  0.1105
  H  H535  1  0.688000  0.214700  0.075300  1.0  0.1148
  H  H536  1  0.701800  0.216000  0.127000  1.0  0.1125
  H  H537  1  0.536200  0.171900  0.135300  1.0  0.1171
  H  H538  1  0.638200  0.168200  0.166500  1.0  0.1159
  H  H539  1  0.589500  0.137700  0.139200  1.0  0.1164
  H  H540  1  0.513900  0.172900  0.056500  1.0  0.112
  H  H541  1  0.563200  0.138100  0.057400  1.0  0.115
  H  H542  1  0.600000  0.167900  0.033200  1.0  0.1112
  H  H543  1  0.086800  0.991400  0.113900  1.0  0.117
  H  H544  1  0.819100  0.989600  0.135300  1.0  0.1184
  H  H545  1  0.699800  0.970200  0.214200  1.0  0.1266
  H  H546  1  0.721000  0.965200  0.167000  1.0  0.1191
  H  H547  1  0.737500  0.999900  0.190000  1.0  0.1119
  H  H548  1  0.913900  0.922700  0.239300  1.0  0.1151
  H  H549  1  0.829500  0.917200  0.198000  1.0  0.1212
  H  H550  1  0.807200  0.923700  0.244700  1.0  0.1162
  H  H551  1  0.929100  0.980800  0.276400  1.0  0.1145
  H  H552  1  0.819900  0.978500  0.277300  1.0  0.1179
  H  H553  1  0.858300  0.008800  0.254500  1.0  0.1147
  H  H554  1  0.222400  0.973200  0.167500  1.0  0.1468
  H  H555  1  0.373500  0.958900  0.179200  1.0  0.0856
  H  H556  1  0.367600  0.996700  0.191800  1.0  0.0832
  H  H557  1  0.594400  0.945800  0.268600  1.0  0.097
  H  H558  1  0.519400  0.924200  0.236100  1.0  0.0887
  H  H559  1  0.492500  0.950000  0.318100  1.0  0.0995
  H  H560  1  0.496400  0.912000  0.305800  1.0  0.1491
  H  H561  1  0.390200  0.910500  0.340200  1.0  0.1766
  H  H562  1  0.342900  0.983200  0.261000  1.0  0.1146
  H  H563  1  0.531000  0.976800  0.208400  1.0  0.0949
  H  H564  1  0.500700  0.992200  0.249500  1.0  0.0915
  H  H565  1  0.353200  0.916600  0.247700  1.0  0.1163
  H  H566  1  0.106500  0.877500  0.438900  1.0  0.1333
  H  H567  1  0.351300  0.871300  0.395200  1.0  0.1178
  H  H568  1  0.873900  0.923600  0.351900  1.0  0.1117
  H  H569  1  0.933600  0.893200  0.341300  1.0  0.1194
  H  H570  1  0.950900  0.928500  0.323300  1.0  0.1014
  H  H571  1  0.924000  0.929600  0.434300  1.0  0.1136
  H  H572  1  0.032700  0.927600  0.458100  1.0  0.1114
  H  H573  1  0.976700  0.895300  0.440000  1.0  0.1261
  H  H574  1  0.958600  0.971200  0.387500  1.0  0.113
  H  H575  1  0.032500  0.966700  0.357200  1.0  0.1141
  H  H576  1  0.068900  0.969800  0.408600  1.0  0.1107
  C  C577  1  0.641600  0.711370  0.454500  1.0  0.7095
  C  C578  1  0.653200  0.680730  0.425680  1.0  -0.1157
  C  C579  1  0.743400  0.667890  0.425420  1.0  -0.1176
  C  C580  1  0.753800  0.644270  0.394100  1.0  0.0371
  C  C581  1  0.674000  0.633510  0.363000  1.0  0.3116
  C  C582  1  0.583700  0.646350  0.363280  1.0  -0.0083
  C  C583  1  0.573300  0.669960  0.394610  1.0  -0.1148
  C  C584  1  0.841900  0.587460  0.401800  1.0  -0.3813
  C  C585  1  0.850300  0.625720  0.401200  1.0  0.1059
  C  C586  1  0.898400  0.634200  0.362400  1.0  -0.3716
  C  C587  1  0.926100  0.635500  0.443000  1.0  -0.3535
  C  C588  1  0.506500  0.636800  0.330400  1.0  0.0627
  C  C589  1  0.407400  0.612300  0.267400  1.0  0.0621
  C  C590  1  0.313700  0.619200  0.281100  1.0  -0.1447
  C  C591  1  0.228200  0.612100  0.240300  1.0  -0.1505
  C  C592  1  0.243200  0.578800  0.221400  1.0  -0.1294
  C  C593  1  0.330300  0.578400  0.199700  1.0  -0.1556
  C  C594  1  0.416600  0.581900  0.241200  1.0  0.013
  C  C595  1  0.527100  0.576500  0.192700  1.0  0.0525
  C  C596  1  0.621700  0.574450  0.182490  1.0  -0.0978
  C  C597  1  0.706100  0.581320  0.213240  1.0  0.3302
  C  C598  1  0.794200  0.577800  0.201550  1.0  -0.0378
  C  C599  1  0.798000  0.567400  0.159100  1.0  -0.1325
  C  C600  1  0.713500  0.560500  0.128370  1.0  -0.1327
  C  C601  1  0.625400  0.564050  0.140050  1.0  -0.0952
  C  C602  1  0.889200  0.584370  0.236040  1.0  0.1688
  C  C603  1  0.894800  0.565400  0.279800  1.0  -0.3706
  C  C604  1  0.975100  0.576100  0.215200  1.0  -0.3549
  C  C605  1  0.902100  0.621180  0.249900  1.0  -0.381
  C  C606  1  0.718700  0.550600  0.083000  1.0  0.6828
  C  C607  1  0.734700  0.457400  0.045900  1.0  0.4712
  C  C608  1  0.774000  0.431210  0.082410  1.0  -0.1322
  C  C609  1  0.716400  0.419740  0.110100  1.0  -0.1168
  C  C610  1  0.752100  0.396500  0.142700  1.0  0.0725
  C  C611  1  0.845400  0.384700  0.147600  1.0  0.3883
  C  C612  1  0.902900  0.396200  0.119900  1.0  -0.0164
  C  C613  1  0.867200  0.419430  0.087300  1.0  -0.1376
  C  C614  1  0.992700  0.376740  0.114900  1.0  0.1858
  C  C615  1  0.066800  0.389000  0.155800  1.0  -0.345
  C  C616  1  0.979200  0.338900  0.110900  1.0  -0.3565
  C  C617  1  0.036200  0.386900  0.076100  1.0  -0.3713
  C  C618  1  0.687300  0.386200  0.167400  1.0  0.0719
  C  C619  1  0.629800  0.351200  0.222300  1.0  0.0118
  C  C620  1  0.537300  0.362000  0.212600  1.0  -0.1662
  C  C621  1  0.471000  0.343400  0.237200  1.0  -0.1544
  C  C622  1  0.510600  0.346400  0.287500  1.0  -0.122
  C  C623  1  0.614700  0.335100  0.295000  1.0  -0.1206
  C  C624  1  0.668400  0.347800  0.271700  1.0  0.0224
  C  C625  1  0.825400  0.326800  0.312700  1.0  0.0986
  C  C626  1  0.923900  0.323280  0.326010  1.0  -0.0099
  C  C627  1  0.986500  0.328970  0.298140  1.0  0.3777
  C  C628  1  0.084500  0.324000  0.313480  1.0  -0.0034
  C  C629  1  0.119900  0.313300  0.356700  1.0  -0.1164
  C  C630  1  0.057300  0.307600  0.384570  1.0  0.0459
  C  C631  1  0.959200  0.312610  0.369230  1.0  -0.1608
  C  C632  1  0.153300  0.328240  0.281100  1.0  0.1643
  C  C633  1  0.161300  0.363900  0.264700  1.0  -0.349
  C  C634  1  0.115600  0.311700  0.235200  1.0  -0.3585
  C  C635  1  0.251700  0.312000  0.300700  1.0  -0.3696
  C  C636  1  0.092400  0.299400  0.427400  1.0  0.5723
  C  C637  1  0.720000  0.755100  0.583160  1.0  0.7052
  C  C638  1  0.709500  0.744150  0.628230  1.0  -0.172
  C  C639  1  0.794700  0.738790  0.659180  1.0  -0.119
  C  C640  1  0.792200  0.727600  0.701410  1.0  -0.014
  C  C641  1  0.704500  0.721700  0.712690  1.0  0.2461
  C  C642  1  0.619400  0.727100  0.681740  1.0  0.0105
  C  C643  1  0.621800  0.738310  0.639510  1.0  -0.1351
  C  C644  1  0.887900  0.724830  0.735000  1.0  0.1193
  C  C645  1  0.977100  0.737800  0.719800  1.0  -0.3745
  C  C646  1  0.902100  0.686970  0.742000  1.0  -0.3707
  C  C647  1  0.235700  0.706200  0.708600  1.0  -0.1108
  C  C648  1  0.894000  0.742100  0.780700  1.0  -0.372
  C  C649  1  0.527400  0.723000  0.691100  1.0  0.1081
  C  C650  1  0.407600  0.703300  0.731660  1.0  -0.0207
  C  C651  1  0.335100  0.719900  0.707300  1.0  -0.1424
  C  C652  1  0.237200  0.705900  0.757300  1.0  -0.1459
  C  C653  1  0.320500  0.687900  0.787200  1.0  -0.1323
  C  C654  1  0.405900  0.701500  0.779930  1.0  0.0601
  C  C655  1  0.495200  0.665430  0.832700  1.0  0.1103
  C  C656  1  0.587500  0.650650  0.860820  1.0  -0.1108
  C  C657  1  0.677500  0.664190  0.861870  1.0  0.2428
  C  C658  1  0.755800  0.654670  0.894700  1.0  0.0201
  C  C659  1  0.744100  0.631600  0.926500  1.0  -0.1332
  C  C660  1  0.654100  0.618090  0.925400  1.0  -0.1484
  C  C661  1  0.575700  0.627600  0.892610  1.0  -0.0373
  C  C662  1  0.856200  0.670980  0.899130  1.0  0.1437
  C  C663  1  0.840300  0.709100  0.900100  1.0  -0.3696
  C  C664  1  0.902300  0.661300  0.861000  1.0  -0.3741
  C  C665  1  0.926300  0.661600  0.942000  1.0  -0.3585
  C  C666  1  0.592500  0.504100  0.931420  1.0  0.7083
  C  C667  1  0.644000  0.591680  0.959600  1.0  0.6745
  C  C668  1  0.553000  0.492370  0.882520  1.0  -0.107
  C  C669  1  0.454900  0.487340  0.867440  1.0  -0.074
  C  C670  1  0.419200  0.476200  0.824470  1.0  -0.0984
  C  C671  1  0.481500  0.470100  0.796580  1.0  0.2648
  C  C672  1  0.579600  0.475100  0.811660  1.0  0.0065
  C  C673  1  0.615300  0.486270  0.854630  1.0  -0.099
  C  C674  1  0.759000  0.476400  0.805200  1.0  -0.3468
  C  C675  1  0.654300  0.466540  0.783800  1.0  0.1264
  C  C676  1  0.650600  0.428970  0.774600  1.0  -0.3665
  C  C677  1  0.634900  0.485400  0.739800  1.0  -0.3802
  C  C678  1  0.315100  0.472100  0.811500  1.0  0.0891
  C  C679  1  0.115100  0.474600  0.796600  1.0  -0.1104
  C  C680  1  0.973700  0.443000  0.743800  1.0  -0.1696
  C  C681  1  0.022200  0.434000  0.705800  1.0  -0.1224
  C  C682  1  0.175300  0.414500  0.669300  1.0  0.0798
  C  C683  1  0.173000  0.464900  0.760100  1.0  0.0361
  C  C684  1  0.009500  0.473500  0.770500  1.0  -0.1499
  C  C685  1  0.138500  0.435300  0.731600  1.0  0.0541
  C  C686  1  0.246600  0.402370  0.640970  1.0  -0.0893
  C  C687  1  0.338200  0.415380  0.644710  1.0  0.2802
  C  C688  1  0.393200  0.406070  0.614800  1.0  0.0021
  C  C689  1  0.356600  0.383700  0.581100  1.0  -0.1396
  C  C690  1  0.265000  0.370730  0.577360  1.0  -0.1446
  C  C691  1  0.210000  0.380040  0.607290  1.0  -0.0528
  C  C692  1  0.564500  0.416500  0.652400  1.0  -0.3665
  C  C693  1  0.487600  0.423430  0.610100  1.0  0.108
  C  C694  1  0.516300  0.418500  0.565200  1.0  -0.3645
  C  C695  1  0.481300  0.461360  0.614600  1.0  -0.3499
  C  C696  1  0.226500  0.342500  0.548800  1.0  0.7161
  C  C697  1  0.141600  0.211370  0.454500  1.0  0.7095
  C  C698  1  0.153200  0.180730  0.425680  1.0  -0.1157
  C  C699  1  0.243400  0.167890  0.425420  1.0  -0.1176
  C  C700  1  0.253800  0.144270  0.394100  1.0  0.0371
  C  C701  1  0.174000  0.133510  0.363000  1.0  0.3116
  C  C702  1  0.083700  0.146350  0.363280  1.0  -0.0083
  C  C703  1  0.073300  0.169960  0.394610  1.0  -0.1148
  C  C704  1  0.341900  0.087460  0.401800  1.0  -0.3813
  C  C705  1  0.350300  0.125720  0.401200  1.0  0.1059
  C  C706  1  0.398400  0.134200  0.362400  1.0  -0.3716
  C  C707  1  0.426100  0.135500  0.443000  1.0  -0.3535
  C  C708  1  0.006500  0.136800  0.330400  1.0  0.0627
  C  C709  1  0.907400  0.112300  0.267400  1.0  0.0621
  C  C710  1  0.813700  0.119200  0.281100  1.0  -0.1447
  C  C711  1  0.728200  0.112100  0.240300  1.0  -0.1505
  C  C712  1  0.743200  0.078800  0.221400  1.0  -0.1294
  C  C713  1  0.830300  0.078400  0.199700  1.0  -0.1556
  C  C714  1  0.916600  0.081900  0.241200  1.0  0.013
  C  C715  1  0.027100  0.076500  0.192700  1.0  0.0525
  C  C716  1  0.121700  0.074450  0.182490  1.0  -0.0978
  C  C717  1  0.206100  0.081320  0.213240  1.0  0.3302
  C  C718  1  0.294200  0.077800  0.201550  1.0  -0.0378
  C  C719  1  0.298000  0.067400  0.159100  1.0  -0.1325
  C  C720  1  0.213500  0.060500  0.128370  1.0  -0.1327
  C  C721  1  0.125400  0.064050  0.140050  1.0  -0.0952
  C  C722  1  0.389200  0.084370  0.236040  1.0  0.1688
  C  C723  1  0.394800  0.065400  0.279800  1.0  -0.3706
  C  C724  1  0.475100  0.076100  0.215200  1.0  -0.3549
  C  C725  1  0.402100  0.121180  0.249900  1.0  -0.381
  C  C726  1  0.218700  0.050600  0.083000  1.0  0.6828
  C  C727  1  0.234700  0.957400  0.045900  1.0  0.4712
  C  C728  1  0.274000  0.931210  0.082410  1.0  -0.1322
  C  C729  1  0.216400  0.919740  0.110100  1.0  -0.1168
  C  C730  1  0.252100  0.896500  0.142700  1.0  0.0725
  C  C731  1  0.345400  0.884700  0.147600  1.0  0.3883
  C  C732  1  0.402900  0.896200  0.119900  1.0  -0.0164
  C  C733  1  0.367200  0.919430  0.087300  1.0  -0.1376
  C  C734  1  0.492700  0.876740  0.114900  1.0  0.1858
  C  C735  1  0.566800  0.889000  0.155800  1.0  -0.345
  C  C736  1  0.479200  0.838900  0.110900  1.0  -0.3565
  C  C737  1  0.536200  0.886900  0.076100  1.0  -0.3713
  C  C738  1  0.187300  0.886200  0.167400  1.0  0.0719
  C  C739  1  0.129800  0.851200  0.222300  1.0  0.0118
  C  C740  1  0.037300  0.862000  0.212600  1.0  -0.1662
  C  C741  1  0.971000  0.843400  0.237200  1.0  -0.1544
  C  C742  1  0.010600  0.846400  0.287500  1.0  -0.122
  C  C743  1  0.114700  0.835100  0.295000  1.0  -0.1206
  C  C744  1  0.168400  0.847800  0.271700  1.0  0.0224
  C  C745  1  0.325400  0.826800  0.312700  1.0  0.0986
  C  C746  1  0.423900  0.823280  0.326010  1.0  -0.0099
  C  C747  1  0.486500  0.828970  0.298140  1.0  0.3777
  C  C748  1  0.584500  0.824000  0.313480  1.0  -0.0034
  C  C749  1  0.619900  0.813300  0.356700  1.0  -0.1164
  C  C750  1  0.557300  0.807600  0.384570  1.0  0.0459
  C  C751  1  0.459200  0.812610  0.369230  1.0  -0.1608
  C  C752  1  0.653300  0.828240  0.281100  1.0  0.1643
  C  C753  1  0.661300  0.863900  0.264700  1.0  -0.349
  C  C754  1  0.615600  0.811700  0.235200  1.0  -0.3585
  C  C755  1  0.751700  0.812000  0.300700  1.0  -0.3696
  C  C756  1  0.592400  0.799400  0.427400  1.0  0.5723
  C  C757  1  0.220000  0.255100  0.583160  1.0  0.7052
  C  C758  1  0.209500  0.244150  0.628230  1.0  -0.172
  C  C759  1  0.294700  0.238790  0.659180  1.0  -0.119
  C  C760  1  0.292200  0.227600  0.701410  1.0  -0.014
  C  C761  1  0.204500  0.221700  0.712690  1.0  0.2461
  C  C762  1  0.119400  0.227100  0.681740  1.0  0.0105
  C  C763  1  0.121800  0.238310  0.639510  1.0  -0.1351
  C  C764  1  0.387900  0.224830  0.735000  1.0  0.1193
  C  C765  1  0.477100  0.237800  0.719800  1.0  -0.3745
  C  C766  1  0.402100  0.186970  0.742000  1.0  -0.3707
  C  C767  1  0.735700  0.206200  0.708600  1.0  -0.1108
  C  C768  1  0.394000  0.242100  0.780700  1.0  -0.372
  C  C769  1  0.027400  0.223000  0.691100  1.0  0.1081
  C  C770  1  0.907600  0.203300  0.731660  1.0  -0.0207
  C  C771  1  0.835100  0.219900  0.707300  1.0  -0.1424
  C  C772  1  0.737200  0.205900  0.757300  1.0  -0.1459
  C  C773  1  0.820500  0.187900  0.787200  1.0  -0.1323
  C  C774  1  0.905900  0.201500  0.779930  1.0  0.0601
  C  C775  1  0.995200  0.165430  0.832700  1.0  0.1103
  C  C776  1  0.087500  0.150650  0.860820  1.0  -0.1108
  C  C777  1  0.177500  0.164190  0.861870  1.0  0.2428
  C  C778  1  0.255800  0.154670  0.894700  1.0  0.0201
  C  C779  1  0.244100  0.131600  0.926500  1.0  -0.1332
  C  C780  1  0.154100  0.118090  0.925400  1.0  -0.1484
  C  C781  1  0.075700  0.127600  0.892610  1.0  -0.0373
  C  C782  1  0.356200  0.170980  0.899130  1.0  0.1437
  C  C783  1  0.340300  0.209100  0.900100  1.0  -0.3696
  C  C784  1  0.402300  0.161300  0.861000  1.0  -0.3741
  C  C785  1  0.426300  0.161600  0.942000  1.0  -0.3585
  C  C786  1  0.092500  0.004100  0.931420  1.0  0.7083
  C  C787  1  0.144000  0.091680  0.959600  1.0  0.6745
  C  C788  1  0.053000  0.992370  0.882520  1.0  -0.107
  C  C789  1  0.954900  0.987340  0.867440  1.0  -0.074
  C  C790  1  0.919200  0.976200  0.824470  1.0  -0.0984
  C  C791  1  0.981500  0.970100  0.796580  1.0  0.2648
  C  C792  1  0.079600  0.975100  0.811660  1.0  0.0065
  C  C793  1  0.115300  0.986270  0.854630  1.0  -0.099
  C  C794  1  0.259000  0.976400  0.805200  1.0  -0.3468
  C  C795  1  0.154300  0.966540  0.783800  1.0  0.1264
  C  C796  1  0.150600  0.928970  0.774600  1.0  -0.3665
  C  C797  1  0.134900  0.985400  0.739800  1.0  -0.3802
  C  C798  1  0.815100  0.972100  0.811500  1.0  0.0891
  C  C799  1  0.615100  0.974600  0.796600  1.0  -0.1104
  C  C800  1  0.473700  0.943000  0.743800  1.0  -0.1696
  C  C801  1  0.522200  0.934000  0.705800  1.0  -0.1224
  C  C802  1  0.675300  0.914500  0.669300  1.0  0.0798
  C  C803  1  0.673000  0.964900  0.760100  1.0  0.0361
  C  C804  1  0.509500  0.973500  0.770500  1.0  -0.1499
  C  C805  1  0.638500  0.935300  0.731600  1.0  0.0541
  C  C806  1  0.746600  0.902370  0.640970  1.0  -0.0893
  C  C807  1  0.838200  0.915380  0.644710  1.0  0.2802
  C  C808  1  0.893200  0.906070  0.614800  1.0  0.0021
  C  C809  1  0.856600  0.883700  0.581100  1.0  -0.1396
  C  C810  1  0.765000  0.870730  0.577360  1.0  -0.1446
  C  C811  1  0.710000  0.880040  0.607290  1.0  -0.0528
  C  C812  1  0.064500  0.916500  0.652400  1.0  -0.3665
  C  C813  1  0.987600  0.923430  0.610100  1.0  0.108
  C  C814  1  0.016300  0.918500  0.565200  1.0  -0.3645
  C  C815  1  0.981300  0.961360  0.614600  1.0  -0.3499
  C  C816  1  0.726500  0.842500  0.548800  1.0  0.7161
  C  C817  1  0.358400  0.711370  0.545500  1.0  0.7089
  C  C818  1  0.346800  0.680730  0.574320  1.0  -0.1195
  C  C819  1  0.256600  0.667890  0.574580  1.0  -0.1148
  C  C820  1  0.246200  0.644270  0.605900  1.0  0.0369
  C  C821  1  0.326000  0.633510  0.637000  1.0  0.3102
  C  C822  1  0.416300  0.646350  0.636720  1.0  -0.0126
  C  C823  1  0.426700  0.669960  0.605390  1.0  -0.1149
  C  C824  1  0.158100  0.587460  0.598200  1.0  -0.3826
  C  C825  1  0.149700  0.625720  0.598800  1.0  0.1061
  C  C826  1  0.101600  0.634200  0.637600  1.0  -0.372
  C  C827  1  0.073900  0.635500  0.557000  1.0  -0.3551
  C  C828  1  0.493500  0.636800  0.669600  1.0  0.0601
  C  C829  1  0.592600  0.612300  0.732600  1.0  0.0599
  C  C830  1  0.686300  0.619200  0.718900  1.0  -0.1467
  C  C831  1  0.771800  0.612100  0.759700  1.0  -0.1512
  C  C832  1  0.756800  0.578800  0.778600  1.0  -0.1306
  C  C833  1  0.669700  0.578400  0.800300  1.0  -0.1579
  C  C834  1  0.583400  0.581900  0.758800  1.0  0.0097
  C  C835  1  0.472900  0.576500  0.807300  1.0  0.0543
  C  C836  1  0.378300  0.574450  0.817510  1.0  -0.0985
  C  C837  1  0.293900  0.581320  0.786760  1.0  0.3329
  C  C838  1  0.205800  0.577800  0.798450  1.0  -0.0391
  C  C839  1  0.202000  0.567400  0.840900  1.0  -0.1333
  C  C840  1  0.286500  0.560500  0.871630  1.0  -0.1344
  C  C841  1  0.374600  0.564050  0.859950  1.0  -0.0951
  C  C842  1  0.110800  0.584370  0.763960  1.0  0.1691
  C  C843  1  0.105200  0.565400  0.720200  1.0  -0.3698
  C  C844  1  0.024900  0.576100  0.784800  1.0  -0.3548
  C  C845  1  0.097900  0.621180  0.750100  1.0  -0.3805
  C  C846  1  0.281300  0.550600  0.917000  1.0  0.6814
  C  C847  1  0.265300  0.457400  0.954100  1.0  0.4723
  C  C848  1  0.226000  0.431210  0.917590  1.0  -0.1286
  C  C849  1  0.283600  0.419740  0.889900  1.0  -0.1191
  C  C850  1  0.247900  0.396500  0.857300  1.0  0.0757
  C  C851  1  0.154600  0.384700  0.852400  1.0  0.3858
  C  C852  1  0.097100  0.396200  0.880100  1.0  -0.0157
  C  C853  1  0.132800  0.419430  0.912700  1.0  -0.1367
  C  C854  1  0.007300  0.376740  0.885100  1.0  0.1846
  C  C855  1  0.933200  0.389000  0.844200  1.0  -0.347
  C  C856  1  0.020800  0.338900  0.889100  1.0  -0.3569
  C  C857  1  0.963800  0.386900  0.923900  1.0  -0.3704
  C  C858  1  0.312700  0.386200  0.832600  1.0  0.0742
  C  C859  1  0.370200  0.351200  0.777700  1.0  0.0138
  C  C860  1  0.462700  0.362000  0.787400  1.0  -0.1664
  C  C861  1  0.529000  0.343400  0.762800  1.0  -0.1545
  C  C862  1  0.489400  0.346400  0.712500  1.0  -0.1216
  C  C863  1  0.385300  0.335100  0.705000  1.0  -0.1188
  C  C864  1  0.331600  0.347800  0.728300  1.0  0.023
  C  C865  1  0.174600  0.326800  0.687300  1.0  0.0993
  C  C866  1  0.076100  0.323280  0.673990  1.0  -0.0116
  C  C867  1  0.013500  0.328970  0.701860  1.0  0.3791
  C  C868  1  0.915500  0.324000  0.686520  1.0  -0.004
  C  C869  1  0.880100  0.313300  0.643300  1.0  -0.1187
  C  C870  1  0.942700  0.307600  0.615430  1.0  0.0456
  C  C871  1  0.040800  0.312610  0.630770  1.0  -0.161
  C  C872  1  0.846700  0.328240  0.718900  1.0  0.1621
  C  C873  1  0.838700  0.363900  0.735300  1.0  -0.3484
  C  C874  1  0.884400  0.311700  0.764800  1.0  -0.3595
  C  C875  1  0.748300  0.312000  0.699300  1.0  -0.3706
  C  C876  1  0.907600  0.299400  0.572600  1.0  0.5776
  C  C877  1  0.280000  0.755100  0.416840  1.0  0.7074
  C  C878  1  0.290500  0.744150  0.371770  1.0  -0.1692
  C  C879  1  0.205300  0.738790  0.340820  1.0  -0.1237
  C  C880  1  0.207800  0.727600  0.298590  1.0  -0.0128
  C  C881  1  0.295500  0.721700  0.287310  1.0  0.2474
  C  C882  1  0.380600  0.727100  0.318260  1.0  0.0109
  C  C883  1  0.378200  0.738310  0.360490  1.0  -0.1373
  C  C884  1  0.112100  0.724830  0.265000  1.0  0.1204
  C  C885  1  0.022900  0.737800  0.280200  1.0  -0.375
  C  C886  1  0.097900  0.686970  0.258000  1.0  -0.3694
  C  C887  1  0.764300  0.706200  0.291400  1.0  -0.1117
  C  C888  1  0.106000  0.742100  0.219300  1.0  -0.371
  C  C889  1  0.472600  0.723000  0.308900  1.0  0.1074
  C  C890  1  0.592400  0.703300  0.268340  1.0  -0.0225
  C  C891  1  0.664900  0.719900  0.292700  1.0  -0.1429
  C  C892  1  0.762800  0.705900  0.242700  1.0  -0.1492
  C  C893  1  0.679500  0.687900  0.212800  1.0  -0.1334
  C  C894  1  0.594100  0.701500  0.220070  1.0  0.0625
  C  C895  1  0.504800  0.665430  0.167300  1.0  0.1147
  C  C896  1  0.412500  0.650650  0.139180  1.0  -0.1084
  C  C897  1  0.322500  0.664190  0.138130  1.0  0.2426
  C  C898  1  0.244200  0.654670  0.105300  1.0  0.0192
  C  C899  1  0.255900  0.631600  0.073500  1.0  -0.1341
  C  C900  1  0.345900  0.618090  0.074600  1.0  -0.1499
  C  C901  1  0.424300  0.627600  0.107390  1.0  -0.0399
  C  C902  1  0.143800  0.670980  0.100870  1.0  0.1437
  C  C903  1  0.159700  0.709100  0.099900  1.0  -0.3688
  C  C904  1  0.097700  0.661300  0.139000  1.0  -0.3734
  C  C905  1  0.073700  0.661600  0.058000  1.0  -0.3622
  C  C906  1  0.407500  0.504100  0.068580  1.0  0.71
  C  C907  1  0.356000  0.591680  0.040400  1.0  0.6774
  C  C908  1  0.447000  0.492370  0.117480  1.0  -0.1068
  C  C909  1  0.545100  0.487340  0.132560  1.0  -0.0747
  C  C910  1  0.580800  0.476200  0.175530  1.0  -0.0979
  C  C911  1  0.518500  0.470100  0.203420  1.0  0.2643
  C  C912  1  0.420400  0.475100  0.188340  1.0  0.0067
  C  C913  1  0.384700  0.486270  0.145370  1.0  -0.0995
  C  C914  1  0.241000  0.476400  0.194800  1.0  -0.3485
  C  C915  1  0.345700  0.466540  0.216200  1.0  0.1256
  C  C916  1  0.349400  0.428970  0.225400  1.0  -0.3666
  C  C917  1  0.365100  0.485400  0.260200  1.0  -0.3825
  C  C918  1  0.684900  0.472100  0.188500  1.0  0.0886
  C  C919  1  0.884900  0.474600  0.203400  1.0  -0.11
  C  C920  1  0.026300  0.443000  0.256200  1.0  -0.1712
  C  C921  1  0.977800  0.434000  0.294200  1.0  -0.1258
  C  C922  1  0.824700  0.414500  0.330700  1.0  0.0785
  C  C923  1  0.827000  0.464900  0.239900  1.0  0.0381
  C  C924  1  0.990500  0.473500  0.229500  1.0  -0.1496
  C  C925  1  0.861500  0.435300  0.268400  1.0  0.0536
  C  C926  1  0.753400  0.402370  0.359030  1.0  -0.092
  C  C927  1  0.661800  0.415380  0.355290  1.0  0.279
  C  C928  1  0.606800  0.406070  0.385200  1.0  0.0035
  C  C929  1  0.643400  0.383700  0.418900  1.0  -0.1396
  C  C930  1  0.735000  0.370730  0.422640  1.0  -0.1433
  C  C931  1  0.790000  0.380040  0.392710  1.0  -0.0508
  C  C932  1  0.435500  0.416500  0.347600  1.0  -0.368
  C  C933  1  0.512400  0.423430  0.389900  1.0  0.1076
  C  C934  1  0.483700  0.418500  0.434800  1.0  -0.3625
  C  C935  1  0.518700  0.461360  0.385400  1.0  -0.3525
  C  C936  1  0.773500  0.342500  0.451200  1.0  0.718
  C  C937  1  0.858400  0.211370  0.545500  1.0  0.7089
  C  C938  1  0.846800  0.180730  0.574320  1.0  -0.1195
  C  C939  1  0.756600  0.167890  0.574580  1.0  -0.1148
  C  C940  1  0.746200  0.144270  0.605900  1.0  0.0369
  C  C941  1  0.826000  0.133510  0.637000  1.0  0.3102
  C  C942  1  0.916300  0.146350  0.636720  1.0  -0.0126
  C  C943  1  0.926700  0.169960  0.605390  1.0  -0.1149
  C  C944  1  0.658100  0.087460  0.598200  1.0  -0.3826
  C  C945  1  0.649700  0.125720  0.598800  1.0  0.1061
  C  C946  1  0.601600  0.134200  0.637600  1.0  -0.372
  C  C947  1  0.573900  0.135500  0.557000  1.0  -0.3551
  C  C948  1  0.993500  0.136800  0.669600  1.0  0.0601
  C  C949  1  0.092600  0.112300  0.732600  1.0  0.0599
  C  C950  1  0.186300  0.119200  0.718900  1.0  -0.1467
  C  C951  1  0.271800  0.112100  0.759700  1.0  -0.1512
  C  C952  1  0.256800  0.078800  0.778600  1.0  -0.1306
  C  C953  1  0.169700  0.078400  0.800300  1.0  -0.1579
  C  C954  1  0.083400  0.081900  0.758800  1.0  0.0097
  C  C955  1  0.972900  0.076500  0.807300  1.0  0.0543
  C  C956  1  0.878300  0.074450  0.817510  1.0  -0.0985
  C  C957  1  0.793900  0.081320  0.786760  1.0  0.3329
  C  C958  1  0.705800  0.077800  0.798450  1.0  -0.0391
  C  C959  1  0.702000  0.067400  0.840900  1.0  -0.1333
  C  C960  1  0.786500  0.060500  0.871630  1.0  -0.1344
  C  C961  1  0.874600  0.064050  0.859950  1.0  -0.0951
  C  C962  1  0.610800  0.084370  0.763960  1.0  0.1691
  C  C963  1  0.605200  0.065400  0.720200  1.0  -0.3698
  C  C964  1  0.524900  0.076100  0.784800  1.0  -0.3548
  C  C965  1  0.597900  0.121180  0.750100  1.0  -0.3805
  C  C966  1  0.781300  0.050600  0.917000  1.0  0.6814
  C  C967  1  0.765300  0.957400  0.954100  1.0  0.4723
  C  C968  1  0.726000  0.931210  0.917590  1.0  -0.1286
  C  C969  1  0.783600  0.919740  0.889900  1.0  -0.1191
  C  C970  1  0.747900  0.896500  0.857300  1.0  0.0757
  C  C971  1  0.654600  0.884700  0.852400  1.0  0.3858
  C  C972  1  0.597100  0.896200  0.880100  1.0  -0.0157
  C  C973  1  0.632800  0.919430  0.912700  1.0  -0.1367
  C  C974  1  0.507300  0.876740  0.885100  1.0  0.1846
  C  C975  1  0.433200  0.889000  0.844200  1.0  -0.347
  C  C976  1  0.520800  0.838900  0.889100  1.0  -0.3569
  C  C977  1  0.463800  0.886900  0.923900  1.0  -0.3704
  C  C978  1  0.812700  0.886200  0.832600  1.0  0.0742
  C  C979  1  0.870200  0.851200  0.777700  1.0  0.0138
  C  C980  1  0.962700  0.862000  0.787400  1.0  -0.1664
  C  C981  1  0.029000  0.843400  0.762800  1.0  -0.1545
  C  C982  1  0.989400  0.846400  0.712500  1.0  -0.1216
  C  C983  1  0.885300  0.835100  0.705000  1.0  -0.1188
  C  C984  1  0.831600  0.847800  0.728300  1.0  0.023
  C  C985  1  0.674600  0.826800  0.687300  1.0  0.0993
  C  C986  1  0.576100  0.823280  0.673990  1.0  -0.0116
  C  C987  1  0.513500  0.828970  0.701860  1.0  0.3791
  C  C988  1  0.415500  0.824000  0.686520  1.0  -0.004
  C  C989  1  0.380100  0.813300  0.643300  1.0  -0.1187
  C  C990  1  0.442700  0.807600  0.615430  1.0  0.0456
  C  C991  1  0.540800  0.812610  0.630770  1.0  -0.161
  C  C992  1  0.346700  0.828240  0.718900  1.0  0.1621
  C  C993  1  0.338700  0.863900  0.735300  1.0  -0.3484
  C  C994  1  0.384400  0.811700  0.764800  1.0  -0.3595
  C  C995  1  0.248300  0.812000  0.699300  1.0  -0.3706
  C  C996  1  0.407600  0.799400  0.572600  1.0  0.5776
  C  C997  1  0.780000  0.255100  0.416840  1.0  0.7074
  C  C998  1  0.790500  0.244150  0.371770  1.0  -0.1692
  C  C999  1  0.705300  0.238790  0.340820  1.0  -0.1237
  C  C1000  1  0.707800  0.227600  0.298590  1.0  -0.0128
  C  C1001  1  0.795500  0.221700  0.287310  1.0  0.2474
  C  C1002  1  0.880600  0.227100  0.318260  1.0  0.0109
  C  C1003  1  0.878200  0.238310  0.360490  1.0  -0.1373
  C  C1004  1  0.612100  0.224830  0.265000  1.0  0.1204
  C  C1005  1  0.522900  0.237800  0.280200  1.0  -0.375
  C  C1006  1  0.597900  0.186970  0.258000  1.0  -0.3694
  C  C1007  1  0.264300  0.206200  0.291400  1.0  -0.1117
  C  C1008  1  0.606000  0.242100  0.219300  1.0  -0.371
  C  C1009  1  0.972600  0.223000  0.308900  1.0  0.1074
  C  C1010  1  0.092400  0.203300  0.268340  1.0  -0.0225
  C  C1011  1  0.164900  0.219900  0.292700  1.0  -0.1429
  C  C1012  1  0.262800  0.205900  0.242700  1.0  -0.1492
  C  C1013  1  0.179500  0.187900  0.212800  1.0  -0.1334
  C  C1014  1  0.094100  0.201500  0.220070  1.0  0.0625
  C  C1015  1  0.004800  0.165430  0.167300  1.0  0.1147
  C  C1016  1  0.912500  0.150650  0.139180  1.0  -0.1084
  C  C1017  1  0.822500  0.164190  0.138130  1.0  0.2426
  C  C1018  1  0.744200  0.154670  0.105300  1.0  0.0192
  C  C1019  1  0.755900  0.131600  0.073500  1.0  -0.1341
  C  C1020  1  0.845900  0.118090  0.074600  1.0  -0.1499
  C  C1021  1  0.924300  0.127600  0.107390  1.0  -0.0399
  C  C1022  1  0.643800  0.170980  0.100870  1.0  0.1437
  C  C1023  1  0.659700  0.209100  0.099900  1.0  -0.3688
  C  C1024  1  0.597700  0.161300  0.139000  1.0  -0.3734
  C  C1025  1  0.573700  0.161600  0.058000  1.0  -0.3622
  C  C1026  1  0.907500  0.004100  0.068580  1.0  0.71
  C  C1027  1  0.856000  0.091680  0.040400  1.0  0.6774
  C  C1028  1  0.947000  0.992370  0.117480  1.0  -0.1068
  C  C1029  1  0.045100  0.987340  0.132560  1.0  -0.0747
  C  C1030  1  0.080800  0.976200  0.175530  1.0  -0.0979
  C  C1031  1  0.018500  0.970100  0.203420  1.0  0.2643
  C  C1032  1  0.920400  0.975100  0.188340  1.0  0.0067
  C  C1033  1  0.884700  0.986270  0.145370  1.0  -0.0995
  C  C1034  1  0.741000  0.976400  0.194800  1.0  -0.3485
  C  C1035  1  0.845700  0.966540  0.216200  1.0  0.1256
  C  C1036  1  0.849400  0.928970  0.225400  1.0  -0.3666
  C  C1037  1  0.865100  0.985400  0.260200  1.0  -0.3825
  C  C1038  1  0.184900  0.972100  0.188500  1.0  0.0886
  C  C1039  1  0.384900  0.974600  0.203400  1.0  -0.11
  C  C1040  1  0.526300  0.943000  0.256200  1.0  -0.1712
  C  C1041  1  0.477800  0.934000  0.294200  1.0  -0.1258
  C  C1042  1  0.324700  0.914500  0.330700  1.0  0.0785
  C  C1043  1  0.327000  0.964900  0.239900  1.0  0.0381
  C  C1044  1  0.490500  0.973500  0.229500  1.0  -0.1496
  C  C1045  1  0.361500  0.935300  0.268400  1.0  0.0536
  C  C1046  1  0.253400  0.902370  0.359030  1.0  -0.092
  C  C1047  1  0.161800  0.915380  0.355290  1.0  0.279
  C  C1048  1  0.106800  0.906070  0.385200  1.0  0.0035
  C  C1049  1  0.143400  0.883700  0.418900  1.0  -0.1396
  C  C1050  1  0.235000  0.870730  0.422640  1.0  -0.1433
  C  C1051  1  0.290000  0.880040  0.392710  1.0  -0.0508
  C  C1052  1  0.935500  0.916500  0.347600  1.0  -0.368
  C  C1053  1  0.012400  0.923430  0.389900  1.0  0.1076
  C  C1054  1  0.983700  0.918500  0.434800  1.0  -0.3625
  C  C1055  1  0.018700  0.961360  0.385400  1.0  -0.3525
  C  C1056  1  0.273500  0.842500  0.451200  1.0  0.718
  N  N1057  1  0.498600  0.620700  0.296100  1.0  -0.2413
  N  N1058  1  0.514300  0.588200  0.230200  1.0  -0.3384
  N  N1059  1  0.707700  0.365170  0.202800  1.0  -0.2916
  N  N1060  1  0.771600  0.340100  0.272200  1.0  -0.3444
  N  N1061  1  0.506500  0.711500  0.727200  1.0  -0.3882
  N  N1062  1  0.493500  0.684520  0.801600  1.0  -0.2982
  N  N1063  1  0.278800  0.467200  0.773100  1.0  -0.2616
  N  N1064  1  0.205900  0.429000  0.703800  1.0  -0.2666
  N  N1065  1  0.998600  0.120700  0.296100  1.0  -0.2413
  N  N1066  1  0.014300  0.088200  0.230200  1.0  -0.3384
  N  N1067  1  0.207700  0.865170  0.202800  1.0  -0.2916
  N  N1068  1  0.271600  0.840100  0.272200  1.0  -0.3444
  N  N1069  1  0.006500  0.211500  0.727200  1.0  -0.3882
  N  N1070  1  0.993500  0.184520  0.801600  1.0  -0.2982
  N  N1071  1  0.778800  0.967200  0.773100  1.0  -0.2616
  N  N1072  1  0.705900  0.929000  0.703800  1.0  -0.2666
  N  N1073  1  0.501400  0.620700  0.703900  1.0  -0.2463
  N  N1074  1  0.485700  0.588200  0.769800  1.0  -0.3387
  N  N1075  1  0.292300  0.365170  0.797200  1.0  -0.2887
  N  N1076  1  0.228400  0.340100  0.727800  1.0  -0.3437
  N  N1077  1  0.493500  0.711500  0.272800  1.0  -0.3882
  N  N1078  1  0.506500  0.684520  0.198400  1.0  -0.2984
  N  N1079  1  0.721200  0.467200  0.226900  1.0  -0.2587
  N  N1080  1  0.794100  0.429000  0.296200  1.0  -0.2644
  N  N1081  1  0.001400  0.120700  0.703900  1.0  -0.2463
  N  N1082  1  0.985700  0.088200  0.769800  1.0  -0.3387
  N  N1083  1  0.792300  0.865170  0.797200  1.0  -0.2887
  N  N1084  1  0.728400  0.840100  0.727800  1.0  -0.3437
  N  N1085  1  0.993500  0.211500  0.272800  1.0  -0.3882
  N  N1086  1  0.006500  0.184520  0.198400  1.0  -0.2984
  N  N1087  1  0.221200  0.967200  0.226900  1.0  -0.2587
  N  N1088  1  0.294100  0.929000  0.296200  1.0  -0.2644
  O  O1089  1  0.717500  0.722720  0.480230  1.0  -0.6893
  O  O1090  1  0.560000  0.719150  0.456600  1.0  -0.611
  O  O1091  1  0.693700  0.618720  0.327700  1.0  -0.5983
  O  O1092  1  0.706100  0.592860  0.252960  1.0  -0.5972
  O  O1093  1  0.641100  0.543820  0.052500  1.0  -0.7618
  O  O1094  1  0.796200  0.543300  0.073500  1.0  -0.5827
  O  O1095  1  0.650800  0.470500  0.043600  1.0  -0.7071
  O  O1096  1  0.814400  0.475000  0.035400  1.0  -0.6513
  O  O1097  1  0.880400  0.367150  0.182070  1.0  -0.6121
  O  O1098  1  0.958100  0.340920  0.258940  1.0  -0.6112
  O  O1099  1  0.187300  0.286500  0.439200  1.0  -0.603
  O  O1100  1  0.042600  0.295900  0.457100  1.0  -0.7211
  O  O1101  1  0.802000  0.756900  0.577800  1.0  -0.6094
  O  O1102  1  0.646600  0.760300  0.556100  1.0  -0.6337
  O  O1103  1  0.699900  0.709900  0.753300  1.0  -0.6154
  O  O1104  1  0.685800  0.685160  0.827000  1.0  -0.6558
  O  O1105  1  0.555900  0.580700  0.955700  1.0  -0.6031
  O  O1106  1  0.722200  0.579100  0.978900  1.0  -0.6547
  O  O1107  1  0.542200  0.502750  0.959340  1.0  -0.6758
  O  O1108  1  0.677200  0.506300  0.938400  1.0  -0.6296
  O  O1109  1  0.447900  0.457890  0.756010  1.0  -0.6032
  O  O1110  1  0.384300  0.434400  0.678800  1.0  -0.5999
  O  O1111  1  0.283400  0.330900  0.528700  1.0  -0.6218
  O  O1112  1  0.136600  0.339300  0.538500  1.0  -0.6705
  O  O1113  1  0.217500  0.222720  0.480230  1.0  -0.6895
  O  O1114  1  0.060000  0.219150  0.456600  1.0  -0.611
  O  O1115  1  0.193700  0.118720  0.327700  1.0  -0.5983
  O  O1116  1  0.206100  0.092860  0.252960  1.0  -0.5972
  O  O1117  1  0.141100  0.043820  0.052500  1.0  -0.7618
  O  O1118  1  0.296200  0.043300  0.073500  1.0  -0.5827
  O  O1119  1  0.150800  0.970500  0.043600  1.0  -0.7071
  O  O1120  1  0.314400  0.975000  0.035400  1.0  -0.6513
  O  O1121  1  0.380400  0.867150  0.182070  1.0  -0.6121
  O  O1122  1  0.458100  0.840920  0.258940  1.0  -0.6112
  O  O1123  1  0.687300  0.786500  0.439200  1.0  -0.6031
  O  O1124  1  0.542600  0.795900  0.457100  1.0  -0.7211
  O  O1125  1  0.302000  0.256900  0.577800  1.0  -0.6098
  O  O1126  1  0.146600  0.260300  0.556100  1.0  -0.6337
  O  O1127  1  0.199900  0.209900  0.753300  1.0  -0.6154
  O  O1128  1  0.185800  0.185160  0.827000  1.0  -0.6558
  O  O1129  1  0.055900  0.080700  0.955700  1.0  -0.6031
  O  O1130  1  0.222200  0.079100  0.978900  1.0  -0.6547
  O  O1131  1  0.042200  0.002750  0.959340  1.0  -0.6758
  O  O1132  1  0.177200  0.006300  0.938400  1.0  -0.6296
  O  O1133  1  0.947900  0.957890  0.756010  1.0  -0.6032
  O  O1134  1  0.884300  0.934400  0.678800  1.0  -0.5999
  O  O1135  1  0.783400  0.830900  0.528700  1.0  -0.6216
  O  O1136  1  0.636600  0.839300  0.538500  1.0  -0.6705
  O  O1137  1  0.282500  0.722720  0.519770  1.0  -0.6898
  O  O1138  1  0.440000  0.719150  0.543400  1.0  -0.611
  O  O1139  1  0.306300  0.618720  0.672300  1.0  -0.5997
  O  O1140  1  0.293900  0.592860  0.747040  1.0  -0.5982
  O  O1141  1  0.358900  0.543820  0.947500  1.0  -0.7605
  O  O1142  1  0.203800  0.543300  0.926500  1.0  -0.5826
  O  O1143  1  0.349200  0.470500  0.956400  1.0  -0.704
  O  O1144  1  0.185600  0.475000  0.964600  1.0  -0.6477
  O  O1145  1  0.119600  0.367150  0.817930  1.0  -0.6125
  O  O1146  1  0.041900  0.340920  0.741060  1.0  -0.6123
  O  O1147  1  0.812700  0.286500  0.560800  1.0  -0.6038
  O  O1148  1  0.957400  0.295900  0.542900  1.0  -0.7227
  O  O1149  1  0.198000  0.756900  0.422200  1.0  -0.6084
  O  O1150  1  0.353400  0.760300  0.443900  1.0  -0.6358
  O  O1151  1  0.300100  0.709900  0.246700  1.0  -0.6149
  O  O1152  1  0.314200  0.685160  0.173000  1.0  -0.6561
  O  O1153  1  0.444100  0.580700  0.044300  1.0  -0.603
  O  O1154  1  0.277800  0.579100  0.021100  1.0  -0.6536
  O  O1155  1  0.457800  0.502750  0.040660  1.0  -0.6767
  O  O1156  1  0.322800  0.506300  0.061600  1.0  -0.6345
  O  O1157  1  0.552100  0.457890  0.243990  1.0  -0.6029
  O  O1158  1  0.615700  0.434400  0.321200  1.0  -0.6013
  O  O1159  1  0.716600  0.330900  0.471300  1.0  -0.6251
  O  O1160  1  0.863400  0.339300  0.461500  1.0  -0.6697
  O  O1161  1  0.782500  0.222720  0.519770  1.0  -0.6901
  O  O1162  1  0.940000  0.219150  0.543400  1.0  -0.6111
  O  O1163  1  0.806300  0.118720  0.672300  1.0  -0.5997
  O  O1164  1  0.793900  0.092860  0.747040  1.0  -0.5982
  O  O1165  1  0.858900  0.043820  0.947500  1.0  -0.7605
  O  O1166  1  0.703800  0.043300  0.926500  1.0  -0.5826
  O  O1167  1  0.849200  0.970500  0.956400  1.0  -0.704
  O  O1168  1  0.685600  0.975000  0.964600  1.0  -0.6477
  O  O1169  1  0.619600  0.867150  0.817930  1.0  -0.6125
  O  O1170  1  0.541900  0.840920  0.741060  1.0  -0.6123
  O  O1171  1  0.312700  0.786500  0.560800  1.0  -0.6038
  O  O1172  1  0.457400  0.795900  0.542900  1.0  -0.7227
  O  O1173  1  0.698000  0.256900  0.422200  1.0  -0.6089
  O  O1174  1  0.853400  0.260300  0.443900  1.0  -0.6358
  O  O1175  1  0.800100  0.209900  0.246700  1.0  -0.6149
  O  O1176  1  0.814200  0.185160  0.173000  1.0  -0.6561
  O  O1177  1  0.944100  0.080700  0.044300  1.0  -0.603
  O  O1178  1  0.777800  0.079100  0.021100  1.0  -0.6536
  O  O1179  1  0.957800  0.002750  0.040660  1.0  -0.6767
  O  O1180  1  0.822800  0.006300  0.061600  1.0  -0.6345
  O  O1181  1  0.052100  0.957890  0.243990  1.0  -0.6029
  O  O1182  1  0.115700  0.934400  0.321200  1.0  -0.6013
  O  O1183  1  0.216600  0.830900  0.471300  1.0  -0.625
  O  O1184  1  0.363400  0.839300  0.461500  1.0  -0.6697
