# generated using pymatgen
data_CuSiH31(C13N)4
_symmetry_space_group_name_H-M   'P 1'
_cell_length_a   27.10400000
_cell_length_b   31.27800000
_cell_length_c   34.90000000
_cell_angle_alpha   90.00000000
_cell_angle_beta   92.10000000
_cell_angle_gamma   90.00000000
_symmetry_Int_Tables_number   1
_chemical_formula_structural   CuSiH31(C13N)4
_chemical_formula_sum   'Cu8 Si8 H248 C416 N32'
_cell_volume   29566.91535923
_cell_formula_units_Z   8
loop_
 _symmetry_equiv_pos_site_id
 _symmetry_equiv_pos_as_xyz
  1  'x, y, z'
loop_
 _atom_site_type_symbol
 _atom_site_label
 _atom_site_symmetry_multiplicity
 _atom_site_fract_x
 _atom_site_fract_y
 _atom_site_fract_z
 _atom_site_occupancy
 _atom_site_charge
  Cu  Cu1  1  0.143140  0.252290  0.823400  1.0  0.3122
  Cu  Cu2  1  0.643140  0.752290  0.823400  1.0  0.3122
  Cu  Cu3  1  0.143140  0.747710  0.323400  1.0  0.3124
  Cu  Cu4  1  0.643140  0.247710  0.323400  1.0  0.3124
  Cu  Cu5  1  0.856860  0.252290  0.676600  1.0  0.3113
  Cu  Cu6  1  0.356860  0.752290  0.676600  1.0  0.3113
  Cu  Cu7  1  0.856860  0.747710  0.176600  1.0  0.3114
  Cu  Cu8  1  0.356860  0.247710  0.176600  1.0  0.3114
  Si  Si9  1  0.896040  0.990910  0.573400  1.0  0.8734
  Si  Si10  1  0.396040  0.490910  0.573400  1.0  0.8734
  Si  Si11  1  0.896040  0.009090  0.073400  1.0  0.8731
  Si  Si12  1  0.396040  0.509090  0.073400  1.0  0.8731
  Si  Si13  1  0.103960  0.990910  0.926600  1.0  0.8731
  Si  Si14  1  0.603960  0.490910  0.926600  1.0  0.8731
  Si  Si15  1  0.103960  0.009090  0.426600  1.0  0.8728
  Si  Si16  1  0.603960  0.509090  0.426600  1.0  0.8728
  H  H17  1  0.791900  0.991900  0.545700  1.0  0.1018
  H  H18  1  0.743300  0.035300  0.504800  1.0  0.108
  H  H19  1  0.860800  0.112600  0.489300  1.0  0.0992
  H  H20  1  0.909500  0.069200  0.530100  1.0  0.0807
  H  H21  1  0.743400  0.224100  0.348800  1.0  0.0826
  H  H22  1  0.786700  0.178200  0.392700  1.0  0.1133
  H  H23  1  0.652400  0.143900  0.433200  1.0  0.112
  H  H24  1  0.614700  0.191600  0.388200  1.0  0.0882
  H  H25  1  0.001200  0.997400  0.601000  1.0  0.0876
  H  H26  1  0.045800  0.043400  0.642200  1.0  0.1026
  H  H27  1  0.921900  0.112800  0.657900  1.0  0.0879
  H  H28  1  0.877300  0.066800  0.616600  1.0  0.0943
  H  H29  1  0.080300  0.260600  0.752500  1.0  0.0661
  H  H30  1  0.038500  0.219700  0.706500  1.0  0.106
  H  H31  1  0.097900  0.113500  0.760500  1.0  0.1135
  H  H32  1  0.135200  0.160800  0.806300  1.0  0.0682
  H  H33  1  0.858900  0.903400  0.571100  1.0  0.0955
  H  H34  1  0.811300  0.860700  0.610600  1.0  0.1083
  H  H35  1  0.802900  0.958300  0.686500  1.0  0.1073
  H  H36  1  0.850600  0.001000  0.647100  1.0  0.0892
  H  H37  1  0.653800  0.841700  0.799800  1.0  0.0951
  H  H38  1  0.694200  0.883500  0.753200  1.0  0.1191
  H  H39  1  0.747900  0.772300  0.708300  1.0  0.1078
  H  H40  1  0.704000  0.734200  0.755900  1.0  0.0948
  H  H41  1  0.905000  0.981300  0.491700  1.0  0.0857
  H  H42  1  0.948800  0.937100  0.450900  1.0  0.1033
  H  H43  1  0.015600  0.879700  0.543100  1.0  0.1032
  H  H44  1  0.971800  0.923900  0.583900  1.0  0.0927
  H  H45  1  0.041500  0.771500  0.340000  1.0  0.0849
  H  H46  1  0.997200  0.810400  0.386200  1.0  0.1155
  H  H47  1  0.168600  0.793200  0.395700  1.0  0.0976
  H  H48  1  0.291900  0.491900  0.545700  1.0  0.1018
  H  H49  1  0.243300  0.535300  0.504800  1.0  0.1085
  H  H50  1  0.360800  0.612600  0.489300  1.0  0.0992
  H  H51  1  0.409500  0.569200  0.530100  1.0  0.0807
  H  H52  1  0.243400  0.724100  0.348800  1.0  0.0822
  H  H53  1  0.286700  0.678200  0.392700  1.0  0.113
  H  H54  1  0.152400  0.643900  0.433200  1.0  0.1125
  H  H55  1  0.114700  0.691600  0.388200  1.0  0.0885
  H  H56  1  0.501200  0.497400  0.601000  1.0  0.0876
  H  H57  1  0.545800  0.543400  0.642200  1.0  0.1026
  H  H58  1  0.421900  0.612800  0.657900  1.0  0.0879
  H  H59  1  0.377300  0.566800  0.616600  1.0  0.0943
  H  H60  1  0.580300  0.760600  0.752500  1.0  0.0659
  H  H61  1  0.538500  0.719700  0.706500  1.0  0.106
  H  H62  1  0.597900  0.613500  0.760500  1.0  0.1135
  H  H63  1  0.635200  0.660800  0.806300  1.0  0.0682
  H  H64  1  0.358900  0.403400  0.571100  1.0  0.0955
  H  H65  1  0.311300  0.360700  0.610600  1.0  0.1083
  H  H66  1  0.302900  0.458300  0.686500  1.0  0.1073
  H  H67  1  0.350600  0.501000  0.647100  1.0  0.0892
  H  H68  1  0.153800  0.341700  0.799800  1.0  0.0951
  H  H69  1  0.194200  0.383500  0.753200  1.0  0.12
  H  H70  1  0.247900  0.272300  0.708300  1.0  0.1092
  H  H71  1  0.204000  0.234200  0.755900  1.0  0.0934
  H  H72  1  0.405000  0.481300  0.491700  1.0  0.0857
  H  H73  1  0.448800  0.437100  0.450900  1.0  0.1033
  H  H74  1  0.515600  0.379700  0.543100  1.0  0.1039
  H  H75  1  0.471800  0.423900  0.583900  1.0  0.0919
  H  H76  1  0.541500  0.271500  0.340000  1.0  0.0849
  H  H77  1  0.497200  0.310400  0.386200  1.0  0.1155
  H  H78  1  0.668600  0.293200  0.395700  1.0  0.0976
  H  H79  1  0.791900  0.008100  0.045700  1.0  0.1018
  H  H80  1  0.743300  0.964700  0.004800  1.0  0.108
  H  H81  1  0.860800  0.887400  0.989300  1.0  0.0988
  H  H82  1  0.909500  0.930800  0.030100  1.0  0.081
  H  H83  1  0.743400  0.775900  0.848800  1.0  0.0818
  H  H84  1  0.786700  0.821800  0.892700  1.0  0.1131
  H  H85  1  0.652400  0.856100  0.933200  1.0  0.1116
  H  H86  1  0.614700  0.808400  0.888200  1.0  0.0879
  H  H87  1  0.001200  0.002600  0.101000  1.0  0.0876
  H  H88  1  0.045800  0.956600  0.142200  1.0  0.1024
  H  H89  1  0.921900  0.887200  0.157900  1.0  0.0883
  H  H90  1  0.877300  0.933200  0.116600  1.0  0.0941
  H  H91  1  0.080300  0.739400  0.252500  1.0  0.0663
  H  H92  1  0.038500  0.780300  0.206500  1.0  0.1064
  H  H93  1  0.097900  0.886500  0.260500  1.0  0.1131
  H  H94  1  0.135200  0.839200  0.306300  1.0  0.068
  H  H95  1  0.858900  0.096600  0.071100  1.0  0.0955
  H  H96  1  0.811300  0.139300  0.110600  1.0  0.109
  H  H97  1  0.802900  0.041700  0.186500  1.0  0.1073
  H  H98  1  0.850600  0.999000  0.147100  1.0  0.0891
  H  H99  1  0.653800  0.158300  0.299800  1.0  0.0957
  H  H100  1  0.694200  0.116500  0.253200  1.0  0.1194
  H  H101  1  0.747900  0.227700  0.208300  1.0  0.1082
  H  H102  1  0.704000  0.265800  0.255900  1.0  0.0948
  H  H103  1  0.905000  0.018700  0.991700  1.0  0.0857
  H  H104  1  0.948800  0.062900  0.950900  1.0  0.1033
  H  H105  1  0.015600  0.120300  0.043100  1.0  0.1039
  H  H106  1  0.971800  0.076100  0.083900  1.0  0.0933
  H  H107  1  0.041500  0.228500  0.840000  1.0  0.0858
  H  H108  1  0.997200  0.189600  0.886200  1.0  0.1156
  H  H109  1  0.168600  0.206800  0.895700  1.0  0.0976
  H  H110  1  0.291900  0.508100  0.045700  1.0  0.1018
  H  H111  1  0.243300  0.464700  0.004800  1.0  0.1079
  H  H112  1  0.360800  0.387400  0.989300  1.0  0.0988
  H  H113  1  0.409500  0.430800  0.030100  1.0  0.081
  H  H114  1  0.243400  0.275900  0.848800  1.0  0.0816
  H  H115  1  0.286700  0.321800  0.892700  1.0  0.1128
  H  H116  1  0.152400  0.356100  0.933200  1.0  0.1119
  H  H117  1  0.114700  0.308400  0.888200  1.0  0.0885
  H  H118  1  0.501200  0.502600  0.101000  1.0  0.0876
  H  H119  1  0.545800  0.456600  0.142200  1.0  0.1024
  H  H120  1  0.421900  0.387200  0.157900  1.0  0.0883
  H  H121  1  0.377300  0.433200  0.116600  1.0  0.0941
  H  H122  1  0.580300  0.239400  0.252500  1.0  0.0661
  H  H123  1  0.538500  0.280300  0.206500  1.0  0.1064
  H  H124  1  0.597900  0.386500  0.260500  1.0  0.1131
  H  H125  1  0.635200  0.339200  0.306300  1.0  0.068
  H  H126  1  0.358900  0.596600  0.071100  1.0  0.0955
  H  H127  1  0.311300  0.639300  0.110600  1.0  0.109
  H  H128  1  0.302900  0.541700  0.186500  1.0  0.1073
  H  H129  1  0.350600  0.499000  0.147100  1.0  0.0891
  H  H130  1  0.153800  0.658300  0.299800  1.0  0.0957
  H  H131  1  0.194200  0.616500  0.253200  1.0  0.1202
  H  H132  1  0.247900  0.727700  0.208300  1.0  0.1094
  H  H133  1  0.204000  0.765800  0.255900  1.0  0.0932
  H  H134  1  0.405000  0.518700  0.991700  1.0  0.0857
  H  H135  1  0.448800  0.562900  0.950900  1.0  0.1033
  H  H136  1  0.515600  0.620300  0.043100  1.0  0.1045
  H  H137  1  0.471800  0.576100  0.083900  1.0  0.0923
  H  H138  1  0.541500  0.728500  0.840000  1.0  0.0858
  H  H139  1  0.497200  0.689600  0.886200  1.0  0.1156
  H  H140  1  0.668600  0.706800  0.895700  1.0  0.0976
  H  H141  1  0.208100  0.991900  0.954300  1.0  0.1018
  H  H142  1  0.256700  0.035300  0.995200  1.0  0.1083
  H  H143  1  0.139200  0.112600  0.010700  1.0  0.0993
  H  H144  1  0.090500  0.069200  0.969900  1.0  0.0811
  H  H145  1  0.256600  0.224100  0.151200  1.0  0.0829
  H  H146  1  0.213300  0.178200  0.107300  1.0  0.1132
  H  H147  1  0.347600  0.143900  0.066800  1.0  0.112
  H  H148  1  0.385300  0.191600  0.111800  1.0  0.0887
  H  H149  1  0.998800  0.997400  0.899000  1.0  0.0875
  H  H150  1  0.954200  0.043400  0.857800  1.0  0.1033
  H  H151  1  0.078100  0.112800  0.842100  1.0  0.0877
  H  H152  1  0.122700  0.066800  0.883400  1.0  0.0943
  H  H153  1  0.919700  0.260600  0.747500  1.0  0.0656
  H  H154  1  0.961500  0.219700  0.793500  1.0  0.106
  H  H155  1  0.902100  0.113500  0.739500  1.0  0.1129
  H  H156  1  0.864800  0.160800  0.693700  1.0  0.0686
  H  H157  1  0.141100  0.903400  0.928900  1.0  0.0948
  H  H158  1  0.188700  0.860700  0.889400  1.0  0.1087
  H  H159  1  0.197100  0.958300  0.813500  1.0  0.1078
  H  H160  1  0.149400  0.001000  0.852900  1.0  0.089
  H  H161  1  0.346200  0.841700  0.700200  1.0  0.0953
  H  H162  1  0.305800  0.883500  0.746800  1.0  0.1192
  H  H163  1  0.252100  0.772300  0.791700  1.0  0.1076
  H  H164  1  0.296000  0.734200  0.744100  1.0  0.0942
  H  H165  1  0.095000  0.981300  0.008300  1.0  0.0858
  H  H166  1  0.051200  0.937100  0.049100  1.0  0.1028
  H  H167  1  0.984400  0.879700  0.956900  1.0  0.1028
  H  H168  1  0.028200  0.923900  0.916100  1.0  0.0935
  H  H169  1  0.958500  0.771500  0.160000  1.0  0.0846
  H  H170  1  0.002800  0.810400  0.113800  1.0  0.1169
  H  H171  1  0.831400  0.793200  0.104300  1.0  0.0978
  H  H172  1  0.708100  0.491900  0.954300  1.0  0.1018
  H  H173  1  0.756700  0.535300  0.995200  1.0  0.1082
  H  H174  1  0.639200  0.612600  0.010700  1.0  0.0993
  H  H175  1  0.590500  0.569200  0.969900  1.0  0.0811
  H  H176  1  0.756600  0.724100  0.151200  1.0  0.0827
  H  H177  1  0.713300  0.678200  0.107300  1.0  0.1128
  H  H178  1  0.847600  0.643900  0.066800  1.0  0.1121
  H  H179  1  0.885300  0.691600  0.111800  1.0  0.0889
  H  H180  1  0.498800  0.497400  0.899000  1.0  0.0875
  H  H181  1  0.454200  0.543400  0.857800  1.0  0.1033
  H  H182  1  0.578100  0.612800  0.842100  1.0  0.0877
  H  H183  1  0.622700  0.566800  0.883400  1.0  0.0943
  H  H184  1  0.419700  0.760600  0.747500  1.0  0.0654
  H  H185  1  0.461500  0.719700  0.793500  1.0  0.106
  H  H186  1  0.402100  0.613500  0.739500  1.0  0.1129
  H  H187  1  0.364800  0.660800  0.693700  1.0  0.0686
  H  H188  1  0.641100  0.403400  0.928900  1.0  0.0948
  H  H189  1  0.688700  0.360700  0.889400  1.0  0.1087
  H  H190  1  0.697100  0.458300  0.813500  1.0  0.1078
  H  H191  1  0.649400  0.501000  0.852900  1.0  0.089
  H  H192  1  0.846200  0.341700  0.700200  1.0  0.0953
  H  H193  1  0.805800  0.383500  0.746800  1.0  0.1201
  H  H194  1  0.752100  0.272300  0.791700  1.0  0.1088
  H  H195  1  0.796000  0.234200  0.744100  1.0  0.0923
  H  H196  1  0.595000  0.481300  0.008300  1.0  0.0858
  H  H197  1  0.551200  0.437100  0.049100  1.0  0.1028
  H  H198  1  0.484400  0.379700  0.956900  1.0  0.1033
  H  H199  1  0.528200  0.423900  0.916100  1.0  0.0925
  H  H200  1  0.458500  0.271500  0.160000  1.0  0.0846
  H  H201  1  0.502800  0.310400  0.113800  1.0  0.1169
  H  H202  1  0.331400  0.293200  0.104300  1.0  0.0978
  H  H203  1  0.208100  0.008100  0.454300  1.0  0.1017
  H  H204  1  0.256700  0.964700  0.495200  1.0  0.1084
  H  H205  1  0.139200  0.887400  0.510700  1.0  0.099
  H  H206  1  0.090500  0.930800  0.469900  1.0  0.0808
  H  H207  1  0.256600  0.775900  0.651200  1.0  0.0829
  H  H208  1  0.213300  0.821800  0.607300  1.0  0.113
  H  H209  1  0.347600  0.856100  0.566800  1.0  0.1125
  H  H210  1  0.385300  0.808400  0.611800  1.0  0.0882
  H  H211  1  0.998800  0.002600  0.399000  1.0  0.0874
  H  H212  1  0.954200  0.956600  0.357800  1.0  0.1034
  H  H213  1  0.078100  0.887200  0.342100  1.0  0.0884
  H  H214  1  0.122700  0.933200  0.383400  1.0  0.0941
  H  H215  1  0.919700  0.739400  0.247500  1.0  0.0662
  H  H216  1  0.961500  0.780300  0.293500  1.0  0.1067
  H  H217  1  0.902100  0.886500  0.239500  1.0  0.1128
  H  H218  1  0.864800  0.839200  0.193700  1.0  0.0685
  H  H219  1  0.141100  0.096600  0.428900  1.0  0.0949
  H  H220  1  0.188700  0.139300  0.389400  1.0  0.1095
  H  H221  1  0.197100  0.041700  0.313500  1.0  0.1074
  H  H222  1  0.149400  0.999000  0.352900  1.0  0.0892
  H  H223  1  0.346200  0.158300  0.200200  1.0  0.0953
  H  H224  1  0.305800  0.116500  0.246800  1.0  0.1194
  H  H225  1  0.252100  0.227700  0.291700  1.0  0.1076
  H  H226  1  0.296000  0.265800  0.244100  1.0  0.0939
  H  H227  1  0.095000  0.018700  0.508300  1.0  0.0861
  H  H228  1  0.051200  0.062900  0.549100  1.0  0.1029
  H  H229  1  0.984400  0.120300  0.456900  1.0  0.1042
  H  H230  1  0.028200  0.076100  0.416100  1.0  0.0936
  H  H231  1  0.958500  0.228500  0.660000  1.0  0.0854
  H  H232  1  0.002800  0.189600  0.613800  1.0  0.117
  H  H233  1  0.831400  0.206800  0.604300  1.0  0.0981
  H  H234  1  0.708100  0.508100  0.454300  1.0  0.1017
  H  H235  1  0.756700  0.464700  0.495200  1.0  0.1087
  H  H236  1  0.639200  0.387400  0.510700  1.0  0.099
  H  H237  1  0.590500  0.430800  0.469900  1.0  0.0808
  H  H238  1  0.756600  0.275900  0.651200  1.0  0.0826
  H  H239  1  0.713300  0.321800  0.607300  1.0  0.1127
  H  H240  1  0.847600  0.356100  0.566800  1.0  0.1124
  H  H241  1  0.885300  0.308400  0.611800  1.0  0.0885
  H  H242  1  0.498800  0.502600  0.399000  1.0  0.0874
  H  H243  1  0.454200  0.456600  0.357800  1.0  0.1034
  H  H244  1  0.578100  0.387200  0.342100  1.0  0.0884
  H  H245  1  0.622700  0.433200  0.383400  1.0  0.0941
  H  H246  1  0.419700  0.239400  0.247500  1.0  0.0661
  H  H247  1  0.461500  0.280300  0.293500  1.0  0.1067
  H  H248  1  0.402100  0.386500  0.239500  1.0  0.1128
  H  H249  1  0.364800  0.339200  0.193700  1.0  0.0685
  H  H250  1  0.641100  0.596600  0.428900  1.0  0.0949
  H  H251  1  0.688700  0.639300  0.389400  1.0  0.1095
  H  H252  1  0.697100  0.541700  0.313500  1.0  0.1074
  H  H253  1  0.649400  0.499000  0.352900  1.0  0.0892
  H  H254  1  0.846200  0.658300  0.200200  1.0  0.0953
  H  H255  1  0.805800  0.616500  0.246800  1.0  0.1202
  H  H256  1  0.752100  0.727700  0.291700  1.0  0.1087
  H  H257  1  0.796000  0.765800  0.244100  1.0  0.0921
  H  H258  1  0.595000  0.518700  0.508300  1.0  0.0861
  H  H259  1  0.551200  0.562900  0.549100  1.0  0.1029
  H  H260  1  0.484400  0.620300  0.456900  1.0  0.1047
  H  H261  1  0.528200  0.576100  0.416100  1.0  0.0925
  H  H262  1  0.458500  0.728500  0.660000  1.0  0.0854
  H  H263  1  0.502800  0.689600  0.613800  1.0  0.117
  H  H264  1  0.331400  0.706800  0.604300  1.0  0.0981
  C  C265  1  0.855200  0.026500  0.541800  1.0  -0.3472
  C  C266  1  0.805900  0.016400  0.534300  1.0  -0.0388
  C  C267  1  0.777000  0.042200  0.510000  1.0  -0.1335
  C  C268  1  0.797500  0.078000  0.493200  1.0  0.0495
  C  C269  1  0.846800  0.088100  0.500700  1.0  -0.1023
  C  C270  1  0.875700  0.062300  0.525000  1.0  -0.0553
  C  C271  1  0.767400  0.106100  0.469200  1.0  -0.0965
  C  C272  1  0.725600  0.206800  0.365800  1.0  0.1108
  C  C273  1  0.751700  0.180300  0.392000  1.0  -0.1168
  C  C274  1  0.722500  0.157200  0.417100  1.0  0.0226
  C  C275  1  0.671600  0.160000  0.416100  1.0  -0.1252
  C  C276  1  0.649400  0.187600  0.388900  1.0  0.0934
  C  C277  1  0.746100  0.129200  0.447200  1.0  -0.0973
  C  C278  1  0.935100  0.027800  0.604900  1.0  -0.3292
  C  C279  1  0.985100  0.020900  0.612500  1.0  -0.0546
  C  C280  1  0.011600  0.048200  0.637000  1.0  -0.1042
  C  C281  1  0.988100  0.082500  0.653900  1.0  -0.0506
  C  C282  1  0.938000  0.089400  0.646300  1.0  -0.105
  C  C283  1  0.911500  0.062100  0.621800  1.0  -0.0638
  C  C284  1  0.015800  0.110100  0.679800  1.0  -0.0552
  C  C285  1  0.083200  0.230400  0.754000  1.0  0.1401
  C  C286  1  0.058300  0.206700  0.726300  1.0  -0.1381
  C  C287  1  0.063800  0.162000  0.729000  1.0  -0.06
  C  C288  1  0.093300  0.143500  0.758600  1.0  -0.1479
  C  C289  1  0.115900  0.172200  0.785500  1.0  0.128
  C  C290  1  0.036300  0.133500  0.701600  1.0  0.0109
  C  C291  1  0.859300  0.956200  0.605400  1.0  -0.3156
  C  C292  1  0.847600  0.914500  0.594600  1.0  -0.0267
  C  C293  1  0.819300  0.889200  0.618000  1.0  -0.1273
  C  C294  1  0.802600  0.905500  0.652200  1.0  0.0644
  C  C295  1  0.814300  0.947100  0.663100  1.0  -0.1225
  C  C296  1  0.842600  0.972500  0.639700  1.0  -0.049
  C  C297  1  0.772800  0.880100  0.678000  1.0  -0.1131
  C  C298  1  0.673200  0.828200  0.781100  1.0  0.1222
  C  C299  1  0.697100  0.853300  0.753600  1.0  -0.12
  C  C300  1  0.725300  0.831700  0.727100  1.0  0.0685
  C  C301  1  0.729000  0.786900  0.726700  1.0  -0.1302
  C  C302  1  0.703100  0.764600  0.755100  1.0  0.133
  C  C303  1  0.751400  0.857600  0.698700  1.0  -0.1176
  C  C304  1  0.934200  0.956700  0.541700  1.0  -0.3525
  C  C305  1  0.927400  0.960700  0.502200  1.0  -0.0348
  C  C306  1  0.953500  0.934400  0.477900  1.0  -0.0949
  C  C307  1  0.986400  0.904300  0.493100  1.0  -0.0278
  C  C308  1  0.993200  0.900300  0.532700  1.0  -0.1173
  C  C309  1  0.967100  0.926600  0.556900  1.0  -0.045
  C  C310  1  0.011100  0.873800  0.469000  1.0  -0.0152
  C  C311  1  0.058700  0.784500  0.361200  1.0  0.1391
  C  C312  1  0.032100  0.807500  0.388400  1.0  -0.1281
  C  C313  1  0.060100  0.825900  0.419100  1.0  -0.0239
  C  C314  1  0.111100  0.821900  0.423300  1.0  -0.0153
  C  C315  1  0.133900  0.797700  0.394300  1.0  0.1768
  C  C316  1  0.033500  0.852600  0.447600  1.0  -0.0287
  C  C317  1  0.355200  0.526500  0.541800  1.0  -0.3472
  C  C318  1  0.305900  0.516400  0.534300  1.0  -0.0388
  C  C319  1  0.277000  0.542200  0.510000  1.0  -0.1335
  C  C320  1  0.297500  0.578000  0.493200  1.0  0.0495
  C  C321  1  0.346800  0.588100  0.500700  1.0  -0.1023
  C  C322  1  0.375700  0.562300  0.525000  1.0  -0.0553
  C  C323  1  0.267400  0.606100  0.469200  1.0  -0.0965
  C  C324  1  0.225600  0.706800  0.365800  1.0  0.1108
  C  C325  1  0.251700  0.680300  0.392000  1.0  -0.1168
  C  C326  1  0.222500  0.657200  0.417100  1.0  0.0226
  C  C327  1  0.171600  0.660000  0.416100  1.0  -0.1252
  C  C328  1  0.149400  0.687600  0.388900  1.0  0.0934
  C  C329  1  0.246100  0.629200  0.447200  1.0  -0.0973
  C  C330  1  0.435100  0.527800  0.604900  1.0  -0.3292
  C  C331  1  0.485100  0.520900  0.612500  1.0  -0.0546
  C  C332  1  0.511600  0.548200  0.637000  1.0  -0.1042
  C  C333  1  0.488100  0.582500  0.653900  1.0  -0.0506
  C  C334  1  0.438000  0.589400  0.646300  1.0  -0.105
  C  C335  1  0.411500  0.562100  0.621800  1.0  -0.0638
  C  C336  1  0.515800  0.610100  0.679800  1.0  -0.0552
  C  C337  1  0.583200  0.730400  0.754000  1.0  0.1401
  C  C338  1  0.558300  0.706700  0.726300  1.0  -0.1381
  C  C339  1  0.563800  0.662000  0.729000  1.0  -0.06
  C  C340  1  0.593300  0.643500  0.758600  1.0  -0.1479
  C  C341  1  0.615900  0.672200  0.785500  1.0  0.128
  C  C342  1  0.536300  0.633500  0.701600  1.0  0.0109
  C  C343  1  0.359300  0.456200  0.605400  1.0  -0.3156
  C  C344  1  0.347600  0.414500  0.594600  1.0  -0.0267
  C  C345  1  0.319300  0.389200  0.618000  1.0  -0.1273
  C  C346  1  0.302600  0.405500  0.652200  1.0  0.0644
  C  C347  1  0.314300  0.447100  0.663100  1.0  -0.1225
  C  C348  1  0.342600  0.472500  0.639700  1.0  -0.049
  C  C349  1  0.272800  0.380100  0.678000  1.0  -0.1131
  C  C350  1  0.173200  0.328200  0.781100  1.0  0.1222
  C  C351  1  0.197100  0.353300  0.753600  1.0  -0.12
  C  C352  1  0.225300  0.331700  0.727100  1.0  0.0685
  C  C353  1  0.229000  0.286900  0.726700  1.0  -0.1302
  C  C354  1  0.203100  0.264600  0.755100  1.0  0.133
  C  C355  1  0.251400  0.357600  0.698700  1.0  -0.1176
  C  C356  1  0.434200  0.456700  0.541700  1.0  -0.3525
  C  C357  1  0.427400  0.460700  0.502200  1.0  -0.0348
  C  C358  1  0.453500  0.434400  0.477900  1.0  -0.0949
  C  C359  1  0.486400  0.404300  0.493100  1.0  -0.0278
  C  C360  1  0.493200  0.400300  0.532700  1.0  -0.1173
  C  C361  1  0.467100  0.426600  0.556900  1.0  -0.045
  C  C362  1  0.511100  0.373800  0.469000  1.0  -0.0152
  C  C363  1  0.558700  0.284500  0.361200  1.0  0.1391
  C  C364  1  0.532100  0.307500  0.388400  1.0  -0.1281
  C  C365  1  0.560100  0.325900  0.419100  1.0  -0.0239
  C  C366  1  0.611100  0.321900  0.423300  1.0  -0.0153
  C  C367  1  0.633900  0.297700  0.394300  1.0  0.1768
  C  C368  1  0.533500  0.352600  0.447600  1.0  -0.0287
  C  C369  1  0.855200  0.973500  0.041800  1.0  -0.3472
  C  C370  1  0.805900  0.983600  0.034300  1.0  -0.0404
  C  C371  1  0.777000  0.957800  0.010000  1.0  -0.1325
  C  C372  1  0.797500  0.922000  0.993200  1.0  0.049
  C  C373  1  0.846800  0.911900  0.000700  1.0  -0.1028
  C  C374  1  0.875700  0.937700  0.025000  1.0  -0.0547
  C  C375  1  0.767400  0.893900  0.969200  1.0  -0.0962
  C  C376  1  0.725600  0.793200  0.865800  1.0  0.1109
  C  C377  1  0.751700  0.819700  0.892000  1.0  -0.1168
  C  C378  1  0.722500  0.842800  0.917100  1.0  0.0212
  C  C379  1  0.671600  0.840000  0.916100  1.0  -0.1265
  C  C380  1  0.649400  0.812400  0.888900  1.0  0.0931
  C  C381  1  0.746100  0.870800  0.947200  1.0  -0.0964
  C  C382  1  0.935100  0.972200  0.104900  1.0  -0.3291
  C  C383  1  0.985100  0.979100  0.112500  1.0  -0.0551
  C  C384  1  0.011600  0.951800  0.137000  1.0  -0.1041
  C  C385  1  0.988100  0.917500  0.153900  1.0  -0.051
  C  C386  1  0.938000  0.910600  0.146300  1.0  -0.1052
  C  C387  1  0.911500  0.937900  0.121800  1.0  -0.0637
  C  C388  1  0.015800  0.889900  0.179800  1.0  -0.0554
  C  C389  1  0.083200  0.769600  0.254000  1.0  0.1395
  C  C390  1  0.058300  0.793300  0.226300  1.0  -0.1379
  C  C391  1  0.063800  0.838000  0.229000  1.0  -0.0607
  C  C392  1  0.093300  0.856500  0.258600  1.0  -0.1475
  C  C393  1  0.115900  0.827800  0.285500  1.0  0.1277
  C  C394  1  0.036300  0.866500  0.201600  1.0  0.0109
  C  C395  1  0.859300  0.043800  0.105400  1.0  -0.3162
  C  C396  1  0.847600  0.085500  0.094600  1.0  -0.0293
  C  C397  1  0.819300  0.110800  0.118000  1.0  -0.1271
  C  C398  1  0.802600  0.094500  0.152200  1.0  0.0636
  C  C399  1  0.814300  0.052900  0.163100  1.0  -0.1216
  C  C400  1  0.842600  0.027500  0.139700  1.0  -0.0486
  C  C401  1  0.772800  0.119900  0.178000  1.0  -0.1125
  C  C402  1  0.673200  0.171800  0.281100  1.0  0.1244
  C  C403  1  0.697100  0.146700  0.253600  1.0  -0.1198
  C  C404  1  0.725300  0.168300  0.227100  1.0  0.0681
  C  C405  1  0.729000  0.213100  0.226700  1.0  -0.1301
  C  C406  1  0.703100  0.235400  0.255100  1.0  0.1317
  C  C407  1  0.751400  0.142400  0.198700  1.0  -0.1171
  C  C408  1  0.934200  0.043300  0.041700  1.0  -0.351
  C  C409  1  0.927400  0.039300  0.002200  1.0  -0.0343
  C  C410  1  0.953500  0.065600  0.977900  1.0  -0.0954
  C  C411  1  0.986400  0.095700  0.993100  1.0  -0.0275
  C  C412  1  0.993200  0.099700  0.032700  1.0  -0.1169
  C  C413  1  0.967100  0.073400  0.056900  1.0  -0.0455
  C  C414  1  0.011100  0.126200  0.969000  1.0  -0.0132
  C  C415  1  0.058700  0.215500  0.861200  1.0  0.1388
  C  C416  1  0.032100  0.192500  0.888400  1.0  -0.1287
  C  C417  1  0.060100  0.174100  0.919100  1.0  -0.0223
  C  C418  1  0.111100  0.178100  0.923300  1.0  -0.0133
  C  C419  1  0.133900  0.202300  0.894300  1.0  0.1767
  C  C420  1  0.033500  0.147400  0.947600  1.0  -0.0283
  C  C421  1  0.355200  0.473500  0.041800  1.0  -0.3472
  C  C422  1  0.305900  0.483600  0.034300  1.0  -0.0404
  C  C423  1  0.277000  0.457800  0.010000  1.0  -0.1325
  C  C424  1  0.297500  0.422000  0.993200  1.0  0.049
  C  C425  1  0.346800  0.411900  0.000700  1.0  -0.1028
  C  C426  1  0.375700  0.437700  0.025000  1.0  -0.0547
  C  C427  1  0.267400  0.393900  0.969200  1.0  -0.0962
  C  C428  1  0.225600  0.293200  0.865800  1.0  0.1109
  C  C429  1  0.251700  0.319700  0.892000  1.0  -0.1168
  C  C430  1  0.222500  0.342800  0.917100  1.0  0.0212
  C  C431  1  0.171600  0.340000  0.916100  1.0  -0.1265
  C  C432  1  0.149400  0.312400  0.888900  1.0  0.0931
  C  C433  1  0.246100  0.370800  0.947200  1.0  -0.0964
  C  C434  1  0.435100  0.472200  0.104900  1.0  -0.3291
  C  C435  1  0.485100  0.479100  0.112500  1.0  -0.0551
  C  C436  1  0.511600  0.451800  0.137000  1.0  -0.1041
  C  C437  1  0.488100  0.417500  0.153900  1.0  -0.051
  C  C438  1  0.438000  0.410600  0.146300  1.0  -0.1052
  C  C439  1  0.411500  0.437900  0.121800  1.0  -0.0637
  C  C440  1  0.515800  0.389900  0.179800  1.0  -0.0554
  C  C441  1  0.583200  0.269600  0.254000  1.0  0.1395
  C  C442  1  0.558300  0.293300  0.226300  1.0  -0.1379
  C  C443  1  0.563800  0.338000  0.229000  1.0  -0.0607
  C  C444  1  0.593300  0.356500  0.258600  1.0  -0.1475
  C  C445  1  0.615900  0.327800  0.285500  1.0  0.1277
  C  C446  1  0.536300  0.366500  0.201600  1.0  0.0109
  C  C447  1  0.359300  0.543800  0.105400  1.0  -0.3162
  C  C448  1  0.347600  0.585500  0.094600  1.0  -0.0293
  C  C449  1  0.319300  0.610800  0.118000  1.0  -0.1271
  C  C450  1  0.302600  0.594500  0.152200  1.0  0.0636
  C  C451  1  0.314300  0.552900  0.163100  1.0  -0.1216
  C  C452  1  0.342600  0.527500  0.139700  1.0  -0.0486
  C  C453  1  0.272800  0.619900  0.178000  1.0  -0.1125
  C  C454  1  0.173200  0.671800  0.281100  1.0  0.1244
  C  C455  1  0.197100  0.646700  0.253600  1.0  -0.1198
  C  C456  1  0.225300  0.668300  0.227100  1.0  0.0681
  C  C457  1  0.229000  0.713100  0.226700  1.0  -0.1301
  C  C458  1  0.203100  0.735400  0.255100  1.0  0.1317
  C  C459  1  0.251400  0.642400  0.198700  1.0  -0.1171
  C  C460  1  0.434200  0.543300  0.041700  1.0  -0.351
  C  C461  1  0.427400  0.539300  0.002200  1.0  -0.0343
  C  C462  1  0.453500  0.565600  0.977900  1.0  -0.0954
  C  C463  1  0.486400  0.595700  0.993100  1.0  -0.0275
  C  C464  1  0.493200  0.599700  0.032700  1.0  -0.1169
  C  C465  1  0.467100  0.573400  0.056900  1.0  -0.0455
  C  C466  1  0.511100  0.626200  0.969000  1.0  -0.0132
  C  C467  1  0.558700  0.715500  0.861200  1.0  0.1388
  C  C468  1  0.532100  0.692500  0.888400  1.0  -0.1287
  C  C469  1  0.560100  0.674100  0.919100  1.0  -0.0223
  C  C470  1  0.611100  0.678100  0.923300  1.0  -0.0133
  C  C471  1  0.633900  0.702300  0.894300  1.0  0.1767
  C  C472  1  0.533500  0.647400  0.947600  1.0  -0.0283
  C  C473  1  0.144800  0.026500  0.958200  1.0  -0.348
  C  C474  1  0.194100  0.016400  0.965700  1.0  -0.0415
  C  C475  1  0.223000  0.042200  0.990000  1.0  -0.1316
  C  C476  1  0.202500  0.078000  0.006800  1.0  0.048
  C  C477  1  0.153200  0.088100  0.999300  1.0  -0.1024
  C  C478  1  0.124300  0.062300  0.975000  1.0  -0.0532
  C  C479  1  0.232600  0.106100  0.030800  1.0  -0.0948
  C  C480  1  0.274400  0.206800  0.134200  1.0  0.1119
  C  C481  1  0.248300  0.180300  0.108000  1.0  -0.1153
  C  C482  1  0.277500  0.157200  0.082900  1.0  0.021
  C  C483  1  0.328400  0.160000  0.083900  1.0  -0.1235
  C  C484  1  0.350600  0.187600  0.111100  1.0  0.0935
  C  C485  1  0.253900  0.129200  0.052800  1.0  -0.0994
  C  C486  1  0.064900  0.027800  0.895100  1.0  -0.3291
  C  C487  1  0.014900  0.020900  0.887500  1.0  -0.0507
  C  C488  1  0.988400  0.048200  0.863000  1.0  -0.1069
  C  C489  1  0.011900  0.082500  0.846100  1.0  -0.0493
  C  C490  1  0.062000  0.089400  0.853700  1.0  -0.1057
  C  C491  1  0.088500  0.062100  0.878200  1.0  -0.0652
  C  C492  1  0.984200  0.110100  0.820200  1.0  -0.0565
  C  C493  1  0.916800  0.230400  0.746000  1.0  0.1385
  C  C494  1  0.941700  0.206700  0.773700  1.0  -0.1392
  C  C495  1  0.936200  0.162000  0.771000  1.0  -0.0566
  C  C496  1  0.906700  0.143500  0.741400  1.0  -0.1478
  C  C497  1  0.884100  0.172200  0.714500  1.0  0.1265
  C  C498  1  0.963700  0.133500  0.798400  1.0  0.0103
  C  C499  1  0.140700  0.956200  0.894600  1.0  -0.3184
  C  C500  1  0.152400  0.914500  0.905400  1.0  -0.0271
  C  C501  1  0.180700  0.889200  0.882000  1.0  -0.1273
  C  C502  1  0.197400  0.905500  0.847800  1.0  0.0633
  C  C503  1  0.185700  0.947100  0.836900  1.0  -0.121
  C  C504  1  0.157400  0.972500  0.860300  1.0  -0.0499
  C  C505  1  0.227200  0.880100  0.822000  1.0  -0.1117
  C  C506  1  0.326800  0.828200  0.718900  1.0  0.1227
  C  C507  1  0.302900  0.853300  0.746400  1.0  -0.1192
  C  C508  1  0.274700  0.831700  0.772900  1.0  0.0665
  C  C509  1  0.271000  0.786900  0.773300  1.0  -0.1315
  C  C510  1  0.296900  0.764600  0.744900  1.0  0.1328
  C  C511  1  0.248600  0.857600  0.801300  1.0  -0.1174
  C  C512  1  0.065800  0.956700  0.958300  1.0  -0.3519
  C  C513  1  0.072600  0.960700  0.997800  1.0  -0.0355
  C  C514  1  0.046500  0.934400  0.022100  1.0  -0.0952
  C  C515  1  0.013600  0.904300  0.006900  1.0  -0.0282
  C  C516  1  0.006800  0.900300  0.967300  1.0  -0.1171
  C  C517  1  0.032900  0.926600  0.943100  1.0  -0.043
  C  C518  1  0.988900  0.873800  0.031000  1.0  -0.0173
  C  C519  1  0.941300  0.784500  0.138800  1.0  0.14
  C  C520  1  0.967900  0.807500  0.111600  1.0  -0.1273
  C  C521  1  0.939900  0.825900  0.080900  1.0  -0.0338
  C  C522  1  0.888900  0.821900  0.076700  1.0  -0.0147
  C  C523  1  0.866100  0.797700  0.105700  1.0  0.1769
  C  C524  1  0.966500  0.852600  0.052400  1.0  -0.0278
  C  C525  1  0.644800  0.526500  0.958200  1.0  -0.348
  C  C526  1  0.694100  0.516400  0.965700  1.0  -0.0415
  C  C527  1  0.723000  0.542200  0.990000  1.0  -0.1316
  C  C528  1  0.702500  0.578000  0.006800  1.0  0.048
  C  C529  1  0.653200  0.588100  0.999300  1.0  -0.1024
  C  C530  1  0.624300  0.562300  0.975000  1.0  -0.0532
  C  C531  1  0.732600  0.606100  0.030800  1.0  -0.0948
  C  C532  1  0.774400  0.706800  0.134200  1.0  0.1119
  C  C533  1  0.748300  0.680300  0.108000  1.0  -0.1153
  C  C534  1  0.777500  0.657200  0.082900  1.0  0.021
  C  C535  1  0.828400  0.660000  0.083900  1.0  -0.1235
  C  C536  1  0.850600  0.687600  0.111100  1.0  0.0935
  C  C537  1  0.753900  0.629200  0.052800  1.0  -0.0994
  C  C538  1  0.564900  0.527800  0.895100  1.0  -0.3291
  C  C539  1  0.514900  0.520900  0.887500  1.0  -0.0507
  C  C540  1  0.488400  0.548200  0.863000  1.0  -0.1069
  C  C541  1  0.511900  0.582500  0.846100  1.0  -0.0493
  C  C542  1  0.562000  0.589400  0.853700  1.0  -0.1057
  C  C543  1  0.588500  0.562100  0.878200  1.0  -0.0652
  C  C544  1  0.484200  0.610100  0.820200  1.0  -0.0565
  C  C545  1  0.416800  0.730400  0.746000  1.0  0.1385
  C  C546  1  0.441700  0.706700  0.773700  1.0  -0.1392
  C  C547  1  0.436200  0.662000  0.771000  1.0  -0.0566
  C  C548  1  0.406700  0.643500  0.741400  1.0  -0.1478
  C  C549  1  0.384100  0.672200  0.714500  1.0  0.1265
  C  C550  1  0.463700  0.633500  0.798400  1.0  0.0103
  C  C551  1  0.640700  0.456200  0.894600  1.0  -0.3184
  C  C552  1  0.652400  0.414500  0.905400  1.0  -0.0271
  C  C553  1  0.680700  0.389200  0.882000  1.0  -0.1273
  C  C554  1  0.697400  0.405500  0.847800  1.0  0.0633
  C  C555  1  0.685700  0.447100  0.836900  1.0  -0.121
  C  C556  1  0.657400  0.472500  0.860300  1.0  -0.0499
  C  C557  1  0.727200  0.380100  0.822000  1.0  -0.1117
  C  C558  1  0.826800  0.328200  0.718900  1.0  0.1227
  C  C559  1  0.802900  0.353300  0.746400  1.0  -0.1192
  C  C560  1  0.774700  0.331700  0.772900  1.0  0.0665
  C  C561  1  0.771000  0.286900  0.773300  1.0  -0.1315
  C  C562  1  0.796900  0.264600  0.744900  1.0  0.1328
  C  C563  1  0.748600  0.357600  0.801300  1.0  -0.1174
  C  C564  1  0.565800  0.456700  0.958300  1.0  -0.3519
  C  C565  1  0.572600  0.460700  0.997800  1.0  -0.0355
  C  C566  1  0.546500  0.434400  0.022100  1.0  -0.0952
  C  C567  1  0.513600  0.404300  0.006900  1.0  -0.0282
  C  C568  1  0.506800  0.400300  0.967300  1.0  -0.1171
  C  C569  1  0.532900  0.426600  0.943100  1.0  -0.043
  C  C570  1  0.488900  0.373800  0.031000  1.0  -0.0173
  C  C571  1  0.441300  0.284500  0.138800  1.0  0.14
  C  C572  1  0.467900  0.307500  0.111600  1.0  -0.1273
  C  C573  1  0.439900  0.325900  0.080900  1.0  -0.0338
  C  C574  1  0.388900  0.321900  0.076700  1.0  -0.0147
  C  C575  1  0.366100  0.297700  0.105700  1.0  0.1769
  C  C576  1  0.466500  0.352600  0.052400  1.0  -0.0278
  C  C577  1  0.144800  0.973500  0.458200  1.0  -0.3479
  C  C578  1  0.194100  0.983600  0.465700  1.0  -0.0423
  C  C579  1  0.223000  0.957800  0.490000  1.0  -0.1313
  C  C580  1  0.202500  0.922000  0.506800  1.0  0.0481
  C  C581  1  0.153200  0.911900  0.499300  1.0  -0.1025
  C  C582  1  0.124300  0.937700  0.475000  1.0  -0.052
  C  C583  1  0.232600  0.893900  0.530800  1.0  -0.0944
  C  C584  1  0.274400  0.793200  0.634200  1.0  0.112
  C  C585  1  0.248300  0.819700  0.608000  1.0  -0.1158
  C  C586  1  0.277500  0.842800  0.582900  1.0  0.021
  C  C587  1  0.328400  0.840000  0.583900  1.0  -0.1233
  C  C588  1  0.350600  0.812400  0.611100  1.0  0.0935
  C  C589  1  0.253900  0.870800  0.552800  1.0  -0.0985
  C  C590  1  0.064900  0.972200  0.395100  1.0  -0.3288
  C  C591  1  0.014900  0.979100  0.387500  1.0  -0.0522
  C  C592  1  0.988400  0.951800  0.363000  1.0  -0.1069
  C  C593  1  0.011900  0.917500  0.346100  1.0  -0.05
  C  C594  1  0.062000  0.910600  0.353700  1.0  -0.1058
  C  C595  1  0.088500  0.937900  0.378200  1.0  -0.0651
  C  C596  1  0.984200  0.889900  0.320200  1.0  -0.0576
  C  C597  1  0.916800  0.769600  0.246000  1.0  0.1396
  C  C598  1  0.941700  0.793300  0.273700  1.0  -0.1385
  C  C599  1  0.936200  0.838000  0.271000  1.0  -0.0582
  C  C600  1  0.906700  0.856500  0.241400  1.0  -0.1482
  C  C601  1  0.884100  0.827800  0.214500  1.0  0.1263
  C  C602  1  0.963700  0.866500  0.298400  1.0  0.0104
  C  C603  1  0.140700  0.043800  0.394600  1.0  -0.3175
  C  C604  1  0.152400  0.085500  0.405400  1.0  -0.0295
  C  C605  1  0.180700  0.110800  0.382000  1.0  -0.1264
  C  C606  1  0.197400  0.094500  0.347800  1.0  0.0625
  C  C607  1  0.185700  0.052900  0.336900  1.0  -0.1204
  C  C608  1  0.157400  0.027500  0.360300  1.0  -0.0485
  C  C609  1  0.227200  0.119900  0.322000  1.0  -0.1113
  C  C610  1  0.326800  0.171800  0.218900  1.0  0.1235
  C  C611  1  0.302900  0.146700  0.246400  1.0  -0.1203
  C  C612  1  0.274700  0.168300  0.272900  1.0  0.0661
  C  C613  1  0.271000  0.213100  0.273300  1.0  -0.132
  C  C614  1  0.296900  0.235400  0.244900  1.0  0.1329
  C  C615  1  0.248600  0.142400  0.301300  1.0  -0.1173
  C  C616  1  0.065800  0.043300  0.458300  1.0  -0.3524
  C  C617  1  0.072600  0.039300  0.497800  1.0  -0.0355
  C  C618  1  0.046500  0.065600  0.522100  1.0  -0.0955
  C  C619  1  0.013600  0.095700  0.506900  1.0  -0.0279
  C  C620  1  0.006800  0.099700  0.467300  1.0  -0.1189
  C  C621  1  0.032900  0.073400  0.443100  1.0  -0.0444
  C  C622  1  0.988900  0.126200  0.531000  1.0  -0.0165
  C  C623  1  0.941300  0.215500  0.638800  1.0  0.1389
  C  C624  1  0.967900  0.192500  0.611600  1.0  -0.1268
  C  C625  1  0.939900  0.174100  0.580900  1.0  -0.0364
  C  C626  1  0.888900  0.178100  0.576700  1.0  -0.0147
  C  C627  1  0.866100  0.202300  0.605700  1.0  0.1777
  C  C628  1  0.966500  0.147400  0.552400  1.0  -0.0262
  C  C629  1  0.644800  0.473500  0.458200  1.0  -0.3479
  C  C630  1  0.694100  0.483600  0.465700  1.0  -0.0423
  C  C631  1  0.723000  0.457800  0.490000  1.0  -0.1313
  C  C632  1  0.702500  0.422000  0.506800  1.0  0.0481
  C  C633  1  0.653200  0.411900  0.499300  1.0  -0.1025
  C  C634  1  0.624300  0.437700  0.475000  1.0  -0.052
  C  C635  1  0.732600  0.393900  0.530800  1.0  -0.0944
  C  C636  1  0.774400  0.293200  0.634200  1.0  0.112
  C  C637  1  0.748300  0.319700  0.608000  1.0  -0.1158
  C  C638  1  0.777500  0.342800  0.582900  1.0  0.021
  C  C639  1  0.828400  0.340000  0.583900  1.0  -0.1233
  C  C640  1  0.850600  0.312400  0.611100  1.0  0.0935
  C  C641  1  0.753900  0.370800  0.552800  1.0  -0.0985
  C  C642  1  0.564900  0.472200  0.395100  1.0  -0.3288
  C  C643  1  0.514900  0.479100  0.387500  1.0  -0.0522
  C  C644  1  0.488400  0.451800  0.363000  1.0  -0.1069
  C  C645  1  0.511900  0.417500  0.346100  1.0  -0.05
  C  C646  1  0.562000  0.410600  0.353700  1.0  -0.1058
  C  C647  1  0.588500  0.437900  0.378200  1.0  -0.0651
  C  C648  1  0.484200  0.389900  0.320200  1.0  -0.0576
  C  C649  1  0.416800  0.269600  0.246000  1.0  0.1396
  C  C650  1  0.441700  0.293300  0.273700  1.0  -0.1385
  C  C651  1  0.436200  0.338000  0.271000  1.0  -0.0582
  C  C652  1  0.406700  0.356500  0.241400  1.0  -0.1482
  C  C653  1  0.384100  0.327800  0.214500  1.0  0.1263
  C  C654  1  0.463700  0.366500  0.298400  1.0  0.0104
  C  C655  1  0.640700  0.543800  0.394600  1.0  -0.3175
  C  C656  1  0.652400  0.585500  0.405400  1.0  -0.0295
  C  C657  1  0.680700  0.610800  0.382000  1.0  -0.1264
  C  C658  1  0.697400  0.594500  0.347800  1.0  0.0625
  C  C659  1  0.685700  0.552900  0.336900  1.0  -0.1204
  C  C660  1  0.657400  0.527500  0.360300  1.0  -0.0485
  C  C661  1  0.727200  0.619900  0.322000  1.0  -0.1113
  C  C662  1  0.826800  0.671800  0.218900  1.0  0.1235
  C  C663  1  0.802900  0.646700  0.246400  1.0  -0.1203
  C  C664  1  0.774700  0.668300  0.272900  1.0  0.0661
  C  C665  1  0.771000  0.713100  0.273300  1.0  -0.132
  C  C666  1  0.796900  0.735400  0.244900  1.0  0.1329
  C  C667  1  0.748600  0.642400  0.301300  1.0  -0.1173
  C  C668  1  0.565800  0.543300  0.458300  1.0  -0.3524
  C  C669  1  0.572600  0.539300  0.497800  1.0  -0.0355
  C  C670  1  0.546500  0.565600  0.522100  1.0  -0.0955
  C  C671  1  0.513600  0.595700  0.506900  1.0  -0.0279
  C  C672  1  0.506800  0.599700  0.467300  1.0  -0.1189
  C  C673  1  0.532900  0.573400  0.443100  1.0  -0.0444
  C  C674  1  0.488900  0.626200  0.531000  1.0  -0.0165
  C  C675  1  0.441300  0.715500  0.638800  1.0  0.1389
  C  C676  1  0.467900  0.692500  0.611600  1.0  -0.1268
  C  C677  1  0.439900  0.674100  0.580900  1.0  -0.0364
  C  C678  1  0.388900  0.678100  0.576700  1.0  -0.0147
  C  C679  1  0.366100  0.702300  0.605700  1.0  0.1777
  C  C680  1  0.466500  0.647400  0.552400  1.0  -0.0262
  N  N681  1  0.676400  0.208100  0.364300  1.0  -0.2978
  N  N682  1  0.111200  0.214200  0.782700  1.0  -0.3136
  N  N683  1  0.677600  0.786000  0.780800  1.0  -0.2925
  N  N684  1  0.106500  0.780900  0.364800  1.0  -0.3198
  N  N685  1  0.176400  0.708100  0.364300  1.0  -0.2978
  N  N686  1  0.611200  0.714200  0.782700  1.0  -0.3136
  N  N687  1  0.177600  0.286000  0.780800  1.0  -0.2925
  N  N688  1  0.606500  0.280900  0.364800  1.0  -0.3198
  N  N689  1  0.676400  0.791900  0.864300  1.0  -0.2973
  N  N690  1  0.111200  0.785800  0.282700  1.0  -0.3128
  N  N691  1  0.677600  0.214000  0.280800  1.0  -0.2923
  N  N692  1  0.106500  0.219100  0.864800  1.0  -0.3208
  N  N693  1  0.176400  0.291900  0.864300  1.0  -0.2973
  N  N694  1  0.611200  0.285800  0.282700  1.0  -0.3128
  N  N695  1  0.177600  0.714000  0.280800  1.0  -0.2923
  N  N696  1  0.606500  0.719100  0.864800  1.0  -0.3208
  N  N697  1  0.323600  0.208100  0.135700  1.0  -0.2979
  N  N698  1  0.888800  0.214200  0.717300  1.0  -0.3146
  N  N699  1  0.322400  0.786000  0.719200  1.0  -0.2912
  N  N700  1  0.893500  0.780900  0.135200  1.0  -0.3218
  N  N701  1  0.823600  0.708100  0.135700  1.0  -0.2979
  N  N702  1  0.388800  0.714200  0.717300  1.0  -0.3146
  N  N703  1  0.822400  0.286000  0.719200  1.0  -0.2912
  N  N704  1  0.393500  0.280900  0.135200  1.0  -0.3218
  N  N705  1  0.323600  0.791900  0.635700  1.0  -0.2982
  N  N706  1  0.888800  0.785800  0.217300  1.0  -0.3148
  N  N707  1  0.322400  0.214000  0.219200  1.0  -0.2912
  N  N708  1  0.893500  0.219100  0.635200  1.0  -0.3225
  N  N709  1  0.823600  0.291900  0.635700  1.0  -0.2982
  N  N710  1  0.388800  0.285800  0.217300  1.0  -0.3148
  N  N711  1  0.822400  0.714000  0.219200  1.0  -0.2912
  N  N712  1  0.393500  0.719100  0.635200  1.0  -0.3225
