# generated using pymatgen
data_AgH24(C6N)4
_symmetry_space_group_name_H-M   'P 1'
_cell_length_a   30.57650000
_cell_length_b   28.36300000
_cell_length_c   12.27560000
_cell_angle_alpha   90.00000000
_cell_angle_beta   90.00000000
_cell_angle_gamma   90.00000000
_symmetry_Int_Tables_number   1
_chemical_formula_structural   AgH24(C6N)4
_chemical_formula_sum   'Ag16 H384 C384 N64'
_cell_volume   10645.90692787
_cell_formula_units_Z   16
loop_
 _symmetry_equiv_pos_site_id
 _symmetry_equiv_pos_as_xyz
  1  'x, y, z'
loop_
 _atom_site_type_symbol
 _atom_site_label
 _atom_site_symmetry_multiplicity
 _atom_site_fract_x
 _atom_site_fract_y
 _atom_site_fract_z
 _atom_site_occupancy
 _atom_site_charge
  Ag  Ag1  1  0.384460  0.125000  0.625000  1.0  0.3369
  Ag  Ag2  1  0.884460  0.125000  0.125000  1.0  0.3369
  Ag  Ag3  1  0.884460  0.625000  0.625000  1.0  0.3369
  Ag  Ag4  1  0.384460  0.625000  0.125000  1.0  0.3369
  Ag  Ag5  1  0.634460  0.375000  0.375000  1.0  0.3369
  Ag  Ag6  1  0.134460  0.375000  0.875000  1.0  0.3369
  Ag  Ag7  1  0.634460  0.875000  0.875000  1.0  0.3369
  Ag  Ag8  1  0.134460  0.875000  0.375000  1.0  0.3369
  Ag  Ag9  1  0.365540  0.625000  0.625000  1.0  0.3372
  Ag  Ag10  1  0.865540  0.625000  0.125000  1.0  0.3372
  Ag  Ag11  1  0.365540  0.125000  0.125000  1.0  0.3372
  Ag  Ag12  1  0.865540  0.125000  0.625000  1.0  0.3372
  Ag  Ag13  1  0.615540  0.875000  0.375000  1.0  0.3372
  Ag  Ag14  1  0.115540  0.875000  0.875000  1.0  0.3372
  Ag  Ag15  1  0.615540  0.375000  0.875000  1.0  0.3372
  Ag  Ag16  1  0.115540  0.375000  0.375000  1.0  0.3372
  H  H17  1  0.388000  0.026600  0.494500  1.0  0.0583
  H  H18  1  0.427900  0.981900  0.376500  1.0  0.1197
  H  H19  1  0.523800  0.075700  0.400500  1.0  0.1224
  H  H20  1  0.481000  0.118200  0.516700  1.0  0.0554
  H  H21  1  0.623700  0.981900  0.974400  1.0  0.0583
  H  H22  1  0.580800  0.027600  0.083600  1.0  0.1142
  H  H23  1  0.494600  0.922300  0.094300  1.0  0.1124
  H  H24  1  0.539900  0.879400  0.985700  1.0  0.0509
  H  H25  1  0.500900  0.961700  0.304300  1.0  0.0907
  H  H26  1  0.538900  0.998300  0.317600  1.0  0.086
  H  H27  1  0.510800  0.042000  0.170500  1.0  0.0893
  H  H28  1  0.473300  0.004800  0.156500  1.0  0.0783
  H  H29  1  0.388000  0.526600  0.994500  1.0  0.0583
  H  H30  1  0.427900  0.481900  0.876500  1.0  0.1197
  H  H31  1  0.523800  0.575700  0.900500  1.0  0.1224
  H  H32  1  0.481000  0.618200  0.016700  1.0  0.0554
  H  H33  1  0.623700  0.481900  0.474400  1.0  0.0583
  H  H34  1  0.580800  0.527600  0.583600  1.0  0.1142
  H  H35  1  0.494600  0.422300  0.594300  1.0  0.1124
  H  H36  1  0.539900  0.379400  0.485700  1.0  0.0509
  H  H37  1  0.500900  0.461700  0.804300  1.0  0.0907
  H  H38  1  0.538900  0.498300  0.817600  1.0  0.086
  H  H39  1  0.510800  0.542000  0.670500  1.0  0.0893
  H  H40  1  0.473300  0.504800  0.656500  1.0  0.0783
  H  H41  1  0.888000  0.026600  0.994500  1.0  0.0583
  H  H42  1  0.927900  0.981900  0.876500  1.0  0.1197
  H  H43  1  0.023800  0.075700  0.900500  1.0  0.1224
  H  H44  1  0.981000  0.118200  0.016700  1.0  0.0554
  H  H45  1  0.123700  0.981900  0.474400  1.0  0.0583
  H  H46  1  0.080800  0.027600  0.583600  1.0  0.1142
  H  H47  1  0.994600  0.922300  0.594300  1.0  0.1124
  H  H48  1  0.039900  0.879400  0.485700  1.0  0.0509
  H  H49  1  0.000900  0.961700  0.804300  1.0  0.0907
  H  H50  1  0.038900  0.998300  0.817600  1.0  0.086
  H  H51  1  0.010800  0.042000  0.670500  1.0  0.0893
  H  H52  1  0.973300  0.004800  0.656500  1.0  0.0783
  H  H53  1  0.888000  0.526600  0.494500  1.0  0.0583
  H  H54  1  0.927900  0.481900  0.376500  1.0  0.1197
  H  H55  1  0.023800  0.575700  0.400500  1.0  0.1224
  H  H56  1  0.981000  0.618200  0.516700  1.0  0.0554
  H  H57  1  0.123700  0.481900  0.974400  1.0  0.0583
  H  H58  1  0.080800  0.527600  0.083600  1.0  0.1142
  H  H59  1  0.994600  0.422300  0.094300  1.0  0.1124
  H  H60  1  0.039900  0.379400  0.985700  1.0  0.0509
  H  H61  1  0.000900  0.461700  0.304300  1.0  0.0907
  H  H62  1  0.038900  0.498300  0.317600  1.0  0.086
  H  H63  1  0.010800  0.542000  0.170500  1.0  0.0893
  H  H64  1  0.973300  0.504800  0.156500  1.0  0.0783
  H  H65  1  0.388000  0.723400  0.255500  1.0  0.0585
  H  H66  1  0.427900  0.768100  0.373500  1.0  0.12
  H  H67  1  0.523800  0.674300  0.349500  1.0  0.1217
  H  H68  1  0.481000  0.631800  0.233300  1.0  0.0556
  H  H69  1  0.623700  0.768100  0.775600  1.0  0.0586
  H  H70  1  0.580800  0.722400  0.666400  1.0  0.1159
  H  H71  1  0.494600  0.827700  0.655700  1.0  0.1124
  H  H72  1  0.539900  0.870600  0.764300  1.0  0.0504
  H  H73  1  0.500900  0.788300  0.445700  1.0  0.0906
  H  H74  1  0.538900  0.751700  0.432400  1.0  0.0853
  H  H75  1  0.510800  0.708000  0.579500  1.0  0.0922
  H  H76  1  0.473300  0.745200  0.593500  1.0  0.0786
  H  H77  1  0.388000  0.223400  0.755500  1.0  0.0585
  H  H78  1  0.427900  0.268100  0.873500  1.0  0.12
  H  H79  1  0.523800  0.174300  0.849500  1.0  0.1217
  H  H80  1  0.481000  0.131800  0.733300  1.0  0.0556
  H  H81  1  0.623700  0.268100  0.275600  1.0  0.0586
  H  H82  1  0.580800  0.222400  0.166400  1.0  0.1159
  H  H83  1  0.494600  0.327700  0.155700  1.0  0.1124
  H  H84  1  0.539900  0.370600  0.264300  1.0  0.0504
  H  H85  1  0.500900  0.288300  0.945700  1.0  0.0906
  H  H86  1  0.538900  0.251700  0.932400  1.0  0.0853
  H  H87  1  0.510800  0.208000  0.079500  1.0  0.0922
  H  H88  1  0.473300  0.245200  0.093500  1.0  0.0786
  H  H89  1  0.888000  0.723400  0.755500  1.0  0.0585
  H  H90  1  0.927900  0.768100  0.873500  1.0  0.12
  H  H91  1  0.023800  0.674300  0.849500  1.0  0.1217
  H  H92  1  0.981000  0.631800  0.733300  1.0  0.0556
  H  H93  1  0.123700  0.768100  0.275600  1.0  0.0586
  H  H94  1  0.080800  0.722400  0.166400  1.0  0.1159
  H  H95  1  0.994600  0.827700  0.155700  1.0  0.1124
  H  H96  1  0.039900  0.870600  0.264300  1.0  0.0504
  H  H97  1  0.000900  0.788300  0.945700  1.0  0.0906
  H  H98  1  0.038900  0.751700  0.932400  1.0  0.0853
  H  H99  1  0.010800  0.708000  0.079500  1.0  0.0922
  H  H100  1  0.973300  0.745200  0.093500  1.0  0.0786
  H  H101  1  0.888000  0.223400  0.255500  1.0  0.0585
  H  H102  1  0.927900  0.268100  0.373500  1.0  0.12
  H  H103  1  0.023800  0.174300  0.349500  1.0  0.1217
  H  H104  1  0.981000  0.131800  0.233300  1.0  0.0556
  H  H105  1  0.123700  0.268100  0.775600  1.0  0.0586
  H  H106  1  0.080800  0.222400  0.666400  1.0  0.1159
  H  H107  1  0.994600  0.327700  0.655700  1.0  0.1124
  H  H108  1  0.039900  0.370600  0.764300  1.0  0.0504
  H  H109  1  0.000900  0.288300  0.445700  1.0  0.0906
  H  H110  1  0.038900  0.251700  0.432400  1.0  0.0853
  H  H111  1  0.010800  0.208000  0.579500  1.0  0.0922
  H  H112  1  0.973300  0.245200  0.593500  1.0  0.0786
  H  H113  1  0.638000  0.276600  0.505500  1.0  0.0584
  H  H114  1  0.677900  0.231900  0.623500  1.0  0.1201
  H  H115  1  0.773800  0.325700  0.599500  1.0  0.122
  H  H116  1  0.731000  0.368200  0.483300  1.0  0.0558
  H  H117  1  0.873700  0.231900  0.025600  1.0  0.0583
  H  H118  1  0.830800  0.277600  0.916400  1.0  0.1142
  H  H119  1  0.744600  0.172300  0.905700  1.0  0.1125
  H  H120  1  0.789900  0.129400  0.014300  1.0  0.0508
  H  H121  1  0.750900  0.211700  0.695700  1.0  0.0908
  H  H122  1  0.788900  0.248300  0.682400  1.0  0.0855
  H  H123  1  0.760800  0.292000  0.829500  1.0  0.0893
  H  H124  1  0.723300  0.254800  0.843500  1.0  0.0788
  H  H125  1  0.638000  0.776600  0.005500  1.0  0.0584
  H  H126  1  0.677900  0.731900  0.123500  1.0  0.1201
  H  H127  1  0.773800  0.825700  0.099500  1.0  0.122
  H  H128  1  0.731000  0.868200  0.983300  1.0  0.0558
  H  H129  1  0.873700  0.731900  0.525600  1.0  0.0583
  H  H130  1  0.830800  0.777600  0.416400  1.0  0.1142
  H  H131  1  0.744600  0.672300  0.405700  1.0  0.1125
  H  H132  1  0.789900  0.629400  0.514300  1.0  0.0508
  H  H133  1  0.750900  0.711700  0.195700  1.0  0.0908
  H  H134  1  0.788900  0.748300  0.182400  1.0  0.0855
  H  H135  1  0.760800  0.792000  0.329500  1.0  0.0893
  H  H136  1  0.723300  0.754800  0.343500  1.0  0.0788
  H  H137  1  0.138000  0.276600  0.005500  1.0  0.0584
  H  H138  1  0.177900  0.231900  0.123500  1.0  0.1201
  H  H139  1  0.273800  0.325700  0.099500  1.0  0.122
  H  H140  1  0.231000  0.368200  0.983300  1.0  0.0558
  H  H141  1  0.373700  0.231900  0.525600  1.0  0.0583
  H  H142  1  0.330800  0.277600  0.416400  1.0  0.1142
  H  H143  1  0.244600  0.172300  0.405700  1.0  0.1125
  H  H144  1  0.289900  0.129400  0.514300  1.0  0.0508
  H  H145  1  0.250900  0.211700  0.195700  1.0  0.0908
  H  H146  1  0.288900  0.248300  0.182400  1.0  0.0855
  H  H147  1  0.260800  0.292000  0.329500  1.0  0.0893
  H  H148  1  0.223300  0.254800  0.343500  1.0  0.0788
  H  H149  1  0.138000  0.776600  0.505500  1.0  0.0584
  H  H150  1  0.177900  0.731900  0.623500  1.0  0.1201
  H  H151  1  0.273800  0.825700  0.599500  1.0  0.122
  H  H152  1  0.231000  0.868200  0.483300  1.0  0.0558
  H  H153  1  0.373700  0.731900  0.025600  1.0  0.0583
  H  H154  1  0.330800  0.777600  0.916400  1.0  0.1142
  H  H155  1  0.244600  0.672300  0.905700  1.0  0.1125
  H  H156  1  0.289900  0.629400  0.014300  1.0  0.0508
  H  H157  1  0.250900  0.711700  0.695700  1.0  0.0908
  H  H158  1  0.288900  0.748300  0.682400  1.0  0.0855
  H  H159  1  0.260800  0.792000  0.829500  1.0  0.0893
  H  H160  1  0.223300  0.754800  0.843500  1.0  0.0788
  H  H161  1  0.638000  0.973400  0.744500  1.0  0.0581
  H  H162  1  0.677900  0.018100  0.626500  1.0  0.1201
  H  H163  1  0.773800  0.924300  0.650500  1.0  0.1219
  H  H164  1  0.731000  0.881800  0.766700  1.0  0.0555
  H  H165  1  0.873700  0.018100  0.224400  1.0  0.0583
  H  H166  1  0.830800  0.972400  0.333600  1.0  0.1155
  H  H167  1  0.744600  0.077700  0.344300  1.0  0.1123
  H  H168  1  0.789900  0.120600  0.235700  1.0  0.0506
  H  H169  1  0.750900  0.038300  0.554300  1.0  0.0903
  H  H170  1  0.788900  0.001700  0.567600  1.0  0.0863
  H  H171  1  0.760800  0.958000  0.420500  1.0  0.0919
  H  H172  1  0.723300  0.995200  0.406500  1.0  0.0783
  H  H173  1  0.638000  0.473400  0.244500  1.0  0.0581
  H  H174  1  0.677900  0.518100  0.126500  1.0  0.1201
  H  H175  1  0.773800  0.424300  0.150500  1.0  0.1219
  H  H176  1  0.731000  0.381800  0.266700  1.0  0.0555
  H  H177  1  0.873700  0.518100  0.724400  1.0  0.0583
  H  H178  1  0.830800  0.472400  0.833600  1.0  0.1155
  H  H179  1  0.744600  0.577700  0.844300  1.0  0.1123
  H  H180  1  0.789900  0.620600  0.735700  1.0  0.0506
  H  H181  1  0.750900  0.538300  0.054300  1.0  0.0903
  H  H182  1  0.788900  0.501700  0.067600  1.0  0.0863
  H  H183  1  0.760800  0.458000  0.920500  1.0  0.0919
  H  H184  1  0.723300  0.495200  0.906500  1.0  0.0783
  H  H185  1  0.138000  0.973400  0.244500  1.0  0.0581
  H  H186  1  0.177900  0.018100  0.126500  1.0  0.1201
  H  H187  1  0.273800  0.924300  0.150500  1.0  0.1219
  H  H188  1  0.231000  0.881800  0.266700  1.0  0.0555
  H  H189  1  0.373700  0.018100  0.724400  1.0  0.0583
  H  H190  1  0.330800  0.972400  0.833600  1.0  0.1155
  H  H191  1  0.244600  0.077700  0.844300  1.0  0.1123
  H  H192  1  0.289900  0.120600  0.735700  1.0  0.0506
  H  H193  1  0.250900  0.038300  0.054300  1.0  0.0903
  H  H194  1  0.288900  0.001700  0.067600  1.0  0.0863
  H  H195  1  0.260800  0.958000  0.920500  1.0  0.0919
  H  H196  1  0.223300  0.995200  0.906500  1.0  0.0783
  H  H197  1  0.138000  0.473400  0.744500  1.0  0.0581
  H  H198  1  0.177900  0.518100  0.626500  1.0  0.1201
  H  H199  1  0.273800  0.424300  0.650500  1.0  0.1219
  H  H200  1  0.231000  0.381800  0.766700  1.0  0.0555
  H  H201  1  0.373700  0.518100  0.224400  1.0  0.0583
  H  H202  1  0.330800  0.472400  0.333600  1.0  0.1155
  H  H203  1  0.244600  0.577700  0.344300  1.0  0.1123
  H  H204  1  0.289900  0.620600  0.235700  1.0  0.0506
  H  H205  1  0.250900  0.538300  0.554300  1.0  0.0903
  H  H206  1  0.288900  0.501700  0.567600  1.0  0.0863
  H  H207  1  0.260800  0.458000  0.420500  1.0  0.0919
  H  H208  1  0.223300  0.495200  0.406500  1.0  0.0783
  H  H209  1  0.362000  0.723400  0.494500  1.0  0.0581
  H  H210  1  0.322100  0.768100  0.376500  1.0  0.1199
  H  H211  1  0.226200  0.674300  0.400500  1.0  0.1213
  H  H212  1  0.269000  0.631800  0.516700  1.0  0.0559
  H  H213  1  0.126300  0.768100  0.974400  1.0  0.0584
  H  H214  1  0.169200  0.722400  0.083600  1.0  0.1156
  H  H215  1  0.255400  0.827700  0.094300  1.0  0.113
  H  H216  1  0.210100  0.870600  0.985700  1.0  0.0508
  H  H217  1  0.249100  0.788300  0.304300  1.0  0.0896
  H  H218  1  0.211100  0.751700  0.317600  1.0  0.0854
  H  H219  1  0.239200  0.708000  0.170500  1.0  0.0912
  H  H220  1  0.276700  0.745200  0.156500  1.0  0.0739
  H  H221  1  0.362000  0.223400  0.994500  1.0  0.0581
  H  H222  1  0.322100  0.268100  0.876500  1.0  0.1199
  H  H223  1  0.226200  0.174300  0.900500  1.0  0.1213
  H  H224  1  0.269000  0.131800  0.016700  1.0  0.0559
  H  H225  1  0.126300  0.268100  0.474400  1.0  0.0584
  H  H226  1  0.169200  0.222400  0.583600  1.0  0.1156
  H  H227  1  0.255400  0.327700  0.594300  1.0  0.113
  H  H228  1  0.210100  0.370600  0.485700  1.0  0.0508
  H  H229  1  0.249100  0.288300  0.804300  1.0  0.0896
  H  H230  1  0.211100  0.251700  0.817600  1.0  0.0854
  H  H231  1  0.239200  0.208000  0.670500  1.0  0.0912
  H  H232  1  0.276700  0.245200  0.656500  1.0  0.0739
  H  H233  1  0.862000  0.723400  0.994500  1.0  0.0581
  H  H234  1  0.822100  0.768100  0.876500  1.0  0.1199
  H  H235  1  0.726200  0.674300  0.900500  1.0  0.1213
  H  H236  1  0.769000  0.631800  0.016700  1.0  0.0559
  H  H237  1  0.626300  0.768100  0.474400  1.0  0.0584
  H  H238  1  0.669200  0.722400  0.583600  1.0  0.1156
  H  H239  1  0.755400  0.827700  0.594300  1.0  0.113
  H  H240  1  0.710100  0.870600  0.485700  1.0  0.0508
  H  H241  1  0.749100  0.788300  0.804300  1.0  0.0896
  H  H242  1  0.711100  0.751700  0.817600  1.0  0.0854
  H  H243  1  0.739200  0.708000  0.670500  1.0  0.0912
  H  H244  1  0.776700  0.745200  0.656500  1.0  0.0739
  H  H245  1  0.862000  0.223400  0.494500  1.0  0.0581
  H  H246  1  0.822100  0.268100  0.376500  1.0  0.1199
  H  H247  1  0.726200  0.174300  0.400500  1.0  0.1213
  H  H248  1  0.769000  0.131800  0.516700  1.0  0.0559
  H  H249  1  0.626300  0.268100  0.974400  1.0  0.0584
  H  H250  1  0.669200  0.222400  0.083600  1.0  0.1156
  H  H251  1  0.755400  0.327700  0.094300  1.0  0.113
  H  H252  1  0.710100  0.370600  0.985700  1.0  0.0508
  H  H253  1  0.749100  0.288300  0.304300  1.0  0.0896
  H  H254  1  0.711100  0.251700  0.317600  1.0  0.0854
  H  H255  1  0.739200  0.208000  0.170500  1.0  0.0912
  H  H256  1  0.776700  0.245200  0.156500  1.0  0.0739
  H  H257  1  0.362000  0.026600  0.255500  1.0  0.0582
  H  H258  1  0.322100  0.981900  0.373500  1.0  0.1197
  H  H259  1  0.226200  0.075700  0.349500  1.0  0.1211
  H  H260  1  0.269000  0.118200  0.233300  1.0  0.0559
  H  H261  1  0.126300  0.981900  0.775600  1.0  0.0584
  H  H262  1  0.169200  0.027600  0.666400  1.0  0.1148
  H  H263  1  0.255400  0.922300  0.655700  1.0  0.1133
  H  H264  1  0.210100  0.879400  0.764300  1.0  0.0509
  H  H265  1  0.249100  0.961700  0.445700  1.0  0.0933
  H  H266  1  0.211100  0.998300  0.432400  1.0  0.0854
  H  H267  1  0.239200  0.042000  0.579500  1.0  0.0897
  H  H268  1  0.276700  0.004800  0.593500  1.0  0.075
  H  H269  1  0.362000  0.526600  0.755500  1.0  0.0582
  H  H270  1  0.322100  0.481900  0.873500  1.0  0.1197
  H  H271  1  0.226200  0.575700  0.849500  1.0  0.1211
  H  H272  1  0.269000  0.618200  0.733300  1.0  0.0559
  H  H273  1  0.126300  0.481900  0.275600  1.0  0.0584
  H  H274  1  0.169200  0.527600  0.166400  1.0  0.1148
  H  H275  1  0.255400  0.422300  0.155700  1.0  0.1133
  H  H276  1  0.210100  0.379400  0.264300  1.0  0.0509
  H  H277  1  0.249100  0.461700  0.945700  1.0  0.0933
  H  H278  1  0.211100  0.498300  0.932400  1.0  0.0854
  H  H279  1  0.239200  0.542000  0.079500  1.0  0.0897
  H  H280  1  0.276700  0.504800  0.093500  1.0  0.075
  H  H281  1  0.862000  0.026600  0.755500  1.0  0.0582
  H  H282  1  0.822100  0.981900  0.873500  1.0  0.1197
  H  H283  1  0.726200  0.075700  0.849500  1.0  0.1211
  H  H284  1  0.769000  0.118200  0.733300  1.0  0.0559
  H  H285  1  0.626300  0.981900  0.275600  1.0  0.0584
  H  H286  1  0.669200  0.027600  0.166400  1.0  0.1148
  H  H287  1  0.755400  0.922300  0.155700  1.0  0.1133
  H  H288  1  0.710100  0.879400  0.264300  1.0  0.0509
  H  H289  1  0.749100  0.961700  0.945700  1.0  0.0933
  H  H290  1  0.711100  0.998300  0.932400  1.0  0.0854
  H  H291  1  0.739200  0.042000  0.079500  1.0  0.0897
  H  H292  1  0.776700  0.004800  0.093500  1.0  0.075
  H  H293  1  0.862000  0.526600  0.255500  1.0  0.0582
  H  H294  1  0.822100  0.481900  0.373500  1.0  0.1197
  H  H295  1  0.726200  0.575700  0.349500  1.0  0.1211
  H  H296  1  0.769000  0.618200  0.233300  1.0  0.0559
  H  H297  1  0.626300  0.481900  0.775600  1.0  0.0584
  H  H298  1  0.669200  0.527600  0.666400  1.0  0.1148
  H  H299  1  0.755400  0.422300  0.655700  1.0  0.1133
  H  H300  1  0.710100  0.379400  0.764300  1.0  0.0509
  H  H301  1  0.749100  0.461700  0.445700  1.0  0.0933
  H  H302  1  0.711100  0.498300  0.432400  1.0  0.0854
  H  H303  1  0.739200  0.542000  0.579500  1.0  0.0897
  H  H304  1  0.776700  0.504800  0.593500  1.0  0.075
  H  H305  1  0.612000  0.973400  0.505500  1.0  0.0584
  H  H306  1  0.572100  0.018100  0.623500  1.0  0.1196
  H  H307  1  0.476200  0.924300  0.599500  1.0  0.1211
  H  H308  1  0.519000  0.881800  0.483300  1.0  0.0558
  H  H309  1  0.376300  0.018100  0.025600  1.0  0.0588
  H  H310  1  0.419200  0.972400  0.916400  1.0  0.1158
  H  H311  1  0.505400  0.077700  0.905700  1.0  0.1133
  H  H312  1  0.460100  0.120600  0.014300  1.0  0.0504
  H  H313  1  0.499100  0.038300  0.695700  1.0  0.09
  H  H314  1  0.461100  0.001700  0.682400  1.0  0.0851
  H  H315  1  0.489200  0.958000  0.829500  1.0  0.0915
  H  H316  1  0.526700  0.995200  0.843500  1.0  0.0748
  H  H317  1  0.612000  0.473400  0.005500  1.0  0.0584
  H  H318  1  0.572100  0.518100  0.123500  1.0  0.1196
  H  H319  1  0.476200  0.424300  0.099500  1.0  0.1211
  H  H320  1  0.519000  0.381800  0.983300  1.0  0.0558
  H  H321  1  0.376300  0.518100  0.525600  1.0  0.0588
  H  H322  1  0.419200  0.472400  0.416400  1.0  0.1158
  H  H323  1  0.505400  0.577700  0.405700  1.0  0.1133
  H  H324  1  0.460100  0.620600  0.514300  1.0  0.0504
  H  H325  1  0.499100  0.538300  0.195700  1.0  0.09
  H  H326  1  0.461100  0.501700  0.182400  1.0  0.0851
  H  H327  1  0.489200  0.458000  0.329500  1.0  0.0915
  H  H328  1  0.526700  0.495200  0.343500  1.0  0.0748
  H  H329  1  0.112000  0.973400  0.005500  1.0  0.0584
  H  H330  1  0.072100  0.018100  0.123500  1.0  0.1196
  H  H331  1  0.976200  0.924300  0.099500  1.0  0.1211
  H  H332  1  0.019000  0.881800  0.983300  1.0  0.0558
  H  H333  1  0.876300  0.018100  0.525600  1.0  0.0588
  H  H334  1  0.919200  0.972400  0.416400  1.0  0.1158
  H  H335  1  0.005400  0.077700  0.405700  1.0  0.1133
  H  H336  1  0.960100  0.120600  0.514300  1.0  0.0504
  H  H337  1  0.999100  0.038300  0.195700  1.0  0.09
  H  H338  1  0.961100  0.001700  0.182400  1.0  0.0851
  H  H339  1  0.989200  0.958000  0.329500  1.0  0.0915
  H  H340  1  0.026700  0.995200  0.343500  1.0  0.0748
  H  H341  1  0.112000  0.473400  0.505500  1.0  0.0584
  H  H342  1  0.072100  0.518100  0.623500  1.0  0.1196
  H  H343  1  0.976200  0.424300  0.599500  1.0  0.1211
  H  H344  1  0.019000  0.381800  0.483300  1.0  0.0558
  H  H345  1  0.876300  0.518100  0.025600  1.0  0.0588
  H  H346  1  0.919200  0.472400  0.916400  1.0  0.1158
  H  H347  1  0.005400  0.577700  0.905700  1.0  0.1133
  H  H348  1  0.960100  0.620600  0.014300  1.0  0.0504
  H  H349  1  0.999100  0.538300  0.695700  1.0  0.09
  H  H350  1  0.961100  0.501700  0.682400  1.0  0.0851
  H  H351  1  0.989200  0.458000  0.829500  1.0  0.0915
  H  H352  1  0.026700  0.495200  0.843500  1.0  0.0748
  H  H353  1  0.612000  0.276600  0.744500  1.0  0.0582
  H  H354  1  0.572100  0.231900  0.626500  1.0  0.1197
  H  H355  1  0.476200  0.325700  0.650500  1.0  0.1214
  H  H356  1  0.519000  0.368200  0.766700  1.0  0.0555
  H  H357  1  0.376300  0.231900  0.224400  1.0  0.0585
  H  H358  1  0.419200  0.277600  0.333600  1.0  0.1147
  H  H359  1  0.505400  0.172300  0.344300  1.0  0.113
  H  H360  1  0.460100  0.129400  0.235700  1.0  0.0511
  H  H361  1  0.499100  0.211700  0.554300  1.0  0.0931
  H  H362  1  0.461100  0.248300  0.567600  1.0  0.0853
  H  H363  1  0.489200  0.292000  0.420500  1.0  0.0896
  H  H364  1  0.526700  0.254800  0.406500  1.0  0.074
  H  H365  1  0.612000  0.776600  0.244500  1.0  0.0582
  H  H366  1  0.572100  0.731900  0.126500  1.0  0.1197
  H  H367  1  0.476200  0.825700  0.150500  1.0  0.1214
  H  H368  1  0.519000  0.868200  0.266700  1.0  0.0555
  H  H369  1  0.376300  0.731900  0.724400  1.0  0.0585
  H  H370  1  0.419200  0.777600  0.833600  1.0  0.1147
  H  H371  1  0.505400  0.672300  0.844300  1.0  0.113
  H  H372  1  0.460100  0.629400  0.735700  1.0  0.0511
  H  H373  1  0.499100  0.711700  0.054300  1.0  0.0931
  H  H374  1  0.461100  0.748300  0.067600  1.0  0.0853
  H  H375  1  0.489200  0.792000  0.920500  1.0  0.0896
  H  H376  1  0.526700  0.754800  0.906500  1.0  0.074
  H  H377  1  0.112000  0.276600  0.244500  1.0  0.0582
  H  H378  1  0.072100  0.231900  0.126500  1.0  0.1197
  H  H379  1  0.976200  0.325700  0.150500  1.0  0.1214
  H  H380  1  0.019000  0.368200  0.266700  1.0  0.0555
  H  H381  1  0.876300  0.231900  0.724400  1.0  0.0585
  H  H382  1  0.919200  0.277600  0.833600  1.0  0.1147
  H  H383  1  0.005400  0.172300  0.844300  1.0  0.113
  H  H384  1  0.960100  0.129400  0.735700  1.0  0.0511
  H  H385  1  0.999100  0.211700  0.054300  1.0  0.0931
  H  H386  1  0.961100  0.248300  0.067600  1.0  0.0853
  H  H387  1  0.989200  0.292000  0.920500  1.0  0.0896
  H  H388  1  0.026700  0.254800  0.906500  1.0  0.074
  H  H389  1  0.112000  0.776600  0.744500  1.0  0.0582
  H  H390  1  0.072100  0.731900  0.626500  1.0  0.1197
  H  H391  1  0.976200  0.825700  0.650500  1.0  0.1214
  H  H392  1  0.019000  0.868200  0.766700  1.0  0.0555
  H  H393  1  0.876300  0.731900  0.224400  1.0  0.0585
  H  H394  1  0.919200  0.777600  0.333600  1.0  0.1147
  H  H395  1  0.005400  0.672300  0.344300  1.0  0.113
  H  H396  1  0.960100  0.629400  0.235700  1.0  0.0511
  H  H397  1  0.999100  0.711700  0.554300  1.0  0.0931
  H  H398  1  0.961100  0.748300  0.567600  1.0  0.0853
  H  H399  1  0.989200  0.792000  0.420500  1.0  0.0896
  H  H400  1  0.026700  0.754800  0.406500  1.0  0.074
  C  C401  1  0.415700  0.037070  0.474800  1.0  0.1673
  C  C402  1  0.439670  0.009720  0.403700  1.0  -0.2409
  C  C403  1  0.480520  0.023390  0.373300  1.0  0.14
  C  C404  1  0.495880  0.064980  0.417800  1.0  -0.2481
  C  C405  1  0.469820  0.090410  0.487900  1.0  0.1671
  C  C406  1  0.597500  0.969390  0.999900  1.0  0.1584
  C  C407  1  0.571730  0.997330  0.065400  1.0  -0.2448
  C  C408  1  0.532450  0.980260  0.104000  1.0  0.1234
  C  C409  1  0.521060  0.935240  0.071700  1.0  -0.2286
  C  C410  1  0.548570  0.909550  0.006400  1.0  0.1636
  C  C411  1  0.508530  0.994760  0.296700  1.0  -0.2113
  C  C412  1  0.503560  0.008870  0.178300  1.0  -0.1872
  C  C413  1  0.415700  0.537070  0.974800  1.0  0.1673
  C  C414  1  0.439670  0.509720  0.903700  1.0  -0.2409
  C  C415  1  0.480520  0.523390  0.873300  1.0  0.14
  C  C416  1  0.495880  0.564980  0.917800  1.0  -0.2481
  C  C417  1  0.469820  0.590410  0.987900  1.0  0.1671
  C  C418  1  0.597500  0.469390  0.499900  1.0  0.1584
  C  C419  1  0.571730  0.497330  0.565400  1.0  -0.2448
  C  C420  1  0.532450  0.480260  0.604000  1.0  0.1234
  C  C421  1  0.521060  0.435240  0.571700  1.0  -0.2286
  C  C422  1  0.548570  0.409550  0.506400  1.0  0.1636
  C  C423  1  0.508530  0.494760  0.796700  1.0  -0.2113
  C  C424  1  0.503560  0.508870  0.678300  1.0  -0.1872
  C  C425  1  0.915700  0.037070  0.974800  1.0  0.1673
  C  C426  1  0.939670  0.009720  0.903700  1.0  -0.2409
  C  C427  1  0.980520  0.023390  0.873300  1.0  0.14
  C  C428  1  0.995880  0.064980  0.917800  1.0  -0.2481
  C  C429  1  0.969820  0.090410  0.987900  1.0  0.1671
  C  C430  1  0.097500  0.969390  0.499900  1.0  0.1584
  C  C431  1  0.071730  0.997330  0.565400  1.0  -0.2448
  C  C432  1  0.032450  0.980260  0.604000  1.0  0.1234
  C  C433  1  0.021060  0.935240  0.571700  1.0  -0.2286
  C  C434  1  0.048570  0.909550  0.506400  1.0  0.1636
  C  C435  1  0.008530  0.994760  0.796700  1.0  -0.2113
  C  C436  1  0.003560  0.008870  0.678300  1.0  -0.1872
  C  C437  1  0.915700  0.537070  0.474800  1.0  0.1673
  C  C438  1  0.939670  0.509720  0.403700  1.0  -0.2409
  C  C439  1  0.980520  0.523390  0.373300  1.0  0.14
  C  C440  1  0.995880  0.564980  0.417800  1.0  -0.2481
  C  C441  1  0.969820  0.590410  0.487900  1.0  0.1671
  C  C442  1  0.097500  0.469390  0.999900  1.0  0.1584
  C  C443  1  0.071730  0.497330  0.065400  1.0  -0.2448
  C  C444  1  0.032450  0.480260  0.104000  1.0  0.1234
  C  C445  1  0.021060  0.435240  0.071700  1.0  -0.2286
  C  C446  1  0.048570  0.409550  0.006400  1.0  0.1636
  C  C447  1  0.008530  0.494760  0.296700  1.0  -0.2113
  C  C448  1  0.003560  0.508870  0.178300  1.0  -0.1872
  C  C449  1  0.415700  0.712930  0.275200  1.0  0.1667
  C  C450  1  0.439670  0.740280  0.346300  1.0  -0.2421
  C  C451  1  0.480520  0.726610  0.376700  1.0  0.1397
  C  C452  1  0.495880  0.685020  0.332200  1.0  -0.2469
  C  C453  1  0.469820  0.659590  0.262100  1.0  0.1675
  C  C454  1  0.597500  0.780610  0.750100  1.0  0.158
  C  C455  1  0.571730  0.752670  0.684600  1.0  -0.2414
  C  C456  1  0.532450  0.769740  0.646000  1.0  0.1235
  C  C457  1  0.521060  0.814760  0.678300  1.0  -0.2301
  C  C458  1  0.548570  0.840450  0.743600  1.0  0.1638
  C  C459  1  0.508530  0.755240  0.453300  1.0  -0.2104
  C  C460  1  0.503560  0.741130  0.571700  1.0  -0.1875
  C  C461  1  0.415700  0.212930  0.775200  1.0  0.1667
  C  C462  1  0.439670  0.240280  0.846300  1.0  -0.2421
  C  C463  1  0.480520  0.226610  0.876700  1.0  0.1397
  C  C464  1  0.495880  0.185020  0.832200  1.0  -0.2469
  C  C465  1  0.469820  0.159590  0.762100  1.0  0.1675
  C  C466  1  0.597500  0.280610  0.250100  1.0  0.158
  C  C467  1  0.571730  0.252670  0.184600  1.0  -0.2414
  C  C468  1  0.532450  0.269740  0.146000  1.0  0.1235
  C  C469  1  0.521060  0.314760  0.178300  1.0  -0.2301
  C  C470  1  0.548570  0.340450  0.243600  1.0  0.1638
  C  C471  1  0.508530  0.255240  0.953300  1.0  -0.2104
  C  C472  1  0.503560  0.241130  0.071700  1.0  -0.1875
  C  C473  1  0.915700  0.712930  0.775200  1.0  0.1667
  C  C474  1  0.939670  0.740280  0.846300  1.0  -0.2421
  C  C475  1  0.980520  0.726610  0.876700  1.0  0.1397
  C  C476  1  0.995880  0.685020  0.832200  1.0  -0.2469
  C  C477  1  0.969820  0.659590  0.762100  1.0  0.1675
  C  C478  1  0.097500  0.780610  0.250100  1.0  0.158
  C  C479  1  0.071730  0.752670  0.184600  1.0  -0.2414
  C  C480  1  0.032450  0.769740  0.146000  1.0  0.1235
  C  C481  1  0.021060  0.814760  0.178300  1.0  -0.2301
  C  C482  1  0.048570  0.840450  0.243600  1.0  0.1638
  C  C483  1  0.008530  0.755240  0.953300  1.0  -0.2104
  C  C484  1  0.003560  0.741130  0.071700  1.0  -0.1875
  C  C485  1  0.915700  0.212930  0.275200  1.0  0.1667
  C  C486  1  0.939670  0.240280  0.346300  1.0  -0.2421
  C  C487  1  0.980520  0.226610  0.376700  1.0  0.1397
  C  C488  1  0.995880  0.185020  0.332200  1.0  -0.2469
  C  C489  1  0.969820  0.159590  0.262100  1.0  0.1675
  C  C490  1  0.097500  0.280610  0.750100  1.0  0.158
  C  C491  1  0.071730  0.252670  0.684600  1.0  -0.2414
  C  C492  1  0.032450  0.269740  0.646000  1.0  0.1235
  C  C493  1  0.021060  0.314760  0.678300  1.0  -0.2301
  C  C494  1  0.048570  0.340450  0.743600  1.0  0.1638
  C  C495  1  0.008530  0.255240  0.453300  1.0  -0.2104
  C  C496  1  0.003560  0.241130  0.571700  1.0  -0.1875
  C  C497  1  0.665700  0.287070  0.525200  1.0  0.1668
  C  C498  1  0.689670  0.259720  0.596300  1.0  -0.2409
  C  C499  1  0.730520  0.273390  0.626700  1.0  0.1399
  C  C500  1  0.745880  0.314980  0.582200  1.0  -0.2479
  C  C501  1  0.719820  0.340410  0.512100  1.0  0.1674
  C  C502  1  0.847500  0.219390  0.000100  1.0  0.1578
  C  C503  1  0.821730  0.247330  0.934600  1.0  -0.245
  C  C504  1  0.782450  0.230260  0.896000  1.0  0.1233
  C  C505  1  0.771060  0.185240  0.928300  1.0  -0.2282
  C  C506  1  0.798570  0.159550  0.993600  1.0  0.1643
  C  C507  1  0.758530  0.244760  0.703300  1.0  -0.2114
  C  C508  1  0.753560  0.258870  0.821700  1.0  -0.1878
  C  C509  1  0.665700  0.787070  0.025200  1.0  0.1668
  C  C510  1  0.689670  0.759720  0.096300  1.0  -0.2409
  C  C511  1  0.730520  0.773390  0.126700  1.0  0.1399
  C  C512  1  0.745880  0.814980  0.082200  1.0  -0.2479
  C  C513  1  0.719820  0.840410  0.012100  1.0  0.1674
  C  C514  1  0.847500  0.719390  0.500100  1.0  0.1578
  C  C515  1  0.821730  0.747330  0.434600  1.0  -0.245
  C  C516  1  0.782450  0.730260  0.396000  1.0  0.1233
  C  C517  1  0.771060  0.685240  0.428300  1.0  -0.2282
  C  C518  1  0.798570  0.659550  0.493600  1.0  0.1643
  C  C519  1  0.758530  0.744760  0.203300  1.0  -0.2114
  C  C520  1  0.753560  0.758870  0.321700  1.0  -0.1878
  C  C521  1  0.165700  0.287070  0.025200  1.0  0.1668
  C  C522  1  0.189670  0.259720  0.096300  1.0  -0.2409
  C  C523  1  0.230520  0.273390  0.126700  1.0  0.1399
  C  C524  1  0.245880  0.314980  0.082200  1.0  -0.2479
  C  C525  1  0.219820  0.340410  0.012100  1.0  0.1674
  C  C526  1  0.347500  0.219390  0.500100  1.0  0.1578
  C  C527  1  0.321730  0.247330  0.434600  1.0  -0.245
  C  C528  1  0.282450  0.230260  0.396000  1.0  0.1233
  C  C529  1  0.271060  0.185240  0.428300  1.0  -0.2282
  C  C530  1  0.298570  0.159550  0.493600  1.0  0.1643
  C  C531  1  0.258530  0.244760  0.203300  1.0  -0.2114
  C  C532  1  0.253560  0.258870  0.321700  1.0  -0.1878
  C  C533  1  0.165700  0.787070  0.525200  1.0  0.1668
  C  C534  1  0.189670  0.759720  0.596300  1.0  -0.2409
  C  C535  1  0.230520  0.773390  0.626700  1.0  0.1399
  C  C536  1  0.245880  0.814980  0.582200  1.0  -0.2479
  C  C537  1  0.219820  0.840410  0.512100  1.0  0.1674
  C  C538  1  0.347500  0.719390  0.000100  1.0  0.1578
  C  C539  1  0.321730  0.747330  0.934600  1.0  -0.245
  C  C540  1  0.282450  0.730260  0.896000  1.0  0.1233
  C  C541  1  0.271060  0.685240  0.928300  1.0  -0.2282
  C  C542  1  0.298570  0.659550  0.993600  1.0  0.1643
  C  C543  1  0.258530  0.744760  0.703300  1.0  -0.2114
  C  C544  1  0.253560  0.758870  0.821700  1.0  -0.1878
  C  C545  1  0.665700  0.962930  0.724800  1.0  0.1669
  C  C546  1  0.689670  0.990280  0.653700  1.0  -0.2417
  C  C547  1  0.730520  0.976610  0.623300  1.0  0.1399
  C  C548  1  0.745880  0.935020  0.667800  1.0  -0.2469
  C  C549  1  0.719820  0.909590  0.737900  1.0  0.1676
  C  C550  1  0.847500  0.030610  0.249900  1.0  0.1585
  C  C551  1  0.821730  0.002670  0.315400  1.0  -0.2415
  C  C552  1  0.782450  0.019740  0.354000  1.0  0.1235
  C  C553  1  0.771060  0.064760  0.321700  1.0  -0.2304
  C  C554  1  0.798570  0.090450  0.256400  1.0  0.1632
  C  C555  1  0.758530  0.005240  0.546700  1.0  -0.2104
  C  C556  1  0.753560  0.991130  0.428300  1.0  -0.1875
  C  C557  1  0.665700  0.462930  0.224800  1.0  0.1669
  C  C558  1  0.689670  0.490280  0.153700  1.0  -0.2417
  C  C559  1  0.730520  0.476610  0.123300  1.0  0.1399
  C  C560  1  0.745880  0.435020  0.167800  1.0  -0.2469
  C  C561  1  0.719820  0.409590  0.237900  1.0  0.1676
  C  C562  1  0.847500  0.530610  0.749900  1.0  0.1585
  C  C563  1  0.821730  0.502670  0.815400  1.0  -0.2415
  C  C564  1  0.782450  0.519740  0.854000  1.0  0.1235
  C  C565  1  0.771060  0.564760  0.821700  1.0  -0.2304
  C  C566  1  0.798570  0.590450  0.756400  1.0  0.1632
  C  C567  1  0.758530  0.505240  0.046700  1.0  -0.2104
  C  C568  1  0.753560  0.491130  0.928300  1.0  -0.1875
  C  C569  1  0.165700  0.962930  0.224800  1.0  0.1669
  C  C570  1  0.189670  0.990280  0.153700  1.0  -0.2417
  C  C571  1  0.230520  0.976610  0.123300  1.0  0.1399
  C  C572  1  0.245880  0.935020  0.167800  1.0  -0.2469
  C  C573  1  0.219820  0.909590  0.237900  1.0  0.1676
  C  C574  1  0.347500  0.030610  0.749900  1.0  0.1585
  C  C575  1  0.321730  0.002670  0.815400  1.0  -0.2415
  C  C576  1  0.282450  0.019740  0.854000  1.0  0.1235
  C  C577  1  0.271060  0.064760  0.821700  1.0  -0.2304
  C  C578  1  0.298570  0.090450  0.756400  1.0  0.1632
  C  C579  1  0.258530  0.005240  0.046700  1.0  -0.2104
  C  C580  1  0.253560  0.991130  0.928300  1.0  -0.1875
  C  C581  1  0.165700  0.462930  0.724800  1.0  0.1669
  C  C582  1  0.189670  0.490280  0.653700  1.0  -0.2417
  C  C583  1  0.230520  0.476610  0.623300  1.0  0.1399
  C  C584  1  0.245880  0.435020  0.667800  1.0  -0.2469
  C  C585  1  0.219820  0.409590  0.737900  1.0  0.1676
  C  C586  1  0.347500  0.530610  0.249900  1.0  0.1585
  C  C587  1  0.321730  0.502670  0.315400  1.0  -0.2415
  C  C588  1  0.282450  0.519740  0.354000  1.0  0.1235
  C  C589  1  0.271060  0.564760  0.321700  1.0  -0.2304
  C  C590  1  0.298570  0.590450  0.256400  1.0  0.1632
  C  C591  1  0.258530  0.505240  0.546700  1.0  -0.2104
  C  C592  1  0.253560  0.491130  0.428300  1.0  -0.1875
  C  C593  1  0.334300  0.712930  0.474800  1.0  0.1668
  C  C594  1  0.310330  0.740280  0.403700  1.0  -0.2445
  C  C595  1  0.269480  0.726610  0.373300  1.0  0.1396
  C  C596  1  0.254120  0.685020  0.417800  1.0  -0.245
  C  C597  1  0.280180  0.659590  0.487900  1.0  0.1671
  C  C598  1  0.152500  0.780610  0.999900  1.0  0.1584
  C  C599  1  0.178270  0.752670  0.065400  1.0  -0.2397
  C  C600  1  0.217550  0.769740  0.104000  1.0  0.1236
  C  C601  1  0.228940  0.814760  0.071700  1.0  -0.2305
  C  C602  1  0.201430  0.840450  0.006400  1.0  0.1638
  C  C603  1  0.241470  0.755240  0.296700  1.0  -0.2107
  C  C604  1  0.246440  0.741130  0.178300  1.0  -0.1873
  C  C605  1  0.334300  0.212930  0.974800  1.0  0.1668
  C  C606  1  0.310330  0.240280  0.903700  1.0  -0.2445
  C  C607  1  0.269480  0.226610  0.873300  1.0  0.1396
  C  C608  1  0.254120  0.185020  0.917800  1.0  -0.245
  C  C609  1  0.280180  0.159590  0.987900  1.0  0.1671
  C  C610  1  0.152500  0.280610  0.499900  1.0  0.1584
  C  C611  1  0.178270  0.252670  0.565400  1.0  -0.2397
  C  C612  1  0.217550  0.269740  0.604000  1.0  0.1236
  C  C613  1  0.228940  0.314760  0.571700  1.0  -0.2305
  C  C614  1  0.201430  0.340450  0.506400  1.0  0.1638
  C  C615  1  0.241470  0.255240  0.796700  1.0  -0.2107
  C  C616  1  0.246440  0.241130  0.678300  1.0  -0.1873
  C  C617  1  0.834300  0.712930  0.974800  1.0  0.1668
  C  C618  1  0.810330  0.740280  0.903700  1.0  -0.2445
  C  C619  1  0.769480  0.726610  0.873300  1.0  0.1396
  C  C620  1  0.754120  0.685020  0.917800  1.0  -0.245
  C  C621  1  0.780180  0.659590  0.987900  1.0  0.1671
  C  C622  1  0.652500  0.780610  0.499900  1.0  0.1584
  C  C623  1  0.678270  0.752670  0.565400  1.0  -0.2397
  C  C624  1  0.717550  0.769740  0.604000  1.0  0.1236
  C  C625  1  0.728940  0.814760  0.571700  1.0  -0.2305
  C  C626  1  0.701430  0.840450  0.506400  1.0  0.1638
  C  C627  1  0.741470  0.755240  0.796700  1.0  -0.2107
  C  C628  1  0.746440  0.741130  0.678300  1.0  -0.1873
  C  C629  1  0.834300  0.212930  0.474800  1.0  0.1668
  C  C630  1  0.810330  0.240280  0.403700  1.0  -0.2445
  C  C631  1  0.769480  0.226610  0.373300  1.0  0.1396
  C  C632  1  0.754120  0.185020  0.417800  1.0  -0.245
  C  C633  1  0.780180  0.159590  0.487900  1.0  0.1671
  C  C634  1  0.652500  0.280610  0.999900  1.0  0.1584
  C  C635  1  0.678270  0.252670  0.065400  1.0  -0.2397
  C  C636  1  0.717550  0.269740  0.104000  1.0  0.1236
  C  C637  1  0.728940  0.314760  0.071700  1.0  -0.2305
  C  C638  1  0.701430  0.340450  0.006400  1.0  0.1638
  C  C639  1  0.741470  0.255240  0.296700  1.0  -0.2107
  C  C640  1  0.746440  0.241130  0.178300  1.0  -0.1873
  C  C641  1  0.334300  0.037070  0.275200  1.0  0.1671
  C  C642  1  0.310330  0.009720  0.346300  1.0  -0.2438
  C  C643  1  0.269480  0.023390  0.376700  1.0  0.1397
  C  C644  1  0.254120  0.064980  0.332200  1.0  -0.2459
  C  C645  1  0.280180  0.090410  0.262100  1.0  0.1673
  C  C646  1  0.152500  0.969390  0.750100  1.0  0.1583
  C  C647  1  0.178270  0.997330  0.684600  1.0  -0.2435
  C  C648  1  0.217550  0.980260  0.646000  1.0  0.1235
  C  C649  1  0.228940  0.935240  0.678300  1.0  -0.229
  C  C650  1  0.201430  0.909550  0.743600  1.0  0.1646
  C  C651  1  0.241470  0.994760  0.453300  1.0  -0.2116
  C  C652  1  0.246440  0.008870  0.571700  1.0  -0.1871
  C  C653  1  0.334300  0.537070  0.775200  1.0  0.1671
  C  C654  1  0.310330  0.509720  0.846300  1.0  -0.2438
  C  C655  1  0.269480  0.523390  0.876700  1.0  0.1397
  C  C656  1  0.254120  0.564980  0.832200  1.0  -0.2459
  C  C657  1  0.280180  0.590410  0.762100  1.0  0.1673
  C  C658  1  0.152500  0.469390  0.250100  1.0  0.1583
  C  C659  1  0.178270  0.497330  0.184600  1.0  -0.2435
  C  C660  1  0.217550  0.480260  0.146000  1.0  0.1235
  C  C661  1  0.228940  0.435240  0.178300  1.0  -0.229
  C  C662  1  0.201430  0.409550  0.243600  1.0  0.1646
  C  C663  1  0.241470  0.494760  0.953300  1.0  -0.2116
  C  C664  1  0.246440  0.508870  0.071700  1.0  -0.1871
  C  C665  1  0.834300  0.037070  0.775200  1.0  0.1671
  C  C666  1  0.810330  0.009720  0.846300  1.0  -0.2438
  C  C667  1  0.769480  0.023390  0.876700  1.0  0.1397
  C  C668  1  0.754120  0.064980  0.832200  1.0  -0.2459
  C  C669  1  0.780180  0.090410  0.762100  1.0  0.1673
  C  C670  1  0.652500  0.969390  0.250100  1.0  0.1583
  C  C671  1  0.678270  0.997330  0.184600  1.0  -0.2435
  C  C672  1  0.717550  0.980260  0.146000  1.0  0.1235
  C  C673  1  0.728940  0.935240  0.178300  1.0  -0.229
  C  C674  1  0.701430  0.909550  0.243600  1.0  0.1646
  C  C675  1  0.741470  0.994760  0.953300  1.0  -0.2116
  C  C676  1  0.746440  0.008870  0.071700  1.0  -0.1871
  C  C677  1  0.834300  0.537070  0.275200  1.0  0.1671
  C  C678  1  0.810330  0.509720  0.346300  1.0  -0.2438
  C  C679  1  0.769480  0.523390  0.376700  1.0  0.1397
  C  C680  1  0.754120  0.564980  0.332200  1.0  -0.2459
  C  C681  1  0.780180  0.590410  0.262100  1.0  0.1673
  C  C682  1  0.652500  0.469390  0.750100  1.0  0.1583
  C  C683  1  0.678270  0.497330  0.684600  1.0  -0.2435
  C  C684  1  0.717550  0.480260  0.646000  1.0  0.1235
  C  C685  1  0.728940  0.435240  0.678300  1.0  -0.229
  C  C686  1  0.701430  0.409550  0.743600  1.0  0.1646
  C  C687  1  0.741470  0.494760  0.453300  1.0  -0.2116
  C  C688  1  0.746440  0.508870  0.571700  1.0  -0.1871
  C  C689  1  0.584300  0.962930  0.525200  1.0  0.1669
  C  C690  1  0.560330  0.990280  0.596300  1.0  -0.2447
  C  C691  1  0.519480  0.976610  0.626700  1.0  0.1395
  C  C692  1  0.504120  0.935020  0.582200  1.0  -0.2447
  C  C693  1  0.530180  0.909590  0.512100  1.0  0.1673
  C  C694  1  0.402500  0.030610  0.000100  1.0  0.1582
  C  C695  1  0.428270  0.002670  0.934600  1.0  -0.2397
  C  C696  1  0.467550  0.019740  0.896000  1.0  0.1236
  C  C697  1  0.478940  0.064760  0.928300  1.0  -0.2304
  C  C698  1  0.451430  0.090450  0.993600  1.0  0.1644
  C  C699  1  0.491470  0.005240  0.703300  1.0  -0.2106
  C  C700  1  0.496440  0.991130  0.821700  1.0  -0.1871
  C  C701  1  0.584300  0.462930  0.025200  1.0  0.1669
  C  C702  1  0.560330  0.490280  0.096300  1.0  -0.2447
  C  C703  1  0.519480  0.476610  0.126700  1.0  0.1395
  C  C704  1  0.504120  0.435020  0.082200  1.0  -0.2447
  C  C705  1  0.530180  0.409590  0.012100  1.0  0.1673
  C  C706  1  0.402500  0.530610  0.500100  1.0  0.1582
  C  C707  1  0.428270  0.502670  0.434600  1.0  -0.2397
  C  C708  1  0.467550  0.519740  0.396000  1.0  0.1236
  C  C709  1  0.478940  0.564760  0.428300  1.0  -0.2304
  C  C710  1  0.451430  0.590450  0.493600  1.0  0.1644
  C  C711  1  0.491470  0.505240  0.203300  1.0  -0.2106
  C  C712  1  0.496440  0.491130  0.321700  1.0  -0.1871
  C  C713  1  0.084300  0.962930  0.025200  1.0  0.1669
  C  C714  1  0.060330  0.990280  0.096300  1.0  -0.2447
  C  C715  1  0.019480  0.976610  0.126700  1.0  0.1395
  C  C716  1  0.004120  0.935020  0.082200  1.0  -0.2447
  C  C717  1  0.030180  0.909590  0.012100  1.0  0.1673
  C  C718  1  0.902500  0.030610  0.500100  1.0  0.1582
  C  C719  1  0.928270  0.002670  0.434600  1.0  -0.2397
  C  C720  1  0.967550  0.019740  0.396000  1.0  0.1236
  C  C721  1  0.978940  0.064760  0.428300  1.0  -0.2304
  C  C722  1  0.951430  0.090450  0.493600  1.0  0.1644
  C  C723  1  0.991470  0.005240  0.203300  1.0  -0.2106
  C  C724  1  0.996440  0.991130  0.321700  1.0  -0.1871
  C  C725  1  0.084300  0.462930  0.525200  1.0  0.1669
  C  C726  1  0.060330  0.490280  0.596300  1.0  -0.2447
  C  C727  1  0.019480  0.476610  0.626700  1.0  0.1395
  C  C728  1  0.004120  0.435020  0.582200  1.0  -0.2447
  C  C729  1  0.030180  0.409590  0.512100  1.0  0.1673
  C  C730  1  0.902500  0.530610  0.000100  1.0  0.1582
  C  C731  1  0.928270  0.502670  0.934600  1.0  -0.2397
  C  C732  1  0.967550  0.519740  0.896000  1.0  0.1236
  C  C733  1  0.978940  0.564760  0.928300  1.0  -0.2304
  C  C734  1  0.951430  0.590450  0.993600  1.0  0.1644
  C  C735  1  0.991470  0.505240  0.703300  1.0  -0.2106
  C  C736  1  0.996440  0.491130  0.821700  1.0  -0.1871
  C  C737  1  0.584300  0.287070  0.724800  1.0  0.1672
  C  C738  1  0.560330  0.259720  0.653700  1.0  -0.2436
  C  C739  1  0.519480  0.273390  0.623300  1.0  0.1399
  C  C740  1  0.504120  0.314980  0.667800  1.0  -0.2464
  C  C741  1  0.530180  0.340410  0.737900  1.0  0.1666
  C  C742  1  0.402500  0.219390  0.249900  1.0  0.1584
  C  C743  1  0.428270  0.247330  0.315400  1.0  -0.2432
  C  C744  1  0.467550  0.230260  0.354000  1.0  0.1236
  C  C745  1  0.478940  0.185240  0.321700  1.0  -0.2294
  C  C746  1  0.451430  0.159550  0.256400  1.0  0.1638
  C  C747  1  0.491470  0.244760  0.546700  1.0  -0.2116
  C  C748  1  0.496440  0.258870  0.428300  1.0  -0.1868
  C  C749  1  0.584300  0.787070  0.224800  1.0  0.1672
  C  C750  1  0.560330  0.759720  0.153700  1.0  -0.2436
  C  C751  1  0.519480  0.773390  0.123300  1.0  0.1399
  C  C752  1  0.504120  0.814980  0.167800  1.0  -0.2464
  C  C753  1  0.530180  0.840410  0.237900  1.0  0.1666
  C  C754  1  0.402500  0.719390  0.749900  1.0  0.1584
  C  C755  1  0.428270  0.747330  0.815400  1.0  -0.2432
  C  C756  1  0.467550  0.730260  0.854000  1.0  0.1236
  C  C757  1  0.478940  0.685240  0.821700  1.0  -0.2294
  C  C758  1  0.451430  0.659550  0.756400  1.0  0.1638
  C  C759  1  0.491470  0.744760  0.046700  1.0  -0.2116
  C  C760  1  0.496440  0.758870  0.928300  1.0  -0.1868
  C  C761  1  0.084300  0.287070  0.224800  1.0  0.1672
  C  C762  1  0.060330  0.259720  0.153700  1.0  -0.2436
  C  C763  1  0.019480  0.273390  0.123300  1.0  0.1399
  C  C764  1  0.004120  0.314980  0.167800  1.0  -0.2464
  C  C765  1  0.030180  0.340410  0.237900  1.0  0.1666
  C  C766  1  0.902500  0.219390  0.749900  1.0  0.1584
  C  C767  1  0.928270  0.247330  0.815400  1.0  -0.2432
  C  C768  1  0.967550  0.230260  0.854000  1.0  0.1236
  C  C769  1  0.978940  0.185240  0.821700  1.0  -0.2294
  C  C770  1  0.951430  0.159550  0.756400  1.0  0.1638
  C  C771  1  0.991470  0.244760  0.046700  1.0  -0.2116
  C  C772  1  0.996440  0.258870  0.928300  1.0  -0.1868
  C  C773  1  0.084300  0.787070  0.724800  1.0  0.1672
  C  C774  1  0.060330  0.759720  0.653700  1.0  -0.2436
  C  C775  1  0.019480  0.773390  0.623300  1.0  0.1399
  C  C776  1  0.004120  0.814980  0.667800  1.0  -0.2464
  C  C777  1  0.030180  0.840410  0.737900  1.0  0.1666
  C  C778  1  0.902500  0.719390  0.249900  1.0  0.1584
  C  C779  1  0.928270  0.747330  0.315400  1.0  -0.2432
  C  C780  1  0.967550  0.730260  0.354000  1.0  0.1236
  C  C781  1  0.978940  0.685240  0.321700  1.0  -0.2294
  C  C782  1  0.951430  0.659550  0.256400  1.0  0.1638
  C  C783  1  0.991470  0.744760  0.546700  1.0  -0.2116
  C  C784  1  0.996440  0.758870  0.428300  1.0  -0.1868
  N  N785  1  0.429760  0.077590  0.516800  1.0  -0.378
  N  N786  1  0.587130  0.925330  0.970900  1.0  -0.3876
  N  N787  1  0.429760  0.577590  0.016800  1.0  -0.378
  N  N788  1  0.587130  0.425330  0.470900  1.0  -0.3876
  N  N789  1  0.929760  0.077590  0.016800  1.0  -0.378
  N  N790  1  0.087130  0.925330  0.470900  1.0  -0.3876
  N  N791  1  0.929760  0.577590  0.516800  1.0  -0.378
  N  N792  1  0.087130  0.425330  0.970900  1.0  -0.3876
  N  N793  1  0.429760  0.672410  0.233200  1.0  -0.3789
  N  N794  1  0.587130  0.824670  0.779100  1.0  -0.3872
  N  N795  1  0.429760  0.172410  0.733200  1.0  -0.3789
  N  N796  1  0.587130  0.324670  0.279100  1.0  -0.3872
  N  N797  1  0.929760  0.672410  0.733200  1.0  -0.3789
  N  N798  1  0.087130  0.824670  0.279100  1.0  -0.3872
  N  N799  1  0.929760  0.172410  0.233200  1.0  -0.3789
  N  N800  1  0.087130  0.324670  0.779100  1.0  -0.3872
  N  N801  1  0.679760  0.327590  0.483200  1.0  -0.377
  N  N802  1  0.837130  0.175330  0.029100  1.0  -0.3862
  N  N803  1  0.679760  0.827590  0.983200  1.0  -0.377
  N  N804  1  0.837130  0.675330  0.529100  1.0  -0.3862
  N  N805  1  0.179760  0.327590  0.983200  1.0  -0.377
  N  N806  1  0.337130  0.175330  0.529100  1.0  -0.3862
  N  N807  1  0.179760  0.827590  0.483200  1.0  -0.377
  N  N808  1  0.337130  0.675330  0.029100  1.0  -0.3862
  N  N809  1  0.679760  0.922410  0.766800  1.0  -0.3787
  N  N810  1  0.837130  0.074670  0.220900  1.0  -0.3874
  N  N811  1  0.679760  0.422410  0.266800  1.0  -0.3787
  N  N812  1  0.837130  0.574670  0.720900  1.0  -0.3874
  N  N813  1  0.179760  0.922410  0.266800  1.0  -0.3787
  N  N814  1  0.337130  0.074670  0.720900  1.0  -0.3874
  N  N815  1  0.179760  0.422410  0.766800  1.0  -0.3787
  N  N816  1  0.337130  0.574670  0.220900  1.0  -0.3874
  N  N817  1  0.320240  0.672410  0.516800  1.0  -0.3772
  N  N818  1  0.162870  0.824670  0.970900  1.0  -0.3863
  N  N819  1  0.320240  0.172410  0.016800  1.0  -0.3772
  N  N820  1  0.162870  0.324670  0.470900  1.0  -0.3863
  N  N821  1  0.820240  0.672410  0.016800  1.0  -0.3772
  N  N822  1  0.662870  0.824670  0.470900  1.0  -0.3863
  N  N823  1  0.820240  0.172410  0.516800  1.0  -0.3772
  N  N824  1  0.662870  0.324670  0.970900  1.0  -0.3863
  N  N825  1  0.320240  0.077590  0.233200  1.0  -0.3771
  N  N826  1  0.162870  0.925330  0.779100  1.0  -0.3867
  N  N827  1  0.320240  0.577590  0.733200  1.0  -0.3771
  N  N828  1  0.162870  0.425330  0.279100  1.0  -0.3867
  N  N829  1  0.820240  0.077590  0.733200  1.0  -0.3771
  N  N830  1  0.662870  0.925330  0.279100  1.0  -0.3867
  N  N831  1  0.820240  0.577590  0.233200  1.0  -0.3771
  N  N832  1  0.662870  0.425330  0.779100  1.0  -0.3867
  N  N833  1  0.570240  0.922410  0.483200  1.0  -0.3774
  N  N834  1  0.412870  0.074670  0.029100  1.0  -0.3867
  N  N835  1  0.570240  0.422410  0.983200  1.0  -0.3774
  N  N836  1  0.412870  0.574670  0.529100  1.0  -0.3867
  N  N837  1  0.070240  0.922410  0.983200  1.0  -0.3774
  N  N838  1  0.912870  0.074670  0.529100  1.0  -0.3867
  N  N839  1  0.070240  0.422410  0.483200  1.0  -0.3774
  N  N840  1  0.912870  0.574670  0.029100  1.0  -0.3867
  N  N841  1  0.570240  0.327590  0.766800  1.0  -0.378
  N  N842  1  0.412870  0.175330  0.220900  1.0  -0.3877
  N  N843  1  0.570240  0.827590  0.266800  1.0  -0.378
  N  N844  1  0.412870  0.675330  0.720900  1.0  -0.3877
  N  N845  1  0.070240  0.327590  0.266800  1.0  -0.378
  N  N846  1  0.912870  0.175330  0.720900  1.0  -0.3877
  N  N847  1  0.070240  0.827590  0.766800  1.0  -0.378
  N  N848  1  0.912870  0.675330  0.220900  1.0  -0.3877
