# generated using pymatgen
data_Co3H40C66N2O13
_symmetry_space_group_name_H-M   'P 1'
_cell_length_a   29.68900000
_cell_length_b   19.31200000
_cell_length_c   29.42400000
_cell_angle_alpha   90.00000000
_cell_angle_beta   107.29200000
_cell_angle_gamma   90.00000000
_symmetry_Int_Tables_number   1
_chemical_formula_structural   Co3H40C66N2O13
_chemical_formula_sum   'Co24 H320 C528 N16 O104'
_cell_volume   16107.86555594
_cell_formula_units_Z   8
loop_
 _symmetry_equiv_pos_site_id
 _symmetry_equiv_pos_as_xyz
  1  'x, y, z'
loop_
 _atom_site_type_symbol
 _atom_site_label
 _atom_site_symmetry_multiplicity
 _atom_site_fract_x
 _atom_site_fract_y
 _atom_site_fract_z
 _atom_site_occupancy
 _atom_site_charge
  Co  Co1  1  0.200920  0.174580  0.269700  1.0  1.1032
  Co  Co2  1  0.188940  0.199070  0.381140  1.0  1.0624
  Co  Co3  1  0.192830  0.332140  0.299560  1.0  1.0499
  Co  Co4  1  0.700920  0.674580  0.269700  1.0  1.1032
  Co  Co5  1  0.688940  0.699070  0.381140  1.0  1.0624
  Co  Co6  1  0.692830  0.832140  0.299560  1.0  1.0499
  Co  Co7  1  0.200920  0.825420  0.769700  1.0  1.1028
  Co  Co8  1  0.188940  0.800930  0.881140  1.0  1.0627
  Co  Co9  1  0.192830  0.667860  0.799560  1.0  1.0495
  Co  Co10  1  0.700920  0.325420  0.769700  1.0  1.1028
  Co  Co11  1  0.688940  0.300930  0.881140  1.0  1.0627
  Co  Co12  1  0.692830  0.167860  0.799560  1.0  1.0495
  Co  Co13  1  0.799080  0.174580  0.230300  1.0  1.1023
  Co  Co14  1  0.811060  0.199070  0.118860  1.0  1.0613
  Co  Co15  1  0.807170  0.332140  0.200440  1.0  1.0492
  Co  Co16  1  0.299080  0.674580  0.230300  1.0  1.1023
  Co  Co17  1  0.311060  0.699070  0.118860  1.0  1.0613
  Co  Co18  1  0.307170  0.832140  0.200440  1.0  1.0492
  Co  Co19  1  0.799080  0.825420  0.730300  1.0  1.1016
  Co  Co20  1  0.811060  0.800930  0.618860  1.0  1.0613
  Co  Co21  1  0.807170  0.667860  0.700440  1.0  1.0495
  Co  Co22  1  0.299080  0.325420  0.730300  1.0  1.1016
  Co  Co23  1  0.311060  0.300930  0.618860  1.0  1.0613
  Co  Co24  1  0.307170  0.167860  0.700440  1.0  1.0495
  H  H25  1  0.405600  0.188100  0.267400  1.0  0.1026
  H  H26  1  0.195300  0.241400  0.486400  1.0  0.0776
  H  H27  1  0.672900  0.921300  0.431600  1.0  0.1114
  H  H28  1  0.329600  0.156100  0.452900  1.0  0.1056
  H  H29  1  0.340800  0.100700  0.325200  1.0  0.1064
  H  H30  1  0.325600  0.201700  0.254700  1.0  0.1041
  H  H31  1  0.490300  0.364600  0.319200  1.0  0.1167
  H  H32  1  0.550800  0.816700  0.386200  1.0  0.1148
  H  H33  1  0.634000  0.013300  0.452100  1.0  0.1197
  H  H34  1  0.225900  0.967000  0.567400  1.0  0.101
  H  H35  1  0.208900  0.192000  0.560100  1.0  0.1318
  H  H36  1  0.420800  0.083500  0.358700  1.0  0.1166
  H  H37  1  0.482400  0.157900  0.320300  1.0  0.1058
  H  H38  1  0.351100  0.359800  0.347700  1.0  0.1052
  H  H39  1  0.226600  0.089900  0.612900  1.0  0.0992
  H  H40  1  0.485200  0.161200  0.502900  1.0  0.1112
  H  H41  1  0.603000  0.250200  0.319500  1.0  0.1174
  H  H42  1  0.408600  0.132900  0.486900  1.0  0.1042
  H  H43  1  0.509500  0.066900  0.299100  1.0  0.1106
  H  H44  1  0.481400  0.021700  0.401100  1.0  0.1084
  H  H45  1  0.220200  0.802600  0.675900  1.0  0.0851
  H  H46  1  0.551500  0.237500  0.550700  1.0  0.1233
  H  H47  1  0.226900  0.038700  0.681400  1.0  0.1211
  H  H48  1  0.543400  0.961400  0.294500  1.0  0.1082
  H  H49  1  0.599700  0.047400  0.508900  1.0  0.1107
  H  H50  1  0.511600  0.909300  0.406700  1.0  0.1107
  H  H51  1  0.430800  0.348500  0.358200  1.0  0.1198
  H  H52  1  0.232100  0.012800  0.503900  1.0  0.1265
  H  H53  1  0.220500  0.975000  0.744200  1.0  0.0845
  H  H54  1  0.601400  0.358700  0.263200  1.0  0.0863
  H  H55  1  0.604100  0.530100  0.373000  1.0  0.1133
  H  H56  1  0.601200  0.046900  0.588400  1.0  0.0987
  H  H57  1  0.640700  0.085700  0.663600  1.0  0.1271
  H  H58  1  0.217700  0.066300  0.432400  1.0  0.0829
  H  H59  1  0.594200  0.278300  0.625100  1.0  0.1142
  H  H60  1  0.637000  0.154200  0.342200  1.0  0.1145
  H  H61  1  0.671000  0.048900  0.337200  1.0  0.0946
  H  H62  1  0.637300  0.463400  0.258400  1.0  0.1128
  H  H63  1  0.562300  0.429100  0.372900  1.0  0.1209
  H  H64  1  0.225900  0.861500  0.610000  1.0  0.1288
  H  H65  1  0.905600  0.688100  0.267400  1.0  0.1026
  H  H66  1  0.695300  0.741400  0.486400  1.0  0.0778
  H  H67  1  0.172900  0.421300  0.431600  1.0  0.1114
  H  H68  1  0.829600  0.656100  0.452900  1.0  0.1056
  H  H69  1  0.840800  0.600700  0.325200  1.0  0.1064
  H  H70  1  0.825600  0.701700  0.254700  1.0  0.1041
  H  H71  1  0.990300  0.864600  0.319200  1.0  0.1167
  H  H72  1  0.050800  0.316700  0.386200  1.0  0.1148
  H  H73  1  0.134000  0.513300  0.452100  1.0  0.1197
  H  H74  1  0.725900  0.467000  0.567400  1.0  0.101
  H  H75  1  0.708900  0.692000  0.560100  1.0  0.1318
  H  H76  1  0.920800  0.583500  0.358700  1.0  0.1166
  H  H77  1  0.982400  0.657900  0.320300  1.0  0.1058
  H  H78  1  0.851100  0.859800  0.347700  1.0  0.1052
  H  H79  1  0.726600  0.589900  0.612900  1.0  0.0992
  H  H80  1  0.985200  0.661200  0.502900  1.0  0.1112
  H  H81  1  0.103000  0.750200  0.319500  1.0  0.1174
  H  H82  1  0.908600  0.632900  0.486900  1.0  0.1042
  H  H83  1  0.009500  0.566900  0.299100  1.0  0.1106
  H  H84  1  0.981400  0.521700  0.401100  1.0  0.1084
  H  H85  1  0.720200  0.302600  0.675900  1.0  0.0851
  H  H86  1  0.051500  0.737500  0.550700  1.0  0.1233
  H  H87  1  0.726900  0.538700  0.681400  1.0  0.1211
  H  H88  1  0.043400  0.461400  0.294500  1.0  0.1082
  H  H89  1  0.099700  0.547400  0.508900  1.0  0.1107
  H  H90  1  0.011600  0.409300  0.406700  1.0  0.1107
  H  H91  1  0.930800  0.848500  0.358200  1.0  0.1198
  H  H92  1  0.732100  0.512800  0.503900  1.0  0.1265
  H  H93  1  0.720500  0.475000  0.744200  1.0  0.0845
  H  H94  1  0.101400  0.858700  0.263200  1.0  0.0863
  H  H95  1  0.104100  0.030100  0.373000  1.0  0.1133
  H  H96  1  0.101200  0.546900  0.588400  1.0  0.0987
  H  H97  1  0.140700  0.585700  0.663600  1.0  0.1271
  H  H98  1  0.717700  0.566300  0.432400  1.0  0.083
  H  H99  1  0.094200  0.778300  0.625100  1.0  0.1142
  H  H100  1  0.137000  0.654200  0.342200  1.0  0.1145
  H  H101  1  0.171000  0.548900  0.337200  1.0  0.0946
  H  H102  1  0.137300  0.963400  0.258400  1.0  0.1128
  H  H103  1  0.062300  0.929100  0.372900  1.0  0.1209
  H  H104  1  0.725900  0.361500  0.610000  1.0  0.1288
  H  H105  1  0.405600  0.811900  0.767400  1.0  0.103
  H  H106  1  0.195300  0.758600  0.986400  1.0  0.0777
  H  H107  1  0.672900  0.078700  0.931600  1.0  0.1116
  H  H108  1  0.329600  0.843900  0.952900  1.0  0.1056
  H  H109  1  0.340800  0.899300  0.825200  1.0  0.1066
  H  H110  1  0.325600  0.798300  0.754700  1.0  0.1043
  H  H111  1  0.490300  0.635400  0.819200  1.0  0.1177
  H  H112  1  0.550800  0.183300  0.886200  1.0  0.1157
  H  H113  1  0.634000  0.986700  0.952100  1.0  0.1196
  H  H114  1  0.225900  0.033000  0.067400  1.0  0.1017
  H  H115  1  0.208900  0.808000  0.060100  1.0  0.1321
  H  H116  1  0.420800  0.916500  0.858700  1.0  0.1165
  H  H117  1  0.482400  0.842100  0.820300  1.0  0.106
  H  H118  1  0.351100  0.640200  0.847700  1.0  0.1053
  H  H119  1  0.226600  0.910100  0.112900  1.0  0.0985
  H  H120  1  0.485200  0.838800  0.002900  1.0  0.1117
  H  H121  1  0.603000  0.749800  0.819500  1.0  0.1178
  H  H122  1  0.408600  0.867100  0.986900  1.0  0.1043
  H  H123  1  0.509500  0.933100  0.799100  1.0  0.1107
  H  H124  1  0.481400  0.978300  0.901100  1.0  0.1082
  H  H125  1  0.220200  0.197400  0.175900  1.0  0.086
  H  H126  1  0.551500  0.762500  0.050700  1.0  0.1215
  H  H127  1  0.226900  0.961300  0.181400  1.0  0.1211
  H  H128  1  0.543400  0.038600  0.794500  1.0  0.1091
  H  H129  1  0.599700  0.952600  0.008900  1.0  0.1113
  H  H130  1  0.511600  0.090700  0.906700  1.0  0.1114
  H  H131  1  0.430800  0.651500  0.858200  1.0  0.1204
  H  H132  1  0.232100  0.987200  0.003900  1.0  0.1266
  H  H133  1  0.220500  0.025000  0.244200  1.0  0.0848
  H  H134  1  0.601400  0.641300  0.763200  1.0  0.0861
  H  H135  1  0.604100  0.469900  0.873000  1.0  0.1138
  H  H136  1  0.601200  0.953100  0.088400  1.0  0.099
  H  H137  1  0.640700  0.914300  0.163600  1.0  0.1265
  H  H138  1  0.217700  0.933700  0.932400  1.0  0.0826
  H  H139  1  0.594200  0.721700  0.125100  1.0  0.1141
  H  H140  1  0.637000  0.845800  0.842200  1.0  0.1147
  H  H141  1  0.671000  0.951100  0.837200  1.0  0.0948
  H  H142  1  0.637300  0.536600  0.758400  1.0  0.1128
  H  H143  1  0.562300  0.570900  0.872900  1.0  0.1212
  H  H144  1  0.225900  0.138500  0.110000  1.0  0.1289
  H  H145  1  0.905600  0.311900  0.767400  1.0  0.103
  H  H146  1  0.695300  0.258600  0.986400  1.0  0.0779
  H  H147  1  0.172900  0.578700  0.931600  1.0  0.1116
  H  H148  1  0.829600  0.343900  0.952900  1.0  0.1056
  H  H149  1  0.840800  0.399300  0.825200  1.0  0.1066
  H  H150  1  0.825600  0.298300  0.754700  1.0  0.1043
  H  H151  1  0.990300  0.135400  0.819200  1.0  0.1177
  H  H152  1  0.050800  0.683300  0.886200  1.0  0.1157
  H  H153  1  0.134000  0.486700  0.952100  1.0  0.1196
  H  H154  1  0.725900  0.533000  0.067400  1.0  0.1017
  H  H155  1  0.708900  0.308000  0.060100  1.0  0.1321
  H  H156  1  0.920800  0.416500  0.858700  1.0  0.1165
  H  H157  1  0.982400  0.342100  0.820300  1.0  0.106
  H  H158  1  0.851100  0.140200  0.847700  1.0  0.1053
  H  H159  1  0.726600  0.410100  0.112900  1.0  0.0985
  H  H160  1  0.985200  0.338800  0.002900  1.0  0.1117
  H  H161  1  0.103000  0.249800  0.819500  1.0  0.1178
  H  H162  1  0.908600  0.367100  0.986900  1.0  0.1043
  H  H163  1  0.009500  0.433100  0.799100  1.0  0.1107
  H  H164  1  0.981400  0.478300  0.901100  1.0  0.1082
  H  H165  1  0.720200  0.697400  0.175900  1.0  0.086
  H  H166  1  0.051500  0.262500  0.050700  1.0  0.1215
  H  H167  1  0.726900  0.461300  0.181400  1.0  0.1211
  H  H168  1  0.043400  0.538600  0.794500  1.0  0.1091
  H  H169  1  0.099700  0.452600  0.008900  1.0  0.1113
  H  H170  1  0.011600  0.590700  0.906700  1.0  0.1114
  H  H171  1  0.930800  0.151500  0.858200  1.0  0.1204
  H  H172  1  0.732100  0.487200  0.003900  1.0  0.1266
  H  H173  1  0.720500  0.525000  0.244200  1.0  0.0848
  H  H174  1  0.101400  0.141300  0.763200  1.0  0.0861
  H  H175  1  0.104100  0.969900  0.873000  1.0  0.1138
  H  H176  1  0.101200  0.453100  0.088400  1.0  0.099
  H  H177  1  0.140700  0.414300  0.163600  1.0  0.1265
  H  H178  1  0.717700  0.433700  0.932400  1.0  0.0827
  H  H179  1  0.094200  0.221700  0.125100  1.0  0.1141
  H  H180  1  0.137000  0.345800  0.842200  1.0  0.1147
  H  H181  1  0.171000  0.451100  0.837200  1.0  0.0948
  H  H182  1  0.137300  0.036600  0.758400  1.0  0.1128
  H  H183  1  0.062300  0.070900  0.872900  1.0  0.1212
  H  H184  1  0.725900  0.638500  0.110000  1.0  0.1289
  H  H185  1  0.594400  0.188100  0.232600  1.0  0.103
  H  H186  1  0.804700  0.241400  0.013600  1.0  0.0762
  H  H187  1  0.327100  0.921300  0.068400  1.0  0.1116
  H  H188  1  0.670400  0.156100  0.047100  1.0  0.1053
  H  H189  1  0.659200  0.100700  0.174800  1.0  0.1067
  H  H190  1  0.674400  0.201700  0.245300  1.0  0.1045
  H  H191  1  0.509700  0.364600  0.180800  1.0  0.1167
  H  H192  1  0.449200  0.816700  0.113800  1.0  0.1153
  H  H193  1  0.366000  0.013300  0.047900  1.0  0.1192
  H  H194  1  0.774100  0.967000  0.932600  1.0  0.1002
  H  H195  1  0.791100  0.192000  0.939900  1.0  0.1313
  H  H196  1  0.579200  0.083500  0.141300  1.0  0.1168
  H  H197  1  0.517600  0.157900  0.179700  1.0  0.1058
  H  H198  1  0.648900  0.359800  0.152300  1.0  0.1047
  H  H199  1  0.773400  0.089900  0.887100  1.0  0.0976
  H  H200  1  0.514800  0.161200  0.997100  1.0  0.111
  H  H201  1  0.397000  0.250200  0.180500  1.0  0.118
  H  H202  1  0.591400  0.132900  0.013100  1.0  0.1056
  H  H203  1  0.490500  0.066900  0.200900  1.0  0.1111
  H  H204  1  0.518600  0.021700  0.098900  1.0  0.1093
  H  H205  1  0.779800  0.802600  0.824100  1.0  0.0847
  H  H206  1  0.448500  0.237500  0.949300  1.0  0.1218
  H  H207  1  0.773100  0.038700  0.818600  1.0  0.1215
  H  H208  1  0.456600  0.961400  0.205500  1.0  0.1087
  H  H209  1  0.400300  0.047400  0.991100  1.0  0.1108
  H  H210  1  0.488400  0.909300  0.093300  1.0  0.1115
  H  H211  1  0.569200  0.348500  0.141800  1.0  0.1199
  H  H212  1  0.767900  0.012800  0.996100  1.0  0.1262
  H  H213  1  0.779500  0.975000  0.755800  1.0  0.0843
  H  H214  1  0.398600  0.358700  0.236800  1.0  0.0861
  H  H215  1  0.395900  0.530100  0.127000  1.0  0.1132
  H  H216  1  0.398800  0.046900  0.911600  1.0  0.0988
  H  H217  1  0.359300  0.085700  0.836400  1.0  0.1269
  H  H218  1  0.782300  0.066300  0.067600  1.0  0.0822
  H  H219  1  0.405800  0.278300  0.874900  1.0  0.1143
  H  H220  1  0.363000  0.154200  0.157800  1.0  0.1144
  H  H221  1  0.329000  0.048900  0.162800  1.0  0.093
  H  H222  1  0.362700  0.463400  0.241600  1.0  0.1122
  H  H223  1  0.437700  0.429100  0.127100  1.0  0.1216
  H  H224  1  0.774100  0.861500  0.890000  1.0  0.1284
  H  H225  1  0.094400  0.688100  0.232600  1.0  0.103
  H  H226  1  0.304700  0.741400  0.013600  1.0  0.0762
  H  H227  1  0.827100  0.421300  0.068400  1.0  0.1116
  H  H228  1  0.170400  0.656100  0.047100  1.0  0.1053
  H  H229  1  0.159200  0.600700  0.174800  1.0  0.1067
  H  H230  1  0.174400  0.701700  0.245300  1.0  0.1045
  H  H231  1  0.009700  0.864600  0.180800  1.0  0.1167
  H  H232  1  0.949200  0.316700  0.113800  1.0  0.1153
  H  H233  1  0.866000  0.513300  0.047900  1.0  0.1192
  H  H234  1  0.274100  0.467000  0.932600  1.0  0.1002
  H  H235  1  0.291100  0.692000  0.939900  1.0  0.1313
  H  H236  1  0.079200  0.583500  0.141300  1.0  0.1168
  H  H237  1  0.017600  0.657900  0.179700  1.0  0.1058
  H  H238  1  0.148900  0.859800  0.152300  1.0  0.1047
  H  H239  1  0.273400  0.589900  0.887100  1.0  0.0976
  H  H240  1  0.014800  0.661200  0.997100  1.0  0.111
  H  H241  1  0.897000  0.750200  0.180500  1.0  0.118
  H  H242  1  0.091400  0.632900  0.013100  1.0  0.1056
  H  H243  1  0.990500  0.566900  0.200900  1.0  0.1111
  H  H244  1  0.018600  0.521700  0.098900  1.0  0.1093
  H  H245  1  0.279800  0.302600  0.824100  1.0  0.0847
  H  H246  1  0.948500  0.737500  0.949300  1.0  0.1218
  H  H247  1  0.273100  0.538700  0.818600  1.0  0.1215
  H  H248  1  0.956600  0.461400  0.205500  1.0  0.1087
  H  H249  1  0.900300  0.547400  0.991100  1.0  0.1108
  H  H250  1  0.988400  0.409300  0.093300  1.0  0.1115
  H  H251  1  0.069200  0.848500  0.141800  1.0  0.1199
  H  H252  1  0.267900  0.512800  0.996100  1.0  0.1262
  H  H253  1  0.279500  0.475000  0.755800  1.0  0.0843
  H  H254  1  0.898600  0.858700  0.236800  1.0  0.0861
  H  H255  1  0.895900  0.030100  0.127000  1.0  0.1132
  H  H256  1  0.898800  0.546900  0.911600  1.0  0.0988
  H  H257  1  0.859300  0.585700  0.836400  1.0  0.1269
  H  H258  1  0.282300  0.566300  0.067600  1.0  0.0823
  H  H259  1  0.905800  0.778300  0.874900  1.0  0.1143
  H  H260  1  0.863000  0.654200  0.157800  1.0  0.1144
  H  H261  1  0.829000  0.548900  0.162800  1.0  0.093
  H  H262  1  0.862700  0.963400  0.241600  1.0  0.1122
  H  H263  1  0.937700  0.929100  0.127100  1.0  0.1216
  H  H264  1  0.274100  0.361500  0.890000  1.0  0.1284
  H  H265  1  0.594400  0.811900  0.732600  1.0  0.1031
  H  H266  1  0.804700  0.758600  0.513600  1.0  0.0769
  H  H267  1  0.327100  0.078700  0.568400  1.0  0.1114
  H  H268  1  0.670400  0.843900  0.547100  1.0  0.1053
  H  H269  1  0.659200  0.899300  0.674800  1.0  0.1066
  H  H270  1  0.674400  0.798300  0.745300  1.0  0.104
  H  H271  1  0.509700  0.635400  0.680800  1.0  0.1174
  H  H272  1  0.449200  0.183300  0.613800  1.0  0.1155
  H  H273  1  0.366000  0.986700  0.547900  1.0  0.1189
  H  H274  1  0.774100  0.033000  0.432600  1.0  0.1012
  H  H275  1  0.791100  0.808000  0.439900  1.0  0.1317
  H  H276  1  0.579200  0.916500  0.641300  1.0  0.1167
  H  H277  1  0.517600  0.842100  0.679700  1.0  0.1059
  H  H278  1  0.648900  0.640200  0.652300  1.0  0.1047
  H  H279  1  0.773400  0.910100  0.387100  1.0  0.0975
  H  H280  1  0.514800  0.838800  0.497100  1.0  0.1114
  H  H281  1  0.397000  0.749800  0.680500  1.0  0.1176
  H  H282  1  0.591400  0.867100  0.513100  1.0  0.1052
  H  H283  1  0.490500  0.933100  0.700900  1.0  0.111
  H  H284  1  0.518600  0.978300  0.598900  1.0  0.1089
  H  H285  1  0.779800  0.197400  0.324100  1.0  0.086
  H  H286  1  0.448500  0.762500  0.449300  1.0  0.1223
  H  H287  1  0.773100  0.961300  0.318600  1.0  0.1215
  H  H288  1  0.456600  0.038600  0.705500  1.0  0.1088
  H  H289  1  0.400300  0.952600  0.491100  1.0  0.1112
  H  H290  1  0.488400  0.090700  0.593300  1.0  0.1109
  H  H291  1  0.569200  0.651500  0.641800  1.0  0.1189
  H  H292  1  0.767900  0.987200  0.496100  1.0  0.126
  H  H293  1  0.779500  0.025000  0.255800  1.0  0.0844
  H  H294  1  0.398600  0.641300  0.736800  1.0  0.0861
  H  H295  1  0.395900  0.469900  0.627000  1.0  0.1135
  H  H296  1  0.398800  0.953100  0.411600  1.0  0.0992
  H  H297  1  0.359300  0.914300  0.336400  1.0  0.1272
  H  H298  1  0.782300  0.933700  0.567600  1.0  0.0824
  H  H299  1  0.405800  0.721700  0.374900  1.0  0.1138
  H  H300  1  0.363000  0.845800  0.657800  1.0  0.1141
  H  H301  1  0.329000  0.951100  0.662800  1.0  0.0929
  H  H302  1  0.362700  0.536600  0.741600  1.0  0.1121
  H  H303  1  0.437700  0.570900  0.627100  1.0  0.1213
  H  H304  1  0.774100  0.138500  0.390000  1.0  0.1288
  H  H305  1  0.094400  0.311900  0.732600  1.0  0.1031
  H  H306  1  0.304700  0.258600  0.513600  1.0  0.0769
  H  H307  1  0.827100  0.578700  0.568400  1.0  0.1114
  H  H308  1  0.170400  0.343900  0.547100  1.0  0.1053
  H  H309  1  0.159200  0.399300  0.674800  1.0  0.1066
  H  H310  1  0.174400  0.298300  0.745300  1.0  0.104
  H  H311  1  0.009700  0.135400  0.680800  1.0  0.1174
  H  H312  1  0.949200  0.683300  0.613800  1.0  0.1155
  H  H313  1  0.866000  0.486700  0.547900  1.0  0.1189
  H  H314  1  0.274100  0.533000  0.432600  1.0  0.1012
  H  H315  1  0.291100  0.308000  0.439900  1.0  0.1317
  H  H316  1  0.079200  0.416500  0.641300  1.0  0.1167
  H  H317  1  0.017600  0.342100  0.679700  1.0  0.1059
  H  H318  1  0.148900  0.140200  0.652300  1.0  0.1047
  H  H319  1  0.273400  0.410100  0.387100  1.0  0.0975
  H  H320  1  0.014800  0.338800  0.497100  1.0  0.1114
  H  H321  1  0.897000  0.249800  0.680500  1.0  0.1176
  H  H322  1  0.091400  0.367100  0.513100  1.0  0.1052
  H  H323  1  0.990500  0.433100  0.700900  1.0  0.111
  H  H324  1  0.018600  0.478300  0.598900  1.0  0.1089
  H  H325  1  0.279800  0.697400  0.324100  1.0  0.086
  H  H326  1  0.948500  0.262500  0.449300  1.0  0.1223
  H  H327  1  0.273100  0.461300  0.318600  1.0  0.1215
  H  H328  1  0.956600  0.538600  0.705500  1.0  0.1088
  H  H329  1  0.900300  0.452600  0.491100  1.0  0.1112
  H  H330  1  0.988400  0.590700  0.593300  1.0  0.1109
  H  H331  1  0.069200  0.151500  0.641800  1.0  0.1189
  H  H332  1  0.267900  0.487200  0.496100  1.0  0.126
  H  H333  1  0.279500  0.525000  0.255800  1.0  0.0844
  H  H334  1  0.898600  0.141300  0.736800  1.0  0.0861
  H  H335  1  0.895900  0.969900  0.627000  1.0  0.1135
  H  H336  1  0.898800  0.453100  0.411600  1.0  0.0992
  H  H337  1  0.859300  0.414300  0.336400  1.0  0.1272
  H  H338  1  0.282300  0.433700  0.567600  1.0  0.0825
  H  H339  1  0.905800  0.221700  0.374900  1.0  0.1138
  H  H340  1  0.863000  0.345800  0.657800  1.0  0.1141
  H  H341  1  0.829000  0.451100  0.662800  1.0  0.0929
  H  H342  1  0.862700  0.036600  0.741600  1.0  0.1121
  H  H343  1  0.937700  0.070900  0.627100  1.0  0.1213
  H  H344  1  0.274100  0.638500  0.390000  1.0  0.1288
  C  C345  1  0.277890  0.287720  0.292230  1.0  0.6776
  C  C346  1  0.633080  0.926240  0.308910  1.0  0.6555
  C  C347  1  0.394640  0.223100  0.283040  1.0  -0.0904
  C  C348  1  0.276140  0.149880  0.362930  1.0  0.6665
  C  C349  1  0.201850  0.194240  0.489800  1.0  0.1794
  C  C350  1  0.329770  0.282450  0.299420  1.0  -0.1357
  C  C351  1  0.615920  0.858640  0.408370  1.0  -0.1341
  C  C352  1  0.611200  0.994140  0.313750  1.0  -0.1102
  C  C353  1  0.642040  0.798280  0.397480  1.0  0.6359
  C  C354  1  0.474980  0.092900  0.448890  1.0  0.0103
  C  C355  1  0.640630  0.918600  0.427230  1.0  -0.0417
  C  C356  1  0.551550  0.317900  0.319700  1.0  0.0449
  C  C357  1  0.347810  0.141100  0.433960  1.0  -0.0437
  C  C358  1  0.354570  0.108810  0.357490  1.0  -0.032
  C  C359  1  0.219550  0.095380  0.540390  1.0  0.1132
  C  C360  1  0.649710  0.574650  0.314890  1.0  0.7325
  C  C361  1  0.327210  0.132050  0.385170  1.0  -0.1447
  C  C362  1  0.346670  0.230970  0.275650  1.0  -0.018
  C  C363  1  0.504280  0.321600  0.319170  1.0  -0.0864
  C  C364  1  0.647940  0.210000  0.701400  1.0  0.7054
  C  C365  1  0.567550  0.855900  0.400050  1.0  -0.0391
  C  C366  1  0.617310  0.973500  0.439380  1.0  -0.1297
  C  C367  1  0.423750  0.107000  0.426580  1.0  0.0527
  C  C368  1  0.569110  0.123220  0.319910  1.0  0.0345
  C  C369  1  0.225120  0.994400  0.593150  1.0  -0.0892
  C  C370  1  0.209940  0.164860  0.534390  1.0  -0.1696
  C  C371  1  0.402550  0.097530  0.377820  1.0  -0.1057
  C  C372  1  0.478150  0.262100  0.318560  1.0  -0.0151
  C  C373  1  0.426700  0.267620  0.314000  1.0  0.0316
  C  C374  1  0.499700  0.197920  0.319790  1.0  -0.1109
  C  C375  1  0.361950  0.325960  0.331090  1.0  -0.0532
  C  C376  1  0.224200  0.061600  0.586670  1.0  -0.1496
  C  C377  1  0.225070  0.958200  0.636800  1.0  0.1195
  C  C378  1  0.499910  0.126500  0.490510  1.0  -0.1229
  C  C379  1  0.571870  0.252990  0.319790  1.0  -0.1226
  C  C380  1  0.572490  0.137800  0.561310  1.0  0.0632
  C  C381  1  0.395330  0.127800  0.454240  1.0  -0.1138
  C  C382  1  0.621610  0.186200  0.651960  1.0  -0.14
  C  C383  1  0.547030  0.192420  0.320330  1.0  -0.0199
  C  C384  1  0.542120  0.063800  0.306400  1.0  -0.0992
  C  C385  1  0.497760  0.043500  0.429290  1.0  -0.0863
  C  C386  1  0.220530  0.850800  0.676520  1.0  0.1702
  C  C387  1  0.570050  0.207100  0.573030  1.0  -0.136
  C  C388  1  0.224610  0.990780  0.678890  1.0  -0.2125
  C  C389  1  0.562440  0.000400  0.303430  1.0  -0.0515
  C  C390  1  0.568480  0.059000  0.493670  1.0  -0.1221
  C  C391  1  0.544050  0.911500  0.412320  1.0  -0.091
  C  C392  1  0.409710  0.318700  0.337640  1.0  -0.0985
  C  C393  1  0.568730  0.970700  0.432980  1.0  0.0475
  C  C394  1  0.546310  0.109200  0.513860  1.0  0.0412
  C  C395  1  0.223540  0.059300  0.501040  1.0  -0.216
  C  C396  1  0.220810  0.952030  0.716560  1.0  0.1819
  C  C397  1  0.600860  0.393700  0.284660  1.0  -0.1202
  C  C398  1  0.544800  0.026100  0.451260  1.0  0.0371
  C  C399  1  0.602600  0.496400  0.350000  1.0  -0.0567
  C  C400  1  0.599340  0.093500  0.595770  1.0  -0.1249
  C  C401  1  0.577990  0.382940  0.318310  1.0  0.0337
  C  C402  1  0.623380  0.116600  0.640810  1.0  -0.0897
  C  C403  1  0.215020  0.091900  0.458190  1.0  0.1784
  C  C404  1  0.624420  0.507370  0.314970  1.0  -0.1461
  C  C405  1  0.595160  0.231600  0.617920  1.0  -0.0412
  C  C406  1  0.617810  0.115700  0.331900  1.0  -0.1049
  C  C407  1  0.638350  0.052300  0.328870  1.0  -0.0164
  C  C408  1  0.623180  0.456200  0.282240  1.0  -0.0506
  C  C409  1  0.578400  0.435200  0.350500  1.0  -0.1421
  C  C410  1  0.224120  0.885900  0.636620  1.0  -0.2173
  C  C411  1  0.777890  0.787720  0.292230  1.0  0.6776
  C  C412  1  0.133080  0.426240  0.308910  1.0  0.6555
  C  C413  1  0.894640  0.723100  0.283040  1.0  -0.0904
  C  C414  1  0.776140  0.649880  0.362930  1.0  0.6665
  C  C415  1  0.701850  0.694240  0.489800  1.0  0.1794
  C  C416  1  0.829770  0.782450  0.299420  1.0  -0.1357
  C  C417  1  0.115920  0.358640  0.408370  1.0  -0.1341
  C  C418  1  0.111200  0.494140  0.313750  1.0  -0.1102
  C  C419  1  0.142040  0.298280  0.397480  1.0  0.6359
  C  C420  1  0.974980  0.592900  0.448890  1.0  0.0103
  C  C421  1  0.140630  0.418600  0.427230  1.0  -0.0417
  C  C422  1  0.051550  0.817900  0.319700  1.0  0.0449
  C  C423  1  0.847810  0.641100  0.433960  1.0  -0.0437
  C  C424  1  0.854570  0.608810  0.357490  1.0  -0.032
  C  C425  1  0.719550  0.595380  0.540390  1.0  0.1132
  C  C426  1  0.149710  0.074650  0.314890  1.0  0.7325
  C  C427  1  0.827210  0.632050  0.385170  1.0  -0.1447
  C  C428  1  0.846670  0.730970  0.275650  1.0  -0.018
  C  C429  1  0.004280  0.821600  0.319170  1.0  -0.0864
  C  C430  1  0.147940  0.710000  0.701400  1.0  0.7054
  C  C431  1  0.067550  0.355900  0.400050  1.0  -0.0391
  C  C432  1  0.117310  0.473500  0.439380  1.0  -0.1297
  C  C433  1  0.923750  0.607000  0.426580  1.0  0.0527
  C  C434  1  0.069110  0.623220  0.319910  1.0  0.0345
  C  C435  1  0.725120  0.494400  0.593150  1.0  -0.0892
  C  C436  1  0.709940  0.664860  0.534390  1.0  -0.1696
  C  C437  1  0.902550  0.597530  0.377820  1.0  -0.1057
  C  C438  1  0.978150  0.762100  0.318560  1.0  -0.0151
  C  C439  1  0.926700  0.767620  0.314000  1.0  0.0316
  C  C440  1  0.999700  0.697920  0.319790  1.0  -0.1109
  C  C441  1  0.861950  0.825960  0.331090  1.0  -0.0532
  C  C442  1  0.724200  0.561600  0.586670  1.0  -0.1496
  C  C443  1  0.725070  0.458200  0.636800  1.0  0.1195
  C  C444  1  0.999910  0.626500  0.490510  1.0  -0.1229
  C  C445  1  0.071870  0.752990  0.319790  1.0  -0.1226
  C  C446  1  0.072490  0.637800  0.561310  1.0  0.0632
  C  C447  1  0.895330  0.627800  0.454240  1.0  -0.1138
  C  C448  1  0.121610  0.686200  0.651960  1.0  -0.14
  C  C449  1  0.047030  0.692420  0.320330  1.0  -0.0199
  C  C450  1  0.042120  0.563800  0.306400  1.0  -0.0992
  C  C451  1  0.997760  0.543500  0.429290  1.0  -0.0863
  C  C452  1  0.720530  0.350800  0.676520  1.0  0.1702
  C  C453  1  0.070050  0.707100  0.573030  1.0  -0.136
  C  C454  1  0.724610  0.490780  0.678890  1.0  -0.2125
  C  C455  1  0.062440  0.500400  0.303430  1.0  -0.0515
  C  C456  1  0.068480  0.559000  0.493670  1.0  -0.1221
  C  C457  1  0.044050  0.411500  0.412320  1.0  -0.091
  C  C458  1  0.909710  0.818700  0.337640  1.0  -0.0985
  C  C459  1  0.068730  0.470700  0.432980  1.0  0.0475
  C  C460  1  0.046310  0.609200  0.513860  1.0  0.0412
  C  C461  1  0.723540  0.559300  0.501040  1.0  -0.216
  C  C462  1  0.720810  0.452030  0.716560  1.0  0.1819
  C  C463  1  0.100860  0.893700  0.284660  1.0  -0.1202
  C  C464  1  0.044800  0.526100  0.451260  1.0  0.0371
  C  C465  1  0.102600  0.996400  0.350000  1.0  -0.0567
  C  C466  1  0.099340  0.593500  0.595770  1.0  -0.1249
  C  C467  1  0.077990  0.882940  0.318310  1.0  0.0337
  C  C468  1  0.123380  0.616600  0.640810  1.0  -0.0897
  C  C469  1  0.715020  0.591900  0.458190  1.0  0.1784
  C  C470  1  0.124420  0.007370  0.314970  1.0  -0.1461
  C  C471  1  0.095160  0.731600  0.617920  1.0  -0.0412
  C  C472  1  0.117810  0.615700  0.331900  1.0  -0.1049
  C  C473  1  0.138350  0.552300  0.328870  1.0  -0.0164
  C  C474  1  0.123180  0.956200  0.282240  1.0  -0.0506
  C  C475  1  0.078400  0.935200  0.350500  1.0  -0.1421
  C  C476  1  0.724120  0.385900  0.636620  1.0  -0.2173
  C  C477  1  0.277890  0.712280  0.792230  1.0  0.6776
  C  C478  1  0.633080  0.073760  0.808910  1.0  0.6553
  C  C479  1  0.394640  0.776900  0.783040  1.0  -0.0897
  C  C480  1  0.276140  0.850120  0.862930  1.0  0.666
  C  C481  1  0.201850  0.805760  0.989800  1.0  0.1796
  C  C482  1  0.329770  0.717550  0.799420  1.0  -0.1358
  C  C483  1  0.615920  0.141360  0.908370  1.0  -0.134
  C  C484  1  0.611200  0.005860  0.813750  1.0  -0.1084
  C  C485  1  0.642040  0.201720  0.897480  1.0  0.6361
  C  C486  1  0.474980  0.907100  0.948890  1.0  0.01
  C  C487  1  0.640630  0.081400  0.927230  1.0  -0.0418
  C  C488  1  0.551550  0.682100  0.819700  1.0  0.0461
  C  C489  1  0.347810  0.858900  0.933960  1.0  -0.0441
  C  C490  1  0.354570  0.891190  0.857490  1.0  -0.0323
  C  C491  1  0.219550  0.904620  0.040390  1.0  0.1131
  C  C492  1  0.649710  0.425350  0.814890  1.0  0.7325
  C  C493  1  0.327210  0.867950  0.885170  1.0  -0.1439
  C  C494  1  0.346670  0.769030  0.775650  1.0  -0.0181
  C  C495  1  0.504280  0.678400  0.819170  1.0  -0.0866
  C  C496  1  0.647940  0.790000  0.201400  1.0  0.7055
  C  C497  1  0.567550  0.144100  0.900050  1.0  -0.0409
  C  C498  1  0.617310  0.026500  0.939380  1.0  -0.1283
  C  C499  1  0.423750  0.893000  0.926580  1.0  0.0535
  C  C500  1  0.569110  0.876780  0.819910  1.0  0.0353
  C  C501  1  0.225120  0.005600  0.093150  1.0  -0.0892
  C  C502  1  0.209940  0.835140  0.034390  1.0  -0.1698
  C  C503  1  0.402550  0.902470  0.877820  1.0  -0.1059
  C  C504  1  0.478150  0.737900  0.818560  1.0  -0.0152
  C  C505  1  0.426700  0.732380  0.814000  1.0  0.0315
  C  C506  1  0.499700  0.802080  0.819790  1.0  -0.1115
  C  C507  1  0.361950  0.674040  0.831090  1.0  -0.0539
  C  C508  1  0.224200  0.938400  0.086670  1.0  -0.1499
  C  C509  1  0.225070  0.041800  0.136800  1.0  0.1194
  C  C510  1  0.499910  0.873500  0.990510  1.0  -0.1223
  C  C511  1  0.571870  0.747010  0.819790  1.0  -0.1223
  C  C512  1  0.572490  0.862200  0.061310  1.0  0.0628
  C  C513  1  0.395330  0.872200  0.954240  1.0  -0.1143
  C  C514  1  0.621610  0.813800  0.151960  1.0  -0.14
  C  C515  1  0.547030  0.807580  0.820330  1.0  -0.0204
  C  C516  1  0.542120  0.936200  0.806400  1.0  -0.0991
  C  C517  1  0.497760  0.956500  0.929290  1.0  -0.0861
  C  C518  1  0.220530  0.149200  0.176520  1.0  0.1704
  C  C519  1  0.570050  0.792900  0.073030  1.0  -0.136
  C  C520  1  0.224610  0.009220  0.178890  1.0  -0.2113
  C  C521  1  0.562440  0.999600  0.803430  1.0  -0.0499
  C  C522  1  0.568480  0.941000  0.993670  1.0  -0.1229
  C  C523  1  0.544050  0.088500  0.912320  1.0  -0.091
  C  C524  1  0.409710  0.681300  0.837640  1.0  -0.097
  C  C525  1  0.568730  0.029300  0.932980  1.0  0.0472
  C  C526  1  0.546310  0.890800  0.013860  1.0  0.041
  C  C527  1  0.223540  0.940700  0.001040  1.0  -0.2149
  C  C528  1  0.220810  0.047970  0.216560  1.0  0.1821
  C  C529  1  0.600860  0.606300  0.784660  1.0  -0.12
  C  C530  1  0.544800  0.973900  0.951260  1.0  0.0366
  C  C531  1  0.602600  0.503600  0.850000  1.0  -0.0571
  C  C532  1  0.599340  0.906500  0.095770  1.0  -0.1238
  C  C533  1  0.577990  0.617060  0.818310  1.0  0.0325
  C  C534  1  0.623380  0.883400  0.140810  1.0  -0.089
  C  C535  1  0.215020  0.908100  0.958190  1.0  0.1779
  C  C536  1  0.624420  0.492630  0.814970  1.0  -0.1459
  C  C537  1  0.595160  0.768400  0.117920  1.0  -0.0425
  C  C538  1  0.617810  0.884300  0.831900  1.0  -0.1041
  C  C539  1  0.638350  0.947700  0.828870  1.0  -0.016
  C  C540  1  0.623180  0.543800  0.782240  1.0  -0.0512
  C  C541  1  0.578400  0.564800  0.850500  1.0  -0.1423
  C  C542  1  0.224120  0.114100  0.136620  1.0  -0.2146
  C  C543  1  0.777890  0.212280  0.792230  1.0  0.6776
  C  C544  1  0.133080  0.573760  0.808910  1.0  0.6553
  C  C545  1  0.894640  0.276900  0.783040  1.0  -0.0897
  C  C546  1  0.776140  0.350120  0.862930  1.0  0.666
  C  C547  1  0.701850  0.305760  0.989800  1.0  0.1796
  C  C548  1  0.829770  0.217550  0.799420  1.0  -0.1358
  C  C549  1  0.115920  0.641360  0.908370  1.0  -0.134
  C  C550  1  0.111200  0.505860  0.813750  1.0  -0.1084
  C  C551  1  0.142040  0.701720  0.897480  1.0  0.6361
  C  C552  1  0.974980  0.407100  0.948890  1.0  0.01
  C  C553  1  0.140630  0.581400  0.927230  1.0  -0.0418
  C  C554  1  0.051550  0.182100  0.819700  1.0  0.0461
  C  C555  1  0.847810  0.358900  0.933960  1.0  -0.0441
  C  C556  1  0.854570  0.391190  0.857490  1.0  -0.0323
  C  C557  1  0.719550  0.404620  0.040390  1.0  0.1131
  C  C558  1  0.149710  0.925350  0.814890  1.0  0.7325
  C  C559  1  0.827210  0.367950  0.885170  1.0  -0.1439
  C  C560  1  0.846670  0.269030  0.775650  1.0  -0.0181
  C  C561  1  0.004280  0.178400  0.819170  1.0  -0.0866
  C  C562  1  0.147940  0.290000  0.201400  1.0  0.7055
  C  C563  1  0.067550  0.644100  0.900050  1.0  -0.0409
  C  C564  1  0.117310  0.526500  0.939380  1.0  -0.1283
  C  C565  1  0.923750  0.393000  0.926580  1.0  0.0535
  C  C566  1  0.069110  0.376780  0.819910  1.0  0.0353
  C  C567  1  0.725120  0.505600  0.093150  1.0  -0.0892
  C  C568  1  0.709940  0.335140  0.034390  1.0  -0.1698
  C  C569  1  0.902550  0.402470  0.877820  1.0  -0.1059
  C  C570  1  0.978150  0.237900  0.818560  1.0  -0.0152
  C  C571  1  0.926700  0.232380  0.814000  1.0  0.0315
  C  C572  1  0.999700  0.302080  0.819790  1.0  -0.1115
  C  C573  1  0.861950  0.174040  0.831090  1.0  -0.0539
  C  C574  1  0.724200  0.438400  0.086670  1.0  -0.1499
  C  C575  1  0.725070  0.541800  0.136800  1.0  0.1194
  C  C576  1  0.999910  0.373500  0.990510  1.0  -0.1223
  C  C577  1  0.071870  0.247010  0.819790  1.0  -0.1223
  C  C578  1  0.072490  0.362200  0.061310  1.0  0.0628
  C  C579  1  0.895330  0.372200  0.954240  1.0  -0.1143
  C  C580  1  0.121610  0.313800  0.151960  1.0  -0.14
  C  C581  1  0.047030  0.307580  0.820330  1.0  -0.0204
  C  C582  1  0.042120  0.436200  0.806400  1.0  -0.0991
  C  C583  1  0.997760  0.456500  0.929290  1.0  -0.0861
  C  C584  1  0.720530  0.649200  0.176520  1.0  0.1704
  C  C585  1  0.070050  0.292900  0.073030  1.0  -0.136
  C  C586  1  0.724610  0.509220  0.178890  1.0  -0.2113
  C  C587  1  0.062440  0.499600  0.803430  1.0  -0.0499
  C  C588  1  0.068480  0.441000  0.993670  1.0  -0.1229
  C  C589  1  0.044050  0.588500  0.912320  1.0  -0.091
  C  C590  1  0.909710  0.181300  0.837640  1.0  -0.097
  C  C591  1  0.068730  0.529300  0.932980  1.0  0.0472
  C  C592  1  0.046310  0.390800  0.013860  1.0  0.041
  C  C593  1  0.723540  0.440700  0.001040  1.0  -0.2149
  C  C594  1  0.720810  0.547970  0.216560  1.0  0.1821
  C  C595  1  0.100860  0.106300  0.784660  1.0  -0.12
  C  C596  1  0.044800  0.473900  0.951260  1.0  0.0366
  C  C597  1  0.102600  0.003600  0.850000  1.0  -0.0571
  C  C598  1  0.099340  0.406500  0.095770  1.0  -0.1238
  C  C599  1  0.077990  0.117060  0.818310  1.0  0.0325
  C  C600  1  0.123380  0.383400  0.140810  1.0  -0.089
  C  C601  1  0.715020  0.408100  0.958190  1.0  0.1779
  C  C602  1  0.124420  0.992630  0.814970  1.0  -0.1459
  C  C603  1  0.095160  0.268400  0.117920  1.0  -0.0425
  C  C604  1  0.117810  0.384300  0.831900  1.0  -0.1041
  C  C605  1  0.138350  0.447700  0.828870  1.0  -0.016
  C  C606  1  0.123180  0.043800  0.782240  1.0  -0.0512
  C  C607  1  0.078400  0.064800  0.850500  1.0  -0.1423
  C  C608  1  0.724120  0.614100  0.136620  1.0  -0.2146
  C  C609  1  0.722110  0.287720  0.207770  1.0  0.6781
  C  C610  1  0.366920  0.926240  0.191090  1.0  0.6555
  C  C611  1  0.605360  0.223100  0.216960  1.0  -0.09
  C  C612  1  0.723860  0.149880  0.137070  1.0  0.6676
  C  C613  1  0.798150  0.194240  0.010200  1.0  0.1797
  C  C614  1  0.670230  0.282450  0.200580  1.0  -0.1366
  C  C615  1  0.384080  0.858640  0.091630  1.0  -0.1338
  C  C616  1  0.388800  0.994140  0.186250  1.0  -0.11
  C  C617  1  0.357960  0.798280  0.102520  1.0  0.637
  C  C618  1  0.525020  0.092900  0.051110  1.0  0.0097
  C  C619  1  0.359370  0.918600  0.072770  1.0  -0.0423
  C  C620  1  0.448450  0.317900  0.180300  1.0  0.0444
  C  C621  1  0.652190  0.141100  0.066040  1.0  -0.0418
  C  C622  1  0.645430  0.108810  0.142510  1.0  -0.0327
  C  C623  1  0.780450  0.095380  0.959610  1.0  0.1113
  C  C624  1  0.350290  0.574650  0.185110  1.0  0.7322
  C  C625  1  0.672790  0.132050  0.114830  1.0  -0.1439
  C  C626  1  0.653330  0.230970  0.224350  1.0  -0.0195
  C  C627  1  0.495720  0.321600  0.180830  1.0  -0.0869
  C  C628  1  0.352060  0.210000  0.798600  1.0  0.7042
  C  C629  1  0.432450  0.855900  0.099950  1.0  -0.0407
  C  C630  1  0.382690  0.973500  0.060620  1.0  -0.1304
  C  C631  1  0.576250  0.107000  0.073420  1.0  0.053
  C  C632  1  0.430890  0.123220  0.180090  1.0  0.035
  C  C633  1  0.774880  0.994400  0.906850  1.0  -0.0873
  C  C634  1  0.790060  0.164860  0.965610  1.0  -0.1689
  C  C635  1  0.597450  0.097530  0.122180  1.0  -0.1034
  C  C636  1  0.521850  0.262100  0.181440  1.0  -0.0166
  C  C637  1  0.573300  0.267620  0.186000  1.0  0.0319
  C  C638  1  0.500300  0.197920  0.180210  1.0  -0.1121
  C  C639  1  0.638050  0.325960  0.168910  1.0  -0.0536
  C  C640  1  0.775800  0.061600  0.913330  1.0  -0.1519
  C  C641  1  0.774930  0.958200  0.863200  1.0  0.1201
  C  C642  1  0.500090  0.126500  0.009490  1.0  -0.1223
  C  C643  1  0.428130  0.252990  0.180210  1.0  -0.1227
  C  C644  1  0.427510  0.137800  0.938690  1.0  0.0616
  C  C645  1  0.604670  0.127800  0.045760  1.0  -0.115
  C  C646  1  0.378390  0.186200  0.848040  1.0  -0.1409
  C  C647  1  0.452970  0.192420  0.179670  1.0  -0.0218
  C  C648  1  0.457880  0.063800  0.193600  1.0  -0.0995
  C  C649  1  0.502240  0.043500  0.070710  1.0  -0.0849
  C  C650  1  0.779470  0.850800  0.823480  1.0  0.1707
  C  C651  1  0.429950  0.207100  0.926970  1.0  -0.1361
  C  C652  1  0.775390  0.990780  0.821110  1.0  -0.2114
  C  C653  1  0.437560  0.000400  0.196570  1.0  -0.0518
  C  C654  1  0.431520  0.059000  0.006330  1.0  -0.1233
  C  C655  1  0.455950  0.911500  0.087680  1.0  -0.0909
  C  C656  1  0.590290  0.318700  0.162360  1.0  -0.0978
  C  C657  1  0.431270  0.970700  0.067020  1.0  0.047
  C  C658  1  0.453690  0.109200  0.986140  1.0  0.0401
  C  C659  1  0.776460  0.059300  0.998960  1.0  -0.2153
  C  C660  1  0.779190  0.952030  0.783440  1.0  0.1823
  C  C661  1  0.399140  0.393700  0.215340  1.0  -0.1194
  C  C662  1  0.455200  0.026100  0.048740  1.0  0.0362
  C  C663  1  0.397400  0.496400  0.150000  1.0  -0.0563
  C  C664  1  0.400660  0.093500  0.904230  1.0  -0.1236
  C  C665  1  0.422010  0.382940  0.181690  1.0  0.0332
  C  C666  1  0.376620  0.116600  0.859190  1.0  -0.088
  C  C667  1  0.784980  0.091900  0.041810  1.0  0.1783
  C  C668  1  0.375580  0.507370  0.185030  1.0  -0.1463
  C  C669  1  0.404840  0.231600  0.882080  1.0  -0.0409
  C  C670  1  0.382190  0.115700  0.168100  1.0  -0.1042
  C  C671  1  0.361650  0.052300  0.171130  1.0  -0.0169
  C  C672  1  0.376820  0.456200  0.217760  1.0  -0.0494
  C  C673  1  0.421600  0.435200  0.149500  1.0  -0.1411
  C  C674  1  0.775880  0.885900  0.863380  1.0  -0.2141
  C  C675  1  0.222110  0.787720  0.207770  1.0  0.6781
  C  C676  1  0.866920  0.426240  0.191090  1.0  0.6555
  C  C677  1  0.105360  0.723100  0.216960  1.0  -0.09
  C  C678  1  0.223860  0.649880  0.137070  1.0  0.6676
  C  C679  1  0.298150  0.694240  0.010200  1.0  0.1797
  C  C680  1  0.170230  0.782450  0.200580  1.0  -0.1366
  C  C681  1  0.884080  0.358640  0.091630  1.0  -0.1338
  C  C682  1  0.888800  0.494140  0.186250  1.0  -0.11
  C  C683  1  0.857960  0.298280  0.102520  1.0  0.637
  C  C684  1  0.025020  0.592900  0.051110  1.0  0.0097
  C  C685  1  0.859370  0.418600  0.072770  1.0  -0.0423
  C  C686  1  0.948450  0.817900  0.180300  1.0  0.0444
  C  C687  1  0.152190  0.641100  0.066040  1.0  -0.0418
  C  C688  1  0.145430  0.608810  0.142510  1.0  -0.0327
  C  C689  1  0.280450  0.595380  0.959610  1.0  0.1113
  C  C690  1  0.850290  0.074650  0.185110  1.0  0.7322
  C  C691  1  0.172790  0.632050  0.114830  1.0  -0.1439
  C  C692  1  0.153330  0.730970  0.224350  1.0  -0.0195
  C  C693  1  0.995720  0.821600  0.180830  1.0  -0.0869
  C  C694  1  0.852060  0.710000  0.798600  1.0  0.7042
  C  C695  1  0.932450  0.355900  0.099950  1.0  -0.0407
  C  C696  1  0.882690  0.473500  0.060620  1.0  -0.1304
  C  C697  1  0.076250  0.607000  0.073420  1.0  0.053
  C  C698  1  0.930890  0.623220  0.180090  1.0  0.035
  C  C699  1  0.274880  0.494400  0.906850  1.0  -0.0873
  C  C700  1  0.290060  0.664860  0.965610  1.0  -0.1689
  C  C701  1  0.097450  0.597530  0.122180  1.0  -0.1034
  C  C702  1  0.021850  0.762100  0.181440  1.0  -0.0166
  C  C703  1  0.073300  0.767620  0.186000  1.0  0.0319
  C  C704  1  0.000300  0.697920  0.180210  1.0  -0.1121
  C  C705  1  0.138050  0.825960  0.168910  1.0  -0.0536
  C  C706  1  0.275800  0.561600  0.913330  1.0  -0.1519
  C  C707  1  0.274930  0.458200  0.863200  1.0  0.1201
  C  C708  1  0.000090  0.626500  0.009490  1.0  -0.1223
  C  C709  1  0.928130  0.752990  0.180210  1.0  -0.1227
  C  C710  1  0.927510  0.637800  0.938690  1.0  0.0616
  C  C711  1  0.104670  0.627800  0.045760  1.0  -0.115
  C  C712  1  0.878390  0.686200  0.848040  1.0  -0.1409
  C  C713  1  0.952970  0.692420  0.179670  1.0  -0.0218
  C  C714  1  0.957880  0.563800  0.193600  1.0  -0.0995
  C  C715  1  0.002240  0.543500  0.070710  1.0  -0.0849
  C  C716  1  0.279470  0.350800  0.823480  1.0  0.1707
  C  C717  1  0.929950  0.707100  0.926970  1.0  -0.1361
  C  C718  1  0.275390  0.490780  0.821110  1.0  -0.2114
  C  C719  1  0.937560  0.500400  0.196570  1.0  -0.0518
  C  C720  1  0.931520  0.559000  0.006330  1.0  -0.1233
  C  C721  1  0.955950  0.411500  0.087680  1.0  -0.0909
  C  C722  1  0.090290  0.818700  0.162360  1.0  -0.0978
  C  C723  1  0.931270  0.470700  0.067020  1.0  0.047
  C  C724  1  0.953690  0.609200  0.986140  1.0  0.0401
  C  C725  1  0.276460  0.559300  0.998960  1.0  -0.2153
  C  C726  1  0.279190  0.452030  0.783440  1.0  0.1823
  C  C727  1  0.899140  0.893700  0.215340  1.0  -0.1194
  C  C728  1  0.955200  0.526100  0.048740  1.0  0.0362
  C  C729  1  0.897400  0.996400  0.150000  1.0  -0.0563
  C  C730  1  0.900660  0.593500  0.904230  1.0  -0.1236
  C  C731  1  0.922010  0.882940  0.181690  1.0  0.0332
  C  C732  1  0.876620  0.616600  0.859190  1.0  -0.088
  C  C733  1  0.284980  0.591900  0.041810  1.0  0.1783
  C  C734  1  0.875580  0.007370  0.185030  1.0  -0.1463
  C  C735  1  0.904840  0.731600  0.882080  1.0  -0.0409
  C  C736  1  0.882190  0.615700  0.168100  1.0  -0.1042
  C  C737  1  0.861650  0.552300  0.171130  1.0  -0.0169
  C  C738  1  0.876820  0.956200  0.217760  1.0  -0.0494
  C  C739  1  0.921600  0.935200  0.149500  1.0  -0.1411
  C  C740  1  0.275880  0.385900  0.863380  1.0  -0.2141
  C  C741  1  0.722110  0.712280  0.707770  1.0  0.6775
  C  C742  1  0.366920  0.073760  0.691090  1.0  0.6549
  C  C743  1  0.605360  0.776900  0.716960  1.0  -0.0898
  C  C744  1  0.723860  0.850120  0.637070  1.0  0.667
  C  C745  1  0.798150  0.805760  0.510200  1.0  0.1803
  C  C746  1  0.670230  0.717550  0.700580  1.0  -0.136
  C  C747  1  0.384080  0.141360  0.591630  1.0  -0.1331
  C  C748  1  0.388800  0.005860  0.686250  1.0  -0.1095
  C  C749  1  0.357960  0.201720  0.602520  1.0  0.6361
  C  C750  1  0.525020  0.907100  0.551110  1.0  0.0105
  C  C751  1  0.359370  0.081400  0.572770  1.0  -0.0426
  C  C752  1  0.448450  0.682100  0.680300  1.0  0.044
  C  C753  1  0.652190  0.858900  0.566040  1.0  -0.042
  C  C754  1  0.645430  0.891190  0.642510  1.0  -0.0328
  C  C755  1  0.780450  0.904620  0.459610  1.0  0.1118
  C  C756  1  0.350290  0.425350  0.685110  1.0  0.7333
  C  C757  1  0.672790  0.867950  0.614830  1.0  -0.1438
  C  C758  1  0.653330  0.769030  0.724350  1.0  -0.0195
  C  C759  1  0.495720  0.678400  0.680830  1.0  -0.0886
  C  C760  1  0.352060  0.790000  0.298600  1.0  0.7041
  C  C761  1  0.432450  0.144100  0.599950  1.0  -0.0391
  C  C762  1  0.382690  0.026500  0.560620  1.0  -0.1291
  C  C763  1  0.576250  0.893000  0.573420  1.0  0.0537
  C  C764  1  0.430890  0.876780  0.680090  1.0  0.0346
  C  C765  1  0.774880  0.005600  0.406850  1.0  -0.0867
  C  C766  1  0.790060  0.835140  0.465610  1.0  -0.169
  C  C767  1  0.597450  0.902470  0.622180  1.0  -0.1036
  C  C768  1  0.521850  0.737900  0.681440  1.0  -0.0166
  C  C769  1  0.573300  0.732380  0.686000  1.0  0.0321
  C  C770  1  0.500300  0.802080  0.680210  1.0  -0.1122
  C  C771  1  0.638050  0.674040  0.668910  1.0  -0.0538
  C  C772  1  0.775800  0.938400  0.413330  1.0  -0.1523
  C  C773  1  0.774930  0.041800  0.363200  1.0  0.1206
  C  C774  1  0.500090  0.873500  0.509490  1.0  -0.1232
  C  C775  1  0.428130  0.747010  0.680210  1.0  -0.1223
  C  C776  1  0.427510  0.862200  0.438690  1.0  0.0613
  C  C777  1  0.604670  0.872200  0.545760  1.0  -0.115
  C  C778  1  0.378390  0.813800  0.348040  1.0  -0.1413
  C  C779  1  0.452970  0.807580  0.679670  1.0  -0.021
  C  C780  1  0.457880  0.936200  0.693600  1.0  -0.0993
  C  C781  1  0.502240  0.956500  0.570710  1.0  -0.0846
  C  C782  1  0.779470  0.149200  0.323480  1.0  0.1698
  C  C783  1  0.429950  0.792900  0.426970  1.0  -0.1369
  C  C784  1  0.775390  0.009220  0.321110  1.0  -0.2109
  C  C785  1  0.437560  0.999600  0.696570  1.0  -0.0505
  C  C786  1  0.431520  0.941000  0.506330  1.0  -0.1237
  C  C787  1  0.455950  0.088500  0.587680  1.0  -0.0905
  C  C788  1  0.590290  0.681300  0.662360  1.0  -0.096
  C  C789  1  0.431270  0.029300  0.567020  1.0  0.0468
  C  C790  1  0.453690  0.890800  0.486140  1.0  0.0401
  C  C791  1  0.776460  0.940700  0.498960  1.0  -0.2162
  C  C792  1  0.779190  0.047970  0.283440  1.0  0.1821
  C  C793  1  0.399140  0.606300  0.715340  1.0  -0.1198
  C  C794  1  0.455200  0.973900  0.548740  1.0  0.036
  C  C795  1  0.397400  0.503600  0.650000  1.0  -0.0569
  C  C796  1  0.400660  0.906500  0.404230  1.0  -0.123
  C  C797  1  0.422010  0.617060  0.681690  1.0  0.0331
  C  C798  1  0.376620  0.883400  0.359190  1.0  -0.0879
  C  C799  1  0.784980  0.908100  0.541810  1.0  0.1767
  C  C800  1  0.375580  0.492630  0.685030  1.0  -0.1463
  C  C801  1  0.404840  0.768400  0.382080  1.0  -0.0422
  C  C802  1  0.382190  0.884300  0.668100  1.0  -0.1041
  C  C803  1  0.361650  0.947700  0.671130  1.0  -0.0164
  C  C804  1  0.376820  0.543800  0.717760  1.0  -0.0494
  C  C805  1  0.421600  0.564800  0.649500  1.0  -0.1409
  C  C806  1  0.775880  0.114100  0.363380  1.0  -0.2127
  C  C807  1  0.222110  0.212280  0.707770  1.0  0.6775
  C  C808  1  0.866920  0.573760  0.691090  1.0  0.6549
  C  C809  1  0.105360  0.276900  0.716960  1.0  -0.0898
  C  C810  1  0.223860  0.350120  0.637070  1.0  0.667
  C  C811  1  0.298150  0.305760  0.510200  1.0  0.1803
  C  C812  1  0.170230  0.217550  0.700580  1.0  -0.136
  C  C813  1  0.884080  0.641360  0.591630  1.0  -0.1331
  C  C814  1  0.888800  0.505860  0.686250  1.0  -0.1095
  C  C815  1  0.857960  0.701720  0.602520  1.0  0.6361
  C  C816  1  0.025020  0.407100  0.551110  1.0  0.0105
  C  C817  1  0.859370  0.581400  0.572770  1.0  -0.0426
  C  C818  1  0.948450  0.182100  0.680300  1.0  0.044
  C  C819  1  0.152190  0.358900  0.566040  1.0  -0.042
  C  C820  1  0.145430  0.391190  0.642510  1.0  -0.0328
  C  C821  1  0.280450  0.404620  0.459610  1.0  0.1118
  C  C822  1  0.850290  0.925350  0.685110  1.0  0.7333
  C  C823  1  0.172790  0.367950  0.614830  1.0  -0.1438
  C  C824  1  0.153330  0.269030  0.724350  1.0  -0.0195
  C  C825  1  0.995720  0.178400  0.680830  1.0  -0.0886
  C  C826  1  0.852060  0.290000  0.298600  1.0  0.7041
  C  C827  1  0.932450  0.644100  0.599950  1.0  -0.0391
  C  C828  1  0.882690  0.526500  0.560620  1.0  -0.1291
  C  C829  1  0.076250  0.393000  0.573420  1.0  0.0537
  C  C830  1  0.930890  0.376780  0.680090  1.0  0.0346
  C  C831  1  0.274880  0.505600  0.406850  1.0  -0.0867
  C  C832  1  0.290060  0.335140  0.465610  1.0  -0.169
  C  C833  1  0.097450  0.402470  0.622180  1.0  -0.1036
  C  C834  1  0.021850  0.237900  0.681440  1.0  -0.0166
  C  C835  1  0.073300  0.232380  0.686000  1.0  0.0321
  C  C836  1  0.000300  0.302080  0.680210  1.0  -0.1122
  C  C837  1  0.138050  0.174040  0.668910  1.0  -0.0538
  C  C838  1  0.275800  0.438400  0.413330  1.0  -0.1523
  C  C839  1  0.274930  0.541800  0.363200  1.0  0.1206
  C  C840  1  0.000090  0.373500  0.509490  1.0  -0.1232
  C  C841  1  0.928130  0.247010  0.680210  1.0  -0.1223
  C  C842  1  0.927510  0.362200  0.438690  1.0  0.0613
  C  C843  1  0.104670  0.372200  0.545760  1.0  -0.115
  C  C844  1  0.878390  0.313800  0.348040  1.0  -0.1413
  C  C845  1  0.952970  0.307580  0.679670  1.0  -0.021
  C  C846  1  0.957880  0.436200  0.693600  1.0  -0.0993
  C  C847  1  0.002240  0.456500  0.570710  1.0  -0.0846
  C  C848  1  0.279470  0.649200  0.323480  1.0  0.1698
  C  C849  1  0.929950  0.292900  0.426970  1.0  -0.1369
  C  C850  1  0.275390  0.509220  0.321110  1.0  -0.2109
  C  C851  1  0.937560  0.499600  0.696570  1.0  -0.0505
  C  C852  1  0.931520  0.441000  0.506330  1.0  -0.1237
  C  C853  1  0.955950  0.588500  0.587680  1.0  -0.0905
  C  C854  1  0.090290  0.181300  0.662360  1.0  -0.096
  C  C855  1  0.931270  0.529300  0.567020  1.0  0.0468
  C  C856  1  0.953690  0.390800  0.486140  1.0  0.0401
  C  C857  1  0.276460  0.440700  0.498960  1.0  -0.2162
  C  C858  1  0.279190  0.547970  0.283440  1.0  0.1821
  C  C859  1  0.899140  0.106300  0.715340  1.0  -0.1198
  C  C860  1  0.955200  0.473900  0.548740  1.0  0.036
  C  C861  1  0.897400  0.003600  0.650000  1.0  -0.0569
  C  C862  1  0.900660  0.406500  0.404230  1.0  -0.123
  C  C863  1  0.922010  0.117060  0.681690  1.0  0.0331
  C  C864  1  0.876620  0.383400  0.359190  1.0  -0.0879
  C  C865  1  0.284980  0.408100  0.541810  1.0  0.1767
  C  C866  1  0.875580  0.992630  0.685030  1.0  -0.1463
  C  C867  1  0.904840  0.268400  0.382080  1.0  -0.0422
  C  C868  1  0.882190  0.384300  0.668100  1.0  -0.1041
  C  C869  1  0.861650  0.447700  0.671130  1.0  -0.0164
  C  C870  1  0.876820  0.043800  0.717760  1.0  -0.0494
  C  C871  1  0.921600  0.064800  0.649500  1.0  -0.1409
  C  C872  1  0.275880  0.614100  0.363380  1.0  -0.2127
  N  N873  1  0.203010  0.158480  0.451300  1.0  -0.3187
  N  N874  1  0.217560  0.882530  0.715750  1.0  -0.3232
  N  N875  1  0.703010  0.658480  0.451300  1.0  -0.3187
  N  N876  1  0.717560  0.382530  0.715750  1.0  -0.3232
  N  N877  1  0.203010  0.841520  0.951300  1.0  -0.3191
  N  N878  1  0.217560  0.117470  0.215750  1.0  -0.3239
  N  N879  1  0.703010  0.341520  0.951300  1.0  -0.3191
  N  N880  1  0.717560  0.617470  0.215750  1.0  -0.3239
  N  N881  1  0.796990  0.158480  0.048700  1.0  -0.3183
  N  N882  1  0.782440  0.882530  0.784250  1.0  -0.3234
  N  N883  1  0.296990  0.658480  0.048700  1.0  -0.3183
  N  N884  1  0.282440  0.382530  0.784250  1.0  -0.3234
  N  N885  1  0.796990  0.841520  0.548700  1.0  -0.3182
  N  N886  1  0.782440  0.117470  0.284250  1.0  -0.3232
  N  N887  1  0.296990  0.341520  0.548700  1.0  -0.3182
  N  N888  1  0.282440  0.617470  0.284250  1.0  -0.3232
  O  O889  1  0.647720  0.273090  0.711600  1.0  -0.5946
  O  O890  1  0.668390  0.162460  0.729220  1.0  -0.5983
  O  O891  1  0.251450  0.247030  0.263090  1.0  -0.6185
  O  O892  1  0.263240  0.332720  0.316010  1.0  -0.5761
  O  O893  1  0.655640  0.594390  0.276260  1.0  -0.5881
  O  O894  1  0.662840  0.605470  0.354160  1.0  -0.6254
  O  O895  1  0.256190  0.128760  0.321740  1.0  -0.5978
  O  O896  1  0.258010  0.187370  0.388070  1.0  -0.5874
  O  O897  1  0.174840  0.238180  0.312600  1.0  -0.8086
  O  O898  1  0.685930  0.802100  0.404850  1.0  -0.5516
  O  O899  1  0.620670  0.742190  0.382410  1.0  -0.5432
  O  O900  1  0.677630  0.923290  0.321590  1.0  -0.5904
  O  O901  1  0.608450  0.875190  0.291860  1.0  -0.6214
  O  O902  1  0.147720  0.773090  0.711600  1.0  -0.5946
  O  O903  1  0.168390  0.662460  0.729220  1.0  -0.5983
  O  O904  1  0.751450  0.747030  0.263090  1.0  -0.6185
  O  O905  1  0.763240  0.832720  0.316010  1.0  -0.5761
  O  O906  1  0.155640  0.094390  0.276260  1.0  -0.5881
  O  O907  1  0.162840  0.105470  0.354160  1.0  -0.6254
  O  O908  1  0.756190  0.628760  0.321740  1.0  -0.5978
  O  O909  1  0.758010  0.687370  0.388070  1.0  -0.5874
  O  O910  1  0.674840  0.738180  0.312600  1.0  -0.8086
  O  O911  1  0.185930  0.302100  0.404850  1.0  -0.5519
  O  O912  1  0.120670  0.242190  0.382410  1.0  -0.5432
  O  O913  1  0.177630  0.423290  0.321590  1.0  -0.5904
  O  O914  1  0.108450  0.375190  0.291860  1.0  -0.6214
  O  O915  1  0.647720  0.726910  0.211600  1.0  -0.5917
  O  O916  1  0.668390  0.837540  0.229220  1.0  -0.599
  O  O917  1  0.251450  0.752970  0.763090  1.0  -0.6185
  O  O918  1  0.263240  0.667280  0.816010  1.0  -0.5767
  O  O919  1  0.655640  0.405610  0.776260  1.0  -0.5882
  O  O920  1  0.662840  0.394530  0.854160  1.0  -0.6257
  O  O921  1  0.256190  0.871240  0.821740  1.0  -0.5964
  O  O922  1  0.258010  0.812630  0.888070  1.0  -0.5874
  O  O923  1  0.174840  0.761820  0.812600  1.0  -0.8083
  O  O924  1  0.685930  0.197900  0.904850  1.0  -0.5522
  O  O925  1  0.620670  0.257810  0.882410  1.0  -0.5441
  O  O926  1  0.677630  0.076710  0.821590  1.0  -0.5906
  O  O927  1  0.608450  0.124810  0.791860  1.0  -0.6225
  O  O928  1  0.147720  0.226910  0.211600  1.0  -0.5917
  O  O929  1  0.168390  0.337540  0.229220  1.0  -0.599
  O  O930  1  0.751450  0.252970  0.763090  1.0  -0.6185
  O  O931  1  0.763240  0.167280  0.816010  1.0  -0.5767
  O  O932  1  0.155640  0.905610  0.776260  1.0  -0.5882
  O  O933  1  0.162840  0.894530  0.854160  1.0  -0.6257
  O  O934  1  0.756190  0.371240  0.821740  1.0  -0.5964
  O  O935  1  0.758010  0.312630  0.888070  1.0  -0.5874
  O  O936  1  0.674840  0.261820  0.812600  1.0  -0.8083
  O  O937  1  0.185930  0.697900  0.904850  1.0  -0.5524
  O  O938  1  0.120670  0.757810  0.882410  1.0  -0.5441
  O  O939  1  0.177630  0.576710  0.821590  1.0  -0.5906
  O  O940  1  0.108450  0.624810  0.791860  1.0  -0.6225
  O  O941  1  0.352280  0.273090  0.788400  1.0  -0.5918
  O  O942  1  0.331610  0.162460  0.770780  1.0  -0.5981
  O  O943  1  0.748550  0.247030  0.236910  1.0  -0.6189
  O  O944  1  0.736760  0.332720  0.183990  1.0  -0.5781
  O  O945  1  0.344360  0.594390  0.223740  1.0  -0.5879
  O  O946  1  0.337160  0.605470  0.145840  1.0  -0.6251
  O  O947  1  0.743810  0.128760  0.178260  1.0  -0.5974
  O  O948  1  0.741990  0.187370  0.111930  1.0  -0.5874
  O  O949  1  0.825160  0.238180  0.187400  1.0  -0.809
  O  O950  1  0.314070  0.802100  0.095150  1.0  -0.5527
  O  O951  1  0.379330  0.742190  0.117590  1.0  -0.5413
  O  O952  1  0.322370  0.923290  0.178410  1.0  -0.591
  O  O953  1  0.391550  0.875190  0.208140  1.0  -0.6216
  O  O954  1  0.852280  0.773090  0.788400  1.0  -0.5918
  O  O955  1  0.831610  0.662460  0.770780  1.0  -0.5981
  O  O956  1  0.248550  0.747030  0.236910  1.0  -0.6189
  O  O957  1  0.236760  0.832720  0.183990  1.0  -0.5781
  O  O958  1  0.844360  0.094390  0.223740  1.0  -0.5879
  O  O959  1  0.837160  0.105470  0.145840  1.0  -0.6251
  O  O960  1  0.243810  0.628760  0.178260  1.0  -0.5974
  O  O961  1  0.241990  0.687370  0.111930  1.0  -0.5874
  O  O962  1  0.325160  0.738180  0.187400  1.0  -0.809
  O  O963  1  0.814070  0.302100  0.095150  1.0  -0.5532
  O  O964  1  0.879330  0.242190  0.117590  1.0  -0.5413
  O  O965  1  0.822370  0.423290  0.178410  1.0  -0.591
  O  O966  1  0.891550  0.375190  0.208140  1.0  -0.6216
  O  O967  1  0.352280  0.726910  0.288400  1.0  -0.5927
  O  O968  1  0.331610  0.837540  0.270780  1.0  -0.5986
  O  O969  1  0.748550  0.752970  0.736910  1.0  -0.6185
  O  O970  1  0.736760  0.667280  0.683990  1.0  -0.5781
  O  O971  1  0.344360  0.405610  0.723740  1.0  -0.5878
  O  O972  1  0.337160  0.394530  0.645840  1.0  -0.6252
  O  O973  1  0.743810  0.871240  0.678260  1.0  -0.5963
  O  O974  1  0.741990  0.812630  0.611930  1.0  -0.5871
  O  O975  1  0.825160  0.761820  0.687400  1.0  -0.809
  O  O976  1  0.314070  0.197900  0.595150  1.0  -0.5532
  O  O977  1  0.379330  0.257810  0.617590  1.0  -0.5406
  O  O978  1  0.322370  0.076710  0.678410  1.0  -0.591
  O  O979  1  0.391550  0.124810  0.708140  1.0  -0.6225
  O  O980  1  0.852280  0.226910  0.288400  1.0  -0.5927
  O  O981  1  0.831610  0.337540  0.270780  1.0  -0.5986
  O  O982  1  0.248550  0.252970  0.736910  1.0  -0.6185
  O  O983  1  0.236760  0.167280  0.683990  1.0  -0.5781
  O  O984  1  0.844360  0.905610  0.723740  1.0  -0.5878
  O  O985  1  0.837160  0.894530  0.645840  1.0  -0.6252
  O  O986  1  0.243810  0.371240  0.678260  1.0  -0.5963
  O  O987  1  0.241990  0.312630  0.611930  1.0  -0.5871
  O  O988  1  0.325160  0.261820  0.687400  1.0  -0.809
  O  O989  1  0.814070  0.697900  0.595150  1.0  -0.5536
  O  O990  1  0.879330  0.757810  0.617590  1.0  -0.5406
  O  O991  1  0.822370  0.576710  0.678410  1.0  -0.591
  O  O992  1  0.891550  0.624810  0.708140  1.0  -0.6225
