# generated using pymatgen
data_Co7H28C54(N3O14)2
_symmetry_space_group_name_H-M   'P 1'
_cell_length_a   24.61650000
_cell_length_b   35.85690000
_cell_length_c   30.27830000
_cell_angle_alpha   90.00000000
_cell_angle_beta   90.00000000
_cell_angle_gamma   90.00000000
_symmetry_Int_Tables_number   1
_chemical_formula_structural   Co7H28C54(N3O14)2
_chemical_formula_sum   'Co56 H224 C432 N48 O224'
_cell_volume   26725.78881023
_cell_formula_units_Z   8
loop_
 _symmetry_equiv_pos_site_id
 _symmetry_equiv_pos_as_xyz
  1  'x, y, z'
loop_
 _atom_site_type_symbol
 _atom_site_label
 _atom_site_symmetry_multiplicity
 _atom_site_fract_x
 _atom_site_fract_y
 _atom_site_fract_z
 _atom_site_occupancy
 _atom_site_charge
  Co  Co1  1  0.380010  0.106340  0.779350  1.0  1.0836
  Co  Co2  1  0.122320  0.880420  0.923830  1.0  1.1066
  Co  Co3  1  0.263590  0.859730  0.946960  1.0  0.8522
  Co  Co4  1  0.880010  0.606340  0.779350  1.0  1.0836
  Co  Co5  1  0.622320  0.380420  0.923830  1.0  1.1066
  Co  Co6  1  0.763590  0.359730  0.946960  1.0  0.8593
  Co  Co7  1  0.619990  0.393660  0.279350  1.0  1.0825
  Co  Co8  1  0.877680  0.619580  0.423830  1.0  1.1044
  Co  Co9  1  0.736410  0.640270  0.446960  1.0  0.8516
  Co  Co10  1  0.119990  0.893660  0.279350  1.0  1.0825
  Co  Co11  1  0.377680  0.119580  0.423830  1.0  1.1044
  Co  Co12  1  0.236410  0.140270  0.446960  1.0  0.8516
  Co  Co13  1  0.619990  0.606340  0.720650  1.0  1.0842
  Co  Co14  1  0.877680  0.380420  0.576170  1.0  1.1043
  Co  Co15  1  0.736410  0.359730  0.553040  1.0  0.8504
  Co  Co16  1  0.119990  0.106340  0.720650  1.0  1.0842
  Co  Co17  1  0.377680  0.880420  0.576170  1.0  1.1043
  Co  Co18  1  0.236410  0.859730  0.553040  1.0  0.8504
  Co  Co19  1  0.380010  0.893660  0.220650  1.0  1.0809
  Co  Co20  1  0.122320  0.119580  0.076170  1.0  1.1062
  Co  Co21  1  0.263590  0.140270  0.053040  1.0  0.8526
  Co  Co22  1  0.880010  0.393660  0.220650  1.0  1.0809
  Co  Co23  1  0.622320  0.619580  0.076170  1.0  1.1062
  Co  Co24  1  0.763590  0.640270  0.053040  1.0  0.86
  Co  Co25  1  0.619990  0.893660  0.220650  1.0  1.0871
  Co  Co26  1  0.877680  0.119580  0.076170  1.0  1.1042
  Co  Co27  1  0.736410  0.140270  0.053040  1.0  0.8517
  Co  Co28  1  0.119990  0.393660  0.220650  1.0  1.0871
  Co  Co29  1  0.377680  0.619580  0.076170  1.0  1.1042
  Co  Co30  1  0.236410  0.640270  0.053040  1.0  0.8613
  Co  Co31  1  0.380010  0.606340  0.720650  1.0  1.0833
  Co  Co32  1  0.122320  0.380420  0.576170  1.0  1.1063
  Co  Co33  1  0.263590  0.359730  0.553040  1.0  0.8519
  Co  Co34  1  0.880010  0.106340  0.720650  1.0  1.0833
  Co  Co35  1  0.622320  0.880420  0.576170  1.0  1.1063
  Co  Co36  1  0.763590  0.859730  0.553040  1.0  0.8519
  Co  Co37  1  0.380010  0.393660  0.279350  1.0  1.0864
  Co  Co38  1  0.122320  0.619580  0.423830  1.0  1.1064
  Co  Co39  1  0.263590  0.640270  0.446960  1.0  0.8527
  Co  Co40  1  0.880010  0.893660  0.279350  1.0  1.0864
  Co  Co41  1  0.622320  0.119580  0.423830  1.0  1.1064
  Co  Co42  1  0.763590  0.140270  0.446960  1.0  0.8527
  Co  Co43  1  0.619990  0.106340  0.779350  1.0  1.0847
  Co  Co44  1  0.877680  0.880420  0.923830  1.0  1.1046
  Co  Co45  1  0.736410  0.859730  0.946960  1.0  0.8507
  Co  Co46  1  0.119990  0.606340  0.779350  1.0  1.0847
  Co  Co47  1  0.377680  0.380420  0.923830  1.0  1.1046
  Co  Co48  1  0.236410  0.359730  0.946960  1.0  0.8605
  Co  Co49  1  0.250000  0.122500  0.750000  1.0  1.0646
  Co  Co50  1  0.750000  0.377500  0.250000  1.0  1.0664
  Co  Co51  1  0.750000  0.622500  0.750000  1.0  1.0646
  Co  Co52  1  0.250000  0.877500  0.250000  1.0  1.0664
  Co  Co53  1  0.750000  0.877500  0.250000  1.0  1.0664
  Co  Co54  1  0.250000  0.622500  0.750000  1.0  1.0646
  Co  Co55  1  0.250000  0.377500  0.250000  1.0  1.0664
  Co  Co56  1  0.750000  0.122500  0.750000  1.0  1.0646
  H  H57  1  0.160200  0.980800  0.853600  1.0  0.1187
  H  H58  1  0.194400  0.031200  0.815000  1.0  0.1022
  H  H59  1  0.344700  0.005000  0.852600  1.0  0.1214
  H  H60  1  0.310100  0.953500  0.891600  1.0  0.1191
  H  H61  1  0.403100  0.269700  0.873800  1.0  0.1206
  H  H62  1  0.222000  0.848900  0.076400  1.0  0.121
  H  H63  1  0.210800  0.855400  0.152100  1.0  0.1049
  H  H64  1  0.092400  0.929500  0.131700  1.0  0.1198
  H  H65  1  0.101500  0.920100  0.055800  1.0  0.1124
  H  H66  1  0.401900  0.211000  0.840100  1.0  0.1255
  H  H67  1  0.240500  0.217200  0.833900  1.0  0.1168
  H  H68  1  0.242400  0.277100  0.861700  1.0  0.1245
  H  H69  1  0.450200  0.045700  0.841700  1.0  0.1145
  H  H70  1  0.050000  0.942300  0.868100  1.0  0.1176
  H  H71  1  0.660200  0.480800  0.853600  1.0  0.1187
  H  H72  1  0.694400  0.531200  0.815000  1.0  0.1022
  H  H73  1  0.844700  0.505000  0.852600  1.0  0.1214
  H  H74  1  0.810100  0.453500  0.891600  1.0  0.1191
  H  H75  1  0.903100  0.769700  0.873800  1.0  0.1206
  H  H76  1  0.722000  0.348900  0.076400  1.0  0.121
  H  H77  1  0.710800  0.355400  0.152100  1.0  0.1049
  H  H78  1  0.592400  0.429500  0.131700  1.0  0.1198
  H  H79  1  0.601500  0.420100  0.055800  1.0  0.1124
  H  H80  1  0.901900  0.711000  0.840100  1.0  0.1255
  H  H81  1  0.740500  0.717200  0.833900  1.0  0.1168
  H  H82  1  0.742400  0.777100  0.861700  1.0  0.1245
  H  H83  1  0.950200  0.545700  0.841700  1.0  0.1145
  H  H84  1  0.550000  0.442300  0.868100  1.0  0.1176
  H  H85  1  0.839800  0.519200  0.353600  1.0  0.1183
  H  H86  1  0.805600  0.468800  0.315000  1.0  0.1025
  H  H87  1  0.655300  0.495000  0.352600  1.0  0.1226
  H  H88  1  0.689900  0.546500  0.391600  1.0  0.1183
  H  H89  1  0.596900  0.230300  0.373800  1.0  0.1203
  H  H90  1  0.778000  0.651100  0.576400  1.0  0.1214
  H  H91  1  0.789200  0.644600  0.652100  1.0  0.1049
  H  H92  1  0.907600  0.570500  0.631700  1.0  0.1204
  H  H93  1  0.898500  0.579900  0.555800  1.0  0.1122
  H  H94  1  0.598100  0.289000  0.340100  1.0  0.1247
  H  H95  1  0.759500  0.282800  0.333900  1.0  0.1168
  H  H96  1  0.757600  0.222900  0.361700  1.0  0.1246
  H  H97  1  0.549800  0.454300  0.341700  1.0  0.1144
  H  H98  1  0.950000  0.557700  0.368100  1.0  0.1177
  H  H99  1  0.339800  0.019200  0.353600  1.0  0.1183
  H  H100  1  0.305600  0.968800  0.315000  1.0  0.1025
  H  H101  1  0.155300  0.995000  0.352600  1.0  0.1226
  H  H102  1  0.189900  0.046500  0.391600  1.0  0.1183
  H  H103  1  0.096900  0.730300  0.373800  1.0  0.1203
  H  H104  1  0.278000  0.151100  0.576400  1.0  0.1214
  H  H105  1  0.289200  0.144600  0.652100  1.0  0.1049
  H  H106  1  0.407600  0.070500  0.631700  1.0  0.1204
  H  H107  1  0.398500  0.079900  0.555800  1.0  0.1122
  H  H108  1  0.098100  0.789000  0.340100  1.0  0.1247
  H  H109  1  0.259500  0.782800  0.333900  1.0  0.1168
  H  H110  1  0.257600  0.722900  0.361700  1.0  0.1246
  H  H111  1  0.049800  0.954300  0.341700  1.0  0.1144
  H  H112  1  0.450000  0.057700  0.368100  1.0  0.1177
  H  H113  1  0.839800  0.480800  0.646400  1.0  0.1183
  H  H114  1  0.805600  0.531200  0.685000  1.0  0.1029
  H  H115  1  0.655300  0.505000  0.647400  1.0  0.1228
  H  H116  1  0.689900  0.453500  0.608400  1.0  0.1184
  H  H117  1  0.596900  0.769700  0.626200  1.0  0.1206
  H  H118  1  0.778000  0.348900  0.423600  1.0  0.1213
  H  H119  1  0.789200  0.355400  0.347900  1.0  0.1049
  H  H120  1  0.907600  0.429500  0.368300  1.0  0.1202
  H  H121  1  0.898500  0.420100  0.444200  1.0  0.1121
  H  H122  1  0.598100  0.711000  0.659900  1.0  0.1248
  H  H123  1  0.759500  0.717200  0.666100  1.0  0.1168
  H  H124  1  0.757600  0.777100  0.638300  1.0  0.1252
  H  H125  1  0.549800  0.545700  0.658300  1.0  0.1136
  H  H126  1  0.950000  0.442300  0.631900  1.0  0.1183
  H  H127  1  0.339800  0.980800  0.646400  1.0  0.1183
  H  H128  1  0.305600  0.031200  0.685000  1.0  0.1029
  H  H129  1  0.155300  0.005000  0.647400  1.0  0.1228
  H  H130  1  0.189900  0.953500  0.608400  1.0  0.1184
  H  H131  1  0.096900  0.269700  0.626200  1.0  0.1206
  H  H132  1  0.278000  0.848900  0.423600  1.0  0.1213
  H  H133  1  0.289200  0.855400  0.347900  1.0  0.1049
  H  H134  1  0.407600  0.929500  0.368300  1.0  0.1202
  H  H135  1  0.398500  0.920100  0.444200  1.0  0.1121
  H  H136  1  0.098100  0.211000  0.659900  1.0  0.1248
  H  H137  1  0.259500  0.217200  0.666100  1.0  0.1168
  H  H138  1  0.257600  0.277100  0.638300  1.0  0.1252
  H  H139  1  0.049800  0.045700  0.658300  1.0  0.1136
  H  H140  1  0.450000  0.942300  0.631900  1.0  0.1183
  H  H141  1  0.160200  0.019200  0.146400  1.0  0.1188
  H  H142  1  0.194400  0.968800  0.185000  1.0  0.1028
  H  H143  1  0.344700  0.995000  0.147400  1.0  0.1215
  H  H144  1  0.310100  0.046500  0.108400  1.0  0.1191
  H  H145  1  0.403100  0.730300  0.126200  1.0  0.1206
  H  H146  1  0.222000  0.151100  0.923600  1.0  0.1213
  H  H147  1  0.210800  0.144600  0.847900  1.0  0.1054
  H  H148  1  0.092400  0.070500  0.868300  1.0  0.1197
  H  H149  1  0.101500  0.079900  0.944200  1.0  0.1126
  H  H150  1  0.401900  0.789000  0.159900  1.0  0.1253
  H  H151  1  0.240500  0.782800  0.166100  1.0  0.1165
  H  H152  1  0.242400  0.722900  0.138300  1.0  0.1248
  H  H153  1  0.450200  0.954300  0.158300  1.0  0.1142
  H  H154  1  0.050000  0.057700  0.131900  1.0  0.1183
  H  H155  1  0.660200  0.519200  0.146400  1.0  0.1188
  H  H156  1  0.694400  0.468800  0.185000  1.0  0.1028
  H  H157  1  0.844700  0.495000  0.147400  1.0  0.1215
  H  H158  1  0.810100  0.546500  0.108400  1.0  0.1191
  H  H159  1  0.903100  0.230300  0.126200  1.0  0.1206
  H  H160  1  0.722000  0.651100  0.923600  1.0  0.1213
  H  H161  1  0.710800  0.644600  0.847900  1.0  0.1054
  H  H162  1  0.592400  0.570500  0.868300  1.0  0.1197
  H  H163  1  0.601500  0.579900  0.944200  1.0  0.1126
  H  H164  1  0.901900  0.289000  0.159900  1.0  0.1253
  H  H165  1  0.740500  0.282800  0.166100  1.0  0.1165
  H  H166  1  0.742400  0.222900  0.138300  1.0  0.1248
  H  H167  1  0.950200  0.454300  0.158300  1.0  0.1142
  H  H168  1  0.550000  0.557700  0.131900  1.0  0.1183
  H  H169  1  0.839800  0.019200  0.146400  1.0  0.1182
  H  H170  1  0.805600  0.968800  0.185000  1.0  0.1025
  H  H171  1  0.655300  0.995000  0.147400  1.0  0.1226
  H  H172  1  0.689900  0.046500  0.108400  1.0  0.1183
  H  H173  1  0.596900  0.730300  0.126200  1.0  0.1206
  H  H174  1  0.778000  0.151100  0.923600  1.0  0.1215
  H  H175  1  0.789200  0.144600  0.847900  1.0  0.1052
  H  H176  1  0.907600  0.070500  0.868300  1.0  0.1204
  H  H177  1  0.898500  0.079900  0.944200  1.0  0.1121
  H  H178  1  0.598100  0.789000  0.159900  1.0  0.1244
  H  H179  1  0.759500  0.782800  0.166100  1.0  0.1169
  H  H180  1  0.757600  0.722900  0.138300  1.0  0.1249
  H  H181  1  0.549800  0.954300  0.158300  1.0  0.114
  H  H182  1  0.950000  0.057700  0.131900  1.0  0.1179
  H  H183  1  0.339800  0.519200  0.146400  1.0  0.1182
  H  H184  1  0.305600  0.468800  0.185000  1.0  0.1025
  H  H185  1  0.155300  0.495000  0.147400  1.0  0.1226
  H  H186  1  0.189900  0.546500  0.108400  1.0  0.1183
  H  H187  1  0.096900  0.230300  0.126200  1.0  0.1206
  H  H188  1  0.278000  0.651100  0.923600  1.0  0.1215
  H  H189  1  0.289200  0.644600  0.847900  1.0  0.1052
  H  H190  1  0.407600  0.570500  0.868300  1.0  0.1204
  H  H191  1  0.398500  0.579900  0.944200  1.0  0.1121
  H  H192  1  0.098100  0.289000  0.159900  1.0  0.1244
  H  H193  1  0.259500  0.282800  0.166100  1.0  0.1169
  H  H194  1  0.257600  0.222900  0.138300  1.0  0.1249
  H  H195  1  0.049800  0.454300  0.158300  1.0  0.114
  H  H196  1  0.450000  0.557700  0.131900  1.0  0.1179
  H  H197  1  0.160200  0.480800  0.646400  1.0  0.1188
  H  H198  1  0.194400  0.531200  0.685000  1.0  0.1023
  H  H199  1  0.344700  0.505000  0.647400  1.0  0.1216
  H  H200  1  0.310100  0.453500  0.608400  1.0  0.119
  H  H201  1  0.403100  0.769700  0.626200  1.0  0.121
  H  H202  1  0.222000  0.348900  0.423600  1.0  0.1212
  H  H203  1  0.210800  0.355400  0.347900  1.0  0.1051
  H  H204  1  0.092400  0.429500  0.368300  1.0  0.1198
  H  H205  1  0.101500  0.420100  0.444200  1.0  0.1123
  H  H206  1  0.401900  0.711000  0.659900  1.0  0.1253
  H  H207  1  0.240500  0.717200  0.666100  1.0  0.1165
  H  H208  1  0.242400  0.777100  0.638300  1.0  0.1245
  H  H209  1  0.450200  0.545700  0.658300  1.0  0.114
  H  H210  1  0.050000  0.442300  0.631900  1.0  0.1175
  H  H211  1  0.660200  0.980800  0.646400  1.0  0.1188
  H  H212  1  0.694400  0.031200  0.685000  1.0  0.1023
  H  H213  1  0.844700  0.005000  0.647400  1.0  0.1216
  H  H214  1  0.810100  0.953500  0.608400  1.0  0.119
  H  H215  1  0.903100  0.269700  0.626200  1.0  0.121
  H  H216  1  0.722000  0.848900  0.423600  1.0  0.1212
  H  H217  1  0.710800  0.855400  0.347900  1.0  0.1051
  H  H218  1  0.592400  0.929500  0.368300  1.0  0.1198
  H  H219  1  0.601500  0.920100  0.444200  1.0  0.1123
  H  H220  1  0.901900  0.211000  0.659900  1.0  0.1253
  H  H221  1  0.740500  0.217200  0.666100  1.0  0.1165
  H  H222  1  0.742400  0.277100  0.638300  1.0  0.1245
  H  H223  1  0.950200  0.045700  0.658300  1.0  0.114
  H  H224  1  0.550000  0.942300  0.631900  1.0  0.1175
  H  H225  1  0.160200  0.519200  0.353600  1.0  0.1188
  H  H226  1  0.194400  0.468800  0.315000  1.0  0.1029
  H  H227  1  0.344700  0.495000  0.352600  1.0  0.1215
  H  H228  1  0.310100  0.546500  0.391600  1.0  0.1189
  H  H229  1  0.403100  0.230300  0.373800  1.0  0.1204
  H  H230  1  0.222000  0.651100  0.576400  1.0  0.1213
  H  H231  1  0.210800  0.644600  0.652100  1.0  0.1052
  H  H232  1  0.092400  0.570500  0.631700  1.0  0.1197
  H  H233  1  0.101500  0.579900  0.555800  1.0  0.1121
  H  H234  1  0.401900  0.289000  0.340100  1.0  0.1254
  H  H235  1  0.240500  0.282800  0.333900  1.0  0.1167
  H  H236  1  0.242400  0.222900  0.361700  1.0  0.1248
  H  H237  1  0.450200  0.454300  0.341700  1.0  0.1144
  H  H238  1  0.050000  0.557700  0.368100  1.0  0.1168
  H  H239  1  0.660200  0.019200  0.353600  1.0  0.1188
  H  H240  1  0.694400  0.968800  0.315000  1.0  0.1029
  H  H241  1  0.844700  0.995000  0.352600  1.0  0.1215
  H  H242  1  0.810100  0.046500  0.391600  1.0  0.1189
  H  H243  1  0.903100  0.730300  0.373800  1.0  0.1204
  H  H244  1  0.722000  0.151100  0.576400  1.0  0.1213
  H  H245  1  0.710800  0.144600  0.652100  1.0  0.1052
  H  H246  1  0.592400  0.070500  0.631700  1.0  0.1197
  H  H247  1  0.601500  0.079900  0.555800  1.0  0.1121
  H  H248  1  0.901900  0.789000  0.340100  1.0  0.1254
  H  H249  1  0.740500  0.782800  0.333900  1.0  0.1167
  H  H250  1  0.742400  0.722900  0.361700  1.0  0.1248
  H  H251  1  0.950200  0.954300  0.341700  1.0  0.1144
  H  H252  1  0.550000  0.057700  0.368100  1.0  0.1168
  H  H253  1  0.839800  0.980800  0.853600  1.0  0.1181
  H  H254  1  0.805600  0.031200  0.815000  1.0  0.1027
  H  H255  1  0.655300  0.005000  0.852600  1.0  0.1225
  H  H256  1  0.689900  0.953500  0.891600  1.0  0.1188
  H  H257  1  0.596900  0.269700  0.873800  1.0  0.1202
  H  H258  1  0.778000  0.848900  0.076400  1.0  0.1209
  H  H259  1  0.789200  0.855400  0.152100  1.0  0.1045
  H  H260  1  0.907600  0.929500  0.131700  1.0  0.1202
  H  H261  1  0.898500  0.920100  0.055800  1.0  0.1124
  H  H262  1  0.598100  0.211000  0.840100  1.0  0.1252
  H  H263  1  0.759500  0.217200  0.833900  1.0  0.1169
  H  H264  1  0.757600  0.277100  0.861700  1.0  0.1251
  H  H265  1  0.549800  0.045700  0.841700  1.0  0.1149
  H  H266  1  0.950000  0.942300  0.868100  1.0  0.1176
  H  H267  1  0.339800  0.480800  0.853600  1.0  0.1181
  H  H268  1  0.305600  0.531200  0.815000  1.0  0.1027
  H  H269  1  0.155300  0.505000  0.852600  1.0  0.1225
  H  H270  1  0.189900  0.453500  0.891600  1.0  0.1188
  H  H271  1  0.096900  0.769700  0.873800  1.0  0.1202
  H  H272  1  0.278000  0.348900  0.076400  1.0  0.1209
  H  H273  1  0.289200  0.355400  0.152100  1.0  0.1045
  H  H274  1  0.407600  0.429500  0.131700  1.0  0.1202
  H  H275  1  0.398500  0.420100  0.055800  1.0  0.1124
  H  H276  1  0.098100  0.711000  0.840100  1.0  0.1252
  H  H277  1  0.259500  0.717200  0.833900  1.0  0.1169
  H  H278  1  0.257600  0.777100  0.861700  1.0  0.1251
  H  H279  1  0.049800  0.545700  0.841700  1.0  0.1149
  H  H280  1  0.450000  0.442300  0.868100  1.0  0.1176
  C  C281  1  0.210830  0.927920  0.899100  1.0  0.7522
  C  C282  1  0.232530  0.961920  0.875700  1.0  -0.1155
  C  C283  1  0.197410  0.985450  0.853390  1.0  -0.0559
  C  C284  1  0.217850  0.015850  0.830820  1.0  -0.0294
  C  C285  1  0.272340  0.023590  0.831500  1.0  -0.1207
  C  C286  1  0.307540  0.000340  0.853090  1.0  -0.0359
  C  C287  1  0.286710  0.969130  0.876150  1.0  -0.0424
  C  C288  1  0.293290  0.057730  0.808270  1.0  0.7338
  C  C289  1  0.322500  0.316770  0.892350  1.0  0.7236
  C  C290  1  0.322730  0.278900  0.870270  1.0  -0.0928
  C  C291  1  0.370350  0.259390  0.864620  1.0  -0.0431
  C  C292  1  0.161590  0.883790  0.059030  1.0  -0.1226
  C  C293  1  0.195140  0.864540  0.087500  1.0  -0.0457
  C  C294  1  0.188630  0.868650  0.132820  1.0  -0.0196
  C  C295  1  0.149270  0.892420  0.149360  1.0  -0.0969
  C  C296  1  0.117660  0.912510  0.120940  1.0  -0.0766
  C  C297  1  0.123880  0.907200  0.075240  1.0  -0.0136
  C  C298  1  0.167170  0.877390  0.009730  1.0  0.7301
  C  C299  1  0.318470  0.170930  0.811720  1.0  0.7024
  C  C300  1  0.321070  0.208790  0.833480  1.0  -0.125
  C  C301  1  0.369700  0.223900  0.845040  1.0  -0.019
  C  C302  1  0.273600  0.228210  0.840790  1.0  -0.0345
  C  C303  1  0.274520  0.263740  0.858240  1.0  -0.0588
  C  C304  1  0.140830  0.895390  0.197390  1.0  0.6477
  C  C305  1  0.472230  0.062830  0.827210  1.0  -0.0136
  C  C306  1  0.028050  0.925390  0.883120  1.0  -0.0116
  C  C307  1  0.710830  0.427920  0.899100  1.0  0.7522
  C  C308  1  0.732530  0.461920  0.875700  1.0  -0.1155
  C  C309  1  0.697410  0.485450  0.853390  1.0  -0.0559
  C  C310  1  0.717850  0.515850  0.830820  1.0  -0.0294
  C  C311  1  0.772340  0.523590  0.831500  1.0  -0.1207
  C  C312  1  0.807540  0.500340  0.853090  1.0  -0.0359
  C  C313  1  0.786710  0.469130  0.876150  1.0  -0.0424
  C  C314  1  0.793290  0.557730  0.808270  1.0  0.7338
  C  C315  1  0.822500  0.816770  0.892350  1.0  0.7236
  C  C316  1  0.822730  0.778900  0.870270  1.0  -0.0928
  C  C317  1  0.870350  0.759390  0.864620  1.0  -0.0431
  C  C318  1  0.661590  0.383790  0.059030  1.0  -0.1226
  C  C319  1  0.695140  0.364540  0.087500  1.0  -0.0457
  C  C320  1  0.688630  0.368650  0.132820  1.0  -0.0196
  C  C321  1  0.649270  0.392420  0.149360  1.0  -0.0969
  C  C322  1  0.617660  0.412510  0.120940  1.0  -0.0766
  C  C323  1  0.623880  0.407200  0.075240  1.0  -0.0136
  C  C324  1  0.667170  0.377390  0.009730  1.0  0.7301
  C  C325  1  0.818470  0.670930  0.811720  1.0  0.7024
  C  C326  1  0.821070  0.708790  0.833480  1.0  -0.125
  C  C327  1  0.869700  0.723900  0.845040  1.0  -0.019
  C  C328  1  0.773600  0.728210  0.840790  1.0  -0.0345
  C  C329  1  0.774520  0.763740  0.858240  1.0  -0.0588
  C  C330  1  0.640830  0.395390  0.197390  1.0  0.6477
  C  C331  1  0.972230  0.562830  0.827210  1.0  -0.0136
  C  C332  1  0.528050  0.425390  0.883120  1.0  -0.0116
  C  C333  1  0.789170  0.572080  0.399100  1.0  0.7514
  C  C334  1  0.767470  0.538080  0.375700  1.0  -0.1142
  C  C335  1  0.802590  0.514550  0.353390  1.0  -0.0553
  C  C336  1  0.782150  0.484150  0.330820  1.0  -0.0295
  C  C337  1  0.727660  0.476410  0.331500  1.0  -0.12
  C  C338  1  0.692460  0.499660  0.353090  1.0  -0.0369
  C  C339  1  0.713290  0.530870  0.376150  1.0  -0.0428
  C  C340  1  0.706710  0.442270  0.308270  1.0  0.7332
  C  C341  1  0.677500  0.183230  0.392350  1.0  0.7248
  C  C342  1  0.677270  0.221100  0.370270  1.0  -0.0937
  C  C343  1  0.629650  0.240610  0.364620  1.0  -0.0428
  C  C344  1  0.838410  0.616210  0.559030  1.0  -0.1227
  C  C345  1  0.804860  0.635460  0.587500  1.0  -0.0456
  C  C346  1  0.811370  0.631350  0.632820  1.0  -0.0201
  C  C347  1  0.850730  0.607580  0.649360  1.0  -0.0979
  C  C348  1  0.882340  0.587490  0.620940  1.0  -0.0758
  C  C349  1  0.876120  0.592800  0.575240  1.0  -0.0139
  C  C350  1  0.832830  0.622610  0.509730  1.0  0.7293
  C  C351  1  0.681530  0.329070  0.311720  1.0  0.7032
  C  C352  1  0.678930  0.291210  0.333480  1.0  -0.1244
  C  C353  1  0.630300  0.276100  0.345040  1.0  -0.0197
  C  C354  1  0.726400  0.271790  0.340790  1.0  -0.0337
  C  C355  1  0.725480  0.236260  0.358240  1.0  -0.0561
  C  C356  1  0.859170  0.604610  0.697390  1.0  0.6474
  C  C357  1  0.527770  0.437170  0.327210  1.0  -0.0136
  C  C358  1  0.971950  0.574610  0.383120  1.0  -0.0124
  C  C359  1  0.289170  0.072080  0.399100  1.0  0.7514
  C  C360  1  0.267470  0.038080  0.375700  1.0  -0.1142
  C  C361  1  0.302590  0.014550  0.353390  1.0  -0.0553
  C  C362  1  0.282150  0.984150  0.330820  1.0  -0.0295
  C  C363  1  0.227660  0.976410  0.331500  1.0  -0.12
  C  C364  1  0.192460  0.999660  0.353090  1.0  -0.0369
  C  C365  1  0.213290  0.030870  0.376150  1.0  -0.0428
  C  C366  1  0.206710  0.942270  0.308270  1.0  0.7332
  C  C367  1  0.177500  0.683230  0.392350  1.0  0.7248
  C  C368  1  0.177270  0.721100  0.370270  1.0  -0.0937
  C  C369  1  0.129650  0.740610  0.364620  1.0  -0.0428
  C  C370  1  0.338410  0.116210  0.559030  1.0  -0.1227
  C  C371  1  0.304860  0.135460  0.587500  1.0  -0.0456
  C  C372  1  0.311370  0.131350  0.632820  1.0  -0.0201
  C  C373  1  0.350730  0.107580  0.649360  1.0  -0.0979
  C  C374  1  0.382340  0.087490  0.620940  1.0  -0.0758
  C  C375  1  0.376120  0.092800  0.575240  1.0  -0.0139
  C  C376  1  0.332830  0.122610  0.509730  1.0  0.7293
  C  C377  1  0.181530  0.829070  0.311720  1.0  0.7032
  C  C378  1  0.178930  0.791210  0.333480  1.0  -0.1244
  C  C379  1  0.130300  0.776100  0.345040  1.0  -0.0197
  C  C380  1  0.226400  0.771790  0.340790  1.0  -0.0337
  C  C381  1  0.225480  0.736260  0.358240  1.0  -0.0561
  C  C382  1  0.359170  0.104610  0.697390  1.0  0.6474
  C  C383  1  0.027770  0.937170  0.327210  1.0  -0.0136
  C  C384  1  0.471950  0.074610  0.383120  1.0  -0.0124
  C  C385  1  0.789170  0.427920  0.600900  1.0  0.7514
  C  C386  1  0.767470  0.461920  0.624300  1.0  -0.1154
  C  C387  1  0.802590  0.485450  0.646610  1.0  -0.0555
  C  C388  1  0.782150  0.515850  0.669180  1.0  -0.0292
  C  C389  1  0.727660  0.523590  0.668500  1.0  -0.1206
  C  C390  1  0.692460  0.500340  0.646910  1.0  -0.037
  C  C391  1  0.713290  0.469130  0.623850  1.0  -0.0433
  C  C392  1  0.706710  0.557730  0.691730  1.0  0.7347
  C  C393  1  0.677500  0.816770  0.607650  1.0  0.7237
  C  C394  1  0.677270  0.778900  0.629730  1.0  -0.0928
  C  C395  1  0.629650  0.759390  0.635380  1.0  -0.0432
  C  C396  1  0.838410  0.383790  0.440970  1.0  -0.1244
  C  C397  1  0.804860  0.364540  0.412500  1.0  -0.044
  C  C398  1  0.811370  0.368650  0.367180  1.0  -0.0206
  C  C399  1  0.850730  0.392420  0.350640  1.0  -0.0962
  C  C400  1  0.882340  0.412510  0.379060  1.0  -0.076
  C  C401  1  0.876120  0.407200  0.424760  1.0  -0.0141
  C  C402  1  0.832830  0.377390  0.490270  1.0  0.7284
  C  C403  1  0.681530  0.670930  0.688280  1.0  0.7024
  C  C404  1  0.678930  0.708790  0.666520  1.0  -0.124
  C  C405  1  0.630300  0.723900  0.654960  1.0  -0.0188
  C  C406  1  0.726400  0.728210  0.659210  1.0  -0.0329
  C  C407  1  0.725480  0.763740  0.641760  1.0  -0.056
  C  C408  1  0.859170  0.395390  0.302610  1.0  0.6468
  C  C409  1  0.527770  0.562830  0.672790  1.0  -0.0123
  C  C410  1  0.971950  0.425390  0.616880  1.0  -0.0131
  C  C411  1  0.289170  0.927920  0.600900  1.0  0.7514
  C  C412  1  0.267470  0.961920  0.624300  1.0  -0.1154
  C  C413  1  0.302590  0.985450  0.646610  1.0  -0.0555
  C  C414  1  0.282150  0.015850  0.669180  1.0  -0.0292
  C  C415  1  0.227660  0.023590  0.668500  1.0  -0.1206
  C  C416  1  0.192460  0.000340  0.646910  1.0  -0.037
  C  C417  1  0.213290  0.969130  0.623850  1.0  -0.0433
  C  C418  1  0.206710  0.057730  0.691730  1.0  0.7347
  C  C419  1  0.177500  0.316770  0.607650  1.0  0.7237
  C  C420  1  0.177270  0.278900  0.629730  1.0  -0.0928
  C  C421  1  0.129650  0.259390  0.635380  1.0  -0.0432
  C  C422  1  0.338410  0.883790  0.440970  1.0  -0.1244
  C  C423  1  0.304860  0.864540  0.412500  1.0  -0.044
  C  C424  1  0.311370  0.868650  0.367180  1.0  -0.0206
  C  C425  1  0.350730  0.892420  0.350640  1.0  -0.0962
  C  C426  1  0.382340  0.912510  0.379060  1.0  -0.076
  C  C427  1  0.376120  0.907200  0.424760  1.0  -0.0141
  C  C428  1  0.332830  0.877390  0.490270  1.0  0.7284
  C  C429  1  0.181530  0.170930  0.688280  1.0  0.7024
  C  C430  1  0.178930  0.208790  0.666520  1.0  -0.124
  C  C431  1  0.130300  0.223900  0.654960  1.0  -0.0188
  C  C432  1  0.226400  0.228210  0.659210  1.0  -0.0329
  C  C433  1  0.225480  0.263740  0.641760  1.0  -0.056
  C  C434  1  0.359170  0.895390  0.302610  1.0  0.6468
  C  C435  1  0.027770  0.062830  0.672790  1.0  -0.0123
  C  C436  1  0.471950  0.925390  0.616880  1.0  -0.0131
  C  C437  1  0.210830  0.072080  0.100900  1.0  0.7518
  C  C438  1  0.232530  0.038080  0.124300  1.0  -0.1154
  C  C439  1  0.197410  0.014550  0.146610  1.0  -0.0568
  C  C440  1  0.217850  0.984150  0.169180  1.0  -0.0304
  C  C441  1  0.272340  0.976410  0.168500  1.0  -0.1212
  C  C442  1  0.307540  0.999660  0.146910  1.0  -0.0352
  C  C443  1  0.286710  0.030870  0.123850  1.0  -0.0416
  C  C444  1  0.293290  0.942270  0.191730  1.0  0.7347
  C  C445  1  0.322500  0.683230  0.107650  1.0  0.7234
  C  C446  1  0.322730  0.721100  0.129730  1.0  -0.0931
  C  C447  1  0.370350  0.740610  0.135380  1.0  -0.0437
  C  C448  1  0.161590  0.116210  0.940970  1.0  -0.124
  C  C449  1  0.195140  0.135460  0.912500  1.0  -0.0453
  C  C450  1  0.188630  0.131350  0.867180  1.0  -0.0198
  C  C451  1  0.149270  0.107580  0.850640  1.0  -0.0978
  C  C452  1  0.117660  0.087490  0.879060  1.0  -0.076
  C  C453  1  0.123880  0.092800  0.924760  1.0  -0.0147
  C  C454  1  0.167170  0.122610  0.990270  1.0  0.7291
  C  C455  1  0.318470  0.829070  0.188280  1.0  0.7029
  C  C456  1  0.321070  0.791210  0.166520  1.0  -0.1252
  C  C457  1  0.369700  0.776100  0.154960  1.0  -0.0189
  C  C458  1  0.273600  0.771790  0.159210  1.0  -0.0335
  C  C459  1  0.274520  0.736260  0.141760  1.0  -0.0584
  C  C460  1  0.140830  0.104610  0.802610  1.0  0.6478
  C  C461  1  0.472230  0.937170  0.172790  1.0  -0.0148
  C  C462  1  0.028050  0.074610  0.116880  1.0  -0.0098
  C  C463  1  0.710830  0.572080  0.100900  1.0  0.7518
  C  C464  1  0.732530  0.538080  0.124300  1.0  -0.1154
  C  C465  1  0.697410  0.514550  0.146610  1.0  -0.0568
  C  C466  1  0.717850  0.484150  0.169180  1.0  -0.0304
  C  C467  1  0.772340  0.476410  0.168500  1.0  -0.1212
  C  C468  1  0.807540  0.499660  0.146910  1.0  -0.0352
  C  C469  1  0.786710  0.530870  0.123850  1.0  -0.0416
  C  C470  1  0.793290  0.442270  0.191730  1.0  0.7347
  C  C471  1  0.822500  0.183230  0.107650  1.0  0.7234
  C  C472  1  0.822730  0.221100  0.129730  1.0  -0.0931
  C  C473  1  0.870350  0.240610  0.135380  1.0  -0.0437
  C  C474  1  0.661590  0.616210  0.940970  1.0  -0.124
  C  C475  1  0.695140  0.635460  0.912500  1.0  -0.0453
  C  C476  1  0.688630  0.631350  0.867180  1.0  -0.0198
  C  C477  1  0.649270  0.607580  0.850640  1.0  -0.0978
  C  C478  1  0.617660  0.587490  0.879060  1.0  -0.076
  C  C479  1  0.623880  0.592800  0.924760  1.0  -0.0147
  C  C480  1  0.667170  0.622610  0.990270  1.0  0.7291
  C  C481  1  0.818470  0.329070  0.188280  1.0  0.7029
  C  C482  1  0.821070  0.291210  0.166520  1.0  -0.1252
  C  C483  1  0.869700  0.276100  0.154960  1.0  -0.0189
  C  C484  1  0.773600  0.271790  0.159210  1.0  -0.0335
  C  C485  1  0.774520  0.236260  0.141760  1.0  -0.0584
  C  C486  1  0.640830  0.604610  0.802610  1.0  0.6478
  C  C487  1  0.972230  0.437170  0.172790  1.0  -0.0148
  C  C488  1  0.528050  0.574610  0.116880  1.0  -0.0098
  C  C489  1  0.789170  0.072080  0.100900  1.0  0.7514
  C  C490  1  0.767470  0.038080  0.124300  1.0  -0.115
  C  C491  1  0.802590  0.014550  0.146610  1.0  -0.0557
  C  C492  1  0.782150  0.984150  0.169180  1.0  -0.0295
  C  C493  1  0.727660  0.976410  0.168500  1.0  -0.1201
  C  C494  1  0.692460  0.999660  0.146910  1.0  -0.0372
  C  C495  1  0.713290  0.030870  0.123850  1.0  -0.0431
  C  C496  1  0.706710  0.942270  0.191730  1.0  0.7343
  C  C497  1  0.677500  0.683230  0.107650  1.0  0.7242
  C  C498  1  0.677270  0.721100  0.129730  1.0  -0.0934
  C  C499  1  0.629650  0.740610  0.135380  1.0  -0.043
  C  C500  1  0.838410  0.116210  0.940970  1.0  -0.1242
  C  C501  1  0.804860  0.135460  0.912500  1.0  -0.0457
  C  C502  1  0.811370  0.131350  0.867180  1.0  -0.0202
  C  C503  1  0.850730  0.107580  0.850640  1.0  -0.0964
  C  C504  1  0.882340  0.087490  0.879060  1.0  -0.0764
  C  C505  1  0.876120  0.092800  0.924760  1.0  -0.0141
  C  C506  1  0.832830  0.122610  0.990270  1.0  0.7281
  C  C507  1  0.681530  0.829070  0.188280  1.0  0.703
  C  C508  1  0.678930  0.791210  0.166520  1.0  -0.1239
  C  C509  1  0.630300  0.776100  0.154960  1.0  -0.0197
  C  C510  1  0.726400  0.771790  0.159210  1.0  -0.0331
  C  C511  1  0.725480  0.736260  0.141760  1.0  -0.0562
  C  C512  1  0.859170  0.104610  0.802610  1.0  0.6465
  C  C513  1  0.527770  0.937170  0.172790  1.0  -0.0138
  C  C514  1  0.971950  0.074610  0.116880  1.0  -0.0118
  C  C515  1  0.289170  0.572080  0.100900  1.0  0.7514
  C  C516  1  0.267470  0.538080  0.124300  1.0  -0.115
  C  C517  1  0.302590  0.514550  0.146610  1.0  -0.0557
  C  C518  1  0.282150  0.484150  0.169180  1.0  -0.0295
  C  C519  1  0.227660  0.476410  0.168500  1.0  -0.1201
  C  C520  1  0.192460  0.499660  0.146910  1.0  -0.0372
  C  C521  1  0.213290  0.530870  0.123850  1.0  -0.0431
  C  C522  1  0.206710  0.442270  0.191730  1.0  0.7343
  C  C523  1  0.177500  0.183230  0.107650  1.0  0.7242
  C  C524  1  0.177270  0.221100  0.129730  1.0  -0.0934
  C  C525  1  0.129650  0.240610  0.135380  1.0  -0.043
  C  C526  1  0.338410  0.616210  0.940970  1.0  -0.1242
  C  C527  1  0.304860  0.635460  0.912500  1.0  -0.0457
  C  C528  1  0.311370  0.631350  0.867180  1.0  -0.0202
  C  C529  1  0.350730  0.607580  0.850640  1.0  -0.0964
  C  C530  1  0.382340  0.587490  0.879060  1.0  -0.0764
  C  C531  1  0.376120  0.592800  0.924760  1.0  -0.0141
  C  C532  1  0.332830  0.622610  0.990270  1.0  0.7281
  C  C533  1  0.181530  0.329070  0.188280  1.0  0.703
  C  C534  1  0.178930  0.291210  0.166520  1.0  -0.1239
  C  C535  1  0.130300  0.276100  0.154960  1.0  -0.0197
  C  C536  1  0.226400  0.271790  0.159210  1.0  -0.0331
  C  C537  1  0.225480  0.236260  0.141760  1.0  -0.0562
  C  C538  1  0.359170  0.604610  0.802610  1.0  0.6465
  C  C539  1  0.027770  0.437170  0.172790  1.0  -0.0138
  C  C540  1  0.471950  0.574610  0.116880  1.0  -0.0118
  C  C541  1  0.210830  0.427920  0.600900  1.0  0.7521
  C  C542  1  0.232530  0.461920  0.624300  1.0  -0.1163
  C  C543  1  0.197410  0.485450  0.646610  1.0  -0.056
  C  C544  1  0.217850  0.515850  0.669180  1.0  -0.0297
  C  C545  1  0.272340  0.523590  0.668500  1.0  -0.1216
  C  C546  1  0.307540  0.500340  0.646910  1.0  -0.0361
  C  C547  1  0.286710  0.469130  0.623850  1.0  -0.0435
  C  C548  1  0.293290  0.557730  0.691730  1.0  0.7346
  C  C549  1  0.322500  0.816770  0.607650  1.0  0.723
  C  C550  1  0.322730  0.778900  0.629730  1.0  -0.0924
  C  C551  1  0.370350  0.759390  0.635380  1.0  -0.0441
  C  C552  1  0.161590  0.383790  0.440970  1.0  -0.1242
  C  C553  1  0.195140  0.364540  0.412500  1.0  -0.0449
  C  C554  1  0.188630  0.368650  0.367180  1.0  -0.0201
  C  C555  1  0.149270  0.392420  0.350640  1.0  -0.0976
  C  C556  1  0.117660  0.412510  0.379060  1.0  -0.0765
  C  C557  1  0.123880  0.407200  0.424760  1.0  -0.0146
  C  C558  1  0.167170  0.377390  0.490270  1.0  0.7293
  C  C559  1  0.318470  0.670930  0.688280  1.0  0.7025
  C  C560  1  0.321070  0.708790  0.666520  1.0  -0.1251
  C  C561  1  0.369700  0.723900  0.654960  1.0  -0.0183
  C  C562  1  0.273600  0.728210  0.659210  1.0  -0.0337
  C  C563  1  0.274520  0.763740  0.641760  1.0  -0.0587
  C  C564  1  0.140830  0.395390  0.302610  1.0  0.6477
  C  C565  1  0.472230  0.562830  0.672790  1.0  -0.0128
  C  C566  1  0.028050  0.425390  0.616880  1.0  -0.0111
  C  C567  1  0.710830  0.927920  0.600900  1.0  0.7521
  C  C568  1  0.732530  0.961920  0.624300  1.0  -0.1163
  C  C569  1  0.697410  0.985450  0.646610  1.0  -0.056
  C  C570  1  0.717850  0.015850  0.669180  1.0  -0.0297
  C  C571  1  0.772340  0.023590  0.668500  1.0  -0.1216
  C  C572  1  0.807540  0.000340  0.646910  1.0  -0.0361
  C  C573  1  0.786710  0.969130  0.623850  1.0  -0.0435
  C  C574  1  0.793290  0.057730  0.691730  1.0  0.7346
  C  C575  1  0.822500  0.316770  0.607650  1.0  0.723
  C  C576  1  0.822730  0.278900  0.629730  1.0  -0.0924
  C  C577  1  0.870350  0.259390  0.635380  1.0  -0.0441
  C  C578  1  0.661590  0.883790  0.440970  1.0  -0.1242
  C  C579  1  0.695140  0.864540  0.412500  1.0  -0.0449
  C  C580  1  0.688630  0.868650  0.367180  1.0  -0.0201
  C  C581  1  0.649270  0.892420  0.350640  1.0  -0.0976
  C  C582  1  0.617660  0.912510  0.379060  1.0  -0.0765
  C  C583  1  0.623880  0.907200  0.424760  1.0  -0.0146
  C  C584  1  0.667170  0.877390  0.490270  1.0  0.7293
  C  C585  1  0.818470  0.170930  0.688280  1.0  0.7025
  C  C586  1  0.821070  0.208790  0.666520  1.0  -0.1251
  C  C587  1  0.869700  0.223900  0.654960  1.0  -0.0183
  C  C588  1  0.773600  0.228210  0.659210  1.0  -0.0337
  C  C589  1  0.774520  0.263740  0.641760  1.0  -0.0587
  C  C590  1  0.640830  0.895390  0.302610  1.0  0.6477
  C  C591  1  0.972230  0.062830  0.672790  1.0  -0.0128
  C  C592  1  0.528050  0.925390  0.616880  1.0  -0.0111
  C  C593  1  0.210830  0.572080  0.399100  1.0  0.7518
  C  C594  1  0.232530  0.538080  0.375700  1.0  -0.1144
  C  C595  1  0.197410  0.514550  0.353390  1.0  -0.0565
  C  C596  1  0.217850  0.484150  0.330820  1.0  -0.0303
  C  C597  1  0.272340  0.476410  0.331500  1.0  -0.1205
  C  C598  1  0.307540  0.499660  0.353090  1.0  -0.0354
  C  C599  1  0.286710  0.530870  0.376150  1.0  -0.0406
  C  C600  1  0.293290  0.442270  0.308270  1.0  0.7334
  C  C601  1  0.322500  0.183230  0.392350  1.0  0.724
  C  C602  1  0.322730  0.221100  0.370270  1.0  -0.0934
  C  C603  1  0.370350  0.240610  0.364620  1.0  -0.0427
  C  C604  1  0.161590  0.616210  0.559030  1.0  -0.1223
  C  C605  1  0.195140  0.635460  0.587500  1.0  -0.0455
  C  C606  1  0.188630  0.631350  0.632820  1.0  -0.0196
  C  C607  1  0.149270  0.607580  0.649360  1.0  -0.0974
  C  C608  1  0.117660  0.587490  0.620940  1.0  -0.076
  C  C609  1  0.123880  0.592800  0.575240  1.0  -0.0146
  C  C610  1  0.167170  0.622610  0.509730  1.0  0.7299
  C  C611  1  0.318470  0.329070  0.311720  1.0  0.7031
  C  C612  1  0.321070  0.291210  0.333480  1.0  -0.1253
  C  C613  1  0.369700  0.276100  0.345040  1.0  -0.0194
  C  C614  1  0.273600  0.271790  0.340790  1.0  -0.034
  C  C615  1  0.274520  0.236260  0.358240  1.0  -0.0584
  C  C616  1  0.140830  0.604610  0.697390  1.0  0.6479
  C  C617  1  0.472230  0.437170  0.327210  1.0  -0.0157
  C  C618  1  0.028050  0.574610  0.383120  1.0  -0.0109
  C  C619  1  0.710830  0.072080  0.399100  1.0  0.7518
  C  C620  1  0.732530  0.038080  0.375700  1.0  -0.1144
  C  C621  1  0.697410  0.014550  0.353390  1.0  -0.0565
  C  C622  1  0.717850  0.984150  0.330820  1.0  -0.0303
  C  C623  1  0.772340  0.976410  0.331500  1.0  -0.1205
  C  C624  1  0.807540  0.999660  0.353090  1.0  -0.0354
  C  C625  1  0.786710  0.030870  0.376150  1.0  -0.0406
  C  C626  1  0.793290  0.942270  0.308270  1.0  0.7334
  C  C627  1  0.822500  0.683230  0.392350  1.0  0.724
  C  C628  1  0.822730  0.721100  0.370270  1.0  -0.0934
  C  C629  1  0.870350  0.740610  0.364620  1.0  -0.0427
  C  C630  1  0.661590  0.116210  0.559030  1.0  -0.1223
  C  C631  1  0.695140  0.135460  0.587500  1.0  -0.0455
  C  C632  1  0.688630  0.131350  0.632820  1.0  -0.0196
  C  C633  1  0.649270  0.107580  0.649360  1.0  -0.0974
  C  C634  1  0.617660  0.087490  0.620940  1.0  -0.076
  C  C635  1  0.623880  0.092800  0.575240  1.0  -0.0146
  C  C636  1  0.667170  0.122610  0.509730  1.0  0.7299
  C  C637  1  0.818470  0.829070  0.311720  1.0  0.7031
  C  C638  1  0.821070  0.791210  0.333480  1.0  -0.1253
  C  C639  1  0.869700  0.776100  0.345040  1.0  -0.0194
  C  C640  1  0.773600  0.771790  0.340790  1.0  -0.034
  C  C641  1  0.774520  0.736260  0.358240  1.0  -0.0584
  C  C642  1  0.640830  0.104610  0.697390  1.0  0.6479
  C  C643  1  0.972230  0.937170  0.327210  1.0  -0.0157
  C  C644  1  0.528050  0.074610  0.383120  1.0  -0.0109
  C  C645  1  0.789170  0.927920  0.899100  1.0  0.7515
  C  C646  1  0.767470  0.961920  0.875700  1.0  -0.1149
  C  C647  1  0.802590  0.985450  0.853390  1.0  -0.0552
  C  C648  1  0.782150  0.015850  0.830820  1.0  -0.0292
  C  C649  1  0.727660  0.023590  0.831500  1.0  -0.1206
  C  C650  1  0.692460  0.000340  0.853090  1.0  -0.0363
  C  C651  1  0.713290  0.969130  0.876150  1.0  -0.0429
  C  C652  1  0.706710  0.057730  0.808270  1.0  0.734
  C  C653  1  0.677500  0.316770  0.892350  1.0  0.7243
  C  C654  1  0.677270  0.278900  0.870270  1.0  -0.0933
  C  C655  1  0.629650  0.259390  0.864620  1.0  -0.0432
  C  C656  1  0.838410  0.883790  0.059030  1.0  -0.123
  C  C657  1  0.804860  0.864540  0.087500  1.0  -0.0446
  C  C658  1  0.811370  0.868650  0.132820  1.0  -0.0203
  C  C659  1  0.850730  0.892420  0.149360  1.0  -0.0973
  C  C660  1  0.882340  0.912510  0.120940  1.0  -0.0754
  C  C661  1  0.876120  0.907200  0.075240  1.0  -0.0132
  C  C662  1  0.832830  0.877390  0.009730  1.0  0.7294
  C  C663  1  0.681530  0.170930  0.811720  1.0  0.7024
  C  C664  1  0.678930  0.208790  0.833480  1.0  -0.1244
  C  C665  1  0.630300  0.223900  0.845040  1.0  -0.0189
  C  C666  1  0.726400  0.228210  0.840790  1.0  -0.0339
  C  C667  1  0.725480  0.263740  0.858240  1.0  -0.0557
  C  C668  1  0.859170  0.895390  0.197390  1.0  0.6477
  C  C669  1  0.527770  0.062830  0.827210  1.0  -0.0122
  C  C670  1  0.971950  0.925390  0.883120  1.0  -0.013
  C  C671  1  0.289170  0.427920  0.899100  1.0  0.7515
  C  C672  1  0.267470  0.461920  0.875700  1.0  -0.1149
  C  C673  1  0.302590  0.485450  0.853390  1.0  -0.0552
  C  C674  1  0.282150  0.515850  0.830820  1.0  -0.0292
  C  C675  1  0.227660  0.523590  0.831500  1.0  -0.1206
  C  C676  1  0.192460  0.500340  0.853090  1.0  -0.0363
  C  C677  1  0.213290  0.469130  0.876150  1.0  -0.0429
  C  C678  1  0.206710  0.557730  0.808270  1.0  0.734
  C  C679  1  0.177500  0.816770  0.892350  1.0  0.7243
  C  C680  1  0.177270  0.778900  0.870270  1.0  -0.0933
  C  C681  1  0.129650  0.759390  0.864620  1.0  -0.0432
  C  C682  1  0.338410  0.383790  0.059030  1.0  -0.123
  C  C683  1  0.304860  0.364540  0.087500  1.0  -0.0446
  C  C684  1  0.311370  0.368650  0.132820  1.0  -0.0203
  C  C685  1  0.350730  0.392420  0.149360  1.0  -0.0973
  C  C686  1  0.382340  0.412510  0.120940  1.0  -0.0754
  C  C687  1  0.376120  0.407200  0.075240  1.0  -0.0132
  C  C688  1  0.332830  0.377390  0.009730  1.0  0.7294
  C  C689  1  0.181530  0.670930  0.811720  1.0  0.7024
  C  C690  1  0.178930  0.708790  0.833480  1.0  -0.1244
  C  C691  1  0.130300  0.723900  0.845040  1.0  -0.0189
  C  C692  1  0.226400  0.728210  0.840790  1.0  -0.0339
  C  C693  1  0.225480  0.763740  0.858240  1.0  -0.0557
  C  C694  1  0.359170  0.395390  0.197390  1.0  0.6477
  C  C695  1  0.027770  0.562830  0.827210  1.0  -0.0122
  C  C696  1  0.471950  0.425390  0.883120  1.0  -0.013
  C  C697  1  0.500000  0.107320  0.788640  1.0  0.279
  C  C698  1  0.000000  0.607320  0.788640  1.0  0.279
  C  C699  1  0.500000  0.392680  0.288640  1.0  0.278
  C  C700  1  0.000000  0.892680  0.288640  1.0  0.278
  C  C701  1  0.500000  0.607320  0.711360  1.0  0.2788
  C  C702  1  0.000000  0.107320  0.711360  1.0  0.2788
  C  C703  1  0.500000  0.892680  0.211360  1.0  0.2778
  C  C704  1  0.000000  0.392680  0.211360  1.0  0.2778
  C  C705  1  0.000000  0.880670  0.923110  1.0  0.317
  C  C706  1  0.500000  0.380670  0.923110  1.0  0.317
  C  C707  1  0.000000  0.619330  0.423110  1.0  0.3175
  C  C708  1  0.500000  0.119330  0.423110  1.0  0.3175
  C  C709  1  0.000000  0.380670  0.576890  1.0  0.3172
  C  C710  1  0.500000  0.880670  0.576890  1.0  0.3172
  C  C711  1  0.000000  0.119330  0.076890  1.0  0.3177
  C  C712  1  0.500000  0.619330  0.076890  1.0  0.3177
  N  N713  1  0.045880  0.896750  0.908570  1.0  -0.3983
  N  N714  1  0.454470  0.091930  0.802650  1.0  -0.3845
  N  N715  1  0.545880  0.396750  0.908570  1.0  -0.3983
  N  N716  1  0.954470  0.591930  0.802650  1.0  -0.3845
  N  N717  1  0.954120  0.603250  0.408570  1.0  -0.3981
  N  N718  1  0.545530  0.408070  0.302650  1.0  -0.3848
  N  N719  1  0.454120  0.103250  0.408570  1.0  -0.3981
  N  N720  1  0.045530  0.908070  0.302650  1.0  -0.3848
  N  N721  1  0.954120  0.396750  0.591430  1.0  -0.3992
  N  N722  1  0.545530  0.591930  0.697350  1.0  -0.3857
  N  N723  1  0.454120  0.896750  0.591430  1.0  -0.3992
  N  N724  1  0.045530  0.091930  0.697350  1.0  -0.3857
  N  N725  1  0.045880  0.103250  0.091430  1.0  -0.398
  N  N726  1  0.454470  0.908070  0.197350  1.0  -0.3848
  N  N727  1  0.545880  0.603250  0.091430  1.0  -0.398
  N  N728  1  0.954470  0.408070  0.197350  1.0  -0.3848
  N  N729  1  0.954120  0.103250  0.091430  1.0  -0.3985
  N  N730  1  0.545530  0.908070  0.197350  1.0  -0.3858
  N  N731  1  0.454120  0.603250  0.091430  1.0  -0.3985
  N  N732  1  0.045530  0.408070  0.197350  1.0  -0.3858
  N  N733  1  0.045880  0.396750  0.591430  1.0  -0.3985
  N  N734  1  0.454470  0.591930  0.697350  1.0  -0.3852
  N  N735  1  0.545880  0.896750  0.591430  1.0  -0.3985
  N  N736  1  0.954470  0.091930  0.697350  1.0  -0.3852
  N  N737  1  0.045880  0.603250  0.408570  1.0  -0.3975
  N  N738  1  0.454470  0.408070  0.302650  1.0  -0.3852
  N  N739  1  0.545880  0.103250  0.408570  1.0  -0.3975
  N  N740  1  0.954470  0.908070  0.302650  1.0  -0.3852
  N  N741  1  0.954120  0.896750  0.908570  1.0  -0.3988
  N  N742  1  0.545530  0.091930  0.802650  1.0  -0.3855
  N  N743  1  0.454120  0.396750  0.908570  1.0  -0.3988
  N  N744  1  0.045530  0.591930  0.802650  1.0  -0.3855
  N  N745  1  0.500000  0.138210  0.761330  1.0  0.6258
  N  N746  1  0.000000  0.638210  0.761330  1.0  0.6258
  N  N747  1  0.500000  0.361790  0.261330  1.0  0.6243
  N  N748  1  0.000000  0.861790  0.261330  1.0  0.6243
  N  N749  1  0.500000  0.638210  0.738670  1.0  0.626
  N  N750  1  0.000000  0.138210  0.738670  1.0  0.626
  N  N751  1  0.500000  0.861790  0.238670  1.0  0.6259
  N  N752  1  0.000000  0.361790  0.238670  1.0  0.6259
  N  N753  1  0.000000  0.849850  0.950490  1.0  0.6617
  N  N754  1  0.500000  0.349850  0.950490  1.0  0.6617
  N  N755  1  0.000000  0.650150  0.450490  1.0  0.6613
  N  N756  1  0.500000  0.150150  0.450490  1.0  0.6613
  N  N757  1  0.000000  0.349850  0.549510  1.0  0.6613
  N  N758  1  0.500000  0.849850  0.549510  1.0  0.6613
  N  N759  1  0.000000  0.150150  0.049510  1.0  0.6634
  N  N760  1  0.500000  0.650150  0.049510  1.0  0.6634
  O  O761  1  0.242370  0.911070  0.924350  1.0  -0.6508
  O  O762  1  0.162290  0.919350  0.892010  1.0  -0.5899
  O  O763  1  0.259310  0.080570  0.794890  1.0  -0.605
  O  O764  1  0.343840  0.061440  0.805650  1.0  -0.588
  O  O765  1  0.369930  0.332120  0.897350  1.0  -0.5862
  O  O766  1  0.278970  0.331320  0.901290  1.0  -0.5993
  O  O767  1  0.206100  0.858200  0.996220  1.0  -0.6333
  O  O768  1  0.130730  0.891850  0.986060  1.0  -0.5599
  O  O769  1  0.275450  0.162360  0.792760  1.0  -0.5933
  O  O770  1  0.361440  0.151210  0.813850  1.0  -0.6127
  O  O771  1  0.167590  0.875700  0.224570  1.0  -0.655
  O  O772  1  0.104710  0.916620  0.211960  1.0  -0.5494
  O  O773  1  0.544850  0.151660  0.750120  1.0  -0.6723
  O  O774  1  0.044590  0.837170  0.962000  1.0  -0.5931
  O  O775  1  0.742370  0.411070  0.924350  1.0  -0.6508
  O  O776  1  0.662290  0.419350  0.892010  1.0  -0.5899
  O  O777  1  0.759310  0.580570  0.794890  1.0  -0.605
  O  O778  1  0.843840  0.561440  0.805650  1.0  -0.588
  O  O779  1  0.869930  0.832120  0.897350  1.0  -0.5862
  O  O780  1  0.778970  0.831320  0.901290  1.0  -0.5993
  O  O781  1  0.706100  0.358200  0.996220  1.0  -0.6333
  O  O782  1  0.630730  0.391850  0.986060  1.0  -0.5599
  O  O783  1  0.775450  0.662360  0.792760  1.0  -0.5933
  O  O784  1  0.861440  0.651210  0.813850  1.0  -0.6127
  O  O785  1  0.667590  0.375700  0.224570  1.0  -0.655
  O  O786  1  0.604710  0.416620  0.211960  1.0  -0.5494
  O  O787  1  0.044850  0.651660  0.750120  1.0  -0.6723
  O  O788  1  0.544590  0.337170  0.962000  1.0  -0.5931
  O  O789  1  0.757630  0.588930  0.424350  1.0  -0.6537
  O  O790  1  0.837710  0.580650  0.392010  1.0  -0.589
  O  O791  1  0.740690  0.419430  0.294890  1.0  -0.6054
  O  O792  1  0.656160  0.438560  0.305650  1.0  -0.5887
  O  O793  1  0.630070  0.167880  0.397350  1.0  -0.5865
  O  O794  1  0.721030  0.168680  0.401290  1.0  -0.5978
  O  O795  1  0.793900  0.641800  0.496220  1.0  -0.6343
  O  O796  1  0.869270  0.608150  0.486060  1.0  -0.5599
  O  O797  1  0.724550  0.337640  0.292760  1.0  -0.5938
  O  O798  1  0.638560  0.348790  0.313850  1.0  -0.6109
  O  O799  1  0.832410  0.624300  0.724570  1.0  -0.6559
  O  O800  1  0.895290  0.583380  0.711960  1.0  -0.5516
  O  O801  1  0.455150  0.348340  0.250120  1.0  -0.6701
  O  O802  1  0.955410  0.662830  0.462000  1.0  -0.5951
  O  O803  1  0.257630  0.088930  0.424350  1.0  -0.6537
  O  O804  1  0.337710  0.080650  0.392010  1.0  -0.589
  O  O805  1  0.240690  0.919430  0.294890  1.0  -0.6054
  O  O806  1  0.156160  0.938560  0.305650  1.0  -0.5887
  O  O807  1  0.130070  0.667880  0.397350  1.0  -0.5865
  O  O808  1  0.221030  0.668680  0.401290  1.0  -0.5978
  O  O809  1  0.293900  0.141800  0.496220  1.0  -0.6343
  O  O810  1  0.369270  0.108150  0.486060  1.0  -0.5599
  O  O811  1  0.224550  0.837640  0.292760  1.0  -0.5938
  O  O812  1  0.138560  0.848790  0.313850  1.0  -0.6109
  O  O813  1  0.332410  0.124300  0.724570  1.0  -0.6559
  O  O814  1  0.395290  0.083380  0.711960  1.0  -0.5516
  O  O815  1  0.955150  0.848340  0.250120  1.0  -0.6701
  O  O816  1  0.455410  0.162830  0.462000  1.0  -0.5951
  O  O817  1  0.757630  0.411070  0.575650  1.0  -0.6538
  O  O818  1  0.837710  0.419350  0.607990  1.0  -0.5897
  O  O819  1  0.740690  0.580570  0.705110  1.0  -0.6059
  O  O820  1  0.656160  0.561440  0.694350  1.0  -0.5888
  O  O821  1  0.630070  0.832120  0.602650  1.0  -0.5864
  O  O822  1  0.721030  0.831320  0.598710  1.0  -0.5976
  O  O823  1  0.793900  0.358200  0.503780  1.0  -0.6342
  O  O824  1  0.869270  0.391850  0.513940  1.0  -0.5607
  O  O825  1  0.724550  0.662360  0.707240  1.0  -0.5939
  O  O826  1  0.638560  0.651210  0.686150  1.0  -0.6123
  O  O827  1  0.832410  0.375700  0.275430  1.0  -0.6553
  O  O828  1  0.895290  0.416620  0.288040  1.0  -0.55
  O  O829  1  0.455150  0.651660  0.749880  1.0  -0.6712
  O  O830  1  0.955410  0.337170  0.538000  1.0  -0.5943
  O  O831  1  0.257630  0.911070  0.575650  1.0  -0.6538
  O  O832  1  0.337710  0.919350  0.607990  1.0  -0.5897
  O  O833  1  0.240690  0.080570  0.705110  1.0  -0.6059
  O  O834  1  0.156160  0.061440  0.694350  1.0  -0.5888
  O  O835  1  0.130070  0.332120  0.602650  1.0  -0.5864
  O  O836  1  0.221030  0.331320  0.598710  1.0  -0.5976
  O  O837  1  0.293900  0.858200  0.503780  1.0  -0.6342
  O  O838  1  0.369270  0.891850  0.513940  1.0  -0.5607
  O  O839  1  0.224550  0.162360  0.707240  1.0  -0.5939
  O  O840  1  0.138560  0.151210  0.686150  1.0  -0.6123
  O  O841  1  0.332410  0.875700  0.275430  1.0  -0.6553
  O  O842  1  0.395290  0.916620  0.288040  1.0  -0.55
  O  O843  1  0.955150  0.151660  0.749880  1.0  -0.6712
  O  O844  1  0.455410  0.837170  0.538000  1.0  -0.5943
  O  O845  1  0.242370  0.088930  0.075650  1.0  -0.6495
  O  O846  1  0.162290  0.080650  0.107990  1.0  -0.5895
  O  O847  1  0.259310  0.919430  0.205110  1.0  -0.6051
  O  O848  1  0.343840  0.938560  0.194350  1.0  -0.5879
  O  O849  1  0.369930  0.667880  0.102650  1.0  -0.5864
  O  O850  1  0.278970  0.668680  0.098710  1.0  -0.5996
  O  O851  1  0.206100  0.141800  0.003780  1.0  -0.6332
  O  O852  1  0.130730  0.108150  0.013940  1.0  -0.5593
  O  O853  1  0.275450  0.837640  0.207240  1.0  -0.5937
  O  O854  1  0.361440  0.848790  0.186150  1.0  -0.6113
  O  O855  1  0.167590  0.124300  0.775430  1.0  -0.6561
  O  O856  1  0.104710  0.083380  0.788040  1.0  -0.5497
  O  O857  1  0.544850  0.848340  0.249880  1.0  -0.6705
  O  O858  1  0.044590  0.162830  0.038000  1.0  -0.5953
  O  O859  1  0.742370  0.588930  0.075650  1.0  -0.6495
  O  O860  1  0.662290  0.580650  0.107990  1.0  -0.5895
  O  O861  1  0.759310  0.419430  0.205110  1.0  -0.6051
  O  O862  1  0.843840  0.438560  0.194350  1.0  -0.5879
  O  O863  1  0.869930  0.167880  0.102650  1.0  -0.5864
  O  O864  1  0.778970  0.168680  0.098710  1.0  -0.5996
  O  O865  1  0.706100  0.641800  0.003780  1.0  -0.6332
  O  O866  1  0.630730  0.608150  0.013940  1.0  -0.5593
  O  O867  1  0.775450  0.337640  0.207240  1.0  -0.5937
  O  O868  1  0.861440  0.348790  0.186150  1.0  -0.6113
  O  O869  1  0.667590  0.624300  0.775430  1.0  -0.6561
  O  O870  1  0.604710  0.583380  0.788040  1.0  -0.5497
  O  O871  1  0.044850  0.348340  0.249880  1.0  -0.6705
  O  O872  1  0.544590  0.662830  0.038000  1.0  -0.5953
  O  O873  1  0.757630  0.088930  0.075650  1.0  -0.6536
  O  O874  1  0.837710  0.080650  0.107990  1.0  -0.5894
  O  O875  1  0.740690  0.919430  0.205110  1.0  -0.6058
  O  O876  1  0.656160  0.938560  0.194350  1.0  -0.5886
  O  O877  1  0.630070  0.667880  0.102650  1.0  -0.5855
  O  O878  1  0.721030  0.668680  0.098710  1.0  -0.5978
  O  O879  1  0.793900  0.141800  0.003780  1.0  -0.6346
  O  O880  1  0.869270  0.108150  0.013940  1.0  -0.56
  O  O881  1  0.724550  0.837640  0.207240  1.0  -0.5937
  O  O882  1  0.638560  0.848790  0.186150  1.0  -0.6121
  O  O883  1  0.832410  0.124300  0.775430  1.0  -0.6557
  O  O884  1  0.895290  0.083380  0.788040  1.0  -0.5514
  O  O885  1  0.455150  0.848340  0.249880  1.0  -0.6704
  O  O886  1  0.955410  0.162830  0.038000  1.0  -0.5956
  O  O887  1  0.257630  0.588930  0.075650  1.0  -0.6536
  O  O888  1  0.337710  0.580650  0.107990  1.0  -0.5894
  O  O889  1  0.240690  0.419430  0.205110  1.0  -0.6058
  O  O890  1  0.156160  0.438560  0.194350  1.0  -0.5886
  O  O891  1  0.130070  0.167880  0.102650  1.0  -0.5855
  O  O892  1  0.221030  0.168680  0.098710  1.0  -0.5978
  O  O893  1  0.293900  0.641800  0.003780  1.0  -0.6346
  O  O894  1  0.369270  0.608150  0.013940  1.0  -0.56
  O  O895  1  0.224550  0.337640  0.207240  1.0  -0.5937
  O  O896  1  0.138560  0.348790  0.186150  1.0  -0.6121
  O  O897  1  0.332410  0.624300  0.775430  1.0  -0.6557
  O  O898  1  0.395290  0.583380  0.788040  1.0  -0.5514
  O  O899  1  0.955150  0.348340  0.249880  1.0  -0.6704
  O  O900  1  0.455410  0.662830  0.038000  1.0  -0.5956
  O  O901  1  0.242370  0.411070  0.575650  1.0  -0.6498
  O  O902  1  0.162290  0.419350  0.607990  1.0  -0.5899
  O  O903  1  0.259310  0.580570  0.705110  1.0  -0.6055
  O  O904  1  0.343840  0.561440  0.694350  1.0  -0.588
  O  O905  1  0.369930  0.832120  0.602650  1.0  -0.5852
  O  O906  1  0.278970  0.831320  0.598710  1.0  -0.5992
  O  O907  1  0.206100  0.358200  0.503780  1.0  -0.6339
  O  O908  1  0.130730  0.391850  0.513940  1.0  -0.5601
  O  O909  1  0.275450  0.662360  0.707240  1.0  -0.5936
  O  O910  1  0.361440  0.651210  0.686150  1.0  -0.6116
  O  O911  1  0.167590  0.375700  0.275430  1.0  -0.6554
  O  O912  1  0.104710  0.416620  0.288040  1.0  -0.5497
  O  O913  1  0.544850  0.651660  0.749880  1.0  -0.6723
  O  O914  1  0.044590  0.337170  0.538000  1.0  -0.5934
  O  O915  1  0.742370  0.911070  0.575650  1.0  -0.6498
  O  O916  1  0.662290  0.919350  0.607990  1.0  -0.5899
  O  O917  1  0.759310  0.080570  0.705110  1.0  -0.6055
  O  O918  1  0.843840  0.061440  0.694350  1.0  -0.588
  O  O919  1  0.869930  0.332120  0.602650  1.0  -0.5852
  O  O920  1  0.778970  0.331320  0.598710  1.0  -0.5992
  O  O921  1  0.706100  0.858200  0.503780  1.0  -0.6339
  O  O922  1  0.630730  0.891850  0.513940  1.0  -0.5601
  O  O923  1  0.775450  0.162360  0.707240  1.0  -0.5936
  O  O924  1  0.861440  0.151210  0.686150  1.0  -0.6116
  O  O925  1  0.667590  0.875700  0.275430  1.0  -0.6554
  O  O926  1  0.604710  0.916620  0.288040  1.0  -0.5497
  O  O927  1  0.044850  0.151660  0.749880  1.0  -0.6723
  O  O928  1  0.544590  0.837170  0.538000  1.0  -0.5934
  O  O929  1  0.242370  0.588930  0.424350  1.0  -0.6508
  O  O930  1  0.162290  0.580650  0.392010  1.0  -0.5895
  O  O931  1  0.259310  0.419430  0.294890  1.0  -0.6045
  O  O932  1  0.343840  0.438560  0.305650  1.0  -0.588
  O  O933  1  0.369930  0.167880  0.397350  1.0  -0.5856
  O  O934  1  0.278970  0.168680  0.401290  1.0  -0.5995
  O  O935  1  0.206100  0.641800  0.496220  1.0  -0.6333
  O  O936  1  0.130730  0.608150  0.486060  1.0  -0.5588
  O  O937  1  0.275450  0.337640  0.292760  1.0  -0.5938
  O  O938  1  0.361440  0.348790  0.313850  1.0  -0.6123
  O  O939  1  0.167590  0.624300  0.724570  1.0  -0.6561
  O  O940  1  0.104710  0.583380  0.711960  1.0  -0.5493
  O  O941  1  0.544850  0.348340  0.250120  1.0  -0.6705
  O  O942  1  0.044590  0.662830  0.462000  1.0  -0.5949
  O  O943  1  0.742370  0.088930  0.424350  1.0  -0.6508
  O  O944  1  0.662290  0.080650  0.392010  1.0  -0.5895
  O  O945  1  0.759310  0.919430  0.294890  1.0  -0.6045
  O  O946  1  0.843840  0.938560  0.305650  1.0  -0.588
  O  O947  1  0.869930  0.667880  0.397350  1.0  -0.5856
  O  O948  1  0.778970  0.668680  0.401290  1.0  -0.5995
  O  O949  1  0.706100  0.141800  0.496220  1.0  -0.6333
  O  O950  1  0.630730  0.108150  0.486060  1.0  -0.5588
  O  O951  1  0.775450  0.837640  0.292760  1.0  -0.5938
  O  O952  1  0.861440  0.848790  0.313850  1.0  -0.6123
  O  O953  1  0.667590  0.124300  0.724570  1.0  -0.6561
  O  O954  1  0.604710  0.083380  0.711960  1.0  -0.5493
  O  O955  1  0.044850  0.848340  0.250120  1.0  -0.6705
  O  O956  1  0.544590  0.162830  0.462000  1.0  -0.5949
  O  O957  1  0.757630  0.911070  0.924350  1.0  -0.6537
  O  O958  1  0.837710  0.919350  0.892010  1.0  -0.5893
  O  O959  1  0.740690  0.080570  0.794890  1.0  -0.6058
  O  O960  1  0.656160  0.061440  0.805650  1.0  -0.5887
  O  O961  1  0.630070  0.332120  0.897350  1.0  -0.5856
  O  O962  1  0.721030  0.331320  0.901290  1.0  -0.5978
  O  O963  1  0.793900  0.858200  0.996220  1.0  -0.6346
  O  O964  1  0.869270  0.891850  0.986060  1.0  -0.5608
  O  O965  1  0.724550  0.162360  0.792760  1.0  -0.5937
  O  O966  1  0.638560  0.151210  0.813850  1.0  -0.6113
  O  O967  1  0.832410  0.875700  0.224570  1.0  -0.6551
  O  O968  1  0.895290  0.916620  0.211960  1.0  -0.5505
  O  O969  1  0.455150  0.151660  0.750120  1.0  -0.6709
  O  O970  1  0.955410  0.837170  0.962000  1.0  -0.5936
  O  O971  1  0.257630  0.411070  0.924350  1.0  -0.6537
  O  O972  1  0.337710  0.419350  0.892010  1.0  -0.5893
  O  O973  1  0.240690  0.580570  0.794890  1.0  -0.6058
  O  O974  1  0.156160  0.561440  0.805650  1.0  -0.5887
  O  O975  1  0.130070  0.832120  0.897350  1.0  -0.5856
  O  O976  1  0.221030  0.831320  0.901290  1.0  -0.5978
  O  O977  1  0.293900  0.358200  0.996220  1.0  -0.6346
  O  O978  1  0.369270  0.391850  0.986060  1.0  -0.5608
  O  O979  1  0.224550  0.662360  0.792760  1.0  -0.5937
  O  O980  1  0.138560  0.651210  0.813850  1.0  -0.6113
  O  O981  1  0.332410  0.375700  0.224570  1.0  -0.6551
  O  O982  1  0.395290  0.416620  0.211960  1.0  -0.5505
  O  O983  1  0.955150  0.651660  0.750120  1.0  -0.6709
  O  O984  1  0.455410  0.337170  0.962000  1.0  -0.5936
