# generated using pymatgen
data_CuH13C27O4
_symmetry_space_group_name_H-M   'P 1'
_cell_length_a   32.07840000
_cell_length_b   18.44910000
_cell_length_c   41.24950000
_cell_angle_alpha   90.00000000
_cell_angle_beta   118.55000000
_cell_angle_gamma   90.00000000
_symmetry_Int_Tables_number   1
_chemical_formula_structural   CuH13C27O4
_chemical_formula_sum   'Cu24 H312 C648 O96'
_cell_volume   21443.66857453
_cell_formula_units_Z   24
loop_
 _symmetry_equiv_pos_site_id
 _symmetry_equiv_pos_as_xyz
  1  'x, y, z'
loop_
 _atom_site_type_symbol
 _atom_site_label
 _atom_site_symmetry_multiplicity
 _atom_site_fract_x
 _atom_site_fract_y
 _atom_site_fract_z
 _atom_site_occupancy
 _atom_site_charge
  Cu  Cu1  1  0.217810  0.176920  0.221790  1.0  0.9116
  Cu  Cu2  1  0.278160  0.250880  0.280900  1.0  0.9142
  Cu  Cu3  1  0.993950  0.963910  0.279880  1.0  0.913
  Cu  Cu4  1  0.717810  0.676920  0.221790  1.0  0.9116
  Cu  Cu5  1  0.778160  0.750880  0.280900  1.0  0.9142
  Cu  Cu6  1  0.493950  0.463910  0.279880  1.0  0.913
  Cu  Cu7  1  0.782190  0.176920  0.278210  1.0  0.911
  Cu  Cu8  1  0.721840  0.250880  0.219090  1.0  0.9146
  Cu  Cu9  1  0.006050  0.963910  0.220120  1.0  0.9127
  Cu  Cu10  1  0.282190  0.676920  0.278210  1.0  0.911
  Cu  Cu11  1  0.221840  0.750880  0.219100  1.0  0.9145
  Cu  Cu12  1  0.506050  0.463910  0.220120  1.0  0.9127
  Cu  Cu13  1  0.782190  0.823080  0.778210  1.0  0.9127
  Cu  Cu14  1  0.721840  0.749120  0.719100  1.0  0.9129
  Cu  Cu15  1  0.006050  0.036090  0.720120  1.0  0.9126
  Cu  Cu16  1  0.282190  0.323080  0.778210  1.0  0.9127
  Cu  Cu17  1  0.221840  0.249120  0.719100  1.0  0.9129
  Cu  Cu18  1  0.506050  0.536090  0.720120  1.0  0.9126
  Cu  Cu19  1  0.217810  0.823080  0.721790  1.0  0.9129
  Cu  Cu20  1  0.278160  0.749120  0.780910  1.0  0.9123
  Cu  Cu21  1  0.993950  0.036090  0.779880  1.0  0.9131
  Cu  Cu22  1  0.717810  0.323080  0.721790  1.0  0.9129
  Cu  Cu23  1  0.778160  0.249120  0.780900  1.0  0.912
  Cu  Cu24  1  0.493950  0.536090  0.779880  1.0  0.9131
  H  H25  1  0.118700  0.117400  0.258100  1.0  0.1097
  H  H26  1  0.274700  0.963800  0.256900  1.0  0.1057
  H  H27  1  0.103300  0.811500  0.344000  1.0  0.1147
  H  H28  1  0.365400  0.855200  0.348600  1.0  0.1131
  H  H29  1  0.360100  0.072500  0.347800  1.0  0.1143
  H  H30  1  0.100800  0.120000  0.348300  1.0  0.1167
  H  H31  1  0.118000  0.805700  0.252000  1.0  0.1095
  H  H32  1  0.210600  0.226700  0.348400  1.0  0.1131
  H  H33  1  0.212900  0.707100  0.344400  1.0  0.1152
  H  H34  1  0.556900  0.779900  0.584800  1.0  0.135
  H  H35  1  0.659500  0.872300  0.553300  1.0  0.1134
  H  H36  1  0.234200  0.338400  0.421000  1.0  0.1235
  H  H37  1  0.406500  0.360200  0.529600  1.0  0.0997
  H  H38  1  0.091100  0.882900  0.430800  1.0  0.1279
  H  H39  1  0.172000  0.654100  0.572100  1.0  0.1054
  H  H40  1  0.128100  0.753600  0.438800  1.0  0.1231
  H  H41  1  0.484200  0.851100  0.444400  1.0  0.1153
  H  H42  1  0.334200  0.381400  0.542600  1.0  0.1171
  H  H43  1  0.300500  0.513800  0.537800  1.0  0.1439
  H  H44  1  0.445900  0.745100  0.461900  1.0  0.1188
  H  H45  1  0.193200  0.467700  0.414300  1.0  0.1258
  H  H46  1  0.555400  0.829500  0.430000  1.0  0.1177
  H  H47  1  0.301300  0.329700  0.407400  1.0  0.1263
  H  H48  1  0.588200  0.889900  0.564700  1.0  0.1012
  H  H49  1  0.173900  0.900400  0.559500  1.0  0.0579
  H  H50  1  0.242400  0.597000  0.501400  1.0  0.0914
  H  H51  1  0.211700  0.772700  0.564600  1.0  0.1041
  H  H52  1  0.500400  0.687500  0.567400  1.0  0.097
  H  H53  1  0.444500  0.669000  0.504900  1.0  0.1143
  H  H54  1  0.087300  0.984900  0.461900  1.0  0.0948
  H  H55  1  0.636500  0.831900  0.450700  1.0  0.0985
  H  H56  1  0.378800  0.319600  0.425500  1.0  0.1057
  H  H57  1  0.434800  0.334100  0.487500  1.0  0.1208
  H  H58  1  0.086300  0.638700  0.444500  1.0  0.1368
  H  H59  1  0.079800  0.552400  0.481400  1.0  0.0937
  H  H60  1  0.121300  0.559800  0.545900  1.0  0.1162
  H  H61  1  0.188600  0.570600  0.440500  1.0  0.0969
  H  H62  1  0.688200  0.860700  0.511700  1.0  0.1072
  H  H63  1  0.130400  0.995700  0.528100  1.0  0.1126
  H  H64  1  0.618700  0.617400  0.258100  1.0  0.1097
  H  H65  1  0.774700  0.463800  0.256900  1.0  0.1057
  H  H66  1  0.603300  0.311500  0.344000  1.0  0.1147
  H  H67  1  0.865400  0.355200  0.348600  1.0  0.1131
  H  H68  1  0.860100  0.572500  0.347800  1.0  0.1143
  H  H69  1  0.600800  0.620000  0.348300  1.0  0.1167
  H  H70  1  0.618000  0.305700  0.252000  1.0  0.1095
  H  H71  1  0.710600  0.726700  0.348400  1.0  0.1131
  H  H72  1  0.712900  0.207100  0.344400  1.0  0.1152
  H  H73  1  0.056900  0.279900  0.584800  1.0  0.135
  H  H74  1  0.159500  0.372300  0.553300  1.0  0.1134
  H  H75  1  0.734200  0.838400  0.421000  1.0  0.1235
  H  H76  1  0.906500  0.860200  0.529600  1.0  0.0997
  H  H77  1  0.591100  0.382900  0.430800  1.0  0.1279
  H  H78  1  0.672000  0.154100  0.572100  1.0  0.1054
  H  H79  1  0.628100  0.253600  0.438800  1.0  0.1231
  H  H80  1  0.984200  0.351100  0.444400  1.0  0.1153
  H  H81  1  0.834200  0.881400  0.542600  1.0  0.1171
  H  H82  1  0.800500  0.013800  0.537800  1.0  0.1439
  H  H83  1  0.945900  0.245100  0.461900  1.0  0.1188
  H  H84  1  0.693200  0.967700  0.414300  1.0  0.1258
  H  H85  1  0.055400  0.329500  0.430000  1.0  0.1177
  H  H86  1  0.801300  0.829700  0.407400  1.0  0.1263
  H  H87  1  0.088200  0.389900  0.564700  1.0  0.1012
  H  H88  1  0.673900  0.400400  0.559500  1.0  0.0579
  H  H89  1  0.742400  0.097000  0.501400  1.0  0.0914
  H  H90  1  0.711700  0.272700  0.564600  1.0  0.1041
  H  H91  1  0.000400  0.187500  0.567400  1.0  0.097
  H  H92  1  0.944500  0.169000  0.504900  1.0  0.1143
  H  H93  1  0.587300  0.484900  0.461900  1.0  0.0948
  H  H94  1  0.136500  0.331900  0.450700  1.0  0.0985
  H  H95  1  0.878800  0.819600  0.425500  1.0  0.1057
  H  H96  1  0.934800  0.834100  0.487500  1.0  0.1208
  H  H97  1  0.586300  0.138700  0.444500  1.0  0.1368
  H  H98  1  0.579800  0.052400  0.481400  1.0  0.0937
  H  H99  1  0.621300  0.059800  0.545900  1.0  0.1162
  H  H100  1  0.688600  0.070600  0.440500  1.0  0.0969
  H  H101  1  0.188200  0.360700  0.511700  1.0  0.1072
  H  H102  1  0.630400  0.495700  0.528100  1.0  0.1126
  H  H103  1  0.881300  0.117400  0.241900  1.0  0.1093
  H  H104  1  0.725300  0.963800  0.243100  1.0  0.1054
  H  H105  1  0.896700  0.811500  0.156000  1.0  0.1155
  H  H106  1  0.634600  0.855200  0.151400  1.0  0.1131
  H  H107  1  0.639900  0.072500  0.152200  1.0  0.115
  H  H108  1  0.899200  0.120000  0.151700  1.0  0.1166
  H  H109  1  0.882000  0.805700  0.248000  1.0  0.1094
  H  H110  1  0.789400  0.226700  0.151600  1.0  0.1138
  H  H111  1  0.787100  0.707100  0.155600  1.0  0.1148
  H  H112  1  0.443100  0.779900  0.915200  1.0  0.1352
  H  H113  1  0.340500  0.872300  0.946700  1.0  0.1138
  H  H114  1  0.765800  0.338400  0.079000  1.0  0.125
  H  H115  1  0.593500  0.360200  0.970400  1.0  0.1003
  H  H116  1  0.908900  0.882900  0.069200  1.0  0.1277
  H  H117  1  0.828000  0.654100  0.927900  1.0  0.1057
  H  H118  1  0.871900  0.753600  0.061200  1.0  0.1241
  H  H119  1  0.515800  0.851100  0.055600  1.0  0.1162
  H  H120  1  0.665800  0.381400  0.957400  1.0  0.1171
  H  H121  1  0.699500  0.513800  0.962200  1.0  0.1452
  H  H122  1  0.554100  0.745100  0.038100  1.0  0.1187
  H  H123  1  0.806800  0.467700  0.085700  1.0  0.1254
  H  H124  1  0.444600  0.829500  0.070000  1.0  0.1168
  H  H125  1  0.698700  0.329700  0.092600  1.0  0.1254
  H  H126  1  0.411800  0.889900  0.935300  1.0  0.1029
  H  H127  1  0.826100  0.900400  0.940500  1.0  0.0592
  H  H128  1  0.757600  0.597000  0.998600  1.0  0.0915
  H  H129  1  0.788300  0.772700  0.935400  1.0  0.1036
  H  H130  1  0.499600  0.687500  0.932600  1.0  0.0959
  H  H131  1  0.555500  0.669000  0.995100  1.0  0.1144
  H  H132  1  0.912700  0.984900  0.038100  1.0  0.0942
  H  H133  1  0.363500  0.831900  0.049300  1.0  0.0983
  H  H134  1  0.621200  0.319600  0.074500  1.0  0.1057
  H  H135  1  0.565200  0.334100  0.012500  1.0  0.121
  H  H136  1  0.913700  0.638700  0.055500  1.0  0.1361
  H  H137  1  0.920200  0.552400  0.018600  1.0  0.0938
  H  H138  1  0.878700  0.559800  0.954100  1.0  0.1166
  H  H139  1  0.811400  0.570600  0.059500  1.0  0.0966
  H  H140  1  0.311800  0.860700  0.988300  1.0  0.1067
  H  H141  1  0.869600  0.995700  0.971900  1.0  0.1128
  H  H142  1  0.381300  0.617400  0.241900  1.0  0.1093
  H  H143  1  0.225300  0.463800  0.243100  1.0  0.1054
  H  H144  1  0.396700  0.311500  0.156000  1.0  0.1155
  H  H145  1  0.134600  0.355200  0.151400  1.0  0.1131
  H  H146  1  0.139900  0.572500  0.152200  1.0  0.115
  H  H147  1  0.399200  0.620000  0.151700  1.0  0.1166
  H  H148  1  0.382000  0.305700  0.248000  1.0  0.1094
  H  H149  1  0.289400  0.726700  0.151600  1.0  0.1138
  H  H150  1  0.287100  0.207100  0.155600  1.0  0.1148
  H  H151  1  0.943100  0.279900  0.915200  1.0  0.1352
  H  H152  1  0.840500  0.372300  0.946700  1.0  0.1138
  H  H153  1  0.265800  0.838400  0.079000  1.0  0.125
  H  H154  1  0.093500  0.860200  0.970400  1.0  0.1003
  H  H155  1  0.408900  0.382900  0.069200  1.0  0.1277
  H  H156  1  0.328000  0.154100  0.927900  1.0  0.1057
  H  H157  1  0.371900  0.253600  0.061200  1.0  0.1241
  H  H158  1  0.015800  0.351100  0.055600  1.0  0.1162
  H  H159  1  0.165800  0.881400  0.957400  1.0  0.1171
  H  H160  1  0.199500  0.013800  0.962200  1.0  0.1452
  H  H161  1  0.054100  0.245100  0.038100  1.0  0.1187
  H  H162  1  0.306800  0.967700  0.085700  1.0  0.1254
  H  H163  1  0.944600  0.329500  0.070000  1.0  0.1168
  H  H164  1  0.198700  0.829700  0.092600  1.0  0.1254
  H  H165  1  0.911800  0.389900  0.935300  1.0  0.1029
  H  H166  1  0.326100  0.400400  0.940500  1.0  0.0592
  H  H167  1  0.257600  0.097000  0.998600  1.0  0.0915
  H  H168  1  0.288300  0.272700  0.935400  1.0  0.1036
  H  H169  1  0.999600  0.187500  0.932600  1.0  0.0959
  H  H170  1  0.055500  0.169000  0.995100  1.0  0.1144
  H  H171  1  0.412700  0.484900  0.038100  1.0  0.0942
  H  H172  1  0.863500  0.331900  0.049300  1.0  0.0983
  H  H173  1  0.121200  0.819600  0.074500  1.0  0.1057
  H  H174  1  0.065200  0.834100  0.012500  1.0  0.121
  H  H175  1  0.413700  0.138700  0.055500  1.0  0.1361
  H  H176  1  0.420200  0.052400  0.018600  1.0  0.0938
  H  H177  1  0.378700  0.059800  0.954100  1.0  0.1166
  H  H178  1  0.311400  0.070600  0.059500  1.0  0.0966
  H  H179  1  0.811800  0.360700  0.988300  1.0  0.1067
  H  H180  1  0.369600  0.495700  0.971900  1.0  0.1128
  H  H181  1  0.881300  0.882600  0.741900  1.0  0.1096
  H  H182  1  0.725300  0.036200  0.743100  1.0  0.1055
  H  H183  1  0.896700  0.188500  0.656000  1.0  0.1155
  H  H184  1  0.634600  0.144800  0.651400  1.0  0.114
  H  H185  1  0.639900  0.927500  0.652200  1.0  0.1147
  H  H186  1  0.899200  0.880000  0.651700  1.0  0.1166
  H  H187  1  0.882000  0.194300  0.748000  1.0  0.1096
  H  H188  1  0.789400  0.773300  0.651600  1.0  0.1136
  H  H189  1  0.787100  0.292900  0.655600  1.0  0.1151
  H  H190  1  0.443100  0.220100  0.415200  1.0  0.1356
  H  H191  1  0.340500  0.127700  0.446700  1.0  0.1138
  H  H192  1  0.765800  0.661600  0.579000  1.0  0.1256
  H  H193  1  0.593500  0.639800  0.470400  1.0  0.1005
  H  H194  1  0.908900  0.117100  0.569200  1.0  0.1281
  H  H195  1  0.828000  0.345900  0.427900  1.0  0.1058
  H  H196  1  0.871900  0.246400  0.561200  1.0  0.1237
  H  H197  1  0.515800  0.148900  0.555600  1.0  0.116
  H  H198  1  0.665800  0.618600  0.457400  1.0  0.1168
  H  H199  1  0.699500  0.486200  0.462200  1.0  0.1452
  H  H200  1  0.554100  0.254900  0.538100  1.0  0.1187
  H  H201  1  0.806800  0.532300  0.585700  1.0  0.1252
  H  H202  1  0.444600  0.170500  0.570000  1.0  0.1167
  H  H203  1  0.698700  0.670300  0.592600  1.0  0.1257
  H  H204  1  0.411800  0.110100  0.435300  1.0  0.103
  H  H205  1  0.826100  0.099600  0.440500  1.0  0.0586
  H  H206  1  0.757600  0.403000  0.498600  1.0  0.0919
  H  H207  1  0.788300  0.227300  0.435400  1.0  0.1035
  H  H208  1  0.499600  0.312500  0.432600  1.0  0.0962
  H  H209  1  0.555500  0.331000  0.495100  1.0  0.1146
  H  H210  1  0.912700  0.015100  0.538100  1.0  0.0943
  H  H211  1  0.363500  0.168100  0.549300  1.0  0.0981
  H  H212  1  0.621200  0.680400  0.574500  1.0  0.1062
  H  H213  1  0.565200  0.665900  0.512500  1.0  0.1213
  H  H214  1  0.913700  0.361300  0.555500  1.0  0.1361
  H  H215  1  0.920200  0.447600  0.518600  1.0  0.0934
  H  H216  1  0.878700  0.440200  0.454100  1.0  0.1168
  H  H217  1  0.811400  0.429400  0.559500  1.0  0.0971
  H  H218  1  0.311800  0.139300  0.488300  1.0  0.1063
  H  H219  1  0.869600  0.004300  0.471900  1.0  0.1126
  H  H220  1  0.381300  0.382600  0.741900  1.0  0.1096
  H  H221  1  0.225300  0.536200  0.743100  1.0  0.1055
  H  H222  1  0.396700  0.688500  0.656000  1.0  0.1155
  H  H223  1  0.134600  0.644800  0.651400  1.0  0.114
  H  H224  1  0.139900  0.427500  0.652200  1.0  0.1147
  H  H225  1  0.399200  0.380000  0.651700  1.0  0.1166
  H  H226  1  0.382000  0.694300  0.748000  1.0  0.1096
  H  H227  1  0.289400  0.273300  0.651600  1.0  0.1136
  H  H228  1  0.287100  0.792900  0.655600  1.0  0.1151
  H  H229  1  0.943100  0.720100  0.415200  1.0  0.1356
  H  H230  1  0.840500  0.627700  0.446700  1.0  0.1138
  H  H231  1  0.265800  0.161600  0.579000  1.0  0.1256
  H  H232  1  0.093500  0.139800  0.470400  1.0  0.1005
  H  H233  1  0.408900  0.617100  0.569200  1.0  0.1281
  H  H234  1  0.328000  0.845900  0.427900  1.0  0.1058
  H  H235  1  0.371900  0.746400  0.561200  1.0  0.1237
  H  H236  1  0.015800  0.648900  0.555600  1.0  0.116
  H  H237  1  0.165800  0.118600  0.457400  1.0  0.1168
  H  H238  1  0.199500  0.986200  0.462200  1.0  0.1452
  H  H239  1  0.054100  0.754900  0.538100  1.0  0.1187
  H  H240  1  0.306800  0.032300  0.585700  1.0  0.1252
  H  H241  1  0.944600  0.670500  0.570000  1.0  0.1167
  H  H242  1  0.198700  0.170300  0.592600  1.0  0.1257
  H  H243  1  0.911800  0.610100  0.435300  1.0  0.103
  H  H244  1  0.326100  0.599600  0.440500  1.0  0.0586
  H  H245  1  0.257600  0.903000  0.498600  1.0  0.0919
  H  H246  1  0.288300  0.727300  0.435400  1.0  0.1035
  H  H247  1  0.999600  0.812500  0.432600  1.0  0.0962
  H  H248  1  0.055500  0.831000  0.495100  1.0  0.1146
  H  H249  1  0.412700  0.515100  0.538100  1.0  0.0943
  H  H250  1  0.863500  0.668100  0.549300  1.0  0.0981
  H  H251  1  0.121200  0.180400  0.574500  1.0  0.1062
  H  H252  1  0.065200  0.165900  0.512500  1.0  0.1213
  H  H253  1  0.413700  0.861300  0.555500  1.0  0.1361
  H  H254  1  0.420200  0.947600  0.518600  1.0  0.0934
  H  H255  1  0.378700  0.940200  0.454100  1.0  0.1168
  H  H256  1  0.311400  0.929400  0.559500  1.0  0.0971
  H  H257  1  0.811800  0.639300  0.488300  1.0  0.1063
  H  H258  1  0.369600  0.504300  0.471900  1.0  0.1126
  H  H259  1  0.118700  0.882600  0.758100  1.0  0.1097
  H  H260  1  0.274700  0.036200  0.756900  1.0  0.1058
  H  H261  1  0.103300  0.188500  0.844000  1.0  0.1149
  H  H262  1  0.365400  0.144800  0.848600  1.0  0.1134
  H  H263  1  0.360100  0.927500  0.847800  1.0  0.1145
  H  H264  1  0.100800  0.880000  0.848300  1.0  0.1167
  H  H265  1  0.118000  0.194300  0.752000  1.0  0.1095
  H  H266  1  0.210600  0.773300  0.848400  1.0  0.113
  H  H267  1  0.212900  0.292900  0.844400  1.0  0.115
  H  H268  1  0.556900  0.220100  0.084800  1.0  0.1346
  H  H269  1  0.659500  0.127700  0.053300  1.0  0.1134
  H  H270  1  0.234200  0.661600  0.921000  1.0  0.1238
  H  H271  1  0.406500  0.639800  0.029600  1.0  0.0997
  H  H272  1  0.091100  0.117100  0.930800  1.0  0.1281
  H  H273  1  0.172000  0.345900  0.072100  1.0  0.1053
  H  H274  1  0.128100  0.246400  0.938800  1.0  0.1228
  H  H275  1  0.484200  0.148900  0.944400  1.0  0.1164
  H  H276  1  0.334200  0.618600  0.042600  1.0  0.1174
  H  H277  1  0.300500  0.486200  0.037800  1.0  0.144
  H  H278  1  0.445900  0.254900  0.961900  1.0  0.119
  H  H279  1  0.193200  0.532300  0.914300  1.0  0.1255
  H  H280  1  0.555400  0.170500  0.930000  1.0  0.1178
  H  H281  1  0.301300  0.670300  0.907400  1.0  0.1261
  H  H282  1  0.588200  0.110100  0.064700  1.0  0.1013
  H  H283  1  0.173900  0.099600  0.059500  1.0  0.0581
  H  H284  1  0.242400  0.403000  0.001400  1.0  0.0924
  H  H285  1  0.211700  0.227300  0.064600  1.0  0.1044
  H  H286  1  0.500400  0.312500  0.067400  1.0  0.0972
  H  H287  1  0.444500  0.331000  0.004900  1.0  0.1145
  H  H288  1  0.087300  0.015100  0.961900  1.0  0.0945
  H  H289  1  0.636500  0.168100  0.950700  1.0  0.0985
  H  H290  1  0.378800  0.680400  0.925500  1.0  0.1063
  H  H291  1  0.434800  0.665900  0.987500  1.0  0.1207
  H  H292  1  0.086300  0.361300  0.944500  1.0  0.137
  H  H293  1  0.079800  0.447600  0.981400  1.0  0.0937
  H  H294  1  0.121300  0.440200  0.045900  1.0  0.1156
  H  H295  1  0.188600  0.429400  0.940500  1.0  0.0973
  H  H296  1  0.688200  0.139300  0.011700  1.0  0.1073
  H  H297  1  0.130400  0.004300  0.028100  1.0  0.1129
  H  H298  1  0.618700  0.382600  0.758100  1.0  0.1097
  H  H299  1  0.774700  0.536200  0.756900  1.0  0.1058
  H  H300  1  0.603300  0.688500  0.844000  1.0  0.1149
  H  H301  1  0.865400  0.644800  0.848600  1.0  0.1134
  H  H302  1  0.860100  0.427500  0.847800  1.0  0.1145
  H  H303  1  0.600800  0.380000  0.848300  1.0  0.1167
  H  H304  1  0.618000  0.694300  0.752000  1.0  0.1095
  H  H305  1  0.710600  0.273300  0.848400  1.0  0.113
  H  H306  1  0.712900  0.792900  0.844400  1.0  0.115
  H  H307  1  0.056900  0.720100  0.084800  1.0  0.1346
  H  H308  1  0.159500  0.627700  0.053300  1.0  0.1134
  H  H309  1  0.734200  0.161600  0.921000  1.0  0.1238
  H  H310  1  0.906500  0.139800  0.029600  1.0  0.0997
  H  H311  1  0.591100  0.617100  0.930800  1.0  0.1281
  H  H312  1  0.672000  0.845900  0.072100  1.0  0.1053
  H  H313  1  0.628100  0.746400  0.938800  1.0  0.1228
  H  H314  1  0.984200  0.648900  0.944400  1.0  0.1164
  H  H315  1  0.834200  0.118600  0.042600  1.0  0.1174
  H  H316  1  0.800500  0.986200  0.037800  1.0  0.144
  H  H317  1  0.945900  0.754900  0.961900  1.0  0.119
  H  H318  1  0.693200  0.032300  0.914300  1.0  0.1255
  H  H319  1  0.055400  0.670500  0.930000  1.0  0.1178
  H  H320  1  0.801300  0.170300  0.907400  1.0  0.1261
  H  H321  1  0.088200  0.610100  0.064700  1.0  0.1013
  H  H322  1  0.673900  0.599600  0.059500  1.0  0.0581
  H  H323  1  0.742400  0.903000  0.001400  1.0  0.0924
  H  H324  1  0.711700  0.727300  0.064600  1.0  0.1044
  H  H325  1  0.000400  0.812500  0.067400  1.0  0.0972
  H  H326  1  0.944500  0.831000  0.004900  1.0  0.1145
  H  H327  1  0.587300  0.515100  0.961900  1.0  0.0945
  H  H328  1  0.136500  0.668100  0.950700  1.0  0.0985
  H  H329  1  0.878800  0.180400  0.925500  1.0  0.1063
  H  H330  1  0.934800  0.165900  0.987500  1.0  0.1207
  H  H331  1  0.586300  0.861300  0.944500  1.0  0.137
  H  H332  1  0.579800  0.947600  0.981400  1.0  0.0937
  H  H333  1  0.621300  0.940200  0.045900  1.0  0.1156
  H  H334  1  0.688600  0.929400  0.940500  1.0  0.0973
  H  H335  1  0.188200  0.639300  0.011700  1.0  0.1073
  H  H336  1  0.630400  0.504300  0.028100  1.0  0.1129
  C  C337  1  0.065300  0.055400  0.281370  1.0  0.6667
  C  C338  1  0.201190  0.740800  0.277530  1.0  0.6661
  C  C339  1  0.224800  0.743000  0.461390  1.0  0.0037
  C  C340  1  0.192600  0.215900  0.424080  1.0  0.0213
  C  C341  1  0.296030  0.829500  0.280190  1.0  0.6827
  C  C342  1  0.316500  0.898700  0.299220  1.0  -0.1657
  C  C343  1  0.168000  0.175900  0.299780  1.0  -0.1544
  C  C344  1  0.287550  0.100200  0.281270  1.0  0.6734
  C  C345  1  0.469400  0.986900  0.462310  1.0  0.03
  C  C346  1  0.219500  0.234100  0.461580  1.0  -0.0259
  C  C347  1  0.128670  0.132300  0.282280  1.0  0.0036
  C  C348  1  0.298060  0.963900  0.281540  1.0  0.0232
  C  C349  1  0.103730  0.110100  0.300230  1.0  -0.17
  C  C350  1  0.120430  0.798300  0.332020  1.0  -0.0612
  C  C351  1  0.063760  0.869700  0.277140  1.0  0.6702
  C  C352  1  0.174100  0.199600  0.392170  1.0  -0.0676
  C  C353  1  0.501500  0.936300  0.484060  1.0  -0.0698
  C  C354  1  0.196940  0.195600  0.281240  1.0  0.6834
  C  C355  1  0.353000  0.898600  0.336270  1.0  -0.0291
  C  C356  1  0.349500  0.028400  0.335710  1.0  -0.0399
  C  C357  1  0.117700  0.134100  0.336290  1.0  -0.0643
  C  C358  1  0.104130  0.820600  0.295180  1.0  -0.1001
  C  C359  1  0.249200  0.423500  0.460700  1.0  0.0077
  C  C360  1  0.129500  0.795500  0.276950  1.0  0.0343
  C  C361  1  0.435300  0.975200  0.423860  1.0  0.0552
  C  C362  1  0.183300  0.198700  0.336170  1.0  -0.064
  C  C363  1  0.170800  0.756200  0.295690  1.0  -0.1602
  C  C364  1  0.200400  0.752000  0.481300  1.0  -0.0553
  C  C365  1  0.313300  0.027300  0.299300  1.0  -0.17
  C  C366  1  0.370100  0.964700  0.354070  1.0  0.0287
  C  C367  1  0.199400  0.739900  0.421430  1.0  -0.0347
  C  C368  1  0.251100  0.294400  0.473950  1.0  -0.016
  C  C369  1  0.500500  0.805700  0.497000  1.0  0.0193
  C  C370  1  0.185900  0.735700  0.332300  1.0  -0.0555
  C  C371  1  0.406700  0.967600  0.392150  1.0  -0.048
  C  C372  1  0.532300  0.817200  0.533400  1.0  0.0467
  C  C373  1  0.534300  0.773500  0.560200  1.0  -0.0769
  C  C374  1  0.279000  0.437300  0.497000  1.0  -0.0286
  C  C375  1  0.220500  0.193000  0.490870  1.0  0.004
  C  C376  1  0.339000  0.356000  0.494100  1.0  0.0895
  C  C377  1  0.468650  0.053400  0.479270  1.0  -0.0778
  C  C378  1  0.274600  0.741200  0.479930  1.0  -0.0394
  C  C379  1  0.638100  0.866800  0.528300  1.0  -0.0862
  C  C380  1  0.157100  0.179000  0.353930  1.0  0.0131
  C  C381  1  0.255800  0.348000  0.447110  1.0  -0.1056
  C  C382  1  0.138900  0.829600  0.479800  1.0  -0.0548
  C  C383  1  0.385000  0.352600  0.504900  1.0  -0.0499
  C  C384  1  0.163700  0.839900  0.518900  1.0  0.0058
  C  C385  1  0.108000  0.886600  0.456400  1.0  -0.1455
  C  C386  1  0.154800  0.650700  0.546500  1.0  -0.0462
  C  C387  1  0.161800  0.756800  0.350910  1.0  0.054
  C  C388  1  0.180000  0.743500  0.388860  1.0  0.0772
  C  C389  1  0.160800  0.705600  0.524300  1.0  -0.0238
  C  C390  1  0.558000  0.857100  0.478500  1.0  0.0101
  C  C391  1  0.146000  0.758100  0.465700  1.0  -0.097
  C  C392  1  0.506800  0.859700  0.470500  1.0  -0.0943
  C  C393  1  0.135500  0.699200  0.485600  1.0  -0.0017
  C  C394  1  0.312800  0.372800  0.516300  1.0  -0.1107
  C  C395  1  0.278700  0.503500  0.513400  1.0  -0.0856
  C  C396  1  0.467800  0.751100  0.486700  1.0  -0.0622
  C  C397  1  0.214200  0.476500  0.439100  1.0  -0.0997
  C  C398  1  0.576100  0.840900  0.454500  1.0  -0.0603
  C  C399  1  0.308800  0.345800  0.457900  1.0  0.0175
  C  C400  1  0.323400  0.334100  0.432300  1.0  -0.0956
  C  C401  1  0.565800  0.881300  0.538650  1.0  -0.0928
  C  C402  1  0.589600  0.868600  0.517000  1.0  0.0217
  C  C403  1  0.158100  0.898100  0.533900  1.0  -0.0831
  C  C404  1  0.244300  0.552700  0.491500  1.0  -0.1197
  C  C405  1  0.193900  0.769400  0.537700  1.0  -0.1174
  C  C406  1  0.500600  0.717800  0.549400  1.0  -0.1269
  C  C407  1  0.466600  0.706200  0.511800  1.0  -0.1623
  C  C408  1  0.106300  0.946400  0.475500  1.0  -0.1253
  C  C409  1  0.624800  0.841700  0.467000  1.0  -0.0821
  C  C410  1  0.368800  0.329100  0.442900  1.0  -0.1051
  C  C411  1  0.402400  0.337800  0.479700  1.0  -0.1301
  C  C412  1  0.104300  0.642400  0.470000  1.0  -0.1612
  C  C413  1  0.100100  0.591300  0.492400  1.0  -0.0963
  C  C414  1  0.125300  0.594900  0.531400  1.0  -0.1622
  C  C415  1  0.212000  0.536900  0.454400  1.0  -0.1085
  C  C416  1  0.655800  0.857000  0.503600  1.0  -0.0738
  C  C417  1  0.132300  0.954100  0.516100  1.0  -0.1534
  C  C418  1  0.565300  0.555400  0.281370  1.0  0.6667
  C  C419  1  0.701190  0.240800  0.277530  1.0  0.6661
  C  C420  1  0.724800  0.243000  0.461390  1.0  0.0037
  C  C421  1  0.692600  0.715900  0.424080  1.0  0.0213
  C  C422  1  0.796030  0.329500  0.280190  1.0  0.6827
  C  C423  1  0.816500  0.398700  0.299220  1.0  -0.1657
  C  C424  1  0.668000  0.675900  0.299780  1.0  -0.1544
  C  C425  1  0.787550  0.600200  0.281270  1.0  0.6734
  C  C426  1  0.969400  0.486900  0.462310  1.0  0.03
  C  C427  1  0.719500  0.734100  0.461580  1.0  -0.0259
  C  C428  1  0.628670  0.632300  0.282280  1.0  0.0036
  C  C429  1  0.798060  0.463900  0.281540  1.0  0.0232
  C  C430  1  0.603730  0.610100  0.300230  1.0  -0.17
  C  C431  1  0.620430  0.298300  0.332020  1.0  -0.0612
  C  C432  1  0.563760  0.369700  0.277140  1.0  0.6702
  C  C433  1  0.674100  0.699600  0.392170  1.0  -0.0676
  C  C434  1  0.001500  0.436300  0.484060  1.0  -0.0698
  C  C435  1  0.696940  0.695600  0.281240  1.0  0.6834
  C  C436  1  0.853000  0.398600  0.336270  1.0  -0.0291
  C  C437  1  0.849500  0.528400  0.335710  1.0  -0.0399
  C  C438  1  0.617700  0.634100  0.336290  1.0  -0.0643
  C  C439  1  0.604130  0.320600  0.295180  1.0  -0.1001
  C  C440  1  0.749200  0.923500  0.460700  1.0  0.0077
  C  C441  1  0.629500  0.295500  0.276950  1.0  0.0343
  C  C442  1  0.935300  0.475200  0.423860  1.0  0.0576
  C  C443  1  0.683300  0.698700  0.336170  1.0  -0.064
  C  C444  1  0.670800  0.256200  0.295690  1.0  -0.1602
  C  C445  1  0.700400  0.252000  0.481300  1.0  -0.0553
  C  C446  1  0.813300  0.527300  0.299300  1.0  -0.17
  C  C447  1  0.870100  0.464700  0.354070  1.0  0.0287
  C  C448  1  0.699400  0.239900  0.421430  1.0  -0.0347
  C  C449  1  0.751100  0.794400  0.473950  1.0  -0.016
  C  C450  1  0.000500  0.305700  0.497000  1.0  0.0193
  C  C451  1  0.685900  0.235700  0.332300  1.0  -0.0555
  C  C452  1  0.906700  0.467600  0.392150  1.0  -0.048
  C  C453  1  0.032300  0.317200  0.533400  1.0  0.0467
  C  C454  1  0.034300  0.273500  0.560200  1.0  -0.0769
  C  C455  1  0.779000  0.937300  0.497000  1.0  -0.0286
  C  C456  1  0.720500  0.693000  0.490870  1.0  0.004
  C  C457  1  0.839000  0.856000  0.494100  1.0  0.0895
  C  C458  1  0.968650  0.553400  0.479270  1.0  -0.0778
  C  C459  1  0.774600  0.241200  0.479930  1.0  -0.0394
  C  C460  1  0.138100  0.366800  0.528300  1.0  -0.0862
  C  C461  1  0.657100  0.679000  0.353930  1.0  0.0131
  C  C462  1  0.755800  0.848000  0.447110  1.0  -0.1056
  C  C463  1  0.638900  0.329600  0.479800  1.0  -0.0548
  C  C464  1  0.885000  0.852600  0.504900  1.0  -0.0499
  C  C465  1  0.663700  0.339900  0.518900  1.0  0.0058
  C  C466  1  0.608000  0.386600  0.456400  1.0  -0.1455
  C  C467  1  0.654800  0.150700  0.546500  1.0  -0.0462
  C  C468  1  0.661800  0.256800  0.350910  1.0  0.054
  C  C469  1  0.680000  0.243500  0.388860  1.0  0.0772
  C  C470  1  0.660800  0.205600  0.524300  1.0  -0.0238
  C  C471  1  0.058000  0.357100  0.478500  1.0  0.0101
  C  C472  1  0.646000  0.258100  0.465700  1.0  -0.097
  C  C473  1  0.006800  0.359700  0.470500  1.0  -0.0943
  C  C474  1  0.635500  0.199200  0.485600  1.0  -0.0017
  C  C475  1  0.812800  0.872800  0.516300  1.0  -0.1107
  C  C476  1  0.778700  0.003500  0.513400  1.0  -0.0856
  C  C477  1  0.967800  0.251100  0.486700  1.0  -0.0622
  C  C478  1  0.714200  0.976500  0.439100  1.0  -0.0997
  C  C479  1  0.076100  0.340900  0.454500  1.0  -0.0603
  C  C480  1  0.808800  0.845800  0.457900  1.0  0.0175
  C  C481  1  0.823400  0.834100  0.432300  1.0  -0.0956
  C  C482  1  0.065800  0.381300  0.538650  1.0  -0.0928
  C  C483  1  0.089600  0.368600  0.517000  1.0  0.0217
  C  C484  1  0.658100  0.398100  0.533900  1.0  -0.0831
  C  C485  1  0.744300  0.052700  0.491500  1.0  -0.1197
  C  C486  1  0.693900  0.269400  0.537700  1.0  -0.1174
  C  C487  1  0.000600  0.217800  0.549400  1.0  -0.1269
  C  C488  1  0.966600  0.206200  0.511800  1.0  -0.1623
  C  C489  1  0.606300  0.446400  0.475500  1.0  -0.1253
  C  C490  1  0.124800  0.341700  0.467000  1.0  -0.0821
  C  C491  1  0.868800  0.829100  0.442900  1.0  -0.1051
  C  C492  1  0.902400  0.837800  0.479700  1.0  -0.1301
  C  C493  1  0.604300  0.142400  0.470000  1.0  -0.1612
  C  C494  1  0.600100  0.091300  0.492400  1.0  -0.0963
  C  C495  1  0.625300  0.094900  0.531400  1.0  -0.1622
  C  C496  1  0.712000  0.036900  0.454400  1.0  -0.1085
  C  C497  1  0.155800  0.357000  0.503600  1.0  -0.0738
  C  C498  1  0.632300  0.454100  0.516100  1.0  -0.1534
  C  C499  1  0.934700  0.055400  0.218630  1.0  0.6685
  C  C500  1  0.798810  0.740800  0.222470  1.0  0.6658
  C  C501  1  0.775200  0.743000  0.038610  1.0  -0.0005
  C  C502  1  0.807400  0.215900  0.075920  1.0  0.022
  C  C503  1  0.703970  0.829500  0.219810  1.0  0.6828
  C  C504  1  0.683500  0.898700  0.200780  1.0  -0.1658
  C  C505  1  0.832000  0.175900  0.200220  1.0  -0.154
  C  C506  1  0.712450  0.100200  0.218730  1.0  0.6734
  C  C507  1  0.530600  0.986900  0.037690  1.0  0.0286
  C  C508  1  0.780500  0.234100  0.038420  1.0  -0.0284
  C  C509  1  0.871330  0.132300  0.217720  1.0  0.0047
  C  C510  1  0.701940  0.963900  0.218460  1.0  0.0238
  C  C511  1  0.896270  0.110100  0.199770  1.0  -0.1694
  C  C512  1  0.879570  0.798300  0.167980  1.0  -0.0602
  C  C513  1  0.936240  0.869700  0.222860  1.0  0.67
  C  C514  1  0.825900  0.199600  0.107830  1.0  -0.0687
  C  C515  1  0.498500  0.936300  0.015940  1.0  -0.07
  C  C516  1  0.803060  0.195600  0.218760  1.0  0.6836
  C  C517  1  0.647000  0.898600  0.163730  1.0  -0.0303
  C  C518  1  0.650500  0.028400  0.164290  1.0  -0.04
  C  C519  1  0.882300  0.134100  0.163710  1.0  -0.0643
  C  C520  1  0.895870  0.820600  0.204820  1.0  -0.1009
  C  C521  1  0.750800  0.423500  0.039300  1.0  0.0077
  C  C522  1  0.870500  0.795500  0.223050  1.0  0.034
  C  C523  1  0.564700  0.975200  0.076140  1.0  0.0546
  C  C524  1  0.816700  0.198700  0.163830  1.0  -0.0645
  C  C525  1  0.829200  0.756200  0.204310  1.0  -0.1604
  C  C526  1  0.799600  0.752000  0.018700  1.0  -0.054
  C  C527  1  0.686700  0.027300  0.200700  1.0  -0.1696
  C  C528  1  0.629900  0.964700  0.145930  1.0  0.0283
  C  C529  1  0.800600  0.739900  0.078570  1.0  -0.0353
  C  C530  1  0.748900  0.294400  0.026050  1.0  -0.016
  C  C531  1  0.499500  0.805700  0.003000  1.0  0.0203
  C  C532  1  0.814100  0.735700  0.167700  1.0  -0.0569
  C  C533  1  0.593300  0.967600  0.107850  1.0  -0.0516
  C  C534  1  0.467700  0.817200  0.966600  1.0  0.0467
  C  C535  1  0.465700  0.773500  0.939800  1.0  -0.0752
  C  C536  1  0.721000  0.437300  0.003000  1.0  -0.0282
  C  C537  1  0.779500  0.193000  0.009130  1.0  0.0037
  C  C538  1  0.661000  0.356000  0.005900  1.0  0.0888
  C  C539  1  0.531350  0.053400  0.020730  1.0  -0.0768
  C  C540  1  0.725400  0.741200  0.020070  1.0  -0.0381
  C  C541  1  0.361900  0.866800  0.971700  1.0  -0.0861
  C  C542  1  0.842900  0.179000  0.146070  1.0  0.0136
  C  C543  1  0.744200  0.348000  0.052890  1.0  -0.1065
  C  C544  1  0.861100  0.829600  0.020200  1.0  -0.055
  C  C545  1  0.615000  0.352600  0.995100  1.0  -0.0514
  C  C546  1  0.836300  0.839900  0.981100  1.0  0.0052
  C  C547  1  0.892000  0.886600  0.043600  1.0  -0.1425
  C  C548  1  0.845200  0.650700  0.953500  1.0  -0.046
  C  C549  1  0.838200  0.756800  0.149090  1.0  0.054
  C  C550  1  0.820000  0.743500  0.111140  1.0  0.0763
  C  C551  1  0.839200  0.705600  0.975700  1.0  -0.0242
  C  C552  1  0.442000  0.857100  0.021500  1.0  0.0132
  C  C553  1  0.854000  0.758100  0.034300  1.0  -0.0981
  C  C554  1  0.493200  0.859700  0.029500  1.0  -0.0938
  C  C555  1  0.864500  0.699200  0.014400  1.0  0.0011
  C  C556  1  0.687200  0.372800  0.983700  1.0  -0.1122
  C  C557  1  0.721300  0.503500  0.986600  1.0  -0.083
  C  C558  1  0.532200  0.751100  0.013300  1.0  -0.0614
  C  C559  1  0.785800  0.476500  0.060900  1.0  -0.1
  C  C560  1  0.423900  0.840900  0.045500  1.0  -0.0658
  C  C561  1  0.691200  0.345800  0.042100  1.0  0.02
  C  C562  1  0.676600  0.334100  0.067700  1.0  -0.1
  C  C563  1  0.434200  0.881300  0.961350  1.0  -0.092
  C  C564  1  0.410400  0.868600  0.983000  1.0  0.0216
  C  C565  1  0.841900  0.898100  0.966100  1.0  -0.0834
  C  C566  1  0.755700  0.552700  0.008500  1.0  -0.119
  C  C567  1  0.806100  0.769400  0.962300  1.0  -0.1168
  C  C568  1  0.499400  0.717800  0.950600  1.0  -0.1276
  C  C569  1  0.533400  0.706200  0.988200  1.0  -0.1616
  C  C570  1  0.893700  0.946400  0.024500  1.0  -0.123
  C  C571  1  0.375200  0.841700  0.033000  1.0  -0.0846
  C  C572  1  0.631200  0.329100  0.057100  1.0  -0.1089
  C  C573  1  0.597600  0.337800  0.020300  1.0  -0.1301
  C  C574  1  0.895700  0.642400  0.030000  1.0  -0.1644
  C  C575  1  0.899900  0.591300  0.007600  1.0  -0.0976
  C  C576  1  0.874700  0.594900  0.968600  1.0  -0.1629
  C  C577  1  0.788000  0.536900  0.045600  1.0  -0.1065
  C  C578  1  0.344200  0.857000  0.996400  1.0  -0.0746
  C  C579  1  0.867700  0.954100  0.983900  1.0  -0.1525
  C  C580  1  0.434700  0.555400  0.218630  1.0  0.6685
  C  C581  1  0.298810  0.240800  0.222470  1.0  0.6658
  C  C582  1  0.275200  0.243000  0.038610  1.0  -0.0005
  C  C583  1  0.307400  0.715900  0.075920  1.0  0.022
  C  C584  1  0.203970  0.329500  0.219810  1.0  0.6828
  C  C585  1  0.183500  0.398700  0.200780  1.0  -0.1658
  C  C586  1  0.332000  0.675900  0.200220  1.0  -0.154
  C  C587  1  0.212450  0.600200  0.218730  1.0  0.6734
  C  C588  1  0.030600  0.486900  0.037690  1.0  0.0286
  C  C589  1  0.280500  0.734100  0.038420  1.0  -0.0284
  C  C590  1  0.371330  0.632300  0.217720  1.0  0.0047
  C  C591  1  0.201940  0.463900  0.218460  1.0  0.0238
  C  C592  1  0.396270  0.610100  0.199770  1.0  -0.1694
  C  C593  1  0.379570  0.298300  0.167980  1.0  -0.0602
  C  C594  1  0.436240  0.369700  0.222860  1.0  0.67
  C  C595  1  0.325900  0.699600  0.107830  1.0  -0.0687
  C  C596  1  0.998500  0.436300  0.015940  1.0  -0.07
  C  C597  1  0.303060  0.695600  0.218760  1.0  0.6836
  C  C598  1  0.147000  0.398600  0.163730  1.0  -0.0303
  C  C599  1  0.150500  0.528400  0.164290  1.0  -0.04
  C  C600  1  0.382300  0.634100  0.163710  1.0  -0.0643
  C  C601  1  0.395870  0.320600  0.204820  1.0  -0.1009
  C  C602  1  0.250800  0.923500  0.039300  1.0  0.0077
  C  C603  1  0.370500  0.295500  0.223050  1.0  0.034
  C  C604  1  0.064700  0.475200  0.076140  1.0  0.057
  C  C605  1  0.316700  0.698700  0.163830  1.0  -0.0645
  C  C606  1  0.329200  0.256200  0.204310  1.0  -0.1604
  C  C607  1  0.299600  0.252000  0.018700  1.0  -0.054
  C  C608  1  0.186700  0.527300  0.200700  1.0  -0.1696
  C  C609  1  0.129900  0.464700  0.145930  1.0  0.0283
  C  C610  1  0.300600  0.239900  0.078570  1.0  -0.0353
  C  C611  1  0.248900  0.794400  0.026050  1.0  -0.016
  C  C612  1  0.999500  0.305700  0.003000  1.0  0.0203
  C  C613  1  0.314100  0.235700  0.167700  1.0  -0.0569
  C  C614  1  0.093300  0.467600  0.107850  1.0  -0.0516
  C  C615  1  0.967700  0.317200  0.966600  1.0  0.0467
  C  C616  1  0.965700  0.273500  0.939800  1.0  -0.0752
  C  C617  1  0.221000  0.937300  0.003000  1.0  -0.0282
  C  C618  1  0.279500  0.693000  0.009130  1.0  0.0037
  C  C619  1  0.161000  0.856000  0.005900  1.0  0.0888
  C  C620  1  0.031350  0.553400  0.020730  1.0  -0.0768
  C  C621  1  0.225400  0.241200  0.020070  1.0  -0.0381
  C  C622  1  0.861900  0.366800  0.971700  1.0  -0.0861
  C  C623  1  0.342900  0.679000  0.146070  1.0  0.0136
  C  C624  1  0.244200  0.848000  0.052890  1.0  -0.1065
  C  C625  1  0.361100  0.329600  0.020200  1.0  -0.055
  C  C626  1  0.115000  0.852600  0.995100  1.0  -0.0514
  C  C627  1  0.336300  0.339900  0.981100  1.0  0.0052
  C  C628  1  0.392000  0.386600  0.043600  1.0  -0.1425
  C  C629  1  0.345200  0.150700  0.953500  1.0  -0.046
  C  C630  1  0.338200  0.256800  0.149090  1.0  0.054
  C  C631  1  0.320000  0.243500  0.111140  1.0  0.0763
  C  C632  1  0.339200  0.205600  0.975700  1.0  -0.0242
  C  C633  1  0.942000  0.357100  0.021500  1.0  0.0132
  C  C634  1  0.354000  0.258100  0.034300  1.0  -0.0981
  C  C635  1  0.993200  0.359700  0.029500  1.0  -0.0938
  C  C636  1  0.364500  0.199200  0.014400  1.0  0.0011
  C  C637  1  0.187200  0.872800  0.983700  1.0  -0.1122
  C  C638  1  0.221300  0.003500  0.986600  1.0  -0.083
  C  C639  1  0.032200  0.251100  0.013300  1.0  -0.0614
  C  C640  1  0.285800  0.976500  0.060900  1.0  -0.1
  C  C641  1  0.923900  0.340900  0.045500  1.0  -0.0658
  C  C642  1  0.191200  0.845800  0.042100  1.0  0.02
  C  C643  1  0.176600  0.834100  0.067700  1.0  -0.1
  C  C644  1  0.934200  0.381300  0.961350  1.0  -0.092
  C  C645  1  0.910400  0.368600  0.983000  1.0  0.0216
  C  C646  1  0.341900  0.398100  0.966100  1.0  -0.0834
  C  C647  1  0.255700  0.052700  0.008500  1.0  -0.119
  C  C648  1  0.306100  0.269400  0.962300  1.0  -0.1168
  C  C649  1  0.999400  0.217800  0.950600  1.0  -0.1276
  C  C650  1  0.033400  0.206200  0.988200  1.0  -0.1616
  C  C651  1  0.393700  0.446400  0.024500  1.0  -0.123
  C  C652  1  0.875200  0.341700  0.033000  1.0  -0.0846
  C  C653  1  0.131200  0.829100  0.057100  1.0  -0.1089
  C  C654  1  0.097600  0.837800  0.020300  1.0  -0.1301
  C  C655  1  0.395700  0.142400  0.030000  1.0  -0.1644
  C  C656  1  0.399900  0.091300  0.007600  1.0  -0.0976
  C  C657  1  0.374700  0.094900  0.968600  1.0  -0.1629
  C  C658  1  0.288000  0.036900  0.045600  1.0  -0.1065
  C  C659  1  0.844200  0.357000  0.996400  1.0  -0.0746
  C  C660  1  0.367700  0.454100  0.983900  1.0  -0.1525
  C  C661  1  0.934700  0.944600  0.718630  1.0  0.6688
  C  C662  1  0.798810  0.259200  0.722470  1.0  0.6661
  C  C663  1  0.775200  0.257000  0.538610  1.0  -0.0008
  C  C664  1  0.807400  0.784100  0.575920  1.0  0.0218
  C  C665  1  0.703970  0.170500  0.719810  1.0  0.6827
  C  C666  1  0.683500  0.101300  0.700780  1.0  -0.166
  C  C667  1  0.832000  0.824100  0.700220  1.0  -0.1544
  C  C668  1  0.712450  0.899800  0.718730  1.0  0.6735
  C  C669  1  0.530600  0.013100  0.537690  1.0  0.0288
  C  C670  1  0.780500  0.765900  0.538420  1.0  -0.0289
  C  C671  1  0.871330  0.867700  0.717720  1.0  0.0048
  C  C672  1  0.701940  0.036100  0.718460  1.0  0.024
  C  C673  1  0.896270  0.889900  0.699770  1.0  -0.1692
  C  C674  1  0.879570  0.201700  0.667980  1.0  -0.06
  C  C675  1  0.936240  0.130300  0.722860  1.0  0.67
  C  C676  1  0.825900  0.800400  0.607830  1.0  -0.0686
  C  C677  1  0.498500  0.063700  0.515940  1.0  -0.07
  C  C678  1  0.803060  0.804400  0.718760  1.0  0.6837
  C  C679  1  0.647000  0.101400  0.663730  1.0  -0.0318
  C  C680  1  0.650500  0.971600  0.664290  1.0  -0.0399
  C  C681  1  0.882300  0.865900  0.663710  1.0  -0.0645
  C  C682  1  0.895870  0.179400  0.704820  1.0  -0.1009
  C  C683  1  0.750800  0.576500  0.539300  1.0  0.0078
  C  C684  1  0.870500  0.204500  0.723050  1.0  0.0345
  C  C685  1  0.564700  0.024800  0.576140  1.0  0.0546
  C  C686  1  0.816700  0.801300  0.663830  1.0  -0.0647
  C  C687  1  0.829200  0.243800  0.704310  1.0  -0.1604
  C  C688  1  0.799600  0.248000  0.518700  1.0  -0.0538
  C  C689  1  0.686700  0.972700  0.700700  1.0  -0.1693
  C  C690  1  0.629900  0.035300  0.645930  1.0  0.0285
  C  C691  1  0.800600  0.260100  0.578570  1.0  -0.039
  C  C692  1  0.748900  0.705600  0.526050  1.0  -0.0167
  C  C693  1  0.499500  0.194300  0.503000  1.0  0.0203
  C  C694  1  0.814100  0.264300  0.667700  1.0  -0.0568
  C  C695  1  0.593300  0.032400  0.607850  1.0  -0.0509
  C  C696  1  0.467700  0.182800  0.466600  1.0  0.0469
  C  C697  1  0.465700  0.226500  0.439800  1.0  -0.075
  C  C698  1  0.721000  0.562700  0.503000  1.0  -0.0292
  C  C699  1  0.779500  0.807000  0.509130  1.0  0.0037
  C  C700  1  0.661000  0.644000  0.505900  1.0  0.0889
  C  C701  1  0.531350  0.946600  0.520730  1.0  -0.0765
  C  C702  1  0.725400  0.258800  0.520070  1.0  -0.0381
  C  C703  1  0.361900  0.133200  0.471700  1.0  -0.0861
  C  C704  1  0.842900  0.821000  0.646070  1.0  0.0138
  C  C705  1  0.744200  0.652000  0.552890  1.0  -0.1057
  C  C706  1  0.861100  0.170400  0.520200  1.0  -0.0564
  C  C707  1  0.615000  0.647400  0.495100  1.0  -0.0517
  C  C708  1  0.836300  0.160100  0.481100  1.0  0.0053
  C  C709  1  0.892000  0.113400  0.543600  1.0  -0.1432
  C  C710  1  0.845200  0.349300  0.453500  1.0  -0.0462
  C  C711  1  0.838200  0.243200  0.649090  1.0  0.0544
  C  C712  1  0.820000  0.256500  0.611140  1.0  0.0768
  C  C713  1  0.839200  0.294400  0.475700  1.0  -0.023
  C  C714  1  0.442000  0.142900  0.521500  1.0  0.0134
  C  C715  1  0.854000  0.241900  0.534300  1.0  -0.1001
  C  C716  1  0.493200  0.140300  0.529500  1.0  -0.0944
  C  C717  1  0.864500  0.300800  0.514400  1.0  0.0013
  C  C718  1  0.687200  0.627200  0.483700  1.0  -0.1117
  C  C719  1  0.721300  0.496500  0.486600  1.0  -0.0829
  C  C720  1  0.532200  0.248900  0.513300  1.0  -0.0616
  C  C721  1  0.785800  0.523500  0.560900  1.0  -0.0992
  C  C722  1  0.423900  0.159100  0.545500  1.0  -0.066
  C  C723  1  0.691200  0.654200  0.542100  1.0  0.0206
  C  C724  1  0.676600  0.665900  0.567700  1.0  -0.0993
  C  C725  1  0.434200  0.118700  0.461350  1.0  -0.0922
  C  C726  1  0.410400  0.131400  0.483000  1.0  0.0214
  C  C727  1  0.841900  0.101900  0.466100  1.0  -0.0827
  C  C728  1  0.755700  0.447300  0.508500  1.0  -0.118
  C  C729  1  0.806100  0.230600  0.462300  1.0  -0.117
  C  C730  1  0.499400  0.282200  0.450600  1.0  -0.126
  C  C731  1  0.533400  0.293800  0.488200  1.0  -0.1602
  C  C732  1  0.893700  0.053600  0.524500  1.0  -0.1231
  C  C733  1  0.375200  0.158300  0.533000  1.0  -0.085
  C  C734  1  0.631200  0.670900  0.557100  1.0  -0.1084
  C  C735  1  0.597600  0.662200  0.520300  1.0  -0.13
  C  C736  1  0.895700  0.357600  0.530000  1.0  -0.1648
  C  C737  1  0.899900  0.408700  0.507600  1.0  -0.0978
  C  C738  1  0.874700  0.405100  0.468600  1.0  -0.1626
  C  C739  1  0.788000  0.463100  0.545600  1.0  -0.1072
  C  C740  1  0.344200  0.143000  0.496400  1.0  -0.0744
  C  C741  1  0.867700  0.045900  0.483900  1.0  -0.1524
  C  C742  1  0.434700  0.444600  0.718630  1.0  0.6688
  C  C743  1  0.298810  0.759200  0.722470  1.0  0.6661
  C  C744  1  0.275200  0.757000  0.538610  1.0  -0.0008
  C  C745  1  0.307400  0.284100  0.575920  1.0  0.0218
  C  C746  1  0.203970  0.670500  0.719810  1.0  0.6827
  C  C747  1  0.183500  0.601300  0.700780  1.0  -0.166
  C  C748  1  0.332000  0.324100  0.700220  1.0  -0.1544
  C  C749  1  0.212450  0.399800  0.718730  1.0  0.6735
  C  C750  1  0.030600  0.513100  0.537690  1.0  0.0288
  C  C751  1  0.280500  0.265900  0.538420  1.0  -0.0289
  C  C752  1  0.371330  0.367700  0.717720  1.0  0.0048
  C  C753  1  0.201940  0.536100  0.718460  1.0  0.024
  C  C754  1  0.396270  0.389900  0.699770  1.0  -0.1692
  C  C755  1  0.379570  0.701700  0.667980  1.0  -0.06
  C  C756  1  0.436240  0.630300  0.722860  1.0  0.67
  C  C757  1  0.325900  0.300400  0.607830  1.0  -0.0686
  C  C758  1  0.998500  0.563700  0.515940  1.0  -0.07
  C  C759  1  0.303060  0.304400  0.718760  1.0  0.6837
  C  C760  1  0.147000  0.601400  0.663730  1.0  -0.0318
  C  C761  1  0.150500  0.471600  0.664290  1.0  -0.0399
  C  C762  1  0.382300  0.365900  0.663710  1.0  -0.0645
  C  C763  1  0.395870  0.679400  0.704820  1.0  -0.1009
  C  C764  1  0.250800  0.076500  0.539300  1.0  0.0078
  C  C765  1  0.370500  0.704500  0.723050  1.0  0.0345
  C  C766  1  0.064700  0.524800  0.576140  1.0  0.0546
  C  C767  1  0.316700  0.301300  0.663830  1.0  -0.0647
  C  C768  1  0.329200  0.743800  0.704310  1.0  -0.1604
  C  C769  1  0.299600  0.748000  0.518700  1.0  -0.0538
  C  C770  1  0.186700  0.472700  0.700700  1.0  -0.1693
  C  C771  1  0.129900  0.535300  0.645930  1.0  0.0285
  C  C772  1  0.300600  0.760100  0.578570  1.0  -0.039
  C  C773  1  0.248900  0.205600  0.526050  1.0  -0.0167
  C  C774  1  0.999500  0.694300  0.503000  1.0  0.0203
  C  C775  1  0.314100  0.764300  0.667700  1.0  -0.0568
  C  C776  1  0.093300  0.532400  0.607850  1.0  -0.0509
  C  C777  1  0.967700  0.682800  0.466600  1.0  0.0469
  C  C778  1  0.965700  0.726500  0.439800  1.0  -0.075
  C  C779  1  0.221000  0.062700  0.503000  1.0  -0.0292
  C  C780  1  0.279500  0.307000  0.509130  1.0  0.0037
  C  C781  1  0.161000  0.144000  0.505900  1.0  0.0889
  C  C782  1  0.031350  0.446600  0.520730  1.0  -0.0765
  C  C783  1  0.225400  0.758800  0.520070  1.0  -0.0381
  C  C784  1  0.861900  0.633200  0.471700  1.0  -0.0861
  C  C785  1  0.342900  0.321000  0.646070  1.0  0.0138
  C  C786  1  0.244200  0.152000  0.552890  1.0  -0.1057
  C  C787  1  0.361100  0.670400  0.520200  1.0  -0.0564
  C  C788  1  0.115000  0.147400  0.495100  1.0  -0.0517
  C  C789  1  0.336300  0.660100  0.481100  1.0  0.0053
  C  C790  1  0.392000  0.613400  0.543600  1.0  -0.1432
  C  C791  1  0.345200  0.849300  0.453500  1.0  -0.0462
  C  C792  1  0.338200  0.743200  0.649090  1.0  0.0544
  C  C793  1  0.320000  0.756500  0.611140  1.0  0.0768
  C  C794  1  0.339200  0.794400  0.475700  1.0  -0.023
  C  C795  1  0.942000  0.642900  0.521500  1.0  0.0134
  C  C796  1  0.354000  0.741900  0.534300  1.0  -0.1001
  C  C797  1  0.993200  0.640300  0.529500  1.0  -0.0944
  C  C798  1  0.364500  0.800800  0.514400  1.0  0.0013
  C  C799  1  0.187200  0.127200  0.483700  1.0  -0.1117
  C  C800  1  0.221300  0.996500  0.486600  1.0  -0.0829
  C  C801  1  0.032200  0.748900  0.513300  1.0  -0.0616
  C  C802  1  0.285800  0.023500  0.560900  1.0  -0.0992
  C  C803  1  0.923900  0.659100  0.545500  1.0  -0.066
  C  C804  1  0.191200  0.154200  0.542100  1.0  0.0206
  C  C805  1  0.176600  0.165900  0.567700  1.0  -0.0993
  C  C806  1  0.934200  0.618700  0.461350  1.0  -0.0922
  C  C807  1  0.910400  0.631400  0.483000  1.0  0.0214
  C  C808  1  0.341900  0.601900  0.466100  1.0  -0.0827
  C  C809  1  0.255700  0.947300  0.508500  1.0  -0.118
  C  C810  1  0.306100  0.730600  0.462300  1.0  -0.117
  C  C811  1  0.999400  0.782200  0.450600  1.0  -0.126
  C  C812  1  0.033400  0.793800  0.488200  1.0  -0.1602
  C  C813  1  0.393700  0.553600  0.524500  1.0  -0.1231
  C  C814  1  0.875200  0.658300  0.533000  1.0  -0.085
  C  C815  1  0.131200  0.170900  0.557100  1.0  -0.1084
  C  C816  1  0.097600  0.162200  0.520300  1.0  -0.13
  C  C817  1  0.395700  0.857600  0.530000  1.0  -0.1648
  C  C818  1  0.399900  0.908700  0.507600  1.0  -0.0978
  C  C819  1  0.374700  0.905100  0.468600  1.0  -0.1626
  C  C820  1  0.288000  0.963100  0.545600  1.0  -0.1072
  C  C821  1  0.844200  0.643000  0.496400  1.0  -0.0744
  C  C822  1  0.367700  0.545900  0.483900  1.0  -0.1524
  C  C823  1  0.065300  0.944600  0.781370  1.0  0.6672
  C  C824  1  0.201190  0.259200  0.777530  1.0  0.6663
  C  C825  1  0.224800  0.257000  0.961390  1.0  0.0034
  C  C826  1  0.192600  0.784100  0.924080  1.0  0.0214
  C  C827  1  0.296030  0.170500  0.780190  1.0  0.6826
  C  C828  1  0.316500  0.101300  0.799220  1.0  -0.1659
  C  C829  1  0.168000  0.824100  0.799780  1.0  -0.1547
  C  C830  1  0.287550  0.899800  0.781270  1.0  0.6737
  C  C831  1  0.469400  0.013100  0.962310  1.0  0.0303
  C  C832  1  0.219500  0.765900  0.961580  1.0  -0.0254
  C  C833  1  0.128670  0.867700  0.782280  1.0  0.0029
  C  C834  1  0.298060  0.036100  0.781540  1.0  0.0234
  C  C835  1  0.103730  0.889900  0.800230  1.0  -0.1698
  C  C836  1  0.120430  0.201700  0.832020  1.0  -0.0612
  C  C837  1  0.063760  0.130300  0.777140  1.0  0.6702
  C  C838  1  0.174100  0.800400  0.892170  1.0  -0.0672
  C  C839  1  0.501500  0.063700  0.984060  1.0  -0.0702
  C  C840  1  0.196940  0.804400  0.781240  1.0  0.6834
  C  C841  1  0.353000  0.101400  0.836270  1.0  -0.0308
  C  C842  1  0.349500  0.971600  0.835710  1.0  -0.0391
  C  C843  1  0.117700  0.865900  0.836290  1.0  -0.0642
  C  C844  1  0.104130  0.179400  0.795180  1.0  -0.1001
  C  C845  1  0.249200  0.576500  0.960700  1.0  0.0072
  C  C846  1  0.129500  0.204500  0.776950  1.0  0.035
  C  C847  1  0.435300  0.024800  0.923860  1.0  0.0551
  C  C848  1  0.183300  0.801300  0.836170  1.0  -0.0641
  C  C849  1  0.170800  0.243800  0.795690  1.0  -0.1601
  C  C850  1  0.200400  0.248000  0.981300  1.0  -0.055
  C  C851  1  0.313300  0.972700  0.799300  1.0  -0.1697
  C  C852  1  0.370100  0.035300  0.854070  1.0  0.0287
  C  C853  1  0.199400  0.260100  0.921430  1.0  -0.0372
  C  C854  1  0.251100  0.705600  0.973950  1.0  -0.0166
  C  C855  1  0.500500  0.194300  0.997000  1.0  0.0198
  C  C856  1  0.185900  0.264300  0.832300  1.0  -0.0554
  C  C857  1  0.406700  0.032400  0.892150  1.0  -0.0477
  C  C858  1  0.532300  0.182800  0.033400  1.0  0.0471
  C  C859  1  0.534300  0.226500  0.060200  1.0  -0.0769
  C  C860  1  0.279000  0.562700  0.997000  1.0  -0.0293
  C  C861  1  0.220500  0.807000  0.990870  1.0  0.0039
  C  C862  1  0.339000  0.644000  0.994100  1.0  0.09
  C  C863  1  0.468650  0.946600  0.979270  1.0  -0.0768
  C  C864  1  0.274600  0.258800  0.979930  1.0  -0.0395
  C  C865  1  0.638100  0.133200  0.028300  1.0  -0.0864
  C  C866  1  0.157100  0.821000  0.853930  1.0  0.0134
  C  C867  1  0.255800  0.652000  0.947110  1.0  -0.1055
  C  C868  1  0.138900  0.170400  0.979800  1.0  -0.0561
  C  C869  1  0.385000  0.647400  0.004900  1.0  -0.0499
  C  C870  1  0.163700  0.160100  0.018900  1.0  0.0068
  C  C871  1  0.108000  0.113400  0.956400  1.0  -0.146
  C  C872  1  0.154800  0.349300  0.046500  1.0  -0.0462
  C  C873  1  0.161800  0.243200  0.850910  1.0  0.0539
  C  C874  1  0.180000  0.256500  0.888860  1.0  0.0777
  C  C875  1  0.160800  0.294400  0.024300  1.0  -0.0228
  C  C876  1  0.558000  0.142900  0.978500  1.0  0.0101
  C  C877  1  0.146000  0.241900  0.965700  1.0  -0.0988
  C  C878  1  0.506800  0.140300  0.970500  1.0  -0.0941
  C  C879  1  0.135500  0.300800  0.985600  1.0  -0.0011
  C  C880  1  0.312800  0.627200  0.016300  1.0  -0.1101
  C  C881  1  0.278700  0.496500  0.013400  1.0  -0.0855
  C  C882  1  0.467800  0.248900  0.986700  1.0  -0.0618
  C  C883  1  0.214200  0.523500  0.939100  1.0  -0.099
  C  C884  1  0.576100  0.159100  0.954500  1.0  -0.0608
  C  C885  1  0.308800  0.654200  0.957900  1.0  0.018
  C  C886  1  0.323400  0.665900  0.932300  1.0  -0.0956
  C  C887  1  0.565800  0.118700  0.038650  1.0  -0.0929
  C  C888  1  0.589600  0.131400  0.017000  1.0  0.0218
  C  C889  1  0.158100  0.101900  0.033900  1.0  -0.0826
  C  C890  1  0.244300  0.447300  0.991500  1.0  -0.1187
  C  C891  1  0.193900  0.230600  0.037700  1.0  -0.1175
  C  C892  1  0.500600  0.282200  0.049400  1.0  -0.1263
  C  C893  1  0.466600  0.293800  0.011800  1.0  -0.161
  C  C894  1  0.106300  0.053600  0.975500  1.0  -0.1256
  C  C895  1  0.624800  0.158300  0.967000  1.0  -0.0824
  C  C896  1  0.368800  0.670900  0.942900  1.0  -0.1056
  C  C897  1  0.402400  0.662200  0.979700  1.0  -0.1309
  C  C898  1  0.104300  0.357600  0.970000  1.0  -0.1609
  C  C899  1  0.100100  0.408700  0.992400  1.0  -0.096
  C  C900  1  0.125300  0.405100  0.031400  1.0  -0.1623
  C  C901  1  0.212000  0.463100  0.954400  1.0  -0.1085
  C  C902  1  0.655800  0.143000  0.003600  1.0  -0.074
  C  C903  1  0.132300  0.045900  0.016100  1.0  -0.1534
  C  C904  1  0.565300  0.444600  0.781370  1.0  0.6672
  C  C905  1  0.701190  0.759200  0.777530  1.0  0.6663
  C  C906  1  0.724800  0.757000  0.961390  1.0  0.0034
  C  C907  1  0.692600  0.284100  0.924080  1.0  0.0214
  C  C908  1  0.796030  0.670500  0.780190  1.0  0.6826
  C  C909  1  0.816500  0.601300  0.799220  1.0  -0.1659
  C  C910  1  0.668000  0.324100  0.799780  1.0  -0.1547
  C  C911  1  0.787550  0.399800  0.781270  1.0  0.6737
  C  C912  1  0.969400  0.513100  0.962310  1.0  0.0303
  C  C913  1  0.719500  0.265900  0.961580  1.0  -0.0254
  C  C914  1  0.628670  0.367700  0.782280  1.0  0.0029
  C  C915  1  0.798060  0.536100  0.781540  1.0  0.0234
  C  C916  1  0.603730  0.389900  0.800230  1.0  -0.1698
  C  C917  1  0.620430  0.701700  0.832020  1.0  -0.0612
  C  C918  1  0.563760  0.630300  0.777140  1.0  0.6702
  C  C919  1  0.674100  0.300400  0.892170  1.0  -0.0672
  C  C920  1  0.001500  0.563700  0.984060  1.0  -0.0702
  C  C921  1  0.696940  0.304400  0.781240  1.0  0.6834
  C  C922  1  0.853000  0.601400  0.836270  1.0  -0.0308
  C  C923  1  0.849500  0.471600  0.835710  1.0  -0.0391
  C  C924  1  0.617700  0.365900  0.836290  1.0  -0.0642
  C  C925  1  0.604130  0.679400  0.795180  1.0  -0.1001
  C  C926  1  0.749200  0.076500  0.960700  1.0  0.0072
  C  C927  1  0.629500  0.704500  0.776950  1.0  0.035
  C  C928  1  0.935300  0.524800  0.923860  1.0  0.0551
  C  C929  1  0.683300  0.301300  0.836170  1.0  -0.0641
  C  C930  1  0.670800  0.743800  0.795690  1.0  -0.1601
  C  C931  1  0.700400  0.748000  0.981300  1.0  -0.055
  C  C932  1  0.813300  0.472700  0.799300  1.0  -0.1697
  C  C933  1  0.870100  0.535300  0.854070  1.0  0.0287
  C  C934  1  0.699400  0.760100  0.921430  1.0  -0.0372
  C  C935  1  0.751100  0.205600  0.973950  1.0  -0.0166
  C  C936  1  0.000500  0.694300  0.997000  1.0  0.0198
  C  C937  1  0.685900  0.764300  0.832300  1.0  -0.0554
  C  C938  1  0.906700  0.532400  0.892150  1.0  -0.0477
  C  C939  1  0.032300  0.682800  0.033400  1.0  0.0471
  C  C940  1  0.034300  0.726500  0.060200  1.0  -0.0769
  C  C941  1  0.779000  0.062700  0.997000  1.0  -0.0293
  C  C942  1  0.720500  0.307000  0.990870  1.0  0.0039
  C  C943  1  0.839000  0.144000  0.994100  1.0  0.09
  C  C944  1  0.968650  0.446600  0.979270  1.0  -0.0768
  C  C945  1  0.774600  0.758800  0.979930  1.0  -0.0395
  C  C946  1  0.138100  0.633200  0.028300  1.0  -0.0864
  C  C947  1  0.657100  0.321000  0.853930  1.0  0.0134
  C  C948  1  0.755800  0.152000  0.947110  1.0  -0.1055
  C  C949  1  0.638900  0.670400  0.979800  1.0  -0.0561
  C  C950  1  0.885000  0.147400  0.004900  1.0  -0.0499
  C  C951  1  0.663700  0.660100  0.018900  1.0  0.0068
  C  C952  1  0.608000  0.613400  0.956400  1.0  -0.146
  C  C953  1  0.654800  0.849300  0.046500  1.0  -0.0462
  C  C954  1  0.661800  0.743200  0.850910  1.0  0.0539
  C  C955  1  0.680000  0.756500  0.888860  1.0  0.0777
  C  C956  1  0.660800  0.794400  0.024300  1.0  -0.0228
  C  C957  1  0.058000  0.642900  0.978500  1.0  0.0101
  C  C958  1  0.646000  0.741900  0.965700  1.0  -0.0988
  C  C959  1  0.006800  0.640300  0.970500  1.0  -0.0941
  C  C960  1  0.635500  0.800800  0.985600  1.0  -0.0011
  C  C961  1  0.812800  0.127200  0.016300  1.0  -0.1101
  C  C962  1  0.778700  0.996500  0.013400  1.0  -0.0855
  C  C963  1  0.967800  0.748900  0.986700  1.0  -0.0618
  C  C964  1  0.714200  0.023500  0.939100  1.0  -0.099
  C  C965  1  0.076100  0.659100  0.954500  1.0  -0.0608
  C  C966  1  0.808800  0.154200  0.957900  1.0  0.018
  C  C967  1  0.823400  0.165900  0.932300  1.0  -0.0956
  C  C968  1  0.065800  0.618700  0.038650  1.0  -0.0929
  C  C969  1  0.089600  0.631400  0.017000  1.0  0.0218
  C  C970  1  0.658100  0.601900  0.033900  1.0  -0.0826
  C  C971  1  0.744300  0.947300  0.991500  1.0  -0.1187
  C  C972  1  0.693900  0.730600  0.037700  1.0  -0.1175
  C  C973  1  0.000600  0.782200  0.049400  1.0  -0.1263
  C  C974  1  0.966600  0.793800  0.011800  1.0  -0.161
  C  C975  1  0.606300  0.553600  0.975500  1.0  -0.1256
  C  C976  1  0.124800  0.658300  0.967000  1.0  -0.0824
  C  C977  1  0.868800  0.170900  0.942900  1.0  -0.1056
  C  C978  1  0.902400  0.162200  0.979700  1.0  -0.1309
  C  C979  1  0.604300  0.857600  0.970000  1.0  -0.1609
  C  C980  1  0.600100  0.908700  0.992400  1.0  -0.096
  C  C981  1  0.625300  0.905100  0.031400  1.0  -0.1623
  C  C982  1  0.712000  0.963100  0.954400  1.0  -0.1085
  C  C983  1  0.155800  0.643000  0.003600  1.0  -0.074
  C  C984  1  0.632300  0.545900  0.016100  1.0  -0.1534
  O  O985  1  0.261090  0.833500  0.248290  1.0  -0.5655
  O  O986  1  0.312780  0.770200  0.298220  1.0  -0.5782
  O  O987  1  0.233850  0.231700  0.299160  1.0  -0.5623
  O  O988  1  0.306350  0.153200  0.299370  1.0  -0.5477
  O  O989  1  0.045570  0.891000  0.296320  1.0  -0.5682
  O  O990  1  0.183100  0.168500  0.249770  1.0  -0.5749
  O  O991  1  0.256000  0.093300  0.248520  1.0  -0.5658
  O  O992  1  0.053960  0.035800  0.250450  1.0  -0.5668
  O  O993  1  0.042070  0.040200  0.299150  1.0  -0.5826
  O  O994  1  0.052200  0.887900  0.244520  1.0  -0.5665
  O  O995  1  0.236540  0.698400  0.295810  1.0  -0.5725
  O  O996  1  0.184480  0.760900  0.244710  1.0  -0.5568
  O  O997  1  0.761090  0.333500  0.248290  1.0  -0.5655
  O  O998  1  0.812780  0.270200  0.298220  1.0  -0.5782
  O  O999  1  0.733850  0.731700  0.299160  1.0  -0.5623
  O  O1000  1  0.806350  0.653200  0.299370  1.0  -0.5477
  O  O1001  1  0.545570  0.391000  0.296320  1.0  -0.5682
  O  O1002  1  0.683100  0.668500  0.249770  1.0  -0.5749
  O  O1003  1  0.756000  0.593300  0.248520  1.0  -0.5658
  O  O1004  1  0.553960  0.535800  0.250450  1.0  -0.5668
  O  O1005  1  0.542070  0.540200  0.299150  1.0  -0.5826
  O  O1006  1  0.552200  0.387900  0.244520  1.0  -0.5665
  O  O1007  1  0.736540  0.198400  0.295810  1.0  -0.5725
  O  O1008  1  0.684480  0.260900  0.244710  1.0  -0.5569
  O  O1009  1  0.738910  0.833500  0.251710  1.0  -0.5654
  O  O1010  1  0.687220  0.770200  0.201780  1.0  -0.5775
  O  O1011  1  0.766150  0.231700  0.200840  1.0  -0.5612
  O  O1012  1  0.693650  0.153200  0.200630  1.0  -0.5463
  O  O1013  1  0.954430  0.891000  0.203680  1.0  -0.5666
  O  O1014  1  0.816900  0.168500  0.250230  1.0  -0.5744
  O  O1015  1  0.744000  0.093300  0.251480  1.0  -0.5656
  O  O1016  1  0.946040  0.035800  0.249550  1.0  -0.5661
  O  O1017  1  0.957930  0.040200  0.200850  1.0  -0.5836
  O  O1018  1  0.947800  0.887900  0.255480  1.0  -0.5675
  O  O1019  1  0.763460  0.698400  0.204190  1.0  -0.5722
  O  O1020  1  0.815520  0.760900  0.255290  1.0  -0.5568
  O  O1021  1  0.238910  0.333500  0.251710  1.0  -0.5654
  O  O1022  1  0.187220  0.270200  0.201780  1.0  -0.5775
  O  O1023  1  0.266150  0.731700  0.200840  1.0  -0.5612
  O  O1024  1  0.193650  0.653200  0.200630  1.0  -0.5463
  O  O1025  1  0.454430  0.391000  0.203680  1.0  -0.5666
  O  O1026  1  0.316900  0.668500  0.250230  1.0  -0.5744
  O  O1027  1  0.244000  0.593300  0.251480  1.0  -0.5656
  O  O1028  1  0.446040  0.535800  0.249550  1.0  -0.5661
  O  O1029  1  0.457930  0.540200  0.200850  1.0  -0.5836
  O  O1030  1  0.447800  0.387900  0.255480  1.0  -0.5675
  O  O1031  1  0.263460  0.198400  0.204190  1.0  -0.5722
  O  O1032  1  0.315520  0.260900  0.255290  1.0  -0.5568
  O  O1033  1  0.738910  0.166500  0.751710  1.0  -0.5662
  O  O1034  1  0.687220  0.229800  0.701780  1.0  -0.5785
  O  O1035  1  0.766150  0.768300  0.700840  1.0  -0.5619
  O  O1036  1  0.693650  0.846800  0.700630  1.0  -0.5464
  O  O1037  1  0.954430  0.109000  0.703680  1.0  -0.567
  O  O1038  1  0.816900  0.831500  0.750230  1.0  -0.5748
  O  O1039  1  0.744000  0.906700  0.751480  1.0  -0.5656
  O  O1040  1  0.946040  0.964200  0.749550  1.0  -0.5656
  O  O1041  1  0.957930  0.959800  0.700850  1.0  -0.5834
  O  O1042  1  0.947800  0.112100  0.755480  1.0  -0.5679
  O  O1043  1  0.763460  0.301600  0.704190  1.0  -0.5725
  O  O1044  1  0.815520  0.239100  0.755290  1.0  -0.5573
  O  O1045  1  0.238910  0.666500  0.751710  1.0  -0.5662
  O  O1046  1  0.187220  0.729800  0.701780  1.0  -0.5785
  O  O1047  1  0.266150  0.268300  0.700840  1.0  -0.5619
  O  O1048  1  0.193650  0.346800  0.700630  1.0  -0.5464
  O  O1049  1  0.454430  0.609000  0.703680  1.0  -0.567
  O  O1050  1  0.316900  0.331500  0.750230  1.0  -0.5748
  O  O1051  1  0.244000  0.406700  0.751480  1.0  -0.5656
  O  O1052  1  0.446040  0.464200  0.749550  1.0  -0.5656
  O  O1053  1  0.457930  0.459800  0.700850  1.0  -0.5834
  O  O1054  1  0.447800  0.612100  0.755480  1.0  -0.5679
  O  O1055  1  0.263460  0.801600  0.704190  1.0  -0.5725
  O  O1056  1  0.315520  0.739100  0.755290  1.0  -0.5573
  O  O1057  1  0.261090  0.166500  0.748290  1.0  -0.5661
  O  O1058  1  0.312780  0.229800  0.798220  1.0  -0.5771
  O  O1059  1  0.233850  0.768300  0.799160  1.0  -0.5628
  O  O1060  1  0.306350  0.846800  0.799370  1.0  -0.5474
  O  O1061  1  0.045570  0.109000  0.796320  1.0  -0.5678
  O  O1062  1  0.183100  0.831500  0.749770  1.0  -0.5745
  O  O1063  1  0.256000  0.906700  0.748520  1.0  -0.5657
  O  O1064  1  0.053960  0.964200  0.750450  1.0  -0.5669
  O  O1065  1  0.042070  0.959800  0.799150  1.0  -0.5824
  O  O1066  1  0.052200  0.112100  0.744520  1.0  -0.5668
  O  O1067  1  0.236540  0.301600  0.795810  1.0  -0.5723
  O  O1068  1  0.184480  0.239100  0.744710  1.0  -0.5577
  O  O1069  1  0.761090  0.666500  0.748290  1.0  -0.5661
  O  O1070  1  0.812780  0.729800  0.798220  1.0  -0.5771
  O  O1071  1  0.733850  0.268300  0.799160  1.0  -0.5628
  O  O1072  1  0.806350  0.346800  0.799370  1.0  -0.5475
  O  O1073  1  0.545570  0.609000  0.796320  1.0  -0.5678
  O  O1074  1  0.683100  0.331500  0.749770  1.0  -0.5745
  O  O1075  1  0.756000  0.406700  0.748520  1.0  -0.5657
  O  O1076  1  0.553960  0.464200  0.750450  1.0  -0.5669
  O  O1077  1  0.542070  0.459800  0.799150  1.0  -0.5824
  O  O1078  1  0.552200  0.612100  0.744520  1.0  -0.5668
  O  O1079  1  0.736540  0.801600  0.795810  1.0  -0.5723
  O  O1080  1  0.684480  0.739100  0.744710  1.0  -0.5577
