# generated using pymatgen
data_ZnH12C19N5O4
_symmetry_space_group_name_H-M   'P 1'
_cell_length_a   31.40770000
_cell_length_b   31.40770000
_cell_length_c   15.09450000
_cell_angle_alpha   90.00000000
_cell_angle_beta   90.00000000
_cell_angle_gamma   120.00000000
_symmetry_Int_Tables_number   1
_chemical_formula_structural   ZnH12C19N5O4
_chemical_formula_sum   'Zn18 H216 C342 N90 O72'
_cell_volume   12895.00846018
_cell_formula_units_Z   18
loop_
 _symmetry_equiv_pos_site_id
 _symmetry_equiv_pos_as_xyz
  1  'x, y, z'
loop_
 _atom_site_type_symbol
 _atom_site_label
 _atom_site_symmetry_multiplicity
 _atom_site_fract_x
 _atom_site_fract_y
 _atom_site_fract_z
 _atom_site_occupancy
 _atom_site_charge
  Zn  Zn1  1  0.060990  0.730730  0.486880  1.0  0.9607
  Zn  Zn2  1  0.727660  0.064060  0.820210  1.0  0.9605
  Zn  Zn3  1  0.394320  0.397400  0.153550  1.0  0.9607
  Zn  Zn4  1  0.269270  0.330260  0.486880  1.0  0.9612
  Zn  Zn5  1  0.935940  0.663590  0.820210  1.0  0.9612
  Zn  Zn6  1  0.602600  0.996930  0.153550  1.0  0.9612
  Zn  Zn7  1  0.669740  0.939010  0.486880  1.0  0.9609
  Zn  Zn8  1  0.336410  0.272340  0.820210  1.0  0.9609
  Zn  Zn9  1  0.003070  0.605680  0.153550  1.0  0.9609
  Zn  Zn10  1  0.939010  0.269270  0.513120  1.0  0.9615
  Zn  Zn11  1  0.605680  0.602600  0.846450  1.0  0.9615
  Zn  Zn12  1  0.272340  0.935940  0.179790  1.0  0.9613
  Zn  Zn13  1  0.730730  0.669740  0.513120  1.0  0.9612
  Zn  Zn14  1  0.397400  0.003070  0.846450  1.0  0.9612
  Zn  Zn15  1  0.064060  0.336410  0.179790  1.0  0.9612
  Zn  Zn16  1  0.330260  0.060990  0.513120  1.0  0.961
  Zn  Zn17  1  0.996930  0.394320  0.846450  1.0  0.961
  Zn  Zn18  1  0.663590  0.727660  0.179790  1.0  0.961
  H  H19  1  0.146000  0.657200  0.487000  1.0  0.1135
  H  H20  1  0.204400  0.633900  0.490600  1.0  0.1099
  H  H21  1  0.295900  0.757500  0.622700  1.0  0.1025
  H  H22  1  0.236800  0.780400  0.621100  1.0  0.1135
  H  H23  1  0.355200  0.749000  0.551000  1.0  0.108
  H  H24  1  0.112000  0.899100  0.330600  1.0  0.1011
  H  H25  1  0.088100  0.956000  0.308000  1.0  0.0836
  H  H26  1  0.971400  0.880200  0.465800  1.0  0.0973
  H  H27  1  0.996500  0.823700  0.492600  1.0  0.106
  H  H28  1  0.939100  0.917900  0.373400  1.0  0.1067
  H  H29  1  0.094200  0.659900  0.275900  1.0  0.3531
  H  H30  1  0.107400  0.688900  0.359600  1.0  0.3525
  H  H31  1  0.812670  0.990530  0.820330  1.0  0.1135
  H  H32  1  0.871070  0.967230  0.823930  1.0  0.1099
  H  H33  1  0.962570  0.090830  0.956030  1.0  0.1025
  H  H34  1  0.903470  0.113730  0.954430  1.0  0.1135
  H  H35  1  0.021870  0.082330  0.884330  1.0  0.108
  H  H36  1  0.778670  0.232430  0.663930  1.0  0.1011
  H  H37  1  0.754770  0.289330  0.641330  1.0  0.0836
  H  H38  1  0.638070  0.213530  0.799130  1.0  0.097
  H  H39  1  0.663170  0.157030  0.825930  1.0  0.1056
  H  H40  1  0.605770  0.251230  0.706730  1.0  0.1067
  H  H41  1  0.760870  0.993230  0.609230  1.0  0.3531
  H  H42  1  0.774070  0.022230  0.692930  1.0  0.3525
  H  H43  1  0.479330  0.323870  0.153670  1.0  0.1135
  H  H44  1  0.537730  0.300570  0.157270  1.0  0.1099
  H  H45  1  0.629230  0.424170  0.289370  1.0  0.1025
  H  H46  1  0.570130  0.447070  0.287770  1.0  0.1135
  H  H47  1  0.688530  0.415670  0.217670  1.0  0.108
  H  H48  1  0.445330  0.565770  0.997270  1.0  0.1011
  H  H49  1  0.421430  0.622670  0.974670  1.0  0.0836
  H  H50  1  0.304730  0.546870  0.132470  1.0  0.0971
  H  H51  1  0.329830  0.490370  0.159270  1.0  0.1056
  H  H52  1  0.272430  0.584570  0.040070  1.0  0.1068
  H  H53  1  0.427530  0.326570  0.942570  1.0  0.3531
  H  H54  1  0.440730  0.355570  0.026270  1.0  0.3525
  H  H55  1  0.342800  0.488800  0.487000  1.0  0.1141
  H  H56  1  0.366100  0.570500  0.490600  1.0  0.1107
  H  H57  1  0.242500  0.538400  0.622700  1.0  0.1038
  H  H58  1  0.219600  0.456400  0.621100  1.0  0.1136
  H  H59  1  0.251000  0.606200  0.551000  1.0  0.1063
  H  H60  1  0.100900  0.212900  0.330600  1.0  0.1023
  H  H61  1  0.044000  0.132100  0.308000  1.0  0.0833
  H  H62  1  0.119800  0.091200  0.465800  1.0  0.0975
  H  H63  1  0.176300  0.172800  0.492600  1.0  0.1063
  H  H64  1  0.082100  0.021200  0.373400  1.0  0.1073
  H  H65  1  0.340100  0.434300  0.275900  1.0  0.353
  H  H66  1  0.311100  0.418500  0.359600  1.0  0.3517
  H  H67  1  0.009470  0.822130  0.820330  1.0  0.1141
  H  H68  1  0.032770  0.903830  0.823930  1.0  0.1107
  H  H69  1  0.909170  0.871730  0.956030  1.0  0.1039
  H  H70  1  0.886270  0.789730  0.954430  1.0  0.1136
  H  H71  1  0.917670  0.939530  0.884330  1.0  0.1063
  H  H72  1  0.767570  0.546230  0.663930  1.0  0.1023
  H  H73  1  0.710670  0.465430  0.641330  1.0  0.0833
  H  H74  1  0.786470  0.424530  0.799130  1.0  0.0975
  H  H75  1  0.842970  0.506130  0.825930  1.0  0.1063
  H  H76  1  0.748770  0.354530  0.706730  1.0  0.1073
  H  H77  1  0.006770  0.767630  0.609230  1.0  0.353
  H  H78  1  0.977770  0.751830  0.692930  1.0  0.3517
  H  H79  1  0.676130  0.155470  0.153670  1.0  0.1141
  H  H80  1  0.699430  0.237170  0.157270  1.0  0.1107
  H  H81  1  0.575830  0.205070  0.289370  1.0  0.1038
  H  H82  1  0.552930  0.123070  0.287770  1.0  0.1136
  H  H83  1  0.584330  0.272870  0.217670  1.0  0.1063
  H  H84  1  0.434230  0.879570  0.997270  1.0  0.1023
  H  H85  1  0.377330  0.798770  0.974670  1.0  0.0833
  H  H86  1  0.453130  0.757870  0.132470  1.0  0.0975
  H  H87  1  0.509630  0.839470  0.159270  1.0  0.1063
  H  H88  1  0.415430  0.687870  0.040070  1.0  0.1072
  H  H89  1  0.673430  0.100970  0.942570  1.0  0.3529
  H  H90  1  0.644430  0.085170  0.026270  1.0  0.3521
  H  H91  1  0.511200  0.854000  0.487000  1.0  0.1147
  H  H92  1  0.429500  0.795600  0.490600  1.0  0.1115
  H  H93  1  0.461600  0.704100  0.622700  1.0  0.1029
  H  H94  1  0.543600  0.763200  0.621100  1.0  0.1133
  H  H95  1  0.393800  0.644800  0.551000  1.0  0.1084
  H  H96  1  0.787100  0.888000  0.330600  1.0  0.1012
  H  H97  1  0.867900  0.911900  0.308000  1.0  0.0827
  H  H98  1  0.908800  0.028600  0.465800  1.0  0.0972
  H  H99  1  0.827200  0.003500  0.492600  1.0  0.1058
  H  H100  1  0.978800  0.060900  0.373400  1.0  0.1058
  H  H101  1  0.565700  0.905800  0.275900  1.0  0.3528
  H  H102  1  0.581500  0.892600  0.359600  1.0  0.3527
  H  H103  1  0.177870  0.187330  0.820330  1.0  0.1147
  H  H104  1  0.096170  0.128930  0.823930  1.0  0.1115
  H  H105  1  0.128270  0.037430  0.956030  1.0  0.1029
  H  H106  1  0.210270  0.096530  0.954430  1.0  0.1133
  H  H107  1  0.060470  0.978130  0.884330  1.0  0.1083
  H  H108  1  0.453770  0.221330  0.663930  1.0  0.1012
  H  H109  1  0.534570  0.245230  0.641330  1.0  0.0827
  H  H110  1  0.575470  0.361930  0.799130  1.0  0.0968
  H  H111  1  0.493870  0.336830  0.825930  1.0  0.1051
  H  H112  1  0.645470  0.394230  0.706730  1.0  0.1058
  H  H113  1  0.232370  0.239130  0.609230  1.0  0.3528
  H  H114  1  0.248170  0.225930  0.692930  1.0  0.3527
  H  H115  1  0.844530  0.520670  0.153670  1.0  0.1147
  H  H116  1  0.762830  0.462270  0.157270  1.0  0.1115
  H  H117  1  0.794930  0.370770  0.289370  1.0  0.1029
  H  H118  1  0.876930  0.429870  0.287770  1.0  0.1133
  H  H119  1  0.727130  0.311470  0.217670  1.0  0.1083
  H  H120  1  0.120430  0.554670  0.997270  1.0  0.1012
  H  H121  1  0.201230  0.578570  0.974670  1.0  0.0826
  H  H122  1  0.242130  0.695270  0.132470  1.0  0.097
  H  H123  1  0.160530  0.670170  0.159270  1.0  0.1051
  H  H124  1  0.312130  0.727570  0.040070  1.0  0.1058
  H  H125  1  0.899030  0.572470  0.942570  1.0  0.3528
  H  H126  1  0.914830  0.559270  0.026270  1.0  0.3526
  H  H127  1  0.854000  0.342800  0.513000  1.0  0.1137
  H  H128  1  0.795600  0.366100  0.509400  1.0  0.1091
  H  H129  1  0.704100  0.242500  0.377300  1.0  0.1014
  H  H130  1  0.763200  0.219600  0.378900  1.0  0.1138
  H  H131  1  0.644800  0.251000  0.449000  1.0  0.1083
  H  H132  1  0.888000  0.100900  0.669400  1.0  0.1011
  H  H133  1  0.911900  0.044000  0.692000  1.0  0.0839
  H  H134  1  0.028600  0.119800  0.534200  1.0  0.0981
  H  H135  1  0.003500  0.176300  0.507400  1.0  0.1062
  H  H136  1  0.060900  0.082100  0.626600  1.0  0.1065
  H  H137  1  0.905800  0.340100  0.724100  1.0  0.3542
  H  H138  1  0.892600  0.311100  0.640400  1.0  0.3526
  H  H139  1  0.520670  0.676130  0.846330  1.0  0.1137
  H  H140  1  0.462270  0.699430  0.842730  1.0  0.1091
  H  H141  1  0.370770  0.575830  0.710630  1.0  0.1014
  H  H142  1  0.429870  0.552930  0.712230  1.0  0.1138
  H  H143  1  0.311470  0.584330  0.782330  1.0  0.1083
  H  H144  1  0.554670  0.434230  0.002730  1.0  0.1011
  H  H145  1  0.578570  0.377330  0.025330  1.0  0.0839
  H  H146  1  0.695270  0.453130  0.867530  1.0  0.0977
  H  H147  1  0.670170  0.509630  0.840730  1.0  0.1058
  H  H148  1  0.727570  0.415430  0.959930  1.0  0.1066
  H  H149  1  0.572470  0.673430  0.057430  1.0  0.3542
  H  H150  1  0.559270  0.644430  0.973730  1.0  0.3526
  H  H151  1  0.187330  0.009470  0.179670  1.0  0.1137
  H  H152  1  0.128930  0.032770  0.176070  1.0  0.1091
  H  H153  1  0.037430  0.909170  0.043970  1.0  0.1014
  H  H154  1  0.096530  0.886270  0.045570  1.0  0.1138
  H  H155  1  0.978130  0.917670  0.115670  1.0  0.1083
  H  H156  1  0.221330  0.767570  0.336070  1.0  0.1011
  H  H157  1  0.245230  0.710670  0.358670  1.0  0.0839
  H  H158  1  0.361930  0.786470  0.200870  1.0  0.0976
  H  H159  1  0.336830  0.842970  0.174070  1.0  0.1058
  H  H160  1  0.394230  0.748770  0.293270  1.0  0.1065
  H  H161  1  0.239130  0.006770  0.390770  1.0  0.3542
  H  H162  1  0.225930  0.977770  0.307070  1.0  0.3526
  H  H163  1  0.657200  0.511200  0.513000  1.0  0.1142
  H  H164  1  0.633900  0.429500  0.509400  1.0  0.1132
  H  H165  1  0.757500  0.461600  0.377300  1.0  0.1032
  H  H166  1  0.780400  0.543600  0.378900  1.0  0.1136
  H  H167  1  0.749000  0.393800  0.449000  1.0  0.107
  H  H168  1  0.899100  0.787100  0.669400  1.0  0.1022
  H  H169  1  0.956000  0.867900  0.692000  1.0  0.084
  H  H170  1  0.880200  0.908800  0.534200  1.0  0.0972
  H  H171  1  0.823700  0.827200  0.507400  1.0  0.1064
  H  H172  1  0.917900  0.978800  0.626600  1.0  0.1073
  H  H173  1  0.659900  0.565700  0.724100  1.0  0.3532
  H  H174  1  0.688900  0.581500  0.640400  1.0  0.3509
  H  H175  1  0.323870  0.844530  0.846330  1.0  0.1142
  H  H176  1  0.300570  0.762830  0.842730  1.0  0.1132
  H  H177  1  0.424170  0.794930  0.710630  1.0  0.1032
  H  H178  1  0.447070  0.876930  0.712230  1.0  0.1136
  H  H179  1  0.415670  0.727130  0.782330  1.0  0.107
  H  H180  1  0.565770  0.120430  0.002730  1.0  0.1022
  H  H181  1  0.622670  0.201230  0.025330  1.0  0.084
  H  H182  1  0.546870  0.242130  0.867530  1.0  0.0972
  H  H183  1  0.490370  0.160530  0.840730  1.0  0.1064
  H  H184  1  0.584570  0.312130  0.959930  1.0  0.1072
  H  H185  1  0.326570  0.899030  0.057430  1.0  0.3531
  H  H186  1  0.355570  0.914830  0.973730  1.0  0.351
  H  H187  1  0.990530  0.177870  0.179670  1.0  0.1142
  H  H188  1  0.967230  0.096170  0.176070  1.0  0.1132
  H  H189  1  0.090830  0.128270  0.043970  1.0  0.1032
  H  H190  1  0.113730  0.210270  0.045570  1.0  0.1136
  H  H191  1  0.082330  0.060470  0.115670  1.0  0.1071
  H  H192  1  0.232430  0.453770  0.336070  1.0  0.1022
  H  H193  1  0.289330  0.534570  0.358670  1.0  0.084
  H  H194  1  0.213530  0.575470  0.200870  1.0  0.0972
  H  H195  1  0.157030  0.493870  0.174070  1.0  0.1064
  H  H196  1  0.251230  0.645470  0.293270  1.0  0.1073
  H  H197  1  0.993230  0.232370  0.390770  1.0  0.3532
  H  H198  1  0.022230  0.248170  0.307070  1.0  0.3509
  H  H199  1  0.488800  0.146000  0.513000  1.0  0.1137
  H  H200  1  0.570500  0.204400  0.509400  1.0  0.112
  H  H201  1  0.538400  0.295900  0.377300  1.0  0.103
  H  H202  1  0.456400  0.236800  0.378900  1.0  0.1137
  H  H203  1  0.606200  0.355200  0.449000  1.0  0.1084
  H  H204  1  0.212900  0.112000  0.669400  1.0  0.1015
  H  H205  1  0.132100  0.088100  0.692000  1.0  0.0831
  H  H206  1  0.091200  0.971400  0.534200  1.0  0.0976
  H  H207  1  0.172800  0.996500  0.507400  1.0  0.1059
  H  H208  1  0.021200  0.939100  0.626600  1.0  0.1062
  H  H209  1  0.434300  0.094200  0.724100  1.0  0.3516
  H  H210  1  0.418500  0.107400  0.640400  1.0  0.3522
  H  H211  1  0.155470  0.479330  0.846330  1.0  0.1137
  H  H212  1  0.237170  0.537730  0.842730  1.0  0.112
  H  H213  1  0.205070  0.629230  0.710630  1.0  0.103
  H  H214  1  0.123070  0.570130  0.712230  1.0  0.1137
  H  H215  1  0.272870  0.688530  0.782330  1.0  0.1084
  H  H216  1  0.879570  0.445330  0.002730  1.0  0.1016
  H  H217  1  0.798770  0.421430  0.025330  1.0  0.0831
  H  H218  1  0.757870  0.304730  0.867530  1.0  0.0973
  H  H219  1  0.839470  0.329830  0.840730  1.0  0.1051
  H  H220  1  0.687870  0.272430  0.959930  1.0  0.1062
  H  H221  1  0.100970  0.427530  0.057430  1.0  0.3516
  H  H222  1  0.085170  0.440730  0.973730  1.0  0.3521
  H  H223  1  0.822130  0.812670  0.179670  1.0  0.1137
  H  H224  1  0.903830  0.871070  0.176070  1.0  0.112
  H  H225  1  0.871730  0.962570  0.043970  1.0  0.103
  H  H226  1  0.789730  0.903470  0.045570  1.0  0.1137
  H  H227  1  0.939530  0.021870  0.115670  1.0  0.1084
  H  H228  1  0.546230  0.778670  0.336070  1.0  0.1015
  H  H229  1  0.465430  0.754770  0.358670  1.0  0.0831
  H  H230  1  0.424530  0.638070  0.200870  1.0  0.0972
  H  H231  1  0.506130  0.663170  0.174070  1.0  0.1052
  H  H232  1  0.354530  0.605770  0.293270  1.0  0.1062
  H  H233  1  0.767630  0.760870  0.390770  1.0  0.3516
  H  H234  1  0.751830  0.774070  0.307070  1.0  0.3522
  C  C235  1  0.148770  0.739310  0.545400  1.0  0.7048
  C  C236  1  0.186140  0.722380  0.550900  1.0  -0.1223
  C  C237  1  0.176350  0.677610  0.513300  1.0  -0.076
  C  C238  1  0.211520  0.663870  0.515300  1.0  -0.0692
  C  C239  1  0.258170  0.694050  0.553900  1.0  0.0641
  C  C240  1  0.266100  0.737490  0.594400  1.0  -0.1233
  C  C241  1  0.230700  0.751470  0.593300  1.0  -0.0695
  C  C242  1  0.296560  0.679810  0.552000  1.0  0.0261
  C  C243  1  0.346460  0.716040  0.551600  1.0  -0.1134
  C  C244  1  0.074700  0.819300  0.433400  1.0  0.6791
  C  C245  1  0.057950  0.855850  0.416700  1.0  -0.1049
  C  C246  1  0.084230  0.895550  0.359300  1.0  -0.0593
  C  C247  1  0.069500  0.929300  0.344900  1.0  -0.1028
  C  C248  1  0.027070  0.924560  0.384100  1.0  0.0441
  C  C249  1  0.000020  0.884350  0.439300  1.0  -0.1105
  C  C250  1  0.015070  0.850320  0.455600  1.0  -0.048
  C  C251  1  0.013070  0.963250  0.374500  1.0  -0.0196
  C  C252  1  0.963480  0.950840  0.374000  1.0  -0.0961
  C  C253  1  0.042520  0.670700  0.318000  1.0  0.5151
  C  C254  1  0.815440  0.072640  0.878730  1.0  0.7048
  C  C255  1  0.852810  0.055710  0.884230  1.0  -0.1225
  C  C256  1  0.843020  0.010940  0.846630  1.0  -0.076
  C  C257  1  0.878190  0.997200  0.848630  1.0  -0.0692
  C  C258  1  0.924840  0.027380  0.887230  1.0  0.0641
  C  C259  1  0.932770  0.070820  0.927730  1.0  -0.1234
  C  C260  1  0.897370  0.084800  0.926630  1.0  -0.0695
  C  C261  1  0.963230  0.013140  0.885330  1.0  0.0258
  C  C262  1  0.013130  0.049370  0.884930  1.0  -0.1147
  C  C263  1  0.741370  0.152630  0.766730  1.0  0.6792
  C  C264  1  0.724620  0.189180  0.750030  1.0  -0.1048
  C  C265  1  0.750900  0.228880  0.692630  1.0  -0.0591
  C  C266  1  0.736170  0.262630  0.678230  1.0  -0.1026
  C  C267  1  0.693740  0.257890  0.717430  1.0  0.0445
  C  C268  1  0.666667  0.217680  0.772630  1.0  -0.1091
  C  C269  1  0.681740  0.183650  0.788930  1.0  -0.0388
  C  C270  1  0.679740  0.296580  0.707830  1.0  -0.0196
  C  C271  1  0.630150  0.284170  0.707330  1.0  -0.0961
  C  C272  1  0.709190  0.004030  0.651330  1.0  0.5151
  C  C273  1  0.482100  0.405980  0.212070  1.0  0.7048
  C  C274  1  0.519470  0.389050  0.217570  1.0  -0.1223
  C  C275  1  0.509680  0.344280  0.179970  1.0  -0.0761
  C  C276  1  0.544850  0.330540  0.181970  1.0  -0.0691
  C  C277  1  0.591500  0.360720  0.220570  1.0  0.0641
  C  C278  1  0.599430  0.404160  0.261070  1.0  -0.1233
  C  C279  1  0.564030  0.418140  0.259970  1.0  -0.0695
  C  C280  1  0.629890  0.346480  0.218670  1.0  0.0261
  C  C281  1  0.679790  0.382710  0.218270  1.0  -0.1107
  C  C282  1  0.408030  0.485970  0.100070  1.0  0.6791
  C  C283  1  0.391280  0.522520  0.083370  1.0  -0.1049
  C  C284  1  0.417560  0.562220  0.025970  1.0  -0.059
  C  C285  1  0.402830  0.595970  0.011570  1.0  -0.1026
  C  C286  1  0.360400  0.591230  0.050770  1.0  0.0445
  C  C287  1  0.333333  0.551020  0.105970  1.0  -0.1099
  C  C288  1  0.348400  0.516990  0.122270  1.0  -0.048
  C  C289  1  0.346400  0.629920  0.041170  1.0  -0.0196
  C  C290  1  0.296810  0.617510  0.040670  1.0  -0.0982
  C  C291  1  0.375850  0.337370  0.984670  1.0  0.5151
  C  C292  1  0.260690  0.409460  0.545400  1.0  0.7047
  C  C293  1  0.277620  0.463760  0.550900  1.0  -0.1174
  C  C294  1  0.322390  0.498740  0.513300  1.0  -0.0715
  C  C295  1  0.336130  0.547650  0.515300  1.0  -0.0667
  C  C296  1  0.305950  0.564120  0.553900  1.0  0.0639
  C  C297  1  0.262510  0.528610  0.594400  1.0  -0.1226
  C  C298  1  0.248530  0.479230  0.593300  1.0  -0.0663
  C  C299  1  0.320190  0.616750  0.552000  1.0  0.0283
  C  C300  1  0.283960  0.630420  0.551600  1.0  -0.1109
  C  C301  1  0.180700  0.255400  0.433400  1.0  0.6775
  C  C302  1  0.144150  0.202100  0.416700  1.0  -0.1026
  C  C303  1  0.104450  0.188680  0.359300  1.0  -0.0579
  C  C304  1  0.070700  0.140200  0.344900  1.0  -0.102
  C  C305  1  0.075440  0.102510  0.384100  1.0  0.0445
  C  C306  1  0.115650  0.115670  0.439300  1.0  -0.1098
  C  C307  1  0.149680  0.164750  0.455600  1.0  -0.0445
  C  C308  1  0.036750  0.049820  0.374500  1.0  -0.0197
  C  C309  1  0.049160  0.012640  0.374000  1.0  -0.0975
  C  C310  1  0.329300  0.371820  0.318000  1.0  0.5148
  C  C311  1  0.927360  0.742790  0.878730  1.0  0.7047
  C  C312  1  0.944290  0.797090  0.884230  1.0  -0.1176
  C  C313  1  0.989060  0.832070  0.846630  1.0  -0.0715
  C  C314  1  0.002800  0.880980  0.848630  1.0  -0.0667
  C  C315  1  0.972620  0.897450  0.887230  1.0  0.0639
  C  C316  1  0.929180  0.861940  0.927730  1.0  -0.1226
  C  C317  1  0.915200  0.812560  0.926630  1.0  -0.0662
  C  C318  1  0.986860  0.950080  0.885330  1.0  0.0287
  C  C319  1  0.950630  0.963750  0.884930  1.0  -0.1108
  C  C320  1  0.847370  0.588730  0.766730  1.0  0.6775
  C  C321  1  0.810820  0.535430  0.750030  1.0  -0.1026
  C  C322  1  0.771120  0.522010  0.692630  1.0  -0.0579
  C  C323  1  0.737370  0.473530  0.678230  1.0  -0.102
  C  C324  1  0.742110  0.435840  0.717430  1.0  0.0445
  C  C325  1  0.782320  0.449000  0.772630  1.0  -0.1098
  C  C326  1  0.816350  0.498080  0.788930  1.0  -0.0445
  C  C327  1  0.703420  0.383150  0.707830  1.0  -0.0197
  C  C328  1  0.715830  0.345970  0.707330  1.0  -0.0975
  C  C329  1  0.995970  0.705150  0.651330  1.0  0.5148
  C  C330  1  0.594020  0.076130  0.212070  1.0  0.7047
  C  C331  1  0.610950  0.130430  0.217570  1.0  -0.1174
  C  C332  1  0.655720  0.165410  0.179970  1.0  -0.0714
  C  C333  1  0.669460  0.214320  0.181970  1.0  -0.0667
  C  C334  1  0.639280  0.230790  0.220570  1.0  0.0639
  C  C335  1  0.595840  0.195280  0.261070  1.0  -0.1226
  C  C336  1  0.581860  0.145900  0.259970  1.0  -0.0663
  C  C337  1  0.653520  0.283420  0.218670  1.0  0.0283
  C  C338  1  0.617290  0.297090  0.218270  1.0  -0.1127
  C  C339  1  0.514030  0.922070  0.100070  1.0  0.6775
  C  C340  1  0.477480  0.868770  0.083370  1.0  -0.1026
  C  C341  1  0.437780  0.855350  0.025970  1.0  -0.0578
  C  C342  1  0.404030  0.806870  0.011570  1.0  -0.102
  C  C343  1  0.408770  0.769180  0.050770  1.0  0.0445
  C  C344  1  0.448980  0.782340  0.105970  1.0  -0.1098
  C  C345  1  0.483010  0.831420  0.122270  1.0  -0.0444
  C  C346  1  0.370080  0.716490  0.041170  1.0  -0.0197
  C  C347  1  0.382490  0.679310  0.040670  1.0  -0.0973
  C  C348  1  0.662630  0.038490  0.984670  1.0  0.5148
  C  C349  1  0.590540  0.851230  0.545400  1.0  0.7065
  C  C350  1  0.536240  0.813860  0.550900  1.0  -0.1214
  C  C351  1  0.501260  0.823650  0.513300  1.0  -0.0758
  C  C352  1  0.452350  0.788480  0.515300  1.0  -0.0712
  C  C353  1  0.435880  0.741830  0.553900  1.0  0.0639
  C  C354  1  0.471390  0.733900  0.594400  1.0  -0.1218
  C  C355  1  0.520770  0.769300  0.593300  1.0  -0.0619
  C  C356  1  0.383250  0.703440  0.552000  1.0  0.0266
  C  C357  1  0.369580  0.653540  0.551600  1.0  -0.111
  C  C358  1  0.744600  0.925300  0.433400  1.0  0.6787
  C  C359  1  0.797900  0.942050  0.416700  1.0  -0.1026
  C  C360  1  0.811320  0.915770  0.359300  1.0  -0.0555
  C  C361  1  0.859800  0.930500  0.344900  1.0  -0.1023
  C  C362  1  0.897490  0.972930  0.384100  1.0  0.0432
  C  C363  1  0.884330  0.999980  0.439300  1.0  -0.1093
  C  C364  1  0.835250  0.984930  0.455600  1.0  -0.042
  C  C365  1  0.950180  0.986930  0.374500  1.0  -0.0205
  C  C366  1  0.987360  0.036520  0.374000  1.0  -0.097
  C  C367  1  0.628180  0.957480  0.318000  1.0  0.5155
  C  C368  1  0.257210  0.184560  0.878730  1.0  0.7065
  C  C369  1  0.202910  0.147190  0.884230  1.0  -0.1215
  C  C370  1  0.167930  0.156980  0.846630  1.0  -0.0758
  C  C371  1  0.119020  0.121810  0.848630  1.0  -0.0711
  C  C372  1  0.102550  0.075160  0.887230  1.0  0.0639
  C  C373  1  0.138060  0.067230  0.927730  1.0  -0.1218
  C  C374  1  0.187440  0.102630  0.926630  1.0  -0.0617
  C  C375  1  0.049920  0.036770  0.885330  1.0  0.0268
  C  C376  1  0.036250  0.986870  0.884930  1.0  -0.1117
  C  C377  1  0.411270  0.258630  0.766730  1.0  0.6787
  C  C378  1  0.464570  0.275380  0.750030  1.0  -0.1026
  C  C379  1  0.477990  0.249100  0.692630  1.0  -0.0553
  C  C380  1  0.526470  0.263830  0.678230  1.0  -0.1021
  C  C381  1  0.564160  0.306260  0.717430  1.0  0.0432
  C  C382  1  0.551000  0.333333  0.772630  1.0  -0.1081
  C  C383  1  0.501920  0.318260  0.788930  1.0  -0.0329
  C  C384  1  0.616850  0.320260  0.707830  1.0  -0.0205
  C  C385  1  0.654030  0.369850  0.707330  1.0  -0.097
  C  C386  1  0.294850  0.290810  0.651330  1.0  0.5155
  C  C387  1  0.923870  0.517900  0.212070  1.0  0.7065
  C  C388  1  0.869570  0.480530  0.217570  1.0  -0.1214
  C  C389  1  0.834590  0.490320  0.179970  1.0  -0.0759
  C  C390  1  0.785680  0.455150  0.181970  1.0  -0.0711
  C  C391  1  0.769210  0.408500  0.220570  1.0  0.0639
  C  C392  1  0.804720  0.400570  0.261070  1.0  -0.1218
  C  C393  1  0.854100  0.435970  0.259970  1.0  -0.0619
  C  C394  1  0.716580  0.370110  0.218670  1.0  0.0265
  C  C395  1  0.702910  0.320210  0.218270  1.0  -0.1136
  C  C396  1  0.077930  0.591970  0.100070  1.0  0.6786
  C  C397  1  0.131230  0.608720  0.083370  1.0  -0.1013
  C  C398  1  0.144650  0.582440  0.025970  1.0  -0.0556
  C  C399  1  0.193130  0.597170  0.011570  1.0  -0.1021
  C  C400  1  0.230820  0.639600  0.050770  1.0  0.0432
  C  C401  1  0.217660  0.666667  0.105970  1.0  -0.1075
  C  C402  1  0.168580  0.651600  0.122270  1.0  -0.0331
  C  C403  1  0.283510  0.653600  0.041170  1.0  -0.0205
  C  C404  1  0.320690  0.703190  0.040670  1.0  -0.0959
  C  C405  1  0.961510  0.624150  0.984670  1.0  0.5155
  C  C406  1  0.851230  0.260690  0.454600  1.0  0.7057
  C  C407  1  0.813860  0.277620  0.449100  1.0  -0.1214
  C  C408  1  0.823650  0.322390  0.486700  1.0  -0.0769
  C  C409  1  0.788480  0.336130  0.484700  1.0  -0.0685
  C  C410  1  0.741830  0.305950  0.446100  1.0  0.0639
  C  C411  1  0.733900  0.262510  0.405600  1.0  -0.1216
  C  C412  1  0.769300  0.248530  0.406700  1.0  -0.0686
  C  C413  1  0.703440  0.320190  0.448000  1.0  0.0261
  C  C414  1  0.653540  0.283960  0.448400  1.0  -0.1116
  C  C415  1  0.925300  0.180700  0.566600  1.0  0.6783
  C  C416  1  0.942050  0.144150  0.583300  1.0  -0.1047
  C  C417  1  0.915770  0.104450  0.640700  1.0  -0.059
  C  C418  1  0.930500  0.070700  0.655100  1.0  -0.1015
  C  C419  1  0.972930  0.075440  0.615900  1.0  0.0426
  C  C420  1  0.999980  0.115650  0.560700  1.0  -0.112
  C  C421  1  0.984930  0.149680  0.544400  1.0  -0.0483
  C  C422  1  0.986930  0.036750  0.625500  1.0  -0.0212
  C  C423  1  0.036520  0.049160  0.626000  1.0  -0.0925
  C  C424  1  0.957480  0.329300  0.682000  1.0  0.5146
  C  C425  1  0.517900  0.594020  0.787930  1.0  0.7057
  C  C426  1  0.480530  0.610950  0.782430  1.0  -0.1214
  C  C427  1  0.490320  0.655720  0.820030  1.0  -0.0769
  C  C428  1  0.455150  0.669460  0.818030  1.0  -0.0684
  C  C429  1  0.408500  0.639280  0.779430  1.0  0.0639
  C  C430  1  0.400570  0.595840  0.738930  1.0  -0.1216
  C  C431  1  0.435970  0.581860  0.740030  1.0  -0.0686
  C  C432  1  0.370110  0.653520  0.781330  1.0  0.0261
  C  C433  1  0.320210  0.617290  0.781730  1.0  -0.1099
  C  C434  1  0.591970  0.514030  0.899930  1.0  0.6783
  C  C435  1  0.608720  0.477480  0.916630  1.0  -0.1047
  C  C436  1  0.582440  0.437780  0.974030  1.0  -0.0588
  C  C437  1  0.597170  0.404030  0.988430  1.0  -0.1013
  C  C438  1  0.639600  0.408770  0.949230  1.0  0.0431
  C  C439  1  0.666667  0.448980  0.894030  1.0  -0.1108
  C  C440  1  0.651600  0.483010  0.877730  1.0  -0.0483
  C  C441  1  0.653600  0.370080  0.958830  1.0  -0.0212
  C  C442  1  0.703190  0.382490  0.959330  1.0  -0.0948
  C  C443  1  0.624150  0.662630  0.015330  1.0  0.5146
  C  C444  1  0.184560  0.927360  0.121270  1.0  0.7057
  C  C445  1  0.147190  0.944290  0.115770  1.0  -0.1217
  C  C446  1  0.156980  0.989060  0.153370  1.0  -0.0769
  C  C447  1  0.121810  0.002800  0.151370  1.0  -0.0685
  C  C448  1  0.075160  0.972620  0.112770  1.0  0.0639
  C  C449  1  0.067230  0.929180  0.072270  1.0  -0.1216
  C  C450  1  0.102630  0.915200  0.073370  1.0  -0.0686
  C  C451  1  0.036770  0.986860  0.114670  1.0  0.0258
  C  C452  1  0.986870  0.950630  0.115070  1.0  -0.1134
  C  C453  1  0.258630  0.847370  0.233270  1.0  0.6783
  C  C454  1  0.275380  0.810820  0.249970  1.0  -0.1046
  C  C455  1  0.249100  0.771120  0.307370  1.0  -0.0588
  C  C456  1  0.263830  0.737370  0.321770  1.0  -0.1013
  C  C457  1  0.306260  0.742110  0.282570  1.0  0.0431
  C  C458  1  0.333333  0.782320  0.227370  1.0  -0.1099
  C  C459  1  0.318260  0.816350  0.211070  1.0  -0.0391
  C  C460  1  0.320260  0.703420  0.292170  1.0  -0.0212
  C  C461  1  0.369850  0.715830  0.292670  1.0  -0.0925
  C  C462  1  0.290810  0.995970  0.348670  1.0  0.5146
  C  C463  1  0.739310  0.590540  0.454600  1.0  0.7083
  C  C464  1  0.722380  0.536240  0.449100  1.0  -0.1158
  C  C465  1  0.677610  0.501260  0.486700  1.0  -0.072
  C  C466  1  0.663870  0.452350  0.484700  1.0  -0.0668
  C  C467  1  0.694050  0.435880  0.446100  1.0  0.0636
  C  C468  1  0.737490  0.471390  0.405600  1.0  -0.1237
  C  C469  1  0.751470  0.520770  0.406700  1.0  -0.0687
  C  C470  1  0.679810  0.383250  0.448000  1.0  0.0276
  C  C471  1  0.716040  0.369580  0.448400  1.0  -0.1087
  C  C472  1  0.819300  0.744600  0.566600  1.0  0.6781
  C  C473  1  0.855850  0.797900  0.583300  1.0  -0.1043
  C  C474  1  0.895550  0.811320  0.640700  1.0  -0.0579
  C  C475  1  0.929300  0.859800  0.655100  1.0  -0.103
  C  C476  1  0.924560  0.897490  0.615900  1.0  0.0434
  C  C477  1  0.884350  0.884330  0.560700  1.0  -0.1103
  C  C478  1  0.850320  0.835250  0.544400  1.0  -0.0454
  C  C479  1  0.963250  0.950180  0.625500  1.0  -0.0209
  C  C480  1  0.950840  0.987360  0.626000  1.0  -0.0982
  C  C481  1  0.670700  0.628180  0.682000  1.0  0.5149
  C  C482  1  0.405980  0.923870  0.787930  1.0  0.7083
  C  C483  1  0.389050  0.869570  0.782430  1.0  -0.1158
  C  C484  1  0.344280  0.834590  0.820030  1.0  -0.072
  C  C485  1  0.330540  0.785680  0.818030  1.0  -0.0667
  C  C486  1  0.360720  0.769210  0.779430  1.0  0.0636
  C  C487  1  0.404160  0.804720  0.738930  1.0  -0.1237
  C  C488  1  0.418140  0.854100  0.740030  1.0  -0.0687
  C  C489  1  0.346480  0.716580  0.781330  1.0  0.0276
  C  C490  1  0.382710  0.702910  0.781730  1.0  -0.1101
  C  C491  1  0.485970  0.077930  0.899930  1.0  0.6781
  C  C492  1  0.522520  0.131230  0.916630  1.0  -0.1043
  C  C493  1  0.562220  0.144650  0.974030  1.0  -0.0578
  C  C494  1  0.595970  0.193130  0.988430  1.0  -0.103
  C  C495  1  0.591230  0.230820  0.949230  1.0  0.0434
  C  C496  1  0.551020  0.217660  0.894030  1.0  -0.1103
  C  C497  1  0.516990  0.168580  0.877730  1.0  -0.0453
  C  C498  1  0.629920  0.283510  0.958830  1.0  -0.0209
  C  C499  1  0.617510  0.320690  0.959330  1.0  -0.0973
  C  C500  1  0.337370  0.961510  0.015330  1.0  0.5149
  C  C501  1  0.072640  0.257210  0.121270  1.0  0.7083
  C  C502  1  0.055710  0.202910  0.115770  1.0  -0.1159
  C  C503  1  0.010940  0.167930  0.153370  1.0  -0.0721
  C  C504  1  0.997200  0.119020  0.151370  1.0  -0.0667
  C  C505  1  0.027380  0.102550  0.112770  1.0  0.0636
  C  C506  1  0.070820  0.138060  0.072270  1.0  -0.1237
  C  C507  1  0.084800  0.187440  0.073370  1.0  -0.0686
  C  C508  1  0.013140  0.049920  0.114670  1.0  0.0281
  C  C509  1  0.049370  0.036250  0.115070  1.0  -0.1081
  C  C510  1  0.152630  0.411270  0.233270  1.0  0.6781
  C  C511  1  0.189180  0.464570  0.249970  1.0  -0.1043
  C  C512  1  0.228880  0.477990  0.307370  1.0  -0.0579
  C  C513  1  0.262630  0.526470  0.321770  1.0  -0.103
  C  C514  1  0.257890  0.564160  0.282570  1.0  0.0434
  C  C515  1  0.217680  0.551000  0.227370  1.0  -0.1103
  C  C516  1  0.183650  0.501920  0.211070  1.0  -0.0454
  C  C517  1  0.296580  0.616850  0.292170  1.0  -0.0209
  C  C518  1  0.284170  0.654030  0.292670  1.0  -0.0982
  C  C519  1  0.004030  0.294850  0.348670  1.0  0.5149
  C  C520  1  0.409460  0.148770  0.454600  1.0  0.7077
  C  C521  1  0.463760  0.186140  0.449100  1.0  -0.1226
  C  C522  1  0.498740  0.176350  0.486700  1.0  -0.0753
  C  C523  1  0.547650  0.211520  0.484700  1.0  -0.0735
  C  C524  1  0.564120  0.258170  0.446100  1.0  0.0637
  C  C525  1  0.528610  0.266100  0.405600  1.0  -0.1222
  C  C526  1  0.479230  0.230700  0.406700  1.0  -0.0647
  C  C527  1  0.616750  0.296560  0.448000  1.0  0.026
  C  C528  1  0.630420  0.346460  0.448400  1.0  -0.1132
  C  C529  1  0.255400  0.074700  0.566600  1.0  0.6781
  C  C530  1  0.202100  0.057950  0.583300  1.0  -0.1032
  C  C531  1  0.188680  0.084230  0.640700  1.0  -0.0556
  C  C532  1  0.140200  0.069500  0.655100  1.0  -0.1007
  C  C533  1  0.102510  0.027070  0.615900  1.0  0.0449
  C  C534  1  0.115670  0.000020  0.560700  1.0  -0.1092
  C  C535  1  0.164750  0.015070  0.544400  1.0  -0.0434
  C  C536  1  0.049820  0.013070  0.625500  1.0  -0.0196
  C  C537  1  0.012640  0.963480  0.626000  1.0  -0.0953
  C  C538  1  0.371820  0.042520  0.682000  1.0  0.5156
  C  C539  1  0.076130  0.482100  0.787930  1.0  0.7077
  C  C540  1  0.130430  0.519470  0.782430  1.0  -0.1226
  C  C541  1  0.165410  0.509680  0.820030  1.0  -0.0754
  C  C542  1  0.214320  0.544850  0.818030  1.0  -0.0734
  C  C543  1  0.230790  0.591500  0.779430  1.0  0.0637
  C  C544  1  0.195280  0.599430  0.738930  1.0  -0.1222
  C  C545  1  0.145900  0.564030  0.740030  1.0  -0.0647
  C  C546  1  0.283420  0.629890  0.781330  1.0  0.026
  C  C547  1  0.297090  0.679790  0.781730  1.0  -0.1155
  C  C548  1  0.922070  0.408030  0.899930  1.0  0.6781
  C  C549  1  0.868770  0.391280  0.916630  1.0  -0.102
  C  C550  1  0.855350  0.417560  0.974030  1.0  -0.0557
  C  C551  1  0.806870  0.402830  0.988430  1.0  -0.1005
  C  C552  1  0.769180  0.360400  0.949230  1.0  0.045
  C  C553  1  0.782340  0.333333  0.894030  1.0  -0.1082
  C  C554  1  0.831420  0.348400  0.877730  1.0  -0.0343
  C  C555  1  0.716490  0.346400  0.958830  1.0  -0.0196
  C  C556  1  0.679310  0.296810  0.959330  1.0  -0.0931
  C  C557  1  0.038490  0.375850  0.015330  1.0  0.5156
  C  C558  1  0.742790  0.815440  0.121270  1.0  0.7077
  C  C559  1  0.797090  0.852810  0.115770  1.0  -0.1226
  C  C560  1  0.832070  0.843020  0.153370  1.0  -0.0753
  C  C561  1  0.880980  0.878190  0.151370  1.0  -0.0734
  C  C562  1  0.897450  0.924840  0.112770  1.0  0.0637
  C  C563  1  0.861940  0.932770  0.072270  1.0  -0.1223
  C  C564  1  0.812560  0.897370  0.073370  1.0  -0.0645
  C  C565  1  0.950080  0.963230  0.114670  1.0  0.0262
  C  C566  1  0.963750  0.013130  0.115070  1.0  -0.114
  C  C567  1  0.588730  0.741370  0.233270  1.0  0.6781
  C  C568  1  0.535430  0.724620  0.249970  1.0  -0.1032
  C  C569  1  0.522010  0.750900  0.307370  1.0  -0.0554
  C  C570  1  0.473530  0.736170  0.321770  1.0  -0.1005
  C  C571  1  0.435840  0.693740  0.282570  1.0  0.045
  C  C572  1  0.449000  0.666667  0.227370  1.0  -0.1088
  C  C573  1  0.498080  0.681740  0.211070  1.0  -0.0342
  C  C574  1  0.383150  0.679740  0.292170  1.0  -0.0196
  C  C575  1  0.345970  0.630150  0.292670  1.0  -0.0953
  C  C576  1  0.705150  0.709190  0.348670  1.0  0.5156
  N  N577  1  0.971600  0.657300  0.279800  1.0  -0.0811
  N  N578  1  0.007790  0.647860  0.257000  1.0  -0.305
  N  N579  1  0.984130  0.684700  0.349300  1.0  -0.0837
  N  N580  1  0.086700  0.673500  0.317800  1.0  -0.7548
  N  N581  1  0.028960  0.693700  0.376300  1.0  -0.3064
  N  N582  1  0.638270  0.990630  0.613130  1.0  -0.0811
  N  N583  1  0.674460  0.981190  0.590330  1.0  -0.305
  N  N584  1  0.650800  0.018030  0.682630  1.0  -0.0837
  N  N585  1  0.753370  0.006830  0.651130  1.0  -0.7548
  N  N586  1  0.695630  0.027030  0.709630  1.0  -0.3064
  N  N587  1  0.304930  0.323970  0.946470  1.0  -0.081
  N  N588  1  0.341120  0.314530  0.923670  1.0  -0.3052
  N  N589  1  0.317460  0.351370  0.015970  1.0  -0.0837
  N  N590  1  0.420030  0.340170  0.984470  1.0  -0.7548
  N  N591  1  0.362290  0.360370  0.042970  1.0  -0.3064
  N  N592  1  0.342700  0.314300  0.279800  1.0  -0.0801
  N  N593  1  0.352140  0.359930  0.257000  1.0  -0.3054
  N  N594  1  0.315300  0.299430  0.349300  1.0  -0.0811
  N  N595  1  0.326500  0.413200  0.317800  1.0  -0.7566
  N  N596  1  0.306300  0.335260  0.376300  1.0  -0.3078
  N  N597  1  0.009370  0.647630  0.613130  1.0  -0.0799
  N  N598  1  0.018810  0.693260  0.590330  1.0  -0.3054
  N  N599  1  0.981970  0.632760  0.682630  1.0  -0.0811
  N  N600  1  0.993170  0.746530  0.651130  1.0  -0.7566
  N  N601  1  0.972970  0.668590  0.709630  1.0  -0.3078
  N  N602  1  0.676030  0.980970  0.946470  1.0  -0.0802
  N  N603  1  0.685470  0.026600  0.923670  1.0  -0.3052
  N  N604  1  0.648630  0.966100  0.015970  1.0  -0.0811
  N  N605  1  0.659830  0.079870  0.984470  1.0  -0.7566
  N  N606  1  0.639630  0.001930  0.042970  1.0  -0.3078
  N  N607  1  0.685700  0.028400  0.279800  1.0  -0.0783
  N  N608  1  0.640070  0.992210  0.257000  1.0  -0.3053
  N  N609  1  0.700570  0.015870  0.349300  1.0  -0.082
  N  N610  1  0.586800  0.913300  0.317800  1.0  -0.7565
  N  N611  1  0.664740  0.971040  0.376300  1.0  -0.3066
  N  N612  1  0.352370  0.361730  0.613130  1.0  -0.0782
  N  N613  1  0.306740  0.325540  0.590330  1.0  -0.3053
  N  N614  1  0.367240  0.349200  0.682630  1.0  -0.082
  N  N615  1  0.253470  0.246630  0.651130  1.0  -0.7565
  N  N616  1  0.331410  0.304370  0.709630  1.0  -0.3066
  N  N617  1  0.019030  0.695070  0.946470  1.0  -0.078
  N  N618  1  0.973400  0.658880  0.923670  1.0  -0.3053
  N  N619  1  0.033900  0.682540  0.015970  1.0  -0.082
  N  N620  1  0.920130  0.579970  0.984470  1.0  -0.7564
  N  N621  1  0.998070  0.637710  0.042970  1.0  -0.3066
  N  N622  1  0.028400  0.342700  0.720200  1.0  -0.0846
  N  N623  1  0.992210  0.352140  0.743000  1.0  -0.3043
  N  N624  1  0.015870  0.315300  0.650700  1.0  -0.0835
  N  N625  1  0.913300  0.326500  0.682200  1.0  -0.7552
  N  N626  1  0.971040  0.306300  0.623700  1.0  -0.3085
  N  N627  1  0.695070  0.676030  0.053530  1.0  -0.0845
  N  N628  1  0.658880  0.685470  0.076330  1.0  -0.3044
  N  N629  1  0.682540  0.648630  0.984030  1.0  -0.0835
  N  N630  1  0.579970  0.659830  0.015530  1.0  -0.7553
  N  N631  1  0.637710  0.639630  0.957030  1.0  -0.3085
  N  N632  1  0.361730  0.009370  0.386870  1.0  -0.0846
  N  N633  1  0.325540  0.018810  0.409670  1.0  -0.3043
  N  N634  1  0.349200  0.981970  0.317370  1.0  -0.0835
  N  N635  1  0.246630  0.993170  0.348870  1.0  -0.7552
  N  N636  1  0.304370  0.972970  0.290370  1.0  -0.3085
  N  N637  1  0.657300  0.685700  0.720200  1.0  -0.0786
  N  N638  1  0.647860  0.640070  0.743000  1.0  -0.3051
  N  N639  1  0.684700  0.700570  0.650700  1.0  -0.08
  N  N640  1  0.673500  0.586800  0.682200  1.0  -0.7567
  N  N641  1  0.693700  0.664740  0.623700  1.0  -0.3083
  N  N642  1  0.323970  0.019030  0.053530  1.0  -0.0787
  N  N643  1  0.314530  0.973400  0.076330  1.0  -0.3049
  N  N644  1  0.351370  0.033900  0.984030  1.0  -0.08
  N  N645  1  0.340170  0.920130  0.015530  1.0  -0.7567
  N  N646  1  0.360370  0.998070  0.957030  1.0  -0.3083
  N  N647  1  0.990630  0.352370  0.386870  1.0  -0.0784
  N  N648  1  0.981190  0.306740  0.409670  1.0  -0.3051
  N  N649  1  0.018030  0.367240  0.317370  1.0  -0.0799
  N  N650  1  0.006830  0.253470  0.348870  1.0  -0.7567
  N  N651  1  0.027030  0.331410  0.290370  1.0  -0.3083
  N  N652  1  0.314300  0.971600  0.720200  1.0  -0.0779
  N  N653  1  0.359930  0.007790  0.743000  1.0  -0.3051
  N  N654  1  0.299430  0.984130  0.650700  1.0  -0.0827
  N  N655  1  0.413200  0.086700  0.682200  1.0  -0.7572
  N  N656  1  0.335260  0.028960  0.623700  1.0  -0.3073
  N  N657  1  0.980970  0.304930  0.053530  1.0  -0.0776
  N  N658  1  0.026600  0.341120  0.076330  1.0  -0.3051
  N  N659  1  0.966100  0.317460  0.984030  1.0  -0.0827
  N  N660  1  0.079870  0.420030  0.015530  1.0  -0.7571
  N  N661  1  0.001930  0.362290  0.957030  1.0  -0.3073
  N  N662  1  0.647630  0.638270  0.386870  1.0  -0.0778
  N  N663  1  0.693260  0.674460  0.409670  1.0  -0.3051
  N  N664  1  0.632760  0.650800  0.317370  1.0  -0.0826
  N  N665  1  0.746530  0.753370  0.348870  1.0  -0.7572
  N  N666  1  0.668590  0.695630  0.290370  1.0  -0.3073
  O  O667  1  0.108820  0.820700  0.391700  1.0  -0.491
  O  O668  1  0.051240  0.787290  0.492600  1.0  -0.5712
  O  O669  1  0.150960  0.771670  0.594600  1.0  -0.4525
  O  O670  1  0.115380  0.717420  0.486600  1.0  -0.6052
  O  O671  1  0.775490  0.154030  0.725030  1.0  -0.491
  O  O672  1  0.717910  0.120620  0.825930  1.0  -0.5712
  O  O673  1  0.817630  0.105000  0.927930  1.0  -0.4523
  O  O674  1  0.782050  0.050750  0.819930  1.0  -0.6053
  O  O675  1  0.442150  0.487370  0.058370  1.0  -0.491
  O  O676  1  0.384570  0.453960  0.159270  1.0  -0.5712
  O  O677  1  0.484290  0.438340  0.261270  1.0  -0.4524
  O  O678  1  0.448710  0.384090  0.153270  1.0  -0.6052
  O  O679  1  0.179300  0.288120  0.391700  1.0  -0.4878
  O  O680  1  0.212710  0.263950  0.492600  1.0  -0.5704
  O  O681  1  0.228330  0.379290  0.594600  1.0  -0.4531
  O  O682  1  0.282580  0.397960  0.486600  1.0  -0.6039
  O  O683  1  0.845970  0.621450  0.725030  1.0  -0.4878
  O  O684  1  0.879380  0.597280  0.825930  1.0  -0.5701
  O  O685  1  0.895000  0.712620  0.927930  1.0  -0.4532
  O  O686  1  0.949250  0.731290  0.819930  1.0  -0.6038
  O  O687  1  0.512630  0.954790  0.058370  1.0  -0.4878
  O  O688  1  0.546040  0.930620  0.159270  1.0  -0.5704
  O  O689  1  0.561660  0.045960  0.261270  1.0  -0.4531
  O  O690  1  0.615910  0.064630  0.153270  1.0  -0.6038
  O  O691  1  0.711880  0.891180  0.391700  1.0  -0.4878
  O  O692  1  0.736050  0.948760  0.492600  1.0  -0.5679
  O  O693  1  0.620710  0.849040  0.594600  1.0  -0.458
  O  O694  1  0.602040  0.884620  0.486600  1.0  -0.6035
  O  O695  1  0.378550  0.224510  0.725030  1.0  -0.4878
  O  O696  1  0.402720  0.282090  0.825930  1.0  -0.5679
  O  O697  1  0.287380  0.182370  0.927930  1.0  -0.4578
  O  O698  1  0.268710  0.217950  0.819930  1.0  -0.6035
  O  O699  1  0.045210  0.557850  0.058370  1.0  -0.4878
  O  O700  1  0.069380  0.615430  0.159270  1.0  -0.568
  O  O701  1  0.954040  0.515710  0.261270  1.0  -0.4579
  O  O702  1  0.935370  0.551290  0.153270  1.0  -0.6035
  O  O703  1  0.891180  0.179300  0.608300  1.0  -0.4924
  O  O704  1  0.948760  0.212710  0.507400  1.0  -0.5707
  O  O705  1  0.849040  0.228330  0.405400  1.0  -0.4521
  O  O706  1  0.884620  0.282580  0.513400  1.0  -0.6041
  O  O707  1  0.557850  0.512630  0.941630  1.0  -0.4924
  O  O708  1  0.615430  0.546040  0.840730  1.0  -0.5707
  O  O709  1  0.515710  0.561660  0.738730  1.0  -0.452
  O  O710  1  0.551290  0.615910  0.846730  1.0  -0.6041
  O  O711  1  0.224510  0.845970  0.274970  1.0  -0.4924
  O  O712  1  0.282090  0.879380  0.174070  1.0  -0.5707
  O  O713  1  0.182370  0.895000  0.072070  1.0  -0.452
  O  O714  1  0.217950  0.949250  0.180070  1.0  -0.6042
  O  O715  1  0.820700  0.711880  0.608300  1.0  -0.4879
  O  O716  1  0.787290  0.736050  0.507400  1.0  -0.5703
  O  O717  1  0.771670  0.620710  0.405400  1.0  -0.4545
  O  O718  1  0.717420  0.602040  0.513400  1.0  -0.6033
  O  O719  1  0.487370  0.045210  0.941630  1.0  -0.4879
  O  O720  1  0.453960  0.069380  0.840730  1.0  -0.5703
  O  O721  1  0.438340  0.954040  0.738730  1.0  -0.4546
  O  O722  1  0.384090  0.935370  0.846730  1.0  -0.6032
  O  O723  1  0.154030  0.378550  0.274970  1.0  -0.4879
  O  O724  1  0.120620  0.402720  0.174070  1.0  -0.5703
  O  O725  1  0.105000  0.287380  0.072070  1.0  -0.4547
  O  O726  1  0.050750  0.268710  0.180070  1.0  -0.6032
  O  O727  1  0.288120  0.108820  0.608300  1.0  -0.4867
  O  O728  1  0.263950  0.051240  0.507400  1.0  -0.5676
  O  O729  1  0.379290  0.150960  0.405400  1.0  -0.4591
  O  O730  1  0.397960  0.115380  0.513400  1.0  -0.603
  O  O731  1  0.954790  0.442150  0.941630  1.0  -0.4867
  O  O732  1  0.930620  0.384570  0.840730  1.0  -0.5676
  O  O733  1  0.045960  0.484290  0.738730  1.0  -0.4589
  O  O734  1  0.064630  0.448710  0.846730  1.0  -0.603
  O  O735  1  0.621450  0.775490  0.274970  1.0  -0.4867
  O  O736  1  0.597280  0.717910  0.174070  1.0  -0.5675
  O  O737  1  0.712620  0.817630  0.072070  1.0  -0.4589
  O  O738  1  0.731290  0.782050  0.180070  1.0  -0.603
