# generated using pymatgen
data_ZnH12C19N5O4
_symmetry_space_group_name_H-M   'P 1'
_cell_length_a   31.38370000
_cell_length_b   31.38370000
_cell_length_c   15.04110000
_cell_angle_alpha   90.00000000
_cell_angle_beta   90.00000000
_cell_angle_gamma   120.00000000
_symmetry_Int_Tables_number   1
_chemical_formula_structural   ZnH12C19N5O4
_chemical_formula_sum   'Zn18 H216 C342 N90 O72'
_cell_volume   12829.75956819
_cell_formula_units_Z   18
loop_
 _symmetry_equiv_pos_site_id
 _symmetry_equiv_pos_as_xyz
  1  'x, y, z'
loop_
 _atom_site_type_symbol
 _atom_site_label
 _atom_site_symmetry_multiplicity
 _atom_site_fract_x
 _atom_site_fract_y
 _atom_site_fract_z
 _atom_site_occupancy
 _atom_site_charge
  Zn  Zn1  1  0.061260  0.730990  0.486730  1.0  0.9786
  Zn  Zn2  1  0.727930  0.064330  0.820060  1.0  0.9784
  Zn  Zn3  1  0.394600  0.397660  0.153400  1.0  0.9786
  Zn  Zn4  1  0.269010  0.330270  0.486730  1.0  0.9791
  Zn  Zn5  1  0.935670  0.663610  0.820060  1.0  0.9793
  Zn  Zn6  1  0.602340  0.996940  0.153400  1.0  0.9791
  Zn  Zn7  1  0.669730  0.938740  0.486730  1.0  0.9788
  Zn  Zn8  1  0.336390  0.272070  0.820060  1.0  0.9786
  Zn  Zn9  1  0.003060  0.605400  0.153400  1.0  0.9788
  Zn  Zn10  1  0.938740  0.269010  0.513270  1.0  0.9797
  Zn  Zn11  1  0.605400  0.602340  0.846600  1.0  0.9797
  Zn  Zn12  1  0.272070  0.935670  0.179940  1.0  0.9795
  Zn  Zn13  1  0.730990  0.669730  0.513270  1.0  0.9789
  Zn  Zn14  1  0.397660  0.003060  0.846600  1.0  0.9789
  Zn  Zn15  1  0.064330  0.336390  0.179940  1.0  0.979
  Zn  Zn16  1  0.330270  0.061260  0.513270  1.0  0.9789
  Zn  Zn17  1  0.996940  0.394600  0.846600  1.0  0.9789
  Zn  Zn18  1  0.663610  0.727930  0.179940  1.0  0.9788
  H  H19  1  0.145800  0.657400  0.487900  1.0  0.1095
  H  H20  1  0.204300  0.633500  0.491700  1.0  0.1098
  H  H21  1  0.295900  0.757200  0.623100  1.0  0.1005
  H  H22  1  0.237100  0.780300  0.621900  1.0  0.1119
  H  H23  1  0.354900  0.749000  0.550900  1.0  0.1043
  H  H24  1  0.112400  0.899400  0.330700  1.0  0.1023
  H  H25  1  0.088100  0.956300  0.307700  1.0  0.0843
  H  H26  1  0.971200  0.879500  0.465100  1.0  0.1
  H  H27  1  0.997300  0.824300  0.493300  1.0  0.0957
  H  H28  1  0.939100  0.917900  0.373100  1.0  0.1068
  H  H29  1  0.094300  0.659500  0.275900  1.0  0.3535
  H  H30  1  0.107900  0.689400  0.358800  1.0  0.3554
  H  H31  1  0.812470  0.990730  0.821230  1.0  0.1095
  H  H32  1  0.870970  0.966830  0.825030  1.0  0.1098
  H  H33  1  0.962570  0.090530  0.956430  1.0  0.1005
  H  H34  1  0.903770  0.113630  0.955230  1.0  0.1119
  H  H35  1  0.021570  0.082330  0.884230  1.0  0.1043
  H  H36  1  0.779070  0.232730  0.664030  1.0  0.1023
  H  H37  1  0.754770  0.289630  0.641030  1.0  0.0843
  H  H38  1  0.637870  0.212830  0.798430  1.0  0.1
  H  H39  1  0.663970  0.157630  0.826630  1.0  0.0957
  H  H40  1  0.605770  0.251230  0.706430  1.0  0.1068
  H  H41  1  0.760970  0.992830  0.609230  1.0  0.3535
  H  H42  1  0.774570  0.022730  0.692130  1.0  0.3554
  H  H43  1  0.479130  0.324070  0.154570  1.0  0.1095
  H  H44  1  0.537630  0.300170  0.158370  1.0  0.1098
  H  H45  1  0.629230  0.423870  0.289770  1.0  0.1005
  H  H46  1  0.570430  0.446970  0.288570  1.0  0.1118
  H  H47  1  0.688230  0.415670  0.217570  1.0  0.1044
  H  H48  1  0.445730  0.566070  0.997370  1.0  0.1023
  H  H49  1  0.421430  0.622970  0.974370  1.0  0.0843
  H  H50  1  0.304530  0.546170  0.131770  1.0  0.1
  H  H51  1  0.330630  0.490970  0.159970  1.0  0.0957
  H  H52  1  0.272430  0.584570  0.039770  1.0  0.1068
  H  H53  1  0.427630  0.326170  0.942570  1.0  0.3535
  H  H54  1  0.441230  0.356070  0.025470  1.0  0.3556
  H  H55  1  0.342600  0.488400  0.487900  1.0  0.1101
  H  H56  1  0.366500  0.570800  0.491700  1.0  0.1106
  H  H57  1  0.242800  0.538700  0.623100  1.0  0.1018
  H  H58  1  0.219700  0.456800  0.621900  1.0  0.1118
  H  H59  1  0.251000  0.605900  0.550900  1.0  0.1029
  H  H60  1  0.100600  0.213000  0.330700  1.0  0.1034
  H  H61  1  0.043700  0.131800  0.307700  1.0  0.0838
  H  H62  1  0.120500  0.091700  0.465100  1.0  0.0998
  H  H63  1  0.175700  0.173000  0.493300  1.0  0.096
  H  H64  1  0.082100  0.021200  0.373100  1.0  0.1069
  H  H65  1  0.340500  0.434800  0.275900  1.0  0.3536
  H  H66  1  0.310600  0.418500  0.358800  1.0  0.3549
  H  H67  1  0.009270  0.821730  0.821230  1.0  0.1101
  H  H68  1  0.033170  0.904130  0.825030  1.0  0.1106
  H  H69  1  0.909470  0.872030  0.956430  1.0  0.1018
  H  H70  1  0.886370  0.790130  0.955230  1.0  0.1117
  H  H71  1  0.917670  0.939230  0.884230  1.0  0.1029
  H  H72  1  0.767270  0.546330  0.664030  1.0  0.1034
  H  H73  1  0.710370  0.465130  0.641030  1.0  0.0838
  H  H74  1  0.787170  0.425030  0.798430  1.0  0.0998
  H  H75  1  0.842370  0.506330  0.826630  1.0  0.096
  H  H76  1  0.748770  0.354530  0.706430  1.0  0.1069
  H  H77  1  0.007170  0.768130  0.609230  1.0  0.3536
  H  H78  1  0.977270  0.751830  0.692130  1.0  0.3549
  H  H79  1  0.675930  0.155070  0.154570  1.0  0.1101
  H  H80  1  0.699830  0.237470  0.158370  1.0  0.1105
  H  H81  1  0.576130  0.205370  0.289770  1.0  0.1018
  H  H82  1  0.553030  0.123470  0.288570  1.0  0.1118
  H  H83  1  0.584330  0.272570  0.217570  1.0  0.1029
  H  H84  1  0.433930  0.879670  0.997370  1.0  0.1034
  H  H85  1  0.377030  0.798470  0.974370  1.0  0.0838
  H  H86  1  0.453830  0.758370  0.131770  1.0  0.0998
  H  H87  1  0.509030  0.839670  0.159970  1.0  0.096
  H  H88  1  0.415430  0.687870  0.039770  1.0  0.1068
  H  H89  1  0.673830  0.101470  0.942570  1.0  0.3536
  H  H90  1  0.643930  0.085170  0.025470  1.0  0.3547
  H  H91  1  0.511600  0.854200  0.487900  1.0  0.11
  H  H92  1  0.429200  0.795700  0.491700  1.0  0.1131
  H  H93  1  0.461300  0.704100  0.623100  1.0  0.1015
  H  H94  1  0.543200  0.762900  0.621900  1.0  0.112
  H  H95  1  0.394100  0.645100  0.550900  1.0  0.1047
  H  H96  1  0.787000  0.887600  0.330700  1.0  0.1021
  H  H97  1  0.868200  0.911900  0.307700  1.0  0.0834
  H  H98  1  0.908300  0.028800  0.465100  1.0  0.0993
  H  H99  1  0.827000  0.002700  0.493300  1.0  0.0953
  H  H100  1  0.978800  0.060900  0.373100  1.0  0.1058
  H  H101  1  0.565200  0.905700  0.275900  1.0  0.3535
  H  H102  1  0.581500  0.892100  0.358800  1.0  0.3559
  H  H103  1  0.178270  0.187530  0.821230  1.0  0.11
  H  H104  1  0.095870  0.129030  0.825030  1.0  0.1132
  H  H105  1  0.127970  0.037430  0.956430  1.0  0.1015
  H  H106  1  0.209870  0.096230  0.955230  1.0  0.112
  H  H107  1  0.060770  0.978430  0.884230  1.0  0.1047
  H  H108  1  0.453670  0.220930  0.664030  1.0  0.1021
  H  H109  1  0.534870  0.245230  0.641030  1.0  0.0834
  H  H110  1  0.574970  0.362130  0.798430  1.0  0.0993
  H  H111  1  0.493670  0.336030  0.826630  1.0  0.0953
  H  H112  1  0.645470  0.394230  0.706430  1.0  0.1058
  H  H113  1  0.231870  0.239030  0.609230  1.0  0.3535
  H  H114  1  0.248170  0.225430  0.692130  1.0  0.3559
  H  H115  1  0.844930  0.520870  0.154570  1.0  0.11
  H  H116  1  0.762530  0.462370  0.158370  1.0  0.1132
  H  H117  1  0.794630  0.370770  0.289770  1.0  0.1015
  H  H118  1  0.876530  0.429570  0.288570  1.0  0.112
  H  H119  1  0.727430  0.311770  0.217570  1.0  0.1047
  H  H120  1  0.120330  0.554270  0.997370  1.0  0.1022
  H  H121  1  0.201530  0.578570  0.974370  1.0  0.0834
  H  H122  1  0.241630  0.695470  0.131770  1.0  0.0991
  H  H123  1  0.160330  0.669370  0.159970  1.0  0.0953
  H  H124  1  0.312130  0.727570  0.039770  1.0  0.1058
  H  H125  1  0.898530  0.572370  0.942570  1.0  0.3535
  H  H126  1  0.914830  0.558770  0.025470  1.0  0.3562
  H  H127  1  0.854200  0.342600  0.512100  1.0  0.1097
  H  H128  1  0.795700  0.366500  0.508300  1.0  0.1103
  H  H129  1  0.704100  0.242800  0.376900  1.0  0.0992
  H  H130  1  0.762900  0.219700  0.378100  1.0  0.1116
  H  H131  1  0.645100  0.251000  0.449100  1.0  0.104
  H  H132  1  0.887600  0.100600  0.669300  1.0  0.102
  H  H133  1  0.911900  0.043700  0.692300  1.0  0.0847
  H  H134  1  0.028800  0.120500  0.534900  1.0  0.1
  H  H135  1  0.002700  0.175700  0.506700  1.0  0.0964
  H  H136  1  0.060900  0.082100  0.626900  1.0  0.107
  H  H137  1  0.905700  0.340500  0.724100  1.0  0.3555
  H  H138  1  0.892100  0.310600  0.641200  1.0  0.3549
  H  H139  1  0.520870  0.675930  0.845430  1.0  0.1098
  H  H140  1  0.462370  0.699830  0.841630  1.0  0.1103
  H  H141  1  0.370770  0.576130  0.710230  1.0  0.0992
  H  H142  1  0.429570  0.553030  0.711430  1.0  0.1115
  H  H143  1  0.311770  0.584330  0.782430  1.0  0.1041
  H  H144  1  0.554270  0.433930  0.002630  1.0  0.102
  H  H145  1  0.578570  0.377030  0.025630  1.0  0.0847
  H  H146  1  0.695470  0.453830  0.868230  1.0  0.1
  H  H147  1  0.669370  0.509030  0.840030  1.0  0.0964
  H  H148  1  0.727570  0.415430  0.960230  1.0  0.107
  H  H149  1  0.572370  0.673830  0.057430  1.0  0.3555
  H  H150  1  0.558770  0.643930  0.974530  1.0  0.3551
  H  H151  1  0.187530  0.009270  0.178770  1.0  0.1097
  H  H152  1  0.129030  0.033170  0.174970  1.0  0.1103
  H  H153  1  0.037430  0.909470  0.043570  1.0  0.0992
  H  H154  1  0.096230  0.886370  0.044770  1.0  0.1116
  H  H155  1  0.978430  0.917670  0.115770  1.0  0.104
  H  H156  1  0.220930  0.767270  0.335970  1.0  0.102
  H  H157  1  0.245230  0.710370  0.358970  1.0  0.0847
  H  H158  1  0.362130  0.787170  0.201570  1.0  0.1
  H  H159  1  0.336030  0.842370  0.173370  1.0  0.0964
  H  H160  1  0.394230  0.748770  0.293570  1.0  0.107
  H  H161  1  0.239030  0.007170  0.390770  1.0  0.3556
  H  H162  1  0.225430  0.977270  0.307870  1.0  0.3549
  H  H163  1  0.657400  0.511600  0.512100  1.0  0.1109
  H  H164  1  0.633500  0.429200  0.508300  1.0  0.1103
  H  H165  1  0.757200  0.461300  0.376900  1.0  0.1007
  H  H166  1  0.780300  0.543200  0.378100  1.0  0.1119
  H  H167  1  0.749000  0.394100  0.449100  1.0  0.1038
  H  H168  1  0.899400  0.787000  0.669300  1.0  0.103
  H  H169  1  0.956300  0.868200  0.692300  1.0  0.0847
  H  H170  1  0.879500  0.908300  0.534900  1.0  0.099
  H  H171  1  0.824300  0.827000  0.506700  1.0  0.0959
  H  H172  1  0.917900  0.978800  0.626900  1.0  0.1065
  H  H173  1  0.659500  0.565200  0.724100  1.0  0.3546
  H  H174  1  0.689400  0.581500  0.641200  1.0  0.3539
  H  H175  1  0.324070  0.844930  0.845430  1.0  0.1109
  H  H176  1  0.300170  0.762530  0.841630  1.0  0.1103
  H  H177  1  0.423870  0.794630  0.710230  1.0  0.1007
  H  H178  1  0.446970  0.876530  0.711430  1.0  0.1118
  H  H179  1  0.415670  0.727430  0.782430  1.0  0.1038
  H  H180  1  0.566070  0.120330  0.002630  1.0  0.103
  H  H181  1  0.622970  0.201530  0.025630  1.0  0.0847
  H  H182  1  0.546170  0.241630  0.868230  1.0  0.099
  H  H183  1  0.490970  0.160330  0.840030  1.0  0.0959
  H  H184  1  0.584570  0.312130  0.960230  1.0  0.1065
  H  H185  1  0.326170  0.898530  0.057430  1.0  0.3546
  H  H186  1  0.356070  0.914830  0.974530  1.0  0.3536
  H  H187  1  0.990730  0.178270  0.178770  1.0  0.1109
  H  H188  1  0.966830  0.095870  0.174970  1.0  0.1103
  H  H189  1  0.090530  0.127970  0.043570  1.0  0.1008
  H  H190  1  0.113630  0.209870  0.044770  1.0  0.1118
  H  H191  1  0.082330  0.060770  0.115770  1.0  0.1038
  H  H192  1  0.232730  0.453670  0.335970  1.0  0.103
  H  H193  1  0.289630  0.534870  0.358970  1.0  0.0847
  H  H194  1  0.212830  0.574970  0.201570  1.0  0.099
  H  H195  1  0.157630  0.493670  0.173370  1.0  0.0959
  H  H196  1  0.251230  0.645470  0.293570  1.0  0.1065
  H  H197  1  0.992830  0.231870  0.390770  1.0  0.3546
  H  H198  1  0.022730  0.248170  0.307870  1.0  0.3539
  H  H199  1  0.488400  0.145800  0.512100  1.0  0.1097
  H  H200  1  0.570800  0.204300  0.508300  1.0  0.1132
  H  H201  1  0.538700  0.295900  0.376900  1.0  0.101
  H  H202  1  0.456800  0.237100  0.378100  1.0  0.1123
  H  H203  1  0.605900  0.354900  0.449100  1.0  0.1049
  H  H204  1  0.213000  0.112400  0.669300  1.0  0.1026
  H  H205  1  0.131800  0.088100  0.692300  1.0  0.084
  H  H206  1  0.091700  0.971200  0.534900  1.0  0.0998
  H  H207  1  0.173000  0.997300  0.506700  1.0  0.0957
  H  H208  1  0.021200  0.939100  0.626900  1.0  0.1061
  H  H209  1  0.434800  0.094300  0.724100  1.0  0.3525
  H  H210  1  0.418500  0.107900  0.641200  1.0  0.3546
  H  H211  1  0.155070  0.479130  0.845430  1.0  0.1097
  H  H212  1  0.237470  0.537630  0.841630  1.0  0.1132
  H  H213  1  0.205370  0.629230  0.710230  1.0  0.101
  H  H214  1  0.123470  0.570430  0.711430  1.0  0.1122
  H  H215  1  0.272570  0.688230  0.782430  1.0  0.1049
  H  H216  1  0.879670  0.445730  0.002630  1.0  0.1026
  H  H217  1  0.798470  0.421430  0.025630  1.0  0.084
  H  H218  1  0.758370  0.304530  0.868230  1.0  0.0996
  H  H219  1  0.839670  0.330630  0.840030  1.0  0.0957
  H  H220  1  0.687870  0.272430  0.960230  1.0  0.1061
  H  H221  1  0.101470  0.427630  0.057430  1.0  0.3525
  H  H222  1  0.085170  0.441230  0.974530  1.0  0.3549
  H  H223  1  0.821730  0.812470  0.178770  1.0  0.1097
  H  H224  1  0.904130  0.870970  0.174970  1.0  0.1132
  H  H225  1  0.872030  0.962570  0.043570  1.0  0.1009
  H  H226  1  0.790130  0.903770  0.044770  1.0  0.1123
  H  H227  1  0.939230  0.021570  0.115770  1.0  0.1049
  H  H228  1  0.546330  0.779070  0.335970  1.0  0.1026
  H  H229  1  0.465130  0.754770  0.358970  1.0  0.084
  H  H230  1  0.425030  0.637870  0.201570  1.0  0.0998
  H  H231  1  0.506330  0.663970  0.173370  1.0  0.0957
  H  H232  1  0.354530  0.605770  0.293570  1.0  0.1061
  H  H233  1  0.768130  0.760970  0.390770  1.0  0.3525
  H  H234  1  0.751830  0.774570  0.307870  1.0  0.3546
  C  C235  1  0.148640  0.739020  0.545800  1.0  0.7126
  C  C236  1  0.186000  0.722250  0.551500  1.0  -0.1227
  C  C237  1  0.176170  0.677750  0.514200  1.0  -0.0554
  C  C238  1  0.211490  0.663670  0.516000  1.0  -0.0775
  C  C239  1  0.258090  0.694000  0.553920  1.0  0.052
  C  C240  1  0.266040  0.737280  0.594700  1.0  -0.1238
  C  C241  1  0.230840  0.751270  0.593900  1.0  -0.0747
  C  C242  1  0.296460  0.680010  0.551900  1.0  -0.0115
  C  C243  1  0.346200  0.715950  0.551460  1.0  -0.1244
  C  C244  1  0.075030  0.819840  0.433200  1.0  0.6789
  C  C245  1  0.058050  0.855830  0.416300  1.0  -0.1187
  C  C246  1  0.084470  0.895700  0.359200  1.0  -0.0587
  C  C247  1  0.069520  0.929600  0.344700  1.0  -0.1092
  C  C248  1  0.027340  0.924750  0.384190  1.0  0.0398
  C  C249  1  0.000080  0.884130  0.439200  1.0  -0.1278
  C  C250  1  0.015600  0.850740  0.455500  1.0  -0.032
  C  C251  1  0.012940  0.963150  0.374370  1.0  0.0253
  C  C252  1  0.963520  0.950860  0.373810  1.0  -0.0962
  C  C253  1  0.042980  0.671230  0.317200  1.0  0.5104
  C  C254  1  0.815310  0.072350  0.879130  1.0  0.7128
  C  C255  1  0.852670  0.055580  0.884830  1.0  -0.1228
  C  C256  1  0.842840  0.011080  0.847530  1.0  -0.0554
  C  C257  1  0.878160  0.997000  0.849330  1.0  -0.0775
  C  C258  1  0.924760  0.027330  0.887250  1.0  0.052
  C  C259  1  0.932710  0.070610  0.928030  1.0  -0.1238
  C  C260  1  0.897510  0.084600  0.927230  1.0  -0.0747
  C  C261  1  0.963130  0.013340  0.885230  1.0  -0.0116
  C  C262  1  0.012870  0.049280  0.884790  1.0  -0.1229
  C  C263  1  0.741700  0.153170  0.766530  1.0  0.679
  C  C264  1  0.724720  0.189160  0.749630  1.0  -0.1187
  C  C265  1  0.751140  0.229030  0.692530  1.0  -0.0587
  C  C266  1  0.736190  0.262930  0.678030  1.0  -0.1092
  C  C267  1  0.694010  0.258080  0.717520  1.0  0.0398
  C  C268  1  0.666750  0.217460  0.772530  1.0  -0.1278
  C  C269  1  0.682270  0.184070  0.788830  1.0  -0.0321
  C  C270  1  0.679610  0.296480  0.707700  1.0  0.0253
  C  C271  1  0.630190  0.284190  0.707140  1.0  -0.0962
  C  C272  1  0.709650  0.004560  0.650530  1.0  0.5104
  C  C273  1  0.481970  0.405690  0.212470  1.0  0.7128
  C  C274  1  0.519330  0.388920  0.218170  1.0  -0.1227
  C  C275  1  0.509500  0.344420  0.180870  1.0  -0.0554
  C  C276  1  0.544820  0.330340  0.182670  1.0  -0.0775
  C  C277  1  0.591420  0.360670  0.220590  1.0  0.052
  C  C278  1  0.599370  0.403950  0.261370  1.0  -0.1238
  C  C279  1  0.564170  0.417940  0.260570  1.0  -0.0746
  C  C280  1  0.629790  0.346680  0.218570  1.0  -0.0115
  C  C281  1  0.679530  0.382620  0.218130  1.0  -0.1208
  C  C282  1  0.408360  0.486510  0.099870  1.0  0.679
  C  C283  1  0.391380  0.522500  0.082970  1.0  -0.1187
  C  C284  1  0.417800  0.562370  0.025870  1.0  -0.0587
  C  C285  1  0.402850  0.596270  0.011370  1.0  -0.1092
  C  C286  1  0.360670  0.591420  0.050860  1.0  0.0398
  C  C287  1  0.333410  0.550800  0.105870  1.0  -0.1278
  C  C288  1  0.348930  0.517410  0.122170  1.0  -0.0321
  C  C289  1  0.346270  0.629820  0.041040  1.0  0.0253
  C  C290  1  0.296850  0.617530  0.040480  1.0  -0.0999
  C  C291  1  0.376310  0.337900  0.983870  1.0  0.5104
  C  C292  1  0.260980  0.409620  0.545800  1.0  0.7139
  C  C293  1  0.277750  0.463750  0.551500  1.0  -0.1174
  C  C294  1  0.322250  0.498420  0.514200  1.0  -0.0511
  C  C295  1  0.336330  0.547820  0.516000  1.0  -0.0755
  C  C296  1  0.306000  0.564090  0.553920  1.0  0.0523
  C  C297  1  0.262720  0.528760  0.594700  1.0  -0.1242
  C  C298  1  0.248730  0.479570  0.593900  1.0  -0.0712
  C  C299  1  0.319990  0.616450  0.551900  1.0  -0.0095
  C  C300  1  0.284050  0.630250  0.551460  1.0  -0.1215
  C  C301  1  0.180160  0.255190  0.433200  1.0  0.6784
  C  C302  1  0.144170  0.202220  0.416300  1.0  -0.1149
  C  C303  1  0.104300  0.188770  0.359200  1.0  -0.0589
  C  C304  1  0.070400  0.139920  0.344700  1.0  -0.1078
  C  C305  1  0.075250  0.102590  0.384190  1.0  0.0402
  C  C306  1  0.115870  0.115950  0.439200  1.0  -0.1276
  C  C307  1  0.149260  0.164860  0.455500  1.0  -0.0286
  C  C308  1  0.036850  0.049790  0.374370  1.0  0.0253
  C  C309  1  0.049140  0.012660  0.373810  1.0  -0.0993
  C  C310  1  0.328770  0.371750  0.317200  1.0  0.51
  C  C311  1  0.927650  0.742950  0.879130  1.0  0.7136
  C  C312  1  0.944420  0.797080  0.884830  1.0  -0.1174
  C  C313  1  0.988920  0.831750  0.847530  1.0  -0.0511
  C  C314  1  0.003000  0.881150  0.849330  1.0  -0.0756
  C  C315  1  0.972670  0.897420  0.887250  1.0  0.0523
  C  C316  1  0.929390  0.862090  0.928030  1.0  -0.1242
  C  C317  1  0.915400  0.812900  0.927230  1.0  -0.0712
  C  C318  1  0.986660  0.949780  0.885230  1.0  -0.0094
  C  C319  1  0.950720  0.963580  0.884790  1.0  -0.1204
  C  C320  1  0.846830  0.588520  0.766530  1.0  0.6786
  C  C321  1  0.810840  0.535550  0.749630  1.0  -0.1149
  C  C322  1  0.770970  0.522100  0.692530  1.0  -0.0589
  C  C323  1  0.737070  0.473250  0.678030  1.0  -0.1078
  C  C324  1  0.741920  0.435920  0.717520  1.0  0.0402
  C  C325  1  0.782540  0.449280  0.772530  1.0  -0.1276
  C  C326  1  0.815930  0.498190  0.788830  1.0  -0.0286
  C  C327  1  0.703520  0.383120  0.707700  1.0  0.0253
  C  C328  1  0.715810  0.345990  0.707140  1.0  -0.0993
  C  C329  1  0.995440  0.705080  0.650530  1.0  0.51
  C  C330  1  0.594310  0.076290  0.212470  1.0  0.7139
  C  C331  1  0.611080  0.130420  0.218170  1.0  -0.1174
  C  C332  1  0.655580  0.165090  0.180870  1.0  -0.0511
  C  C333  1  0.669660  0.214490  0.182670  1.0  -0.0756
  C  C334  1  0.639330  0.230760  0.220590  1.0  0.0523
  C  C335  1  0.596050  0.195430  0.261370  1.0  -0.1242
  C  C336  1  0.582060  0.146240  0.260570  1.0  -0.0712
  C  C337  1  0.653320  0.283120  0.218570  1.0  -0.0095
  C  C338  1  0.617380  0.296920  0.218130  1.0  -0.1216
  C  C339  1  0.513490  0.921860  0.099870  1.0  0.6784
  C  C340  1  0.477500  0.868890  0.082970  1.0  -0.1149
  C  C341  1  0.437630  0.855440  0.025870  1.0  -0.0589
  C  C342  1  0.403730  0.806590  0.011370  1.0  -0.1078
  C  C343  1  0.408580  0.769260  0.050860  1.0  0.0402
  C  C344  1  0.449200  0.782620  0.105870  1.0  -0.1276
  C  C345  1  0.482590  0.831530  0.122170  1.0  -0.0286
  C  C346  1  0.370180  0.716460  0.041040  1.0  0.0253
  C  C347  1  0.382470  0.679330  0.040480  1.0  -0.0965
  C  C348  1  0.662100  0.038420  0.983870  1.0  0.51
  C  C349  1  0.590380  0.851360  0.545800  1.0  0.7139
  C  C350  1  0.536250  0.814000  0.551500  1.0  -0.1218
  C  C351  1  0.501580  0.823830  0.514200  1.0  -0.059
  C  C352  1  0.452180  0.788510  0.516000  1.0  -0.0802
  C  C353  1  0.435910  0.741910  0.553920  1.0  0.0519
  C  C354  1  0.471240  0.733960  0.594700  1.0  -0.1234
  C  C355  1  0.520430  0.769160  0.593900  1.0  -0.0691
  C  C356  1  0.383550  0.703540  0.551900  1.0  -0.011
  C  C357  1  0.369750  0.653800  0.551460  1.0  -0.1219
  C  C358  1  0.744810  0.924970  0.433200  1.0  0.6784
  C  C359  1  0.797780  0.941950  0.416300  1.0  -0.1163
  C  C360  1  0.811230  0.915530  0.359200  1.0  -0.0535
  C  C361  1  0.860080  0.930480  0.344700  1.0  -0.1092
  C  C362  1  0.897410  0.972660  0.384190  1.0  0.0388
  C  C363  1  0.884050  0.999920  0.439200  1.0  -0.1256
  C  C364  1  0.835140  0.984400  0.455500  1.0  -0.0267
  C  C365  1  0.950210  0.987060  0.374370  1.0  0.0246
  C  C366  1  0.987340  0.036480  0.373810  1.0  -0.0964
  C  C367  1  0.628250  0.957020  0.317200  1.0  0.5114
  C  C368  1  0.257050  0.184690  0.879130  1.0  0.714
  C  C369  1  0.202920  0.147330  0.884830  1.0  -0.1219
  C  C370  1  0.168250  0.157160  0.847530  1.0  -0.059
  C  C371  1  0.118850  0.121840  0.849330  1.0  -0.0802
  C  C372  1  0.102580  0.075240  0.887250  1.0  0.0519
  C  C373  1  0.137910  0.067290  0.928030  1.0  -0.1234
  C  C374  1  0.187100  0.102490  0.927230  1.0  -0.0691
  C  C375  1  0.050220  0.036870  0.885230  1.0  -0.011
  C  C376  1  0.036420  0.987130  0.884790  1.0  -0.1209
  C  C377  1  0.411480  0.258300  0.766530  1.0  0.6785
  C  C378  1  0.464450  0.275280  0.749630  1.0  -0.1163
  C  C379  1  0.477900  0.248860  0.692530  1.0  -0.0535
  C  C380  1  0.526750  0.263810  0.678030  1.0  -0.1092
  C  C381  1  0.564080  0.305990  0.717520  1.0  0.0388
  C  C382  1  0.550720  0.333250  0.772530  1.0  -0.1256
  C  C383  1  0.501810  0.317730  0.788830  1.0  -0.0267
  C  C384  1  0.616880  0.320390  0.707700  1.0  0.0246
  C  C385  1  0.654010  0.369810  0.707140  1.0  -0.0964
  C  C386  1  0.294920  0.290350  0.650530  1.0  0.5114
  C  C387  1  0.923710  0.518030  0.212470  1.0  0.714
  C  C388  1  0.869580  0.480670  0.218170  1.0  -0.1218
  C  C389  1  0.834910  0.490500  0.180870  1.0  -0.059
  C  C390  1  0.785510  0.455180  0.182670  1.0  -0.0802
  C  C391  1  0.769240  0.408580  0.220590  1.0  0.0519
  C  C392  1  0.804570  0.400630  0.261370  1.0  -0.1234
  C  C393  1  0.853760  0.435830  0.260570  1.0  -0.0691
  C  C394  1  0.716880  0.370210  0.218570  1.0  -0.011
  C  C395  1  0.703080  0.320470  0.218130  1.0  -0.1212
  C  C396  1  0.078140  0.591640  0.099870  1.0  0.6784
  C  C397  1  0.131110  0.608620  0.082970  1.0  -0.1163
  C  C398  1  0.144560  0.582200  0.025870  1.0  -0.0535
  C  C399  1  0.193410  0.597150  0.011370  1.0  -0.1092
  C  C400  1  0.230740  0.639330  0.050860  1.0  0.0388
  C  C401  1  0.217380  0.666590  0.105870  1.0  -0.1256
  C  C402  1  0.168470  0.651070  0.122170  1.0  -0.0267
  C  C403  1  0.283540  0.653730  0.041040  1.0  0.0246
  C  C404  1  0.320670  0.703150  0.040480  1.0  -0.0971
  C  C405  1  0.961580  0.623690  0.983870  1.0  0.5114
  C  C406  1  0.851360  0.260980  0.454200  1.0  0.7132
  C  C407  1  0.814000  0.277750  0.448500  1.0  -0.1231
  C  C408  1  0.823830  0.322250  0.485800  1.0  -0.0565
  C  C409  1  0.788510  0.336330  0.484000  1.0  -0.0784
  C  C410  1  0.741910  0.306000  0.446080  1.0  0.052
  C  C411  1  0.733960  0.262720  0.405300  1.0  -0.1249
  C  C412  1  0.769160  0.248730  0.406100  1.0  -0.0726
  C  C413  1  0.703540  0.319990  0.448100  1.0  -0.0124
  C  C414  1  0.653800  0.284050  0.448540  1.0  -0.1216
  C  C415  1  0.924970  0.180160  0.566800  1.0  0.6789
  C  C416  1  0.941950  0.144170  0.583700  1.0  -0.1175
  C  C417  1  0.915530  0.104300  0.640800  1.0  -0.0583
  C  C418  1  0.930480  0.070400  0.655300  1.0  -0.1085
  C  C419  1  0.972660  0.075250  0.615810  1.0  0.0388
  C  C420  1  0.999920  0.115870  0.560800  1.0  -0.1291
  C  C421  1  0.984400  0.149260  0.544500  1.0  -0.0325
  C  C422  1  0.987060  0.036850  0.625630  1.0  0.0242
  C  C423  1  0.036480  0.049140  0.626190  1.0  -0.0929
  C  C424  1  0.957020  0.328770  0.682800  1.0  0.5091
  C  C425  1  0.518030  0.594310  0.787530  1.0  0.7136
  C  C426  1  0.480670  0.611080  0.781830  1.0  -0.1231
  C  C427  1  0.490500  0.655580  0.819130  1.0  -0.0565
  C  C428  1  0.455180  0.669660  0.817330  1.0  -0.0784
  C  C429  1  0.408580  0.639330  0.779410  1.0  0.052
  C  C430  1  0.400630  0.596050  0.738630  1.0  -0.1249
  C  C431  1  0.435830  0.582060  0.739430  1.0  -0.0726
  C  C432  1  0.370210  0.653320  0.781430  1.0  -0.0124
  C  C433  1  0.320470  0.617380  0.781870  1.0  -0.119
  C  C434  1  0.591640  0.513490  0.900130  1.0  0.679
  C  C435  1  0.608620  0.477500  0.917030  1.0  -0.1175
  C  C436  1  0.582200  0.437630  0.974130  1.0  -0.0583
  C  C437  1  0.597150  0.403730  0.988630  1.0  -0.1084
  C  C438  1  0.639330  0.408580  0.949140  1.0  0.0389
  C  C439  1  0.666590  0.449200  0.894130  1.0  -0.1291
  C  C440  1  0.651070  0.482590  0.877830  1.0  -0.0325
  C  C441  1  0.653730  0.370180  0.958960  1.0  0.0242
  C  C442  1  0.703150  0.382470  0.959520  1.0  -0.0967
  C  C443  1  0.623690  0.662100  0.016130  1.0  0.5091
  C  C444  1  0.184690  0.927650  0.120870  1.0  0.7135
  C  C445  1  0.147330  0.944420  0.115170  1.0  -0.1232
  C  C446  1  0.157160  0.988920  0.152470  1.0  -0.0565
  C  C447  1  0.121840  0.003000  0.150670  1.0  -0.0784
  C  C448  1  0.075240  0.972670  0.112750  1.0  0.052
  C  C449  1  0.067290  0.929390  0.071970  1.0  -0.1249
  C  C450  1  0.102490  0.915400  0.072770  1.0  -0.0726
  C  C451  1  0.036870  0.986660  0.114770  1.0  -0.0124
  C  C452  1  0.987130  0.950720  0.115210  1.0  -0.1201
  C  C453  1  0.258300  0.846830  0.233470  1.0  0.6789
  C  C454  1  0.275280  0.810840  0.250370  1.0  -0.1175
  C  C455  1  0.248860  0.770970  0.307470  1.0  -0.0583
  C  C456  1  0.263810  0.737070  0.321970  1.0  -0.1085
  C  C457  1  0.305990  0.741920  0.282480  1.0  0.0388
  C  C458  1  0.333250  0.782540  0.227470  1.0  -0.1291
  C  C459  1  0.317730  0.815930  0.211170  1.0  -0.0325
  C  C460  1  0.320390  0.703520  0.292300  1.0  0.0242
  C  C461  1  0.369810  0.715810  0.292860  1.0  -0.0929
  C  C462  1  0.290350  0.995440  0.349470  1.0  0.5091
  C  C463  1  0.739020  0.590380  0.454200  1.0  0.7173
  C  C464  1  0.722250  0.536250  0.448500  1.0  -0.1162
  C  C465  1  0.677750  0.501580  0.485800  1.0  -0.0525
  C  C466  1  0.663670  0.452180  0.484000  1.0  -0.0773
  C  C467  1  0.694000  0.435910  0.446080  1.0  0.0521
  C  C468  1  0.737280  0.471240  0.405300  1.0  -0.125
  C  C469  1  0.751270  0.520430  0.406100  1.0  -0.0744
  C  C470  1  0.680010  0.383550  0.448100  1.0  -0.0102
  C  C471  1  0.715950  0.369750  0.448540  1.0  -0.119
  C  C472  1  0.819840  0.744810  0.566800  1.0  0.678
  C  C473  1  0.855830  0.797780  0.583700  1.0  -0.1175
  C  C474  1  0.895700  0.811230  0.640800  1.0  -0.0587
  C  C475  1  0.929600  0.860080  0.655300  1.0  -0.1096
  C  C476  1  0.924750  0.897410  0.615810  1.0  0.0395
  C  C477  1  0.884130  0.884050  0.560800  1.0  -0.1279
  C  C478  1  0.850740  0.835140  0.544500  1.0  -0.0283
  C  C479  1  0.963150  0.950210  0.625630  1.0  0.0246
  C  C480  1  0.950860  0.987340  0.626190  1.0  -0.0999
  C  C481  1  0.671230  0.628250  0.682800  1.0  0.5097
  C  C482  1  0.405690  0.923710  0.787530  1.0  0.7172
  C  C483  1  0.388920  0.869580  0.781830  1.0  -0.1162
  C  C484  1  0.344420  0.834910  0.819130  1.0  -0.0525
  C  C485  1  0.330340  0.785510  0.817330  1.0  -0.0773
  C  C486  1  0.360670  0.769240  0.779410  1.0  0.0521
  C  C487  1  0.403950  0.804570  0.738630  1.0  -0.125
  C  C488  1  0.417940  0.853760  0.739430  1.0  -0.0744
  C  C489  1  0.346680  0.716880  0.781430  1.0  -0.0102
  C  C490  1  0.382620  0.703080  0.781870  1.0  -0.1191
  C  C491  1  0.486510  0.078140  0.900130  1.0  0.678
  C  C492  1  0.522500  0.131110  0.917030  1.0  -0.1175
  C  C493  1  0.562370  0.144560  0.974130  1.0  -0.0587
  C  C494  1  0.596270  0.193410  0.988630  1.0  -0.1096
  C  C495  1  0.591420  0.230740  0.949140  1.0  0.0395
  C  C496  1  0.550800  0.217380  0.894130  1.0  -0.1279
  C  C497  1  0.517410  0.168470  0.877830  1.0  -0.0283
  C  C498  1  0.629820  0.283540  0.958960  1.0  0.0246
  C  C499  1  0.617530  0.320670  0.959520  1.0  -0.0968
  C  C500  1  0.337900  0.961580  0.016130  1.0  0.5097
  C  C501  1  0.072350  0.257050  0.120870  1.0  0.7171
  C  C502  1  0.055580  0.202920  0.115170  1.0  -0.1161
  C  C503  1  0.011080  0.168250  0.152470  1.0  -0.0525
  C  C504  1  0.997000  0.118850  0.150670  1.0  -0.0773
  C  C505  1  0.027330  0.102580  0.112750  1.0  0.0521
  C  C506  1  0.070610  0.137910  0.071970  1.0  -0.125
  C  C507  1  0.084600  0.187100  0.072770  1.0  -0.0743
  C  C508  1  0.013340  0.050220  0.114770  1.0  -0.0102
  C  C509  1  0.049280  0.036420  0.115210  1.0  -0.1177
  C  C510  1  0.153170  0.411480  0.233470  1.0  0.6781
  C  C511  1  0.189160  0.464450  0.250370  1.0  -0.1175
  C  C512  1  0.229030  0.477900  0.307470  1.0  -0.0587
  C  C513  1  0.262930  0.526750  0.321970  1.0  -0.1096
  C  C514  1  0.258080  0.564080  0.282480  1.0  0.0395
  C  C515  1  0.217460  0.550720  0.227470  1.0  -0.1279
  C  C516  1  0.184070  0.501810  0.211170  1.0  -0.0283
  C  C517  1  0.296480  0.616880  0.292300  1.0  0.0246
  C  C518  1  0.284190  0.654010  0.292860  1.0  -0.0999
  C  C519  1  0.004560  0.294920  0.349470  1.0  0.5097
  C  C520  1  0.409620  0.148640  0.454200  1.0  0.7149
  C  C521  1  0.463750  0.186000  0.448500  1.0  -0.1216
  C  C522  1  0.498420  0.176170  0.485800  1.0  -0.0582
  C  C523  1  0.547820  0.211490  0.484000  1.0  -0.0823
  C  C524  1  0.564090  0.258090  0.446080  1.0  0.0514
  C  C525  1  0.528760  0.266040  0.405300  1.0  -0.1222
  C  C526  1  0.479570  0.230840  0.406100  1.0  -0.0729
  C  C527  1  0.616450  0.296460  0.448100  1.0  -0.0127
  C  C528  1  0.630250  0.346200  0.448540  1.0  -0.1232
  C  C529  1  0.255190  0.075030  0.566800  1.0  0.6774
  C  C530  1  0.202220  0.058050  0.583700  1.0  -0.1172
  C  C531  1  0.188770  0.084470  0.640800  1.0  -0.0547
  C  C532  1  0.139920  0.069520  0.655300  1.0  -0.1058
  C  C533  1  0.102590  0.027340  0.615810  1.0  0.0405
  C  C534  1  0.115950  0.000080  0.560800  1.0  -0.127
  C  C535  1  0.164860  0.015600  0.544500  1.0  -0.0269
  C  C536  1  0.049790  0.012940  0.625630  1.0  0.0256
  C  C537  1  0.012660  0.963520  0.626190  1.0  -0.0946
  C  C538  1  0.371750  0.042980  0.682800  1.0  0.5108
  C  C539  1  0.076290  0.481970  0.787530  1.0  0.715
  C  C540  1  0.130420  0.519330  0.781830  1.0  -0.1216
  C  C541  1  0.165090  0.509500  0.819130  1.0  -0.0582
  C  C542  1  0.214490  0.544820  0.817330  1.0  -0.0822
  C  C543  1  0.230760  0.591420  0.779410  1.0  0.0514
  C  C544  1  0.195430  0.599370  0.738630  1.0  -0.1222
  C  C545  1  0.146240  0.564170  0.739430  1.0  -0.0729
  C  C546  1  0.283120  0.629790  0.781430  1.0  -0.0127
  C  C547  1  0.296920  0.679530  0.781870  1.0  -0.1222
  C  C548  1  0.921860  0.408360  0.900130  1.0  0.6774
  C  C549  1  0.868890  0.391380  0.917030  1.0  -0.1172
  C  C550  1  0.855440  0.417800  0.974130  1.0  -0.0547
  C  C551  1  0.806590  0.402850  0.988630  1.0  -0.1058
  C  C552  1  0.769260  0.360670  0.949140  1.0  0.0405
  C  C553  1  0.782620  0.333410  0.894130  1.0  -0.1269
  C  C554  1  0.831530  0.348930  0.877830  1.0  -0.0269
  C  C555  1  0.716460  0.346270  0.958960  1.0  0.0256
  C  C556  1  0.679330  0.296850  0.959520  1.0  -0.0946
  C  C557  1  0.038420  0.376310  0.016130  1.0  0.5108
  C  C558  1  0.742950  0.815310  0.120870  1.0  0.715
  C  C559  1  0.797080  0.852670  0.115170  1.0  -0.1217
  C  C560  1  0.831750  0.842840  0.152470  1.0  -0.0582
  C  C561  1  0.881150  0.878160  0.150670  1.0  -0.0823
  C  C562  1  0.897420  0.924760  0.112750  1.0  0.0514
  C  C563  1  0.862090  0.932710  0.071970  1.0  -0.1223
  C  C564  1  0.812900  0.897510  0.072770  1.0  -0.0728
  C  C565  1  0.949780  0.963130  0.114770  1.0  -0.0127
  C  C566  1  0.963580  0.012870  0.115210  1.0  -0.1217
  C  C567  1  0.588520  0.741700  0.233470  1.0  0.6775
  C  C568  1  0.535550  0.724720  0.250370  1.0  -0.1172
  C  C569  1  0.522100  0.751140  0.307470  1.0  -0.0547
  C  C570  1  0.473250  0.736190  0.321970  1.0  -0.1058
  C  C571  1  0.435920  0.694010  0.282480  1.0  0.0405
  C  C572  1  0.449280  0.666750  0.227470  1.0  -0.127
  C  C573  1  0.498190  0.682270  0.211170  1.0  -0.0269
  C  C574  1  0.383120  0.679610  0.292300  1.0  0.0256
  C  C575  1  0.345990  0.630190  0.292860  1.0  -0.0946
  C  C576  1  0.705080  0.709650  0.349470  1.0  0.5107
  N  N577  1  0.971830  0.657410  0.279100  1.0  -0.0803
  N  N578  1  0.007990  0.648080  0.256750  1.0  -0.2878
  N  N579  1  0.984280  0.684800  0.349100  1.0  -0.0887
  N  N580  1  0.087060  0.673650  0.317300  1.0  -0.7483
  N  N581  1  0.029200  0.694040  0.375880  1.0  -0.2939
  N  N582  1  0.638500  0.990740  0.612430  1.0  -0.0803
  N  N583  1  0.674660  0.981410  0.590080  1.0  -0.2878
  N  N584  1  0.650950  0.018130  0.682430  1.0  -0.0887
  N  N585  1  0.753730  0.006980  0.650630  1.0  -0.7483
  N  N586  1  0.695870  0.027370  0.709210  1.0  -0.2938
  N  N587  1  0.305160  0.324080  0.945770  1.0  -0.08
  N  N588  1  0.341320  0.314750  0.923420  1.0  -0.2879
  N  N589  1  0.317610  0.351470  0.015770  1.0  -0.0887
  N  N590  1  0.420390  0.340320  0.983970  1.0  -0.7484
  N  N591  1  0.362530  0.360710  0.042550  1.0  -0.2938
  N  N592  1  0.342590  0.314420  0.279100  1.0  -0.0813
  N  N593  1  0.351920  0.359910  0.256750  1.0  -0.289
  N  N594  1  0.315200  0.299480  0.349100  1.0  -0.0855
  N  N595  1  0.326350  0.413410  0.317300  1.0  -0.7487
  N  N596  1  0.305960  0.335160  0.375880  1.0  -0.2953
  N  N597  1  0.009260  0.647750  0.612430  1.0  -0.0813
  N  N598  1  0.018590  0.693240  0.590080  1.0  -0.2889
  N  N599  1  0.981870  0.632810  0.682430  1.0  -0.0855
  N  N600  1  0.993020  0.746740  0.650630  1.0  -0.7487
  N  N601  1  0.972630  0.668490  0.709210  1.0  -0.2953
  N  N602  1  0.675920  0.981090  0.945770  1.0  -0.0817
  N  N603  1  0.685250  0.026580  0.923420  1.0  -0.289
  N  N604  1  0.648530  0.966150  0.015770  1.0  -0.0855
  N  N605  1  0.659680  0.080080  0.983970  1.0  -0.7487
  N  N606  1  0.639290  0.001830  0.042550  1.0  -0.2953
  N  N607  1  0.685580  0.028170  0.279100  1.0  -0.0798
  N  N608  1  0.640090  0.992010  0.256750  1.0  -0.2892
  N  N609  1  0.700520  0.015720  0.349100  1.0  -0.0872
  N  N610  1  0.586590  0.912940  0.317300  1.0  -0.7481
  N  N611  1  0.664840  0.970800  0.375880  1.0  -0.2945
  N  N612  1  0.352250  0.361500  0.612430  1.0  -0.0798
  N  N613  1  0.306760  0.325340  0.590080  1.0  -0.2892
  N  N614  1  0.367190  0.349050  0.682430  1.0  -0.0871
  N  N615  1  0.253260  0.246270  0.650630  1.0  -0.7481
  N  N616  1  0.331510  0.304130  0.709210  1.0  -0.2945
  N  N617  1  0.018910  0.694840  0.945770  1.0  -0.0794
  N  N618  1  0.973420  0.658680  0.923420  1.0  -0.2891
  N  N619  1  0.033850  0.682390  0.015770  1.0  -0.0871
  N  N620  1  0.919920  0.579610  0.983970  1.0  -0.7481
  N  N621  1  0.998170  0.637470  0.042550  1.0  -0.2945
  N  N622  1  0.028170  0.342590  0.720900  1.0  -0.0836
  N  N623  1  0.992010  0.351920  0.743250  1.0  -0.2876
  N  N624  1  0.015720  0.315200  0.650900  1.0  -0.0897
  N  N625  1  0.912940  0.326350  0.682700  1.0  -0.748
  N  N626  1  0.970800  0.305960  0.624120  1.0  -0.2959
  N  N627  1  0.694840  0.675920  0.054230  1.0  -0.0832
  N  N628  1  0.658680  0.685250  0.076580  1.0  -0.2877
  N  N629  1  0.682390  0.648530  0.984230  1.0  -0.0897
  N  N630  1  0.579610  0.659680  0.016030  1.0  -0.7481
  N  N631  1  0.637470  0.639290  0.957450  1.0  -0.2958
  N  N632  1  0.361500  0.009260  0.387570  1.0  -0.0836
  N  N633  1  0.325340  0.018590  0.409920  1.0  -0.2876
  N  N634  1  0.349050  0.981870  0.317570  1.0  -0.0897
  N  N635  1  0.246270  0.993020  0.349370  1.0  -0.748
  N  N636  1  0.304130  0.972630  0.290790  1.0  -0.2958
  N  N637  1  0.657410  0.685580  0.720900  1.0  -0.0802
  N  N638  1  0.648080  0.640090  0.743250  1.0  -0.2878
  N  N639  1  0.684800  0.700520  0.650900  1.0  -0.0861
  N  N640  1  0.673650  0.586590  0.682700  1.0  -0.7494
  N  N641  1  0.694040  0.664840  0.624120  1.0  -0.2956
  N  N642  1  0.324080  0.018910  0.054230  1.0  -0.0808
  N  N643  1  0.314750  0.973420  0.076580  1.0  -0.2879
  N  N644  1  0.351470  0.033850  0.984230  1.0  -0.0861
  N  N645  1  0.340320  0.919920  0.016030  1.0  -0.7494
  N  N646  1  0.360710  0.998170  0.957450  1.0  -0.2956
  N  N647  1  0.990740  0.352250  0.387570  1.0  -0.0802
  N  N648  1  0.981410  0.306760  0.409920  1.0  -0.2878
  N  N649  1  0.018130  0.367190  0.317570  1.0  -0.0861
  N  N650  1  0.006980  0.253260  0.349370  1.0  -0.7494
  N  N651  1  0.027370  0.331510  0.290790  1.0  -0.2956
  N  N652  1  0.314420  0.971830  0.720900  1.0  -0.079
  N  N653  1  0.359910  0.007990  0.743250  1.0  -0.2877
  N  N654  1  0.299480  0.984280  0.650900  1.0  -0.0878
  N  N655  1  0.413410  0.087060  0.682700  1.0  -0.7492
  N  N656  1  0.335160  0.029200  0.624120  1.0  -0.2942
  N  N657  1  0.981090  0.305160  0.054230  1.0  -0.0786
  N  N658  1  0.026580  0.341320  0.076580  1.0  -0.2876
  N  N659  1  0.966150  0.317610  0.984230  1.0  -0.0878
  N  N660  1  0.080080  0.420390  0.016030  1.0  -0.7492
  N  N661  1  0.001830  0.362530  0.957450  1.0  -0.2942
  N  N662  1  0.647750  0.638500  0.387570  1.0  -0.079
  N  N663  1  0.693240  0.674660  0.409920  1.0  -0.2877
  N  N664  1  0.632810  0.650950  0.317570  1.0  -0.0878
  N  N665  1  0.746740  0.753730  0.349370  1.0  -0.7492
  N  N666  1  0.668490  0.695870  0.290790  1.0  -0.2942
  O  O667  1  0.109010  0.820860  0.391200  1.0  -0.4703
  O  O668  1  0.051840  0.787540  0.493100  1.0  -0.5711
  O  O669  1  0.151060  0.771660  0.595550  1.0  -0.4758
  O  O670  1  0.115390  0.717450  0.487040  1.0  -0.5994
  O  O671  1  0.775680  0.154190  0.724530  1.0  -0.4703
  O  O672  1  0.718510  0.120870  0.826430  1.0  -0.5713
  O  O673  1  0.817730  0.104990  0.928880  1.0  -0.4758
  O  O674  1  0.782060  0.050780  0.820370  1.0  -0.5994
  O  O675  1  0.442340  0.487530  0.057870  1.0  -0.4704
  O  O676  1  0.385170  0.454210  0.159770  1.0  -0.5713
  O  O677  1  0.484390  0.438330  0.262220  1.0  -0.4758
  O  O678  1  0.448720  0.384120  0.153710  1.0  -0.5993
  O  O679  1  0.179140  0.288150  0.391200  1.0  -0.4665
  O  O680  1  0.212460  0.264300  0.493100  1.0  -0.5708
  O  O681  1  0.228340  0.379400  0.595550  1.0  -0.477
  O  O682  1  0.282550  0.397940  0.487040  1.0  -0.5985
  O  O683  1  0.845810  0.621480  0.724530  1.0  -0.4665
  O  O684  1  0.879130  0.597630  0.826430  1.0  -0.5708
  O  O685  1  0.895010  0.712730  0.928880  1.0  -0.4771
  O  O686  1  0.949220  0.731270  0.820370  1.0  -0.5984
  O  O687  1  0.512470  0.954820  0.057870  1.0  -0.4665
  O  O688  1  0.545790  0.930970  0.159770  1.0  -0.5708
  O  O689  1  0.561670  0.046070  0.262220  1.0  -0.477
  O  O690  1  0.615880  0.064610  0.153710  1.0  -0.5985
  O  O691  1  0.711850  0.890990  0.391200  1.0  -0.4667
  O  O692  1  0.735700  0.948160  0.493100  1.0  -0.5704
  O  O693  1  0.620600  0.848940  0.595550  1.0  -0.4828
  O  O694  1  0.602060  0.884610  0.487040  1.0  -0.598
  O  O695  1  0.378520  0.224320  0.724530  1.0  -0.4667
  O  O696  1  0.402370  0.281490  0.826430  1.0  -0.5702
  O  O697  1  0.287270  0.182270  0.928880  1.0  -0.4829
  O  O698  1  0.268730  0.217940  0.820370  1.0  -0.5979
  O  O699  1  0.045180  0.557660  0.057870  1.0  -0.4667
  O  O700  1  0.069030  0.614830  0.159770  1.0  -0.5704
  O  O701  1  0.953930  0.515610  0.262220  1.0  -0.4828
  O  O702  1  0.935390  0.551280  0.153710  1.0  -0.598
  O  O703  1  0.890990  0.179140  0.608800  1.0  -0.4712
  O  O704  1  0.948160  0.212460  0.506900  1.0  -0.5719
  O  O705  1  0.848940  0.228340  0.404450  1.0  -0.4746
  O  O706  1  0.884610  0.282550  0.512960  1.0  -0.5988
  O  O707  1  0.557660  0.512470  0.942130  1.0  -0.4712
  O  O708  1  0.614830  0.545790  0.840230  1.0  -0.572
  O  O709  1  0.515610  0.561670  0.737780  1.0  -0.4746
  O  O710  1  0.551280  0.615880  0.846290  1.0  -0.5987
  O  O711  1  0.224320  0.845810  0.275470  1.0  -0.4712
  O  O712  1  0.281490  0.879130  0.173570  1.0  -0.572
  O  O713  1  0.182270  0.895010  0.071120  1.0  -0.4746
  O  O714  1  0.217940  0.949220  0.179630  1.0  -0.5988
  O  O715  1  0.820860  0.711850  0.608800  1.0  -0.4666
  O  O716  1  0.787540  0.735700  0.506900  1.0  -0.5709
  O  O717  1  0.771660  0.620600  0.404450  1.0  -0.4776
  O  O718  1  0.717450  0.602060  0.512960  1.0  -0.5972
  O  O719  1  0.487530  0.045180  0.942130  1.0  -0.4666
  O  O720  1  0.454210  0.069030  0.840230  1.0  -0.5709
  O  O721  1  0.438330  0.953930  0.737780  1.0  -0.4776
  O  O722  1  0.384120  0.935390  0.846290  1.0  -0.5972
  O  O723  1  0.154190  0.378520  0.275470  1.0  -0.4666
  O  O724  1  0.120870  0.402370  0.173570  1.0  -0.5709
  O  O725  1  0.104990  0.287270  0.071120  1.0  -0.4776
  O  O726  1  0.050780  0.268730  0.179630  1.0  -0.5971
  O  O727  1  0.288150  0.109010  0.608800  1.0  -0.4655
  O  O728  1  0.264300  0.051840  0.506900  1.0  -0.5706
  O  O729  1  0.379400  0.151060  0.404450  1.0  -0.4822
  O  O730  1  0.397940  0.115390  0.512960  1.0  -0.5974
  O  O731  1  0.954820  0.442340  0.942130  1.0  -0.4655
  O  O732  1  0.930970  0.385170  0.840230  1.0  -0.5706
  O  O733  1  0.046070  0.484390  0.737780  1.0  -0.4822
  O  O734  1  0.064610  0.448720  0.846290  1.0  -0.5974
  O  O735  1  0.621480  0.775680  0.275470  1.0  -0.4655
  O  O736  1  0.597630  0.718510  0.173570  1.0  -0.5704
  O  O737  1  0.712730  0.817730  0.071120  1.0  -0.4823
  O  O738  1  0.731270  0.782060  0.179630  1.0  -0.5974
