# generated using pymatgen
data_CoH16C26(SN5)2
_symmetry_space_group_name_H-M   'P 1'
_cell_length_a   45.05970000
_cell_length_b   45.05970000
_cell_length_c   45.05970000
_cell_angle_alpha   60.00000000
_cell_angle_beta   60.00000000
_cell_angle_gamma   60.00000000
_symmetry_Int_Tables_number   1
_chemical_formula_structural   CoH16C26(SN5)2
_chemical_formula_sum   'Co48 H768 C1248 S96 N480'
_cell_volume   64691.89753166
_cell_formula_units_Z   48
loop_
 _symmetry_equiv_pos_site_id
 _symmetry_equiv_pos_as_xyz
  1  'x, y, z'
loop_
 _atom_site_type_symbol
 _atom_site_label
 _atom_site_symmetry_multiplicity
 _atom_site_fract_x
 _atom_site_fract_y
 _atom_site_fract_z
 _atom_site_occupancy
 _atom_site_charge
  Co  Co1  1  0.508160  0.250000  0.491840  1.0  0.6785
  Co  Co2  1  0.750000  0.008160  0.750000  1.0  0.6783
  Co  Co3  1  0.991840  0.750000  0.008160  1.0  0.6782
  Co  Co4  1  0.250000  0.491840  0.250000  1.0  0.6777
  Co  Co5  1  0.508160  0.491840  0.750000  1.0  0.6779
  Co  Co6  1  0.750000  0.750000  0.491840  1.0  0.6782
  Co  Co7  1  0.991840  0.008160  0.250000  1.0  0.678
  Co  Co8  1  0.250000  0.250000  0.008160  1.0  0.6783
  Co  Co9  1  0.508160  0.750000  0.250000  1.0  0.6787
  Co  Co10  1  0.750000  0.491840  0.008160  1.0  0.6779
  Co  Co11  1  0.991840  0.250000  0.750000  1.0  0.678
  Co  Co12  1  0.250000  0.008160  0.491840  1.0  0.678
  Co  Co13  1  0.491840  0.750000  0.508160  1.0  0.6782
  Co  Co14  1  0.250000  0.991840  0.250000  1.0  0.6777
  Co  Co15  1  0.008160  0.250000  0.991840  1.0  0.6785
  Co  Co16  1  0.750000  0.508160  0.750000  1.0  0.6783
  Co  Co17  1  0.491840  0.508160  0.250000  1.0  0.678
  Co  Co18  1  0.250000  0.250000  0.508160  1.0  0.6783
  Co  Co19  1  0.008160  0.991840  0.750000  1.0  0.6779
  Co  Co20  1  0.750000  0.750000  0.991840  1.0  0.6782
  Co  Co21  1  0.491840  0.250000  0.750000  1.0  0.678
  Co  Co22  1  0.250000  0.508160  0.991840  1.0  0.678
  Co  Co23  1  0.008160  0.750000  0.250000  1.0  0.6787
  Co  Co24  1  0.750000  0.991840  0.508160  1.0  0.6779
  Co  Co25  1  0.502230  0.002230  0.747770  1.0  0.6417
  Co  Co26  1  0.247770  0.747770  0.002230  1.0  0.6445
  Co  Co27  1  0.502230  0.747770  0.747770  1.0  0.6439
  Co  Co28  1  0.247770  0.002230  0.002230  1.0  0.6445
  Co  Co29  1  0.502230  0.747770  0.002230  1.0  0.6444
  Co  Co30  1  0.247770  0.002230  0.747770  1.0  0.6442
  Co  Co31  1  0.997770  0.497770  0.752230  1.0  0.6445
  Co  Co32  1  0.252230  0.752230  0.497770  1.0  0.6417
  Co  Co33  1  0.252230  0.497770  0.752230  1.0  0.6444
  Co  Co34  1  0.997770  0.752230  0.497770  1.0  0.6442
  Co  Co35  1  0.252230  0.497770  0.497770  1.0  0.6439
  Co  Co36  1  0.997770  0.752230  0.752230  1.0  0.6445
  Co  Co37  1  0.497770  0.997770  0.252230  1.0  0.6445
  Co  Co38  1  0.752230  0.252230  0.997770  1.0  0.6417
  Co  Co39  1  0.497770  0.252230  0.252230  1.0  0.6445
  Co  Co40  1  0.752230  0.997770  0.997770  1.0  0.6439
  Co  Co41  1  0.497770  0.252230  0.997770  1.0  0.6442
  Co  Co42  1  0.752230  0.997770  0.252230  1.0  0.6444
  Co  Co43  1  0.002230  0.502230  0.247770  1.0  0.6417
  Co  Co44  1  0.747770  0.247770  0.502230  1.0  0.6445
  Co  Co45  1  0.747770  0.502230  0.247770  1.0  0.6442
  Co  Co46  1  0.002230  0.247770  0.502230  1.0  0.6444
  Co  Co47  1  0.747770  0.502230  0.502230  1.0  0.6445
  Co  Co48  1  0.002230  0.247770  0.247770  1.0  0.6439
  H  H49  1  0.459200  0.185400  0.814200  1.0  0.0821
  H  H50  1  0.441000  0.142400  0.820400  1.0  0.1218
  H  H51  1  0.447700  0.136500  0.768300  1.0  0.1229
  H  H52  1  0.478800  0.225200  0.709000  1.0  0.08
  H  H53  1  0.488800  0.312400  0.519000  1.0  0.0861
  H  H54  1  0.478200  0.320400  0.570800  1.0  0.1221
  H  H55  1  0.474100  0.272100  0.625900  1.0  0.117
  H  H56  1  0.490400  0.211400  0.573400  1.0  0.0899
  H  H57  1  0.492800  0.082000  0.717000  1.0  0.0892
  H  H58  1  0.504300  0.125300  0.610300  1.0  0.1165
  H  H59  1  0.520100  0.066700  0.611500  1.0  0.1163
  H  H60  1  0.519200  0.018600  0.665800  1.0  0.0909
  H  H61  1  0.558400  0.928800  0.773800  1.0  0.0883
  H  H62  1  0.567200  0.880200  0.825200  1.0  0.1249
  H  H63  1  0.518100  0.875900  0.880100  1.0  0.1168
  H  H64  1  0.455800  0.971000  0.827600  1.0  0.0866
  H  H65  1  0.685400  0.959200  0.541200  1.0  0.0829
  H  H66  1  0.642400  0.941000  0.596200  1.0  0.1203
  H  H67  1  0.636500  0.947700  0.647500  1.0  0.1234
  H  H68  1  0.725200  0.978800  0.587000  1.0  0.0798
  H  H69  1  0.812400  0.988800  0.679800  1.0  0.0866
  H  H70  1  0.820400  0.978200  0.630600  1.0  0.1193
  H  H71  1  0.772100  0.974100  0.627900  1.0  0.1179
  H  H72  1  0.711400  0.990400  0.724800  1.0  0.0886
  H  H73  1  0.582000  0.992800  0.708200  1.0  0.0906
  H  H74  1  0.625300  0.004300  0.760100  1.0  0.1168
  H  H75  1  0.566700  0.020100  0.801700  1.0  0.1174
  H  H76  1  0.518600  0.019200  0.796400  1.0  0.0913
  H  H77  1  0.428800  0.058400  0.739000  1.0  0.088
  H  H78  1  0.380200  0.067200  0.727400  1.0  0.1244
  H  H79  1  0.375900  0.018100  0.725900  1.0  0.1176
  H  H80  1  0.471000  0.955800  0.745600  1.0  0.0886
  H  H81  1  0.314200  0.541200  0.959200  1.0  0.0815
  H  H82  1  0.320400  0.596200  0.941000  1.0  0.1208
  H  H83  1  0.268300  0.647500  0.947700  1.0  0.1224
  H  H84  1  0.209000  0.587000  0.978800  1.0  0.0796
  H  H85  1  0.019000  0.679800  0.988800  1.0  0.0853
  H  H86  1  0.070800  0.630600  0.978200  1.0  0.1211
  H  H87  1  0.125900  0.627900  0.974100  1.0  0.1178
  H  H88  1  0.073400  0.724800  0.990400  1.0  0.0889
  H  H89  1  0.217000  0.708200  0.992800  1.0  0.0885
  H  H90  1  0.110300  0.760100  0.004300  1.0  0.1159
  H  H91  1  0.111500  0.801700  0.020100  1.0  0.1185
  H  H92  1  0.165800  0.796400  0.019200  1.0  0.0895
  H  H93  1  0.273800  0.739000  0.058400  1.0  0.0894
  H  H94  1  0.325200  0.727400  0.067200  1.0  0.1226
  H  H95  1  0.380100  0.725900  0.018100  1.0  0.1175
  H  H96  1  0.327600  0.745600  0.955800  1.0  0.09
  H  H97  1  0.041200  0.814200  0.185400  1.0  0.0823
  H  H98  1  0.096200  0.820400  0.142400  1.0  0.1221
  H  H99  1  0.147500  0.768300  0.136500  1.0  0.1235
  H  H100  1  0.087000  0.709000  0.225200  1.0  0.0806
  H  H101  1  0.179800  0.519000  0.312400  1.0  0.0851
  H  H102  1  0.130600  0.570800  0.320400  1.0  0.1192
  H  H103  1  0.127900  0.625900  0.272100  1.0  0.1177
  H  H104  1  0.224800  0.573400  0.211400  1.0  0.0895
  H  H105  1  0.208200  0.717000  0.082000  1.0  0.0886
  H  H106  1  0.260100  0.610300  0.125300  1.0  0.1158
  H  H107  1  0.301700  0.611500  0.066700  1.0  0.1185
  H  H108  1  0.296400  0.665800  0.018600  1.0  0.0883
  H  H109  1  0.239000  0.773800  0.928800  1.0  0.0901
  H  H110  1  0.227400  0.825200  0.880200  1.0  0.1219
  H  H111  1  0.225900  0.880100  0.875900  1.0  0.1177
  H  H112  1  0.245600  0.827600  0.971000  1.0  0.0889
  H  H113  1  0.459200  0.814200  0.541200  1.0  0.0824
  H  H114  1  0.441000  0.820400  0.596200  1.0  0.1229
  H  H115  1  0.447700  0.768300  0.647500  1.0  0.1241
  H  H116  1  0.478800  0.709000  0.587000  1.0  0.0794
  H  H117  1  0.488800  0.519000  0.679800  1.0  0.0868
  H  H118  1  0.478200  0.570800  0.630600  1.0  0.119
  H  H119  1  0.474100  0.625900  0.627900  1.0  0.1165
  H  H120  1  0.490400  0.573400  0.724800  1.0  0.0924
  H  H121  1  0.492800  0.717000  0.708200  1.0  0.0886
  H  H122  1  0.504300  0.610300  0.760100  1.0  0.1154
  H  H123  1  0.520100  0.611500  0.801700  1.0  0.1193
  H  H124  1  0.519200  0.665800  0.796400  1.0  0.0907
  H  H125  1  0.558400  0.773800  0.739000  1.0  0.0887
  H  H126  1  0.567200  0.825200  0.727400  1.0  0.1231
  H  H127  1  0.518100  0.880100  0.725900  1.0  0.1166
  H  H128  1  0.455800  0.827600  0.745600  1.0  0.0868
  H  H129  1  0.685400  0.541200  0.814200  1.0  0.0814
  H  H130  1  0.642400  0.596200  0.820400  1.0  0.1215
  H  H131  1  0.636500  0.647500  0.768300  1.0  0.1238
  H  H132  1  0.725200  0.587000  0.709000  1.0  0.0804
  H  H133  1  0.812400  0.679800  0.519000  1.0  0.086
  H  H134  1  0.820400  0.630600  0.570800  1.0  0.1208
  H  H135  1  0.772100  0.627900  0.625900  1.0  0.1154
  H  H136  1  0.711400  0.724800  0.573400  1.0  0.0904
  H  H137  1  0.582000  0.708200  0.717000  1.0  0.0874
  H  H138  1  0.625300  0.760100  0.610300  1.0  0.1158
  H  H139  1  0.566700  0.801700  0.611500  1.0  0.1182
  H  H140  1  0.518600  0.796400  0.665800  1.0  0.0923
  H  H141  1  0.428800  0.739000  0.773800  1.0  0.0903
  H  H142  1  0.380200  0.727400  0.825200  1.0  0.1232
  H  H143  1  0.375900  0.725900  0.880100  1.0  0.1179
  H  H144  1  0.471000  0.745600  0.827600  1.0  0.0873
  H  H145  1  0.314200  0.959200  0.185400  1.0  0.0808
  H  H146  1  0.320400  0.941000  0.142400  1.0  0.121
  H  H147  1  0.268300  0.947700  0.136500  1.0  0.1234
  H  H148  1  0.209000  0.978800  0.225200  1.0  0.0786
  H  H149  1  0.019000  0.988800  0.312400  1.0  0.0863
  H  H150  1  0.070800  0.978200  0.320400  1.0  0.1184
  H  H151  1  0.125900  0.974100  0.272100  1.0  0.1178
  H  H152  1  0.073400  0.990400  0.211400  1.0  0.0923
  H  H153  1  0.217000  0.992800  0.082000  1.0  0.0884
  H  H154  1  0.110300  0.004300  0.125300  1.0  0.1157
  H  H155  1  0.111500  0.020100  0.066700  1.0  0.1163
  H  H156  1  0.165800  0.019200  0.018600  1.0  0.0877
  H  H157  1  0.273800  0.058400  0.928800  1.0  0.0888
  H  H158  1  0.325200  0.067200  0.880200  1.0  0.1245
  H  H159  1  0.380100  0.018100  0.875900  1.0  0.118
  H  H160  1  0.327600  0.955800  0.971000  1.0  0.0885
  H  H161  1  0.041200  0.185400  0.959200  1.0  0.0814
  H  H162  1  0.096200  0.142400  0.941000  1.0  0.1211
  H  H163  1  0.147500  0.136500  0.947700  1.0  0.1236
  H  H164  1  0.087000  0.225200  0.978800  1.0  0.0797
  H  H165  1  0.179800  0.312400  0.988800  1.0  0.0854
  H  H166  1  0.130600  0.320400  0.978200  1.0  0.1214
  H  H167  1  0.127900  0.272100  0.974100  1.0  0.1171
  H  H168  1  0.224800  0.211400  0.990400  1.0  0.0902
  H  H169  1  0.208200  0.082000  0.992800  1.0  0.0874
  H  H170  1  0.260100  0.125300  0.004300  1.0  0.1157
  H  H171  1  0.301700  0.066700  0.020100  1.0  0.1174
  H  H172  1  0.296400  0.018600  0.019200  1.0  0.0892
  H  H173  1  0.239000  0.928800  0.058400  1.0  0.0894
  H  H174  1  0.227400  0.880200  0.067200  1.0  0.1247
  H  H175  1  0.225900  0.875900  0.018100  1.0  0.1176
  H  H176  1  0.245600  0.971000  0.955800  1.0  0.0875
  H  H177  1  0.459200  0.541200  0.185400  1.0  0.0834
  H  H178  1  0.441000  0.596200  0.142400  1.0  0.1213
  H  H179  1  0.447700  0.647500  0.136500  1.0  0.1226
  H  H180  1  0.478800  0.587000  0.225200  1.0  0.0806
  H  H181  1  0.488800  0.679800  0.312400  1.0  0.0865
  H  H182  1  0.478200  0.630600  0.320400  1.0  0.1215
  H  H183  1  0.474100  0.627900  0.272100  1.0  0.116
  H  H184  1  0.490400  0.724800  0.211400  1.0  0.0899
  H  H185  1  0.492800  0.708200  0.082000  1.0  0.0881
  H  H186  1  0.504300  0.760100  0.125300  1.0  0.1166
  H  H187  1  0.520100  0.801700  0.066700  1.0  0.1183
  H  H188  1  0.519200  0.796400  0.018600  1.0  0.088
  H  H189  1  0.558400  0.739000  0.928800  1.0  0.0886
  H  H190  1  0.567200  0.727400  0.880200  1.0  0.1233
  H  H191  1  0.518100  0.725900  0.875900  1.0  0.1186
  H  H192  1  0.455800  0.745600  0.971000  1.0  0.0866
  H  H193  1  0.685400  0.814200  0.959200  1.0  0.0821
  H  H194  1  0.642400  0.820400  0.941000  1.0  0.1232
  H  H195  1  0.636500  0.768300  0.947700  1.0  0.1241
  H  H196  1  0.725200  0.709000  0.978800  1.0  0.0809
  H  H197  1  0.812400  0.519000  0.988800  1.0  0.0864
  H  H198  1  0.820400  0.570800  0.978200  1.0  0.1199
  H  H199  1  0.772100  0.625900  0.974100  1.0  0.1166
  H  H200  1  0.711400  0.573400  0.990400  1.0  0.0899
  H  H201  1  0.582000  0.717000  0.992800  1.0  0.0881
  H  H202  1  0.625300  0.610300  0.004300  1.0  0.1159
  H  H203  1  0.566700  0.611500  0.020100  1.0  0.1204
  H  H204  1  0.518600  0.665800  0.019200  1.0  0.0892
  H  H205  1  0.428800  0.773800  0.058400  1.0  0.089
  H  H206  1  0.380200  0.825200  0.067200  1.0  0.1236
  H  H207  1  0.375900  0.880100  0.018100  1.0  0.1182
  H  H208  1  0.471000  0.827600  0.955800  1.0  0.087
  H  H209  1  0.314200  0.185400  0.541200  1.0  0.0818
  H  H210  1  0.320400  0.142400  0.596200  1.0  0.1221
  H  H211  1  0.268300  0.136500  0.647500  1.0  0.1229
  H  H212  1  0.209000  0.225200  0.587000  1.0  0.0801
  H  H213  1  0.019000  0.312400  0.679800  1.0  0.086
  H  H214  1  0.070800  0.320400  0.630600  1.0  0.1223
  H  H215  1  0.125900  0.272100  0.627900  1.0  0.1178
  H  H216  1  0.073400  0.211400  0.724800  1.0  0.0897
  H  H217  1  0.217000  0.082000  0.708200  1.0  0.0876
  H  H218  1  0.110300  0.125300  0.760100  1.0  0.1152
  H  H219  1  0.111500  0.066700  0.801700  1.0  0.1179
  H  H220  1  0.165800  0.018600  0.796400  1.0  0.0899
  H  H221  1  0.273800  0.928800  0.739000  1.0  0.0888
  H  H222  1  0.325200  0.880200  0.727400  1.0  0.1239
  H  H223  1  0.380100  0.875900  0.725900  1.0  0.1191
  H  H224  1  0.327600  0.971000  0.745600  1.0  0.0882
  H  H225  1  0.041200  0.959200  0.814200  1.0  0.0823
  H  H226  1  0.096200  0.941000  0.820400  1.0  0.1212
  H  H227  1  0.147500  0.947700  0.768300  1.0  0.1232
  H  H228  1  0.087000  0.978800  0.709000  1.0  0.081
  H  H229  1  0.179800  0.988800  0.519000  1.0  0.0862
  H  H230  1  0.130600  0.978200  0.570800  1.0  0.1182
  H  H231  1  0.127900  0.974100  0.625900  1.0  0.1167
  H  H232  1  0.224800  0.990400  0.573400  1.0  0.0902
  H  H233  1  0.208200  0.992800  0.717000  1.0  0.0869
  H  H234  1  0.260100  0.004300  0.610300  1.0  0.1169
  H  H235  1  0.301700  0.020100  0.611500  1.0  0.118
  H  H236  1  0.296400  0.019200  0.665800  1.0  0.0872
  H  H237  1  0.239000  0.058400  0.773800  1.0  0.0881
  H  H238  1  0.227400  0.067200  0.825200  1.0  0.1243
  H  H239  1  0.225900  0.018100  0.880100  1.0  0.1184
  H  H240  1  0.245600  0.955800  0.827600  1.0  0.0882
  H  H241  1  0.814600  0.540800  0.685800  1.0  0.0829
  H  H242  1  0.857600  0.559000  0.679600  1.0  0.1214
  H  H243  1  0.863500  0.552300  0.731700  1.0  0.1231
  H  H244  1  0.774800  0.521200  0.791000  1.0  0.0792
  H  H245  1  0.687600  0.511200  0.981000  1.0  0.0856
  H  H246  1  0.679600  0.521800  0.929200  1.0  0.1191
  H  H247  1  0.727900  0.525900  0.874100  1.0  0.1182
  H  H248  1  0.788600  0.509600  0.926600  1.0  0.0889
  H  H249  1  0.918000  0.507200  0.783000  1.0  0.0899
  H  H250  1  0.874700  0.495700  0.889700  1.0  0.1168
  H  H251  1  0.933300  0.479900  0.888500  1.0  0.1168
  H  H252  1  0.981400  0.480800  0.834200  1.0  0.0915
  H  H253  1  0.071200  0.441600  0.726200  1.0  0.0876
  H  H254  1  0.119800  0.432800  0.674800  1.0  0.1252
  H  H255  1  0.124100  0.481900  0.619900  1.0  0.1173
  H  H256  1  0.029000  0.544200  0.672400  1.0  0.089
  H  H257  1  0.040800  0.314600  0.958800  1.0  0.0816
  H  H258  1  0.059000  0.357600  0.903800  1.0  0.1215
  H  H259  1  0.052300  0.363500  0.852500  1.0  0.123
  H  H260  1  0.021200  0.274800  0.913000  1.0  0.08
  H  H261  1  0.011200  0.187600  0.820200  1.0  0.0864
  H  H262  1  0.021800  0.179600  0.869400  1.0  0.1235
  H  H263  1  0.025900  0.227900  0.872100  1.0  0.1171
  H  H264  1  0.009600  0.288600  0.775200  1.0  0.0899
  H  H265  1  0.007200  0.418000  0.791800  1.0  0.0894
  H  H266  1  0.995700  0.374700  0.739900  1.0  0.1166
  H  H267  1  0.979900  0.433300  0.698300  1.0  0.1173
  H  H268  1  0.980800  0.481400  0.703600  1.0  0.0911
  H  H269  1  0.941600  0.571200  0.761000  1.0  0.0879
  H  H270  1  0.932800  0.619800  0.772600  1.0  0.1247
  H  H271  1  0.981900  0.624100  0.774100  1.0  0.1166
  H  H272  1  0.044200  0.529000  0.754400  1.0  0.0869
  H  H273  1  0.458800  0.685800  0.540800  1.0  0.0818
  H  H274  1  0.403800  0.679600  0.559000  1.0  0.1212
  H  H275  1  0.352500  0.731700  0.552300  1.0  0.1241
  H  H276  1  0.413000  0.791000  0.521200  1.0  0.08
  H  H277  1  0.320200  0.981000  0.511200  1.0  0.0844
  H  H278  1  0.369400  0.929200  0.521800  1.0  0.1192
  H  H279  1  0.372100  0.874100  0.525900  1.0  0.1181
  H  H280  1  0.275200  0.926600  0.509600  1.0  0.0895
  H  H281  1  0.291800  0.783000  0.507200  1.0  0.0884
  H  H282  1  0.239900  0.889700  0.495700  1.0  0.1161
  H  H283  1  0.198300  0.888500  0.479900  1.0  0.1194
  H  H284  1  0.203600  0.834200  0.480800  1.0  0.0887
  H  H285  1  0.261000  0.726200  0.441600  1.0  0.09
  H  H286  1  0.272600  0.674800  0.432800  1.0  0.1224
  H  H287  1  0.274100  0.619900  0.481900  1.0  0.1178
  H  H288  1  0.254400  0.672400  0.544200  1.0  0.089
  H  H289  1  0.185800  0.958800  0.314600  1.0  0.0818
  H  H290  1  0.179600  0.903800  0.357600  1.0  0.1205
  H  H291  1  0.231700  0.852500  0.363500  1.0  0.1226
  H  H292  1  0.291000  0.913000  0.274800  1.0  0.08
  H  H293  1  0.481000  0.820200  0.187600  1.0  0.0855
  H  H294  1  0.429200  0.869400  0.179600  1.0  0.1226
  H  H295  1  0.374100  0.872100  0.227900  1.0  0.1178
  H  H296  1  0.426600  0.775200  0.288600  1.0  0.09
  H  H297  1  0.283000  0.791800  0.418000  1.0  0.0889
  H  H298  1  0.389700  0.739900  0.374700  1.0  0.1157
  H  H299  1  0.388500  0.698300  0.433300  1.0  0.1185
  H  H300  1  0.334200  0.703600  0.481400  1.0  0.0896
  H  H301  1  0.226200  0.761000  0.571200  1.0  0.0898
  H  H302  1  0.174800  0.772600  0.619800  1.0  0.1225
  H  H303  1  0.119900  0.774100  0.624100  1.0  0.1183
  H  H304  1  0.172400  0.754400  0.529000  1.0  0.0895
  H  H305  1  0.185800  0.540800  0.958800  1.0  0.0811
  H  H306  1  0.179600  0.559000  0.903800  1.0  0.1207
  H  H307  1  0.231700  0.552300  0.852500  1.0  0.124
  H  H308  1  0.291000  0.521200  0.913000  1.0  0.0788
  H  H309  1  0.481000  0.511200  0.820200  1.0  0.086
  H  H310  1  0.429200  0.521800  0.869400  1.0  0.1185
  H  H311  1  0.374100  0.525900  0.872100  1.0  0.1175
  H  H312  1  0.426600  0.509600  0.775200  1.0  0.0919
  H  H313  1  0.283000  0.507200  0.791800  1.0  0.0877
  H  H314  1  0.389700  0.495700  0.739900  1.0  0.1154
  H  H315  1  0.388500  0.479900  0.698300  1.0  0.1171
  H  H316  1  0.334200  0.480800  0.703600  1.0  0.0885
  H  H317  1  0.226200  0.441600  0.761000  1.0  0.089
  H  H318  1  0.174800  0.432800  0.772600  1.0  0.125
  H  H319  1  0.119900  0.481900  0.774100  1.0  0.1187
  H  H320  1  0.172400  0.544200  0.754400  1.0  0.0883
  H  H321  1  0.458800  0.314600  0.685800  1.0  0.0805
  H  H322  1  0.403800  0.357600  0.679600  1.0  0.1216
  H  H323  1  0.352500  0.363500  0.731700  1.0  0.124
  H  H324  1  0.413000  0.274800  0.791000  1.0  0.0799
  H  H325  1  0.320200  0.187600  0.981000  1.0  0.0858
  H  H326  1  0.369400  0.179600  0.929200  1.0  0.1235
  H  H327  1  0.372100  0.227900  0.874100  1.0  0.1168
  H  H328  1  0.275200  0.288600  0.926600  1.0  0.0907
  H  H329  1  0.291800  0.418000  0.783000  1.0  0.0874
  H  H330  1  0.239900  0.374700  0.889700  1.0  0.1162
  H  H331  1  0.198300  0.433300  0.888500  1.0  0.1182
  H  H332  1  0.203600  0.481400  0.834200  1.0  0.0905
  H  H333  1  0.261000  0.571200  0.726200  1.0  0.0896
  H  H334  1  0.272600  0.619800  0.674800  1.0  0.1235
  H  H335  1  0.274100  0.624100  0.619900  1.0  0.1175
  H  H336  1  0.254400  0.529000  0.672400  1.0  0.0877
  H  H337  1  0.040800  0.685800  0.314600  1.0  0.0828
  H  H338  1  0.059000  0.679600  0.357600  1.0  0.123
  H  H339  1  0.052300  0.731700  0.363500  1.0  0.1238
  H  H340  1  0.021200  0.791000  0.274800  1.0  0.0796
  H  H341  1  0.011200  0.981000  0.187600  1.0  0.0873
  H  H342  1  0.021800  0.929200  0.179600  1.0  0.1201
  H  H343  1  0.025900  0.874100  0.227900  1.0  0.1167
  H  H344  1  0.009600  0.926600  0.288600  1.0  0.0924
  H  H345  1  0.007200  0.783000  0.418000  1.0  0.0887
  H  H346  1  0.995700  0.889700  0.374700  1.0  0.116
  H  H347  1  0.979900  0.888500  0.433300  1.0  0.1184
  H  H348  1  0.980800  0.834200  0.481400  1.0  0.0911
  H  H349  1  0.941600  0.726200  0.571200  1.0  0.0885
  H  H350  1  0.932800  0.674800  0.619800  1.0  0.1233
  H  H351  1  0.981900  0.619900  0.624100  1.0  0.1171
  H  H352  1  0.044200  0.672400  0.529000  1.0  0.087
  H  H353  1  0.814600  0.958800  0.540800  1.0  0.0801
  H  H354  1  0.857600  0.903800  0.559000  1.0  0.1216
  H  H355  1  0.863500  0.852500  0.552300  1.0  0.1237
  H  H356  1  0.774800  0.913000  0.521200  1.0  0.0794
  H  H357  1  0.687600  0.820200  0.511200  1.0  0.0854
  H  H358  1  0.679600  0.869400  0.521800  1.0  0.1204
  H  H359  1  0.727900  0.872100  0.525900  1.0  0.1151
  H  H360  1  0.788600  0.775200  0.509600  1.0  0.0904
  H  H361  1  0.918000  0.791800  0.507200  1.0  0.0873
  H  H362  1  0.874700  0.739900  0.495700  1.0  0.116
  H  H363  1  0.933300  0.698300  0.479900  1.0  0.1179
  H  H364  1  0.981400  0.703600  0.480800  1.0  0.0917
  H  H365  1  0.071200  0.761000  0.441600  1.0  0.0897
  H  H366  1  0.119800  0.772600  0.432800  1.0  0.1237
  H  H367  1  0.124100  0.774100  0.481900  1.0  0.1171
  H  H368  1  0.029000  0.754400  0.544200  1.0  0.087
  H  H369  1  0.458800  0.540800  0.314600  1.0  0.0815
  H  H370  1  0.403800  0.559000  0.357600  1.0  0.1211
  H  H371  1  0.352500  0.552300  0.363500  1.0  0.1237
  H  H372  1  0.413000  0.521200  0.274800  1.0  0.0809
  H  H373  1  0.320200  0.511200  0.187600  1.0  0.0868
  H  H374  1  0.369400  0.521800  0.179600  1.0  0.1194
  H  H375  1  0.372100  0.525900  0.227900  1.0  0.1167
  H  H376  1  0.275200  0.509600  0.288600  1.0  0.09
  H  H377  1  0.291800  0.507200  0.418000  1.0  0.087
  H  H378  1  0.239900  0.495700  0.374700  1.0  0.1168
  H  H379  1  0.198300  0.479900  0.433300  1.0  0.1178
  H  H380  1  0.203600  0.480800  0.481400  1.0  0.0885
  H  H381  1  0.261000  0.441600  0.571200  1.0  0.0889
  H  H382  1  0.272600  0.432800  0.619800  1.0  0.1253
  H  H383  1  0.274100  0.481900  0.624100  1.0  0.1185
  H  H384  1  0.254400  0.544200  0.529000  1.0  0.0884
  H  H385  1  0.185800  0.314600  0.540800  1.0  0.0815
  H  H386  1  0.179600  0.357600  0.559000  1.0  0.1217
  H  H387  1  0.231700  0.363500  0.552300  1.0  0.1229
  H  H388  1  0.291000  0.274800  0.521200  1.0  0.0806
  H  H389  1  0.481000  0.187600  0.511200  1.0  0.0853
  H  H390  1  0.429200  0.179600  0.521800  1.0  0.1221
  H  H391  1  0.374100  0.227900  0.525900  1.0  0.117
  H  H392  1  0.426600  0.288600  0.509600  1.0  0.0892
  H  H393  1  0.283000  0.418000  0.507200  1.0  0.0874
  H  H394  1  0.389700  0.374700  0.495700  1.0  0.1156
  H  H395  1  0.388500  0.433300  0.479900  1.0  0.1184
  H  H396  1  0.334200  0.481400  0.480800  1.0  0.0895
  H  H397  1  0.226200  0.571200  0.441600  1.0  0.0883
  H  H398  1  0.174800  0.619800  0.432800  1.0  0.124
  H  H399  1  0.119900  0.624100  0.481900  1.0  0.1191
  H  H400  1  0.172400  0.529000  0.544200  1.0  0.0884
  H  H401  1  0.814600  0.685800  0.958800  1.0  0.0823
  H  H402  1  0.857600  0.679600  0.903800  1.0  0.1225
  H  H403  1  0.863500  0.731700  0.852500  1.0  0.1233
  H  H404  1  0.774800  0.791000  0.913000  1.0  0.0802
  H  H405  1  0.687600  0.981000  0.820200  1.0  0.0865
  H  H406  1  0.679600  0.929200  0.869400  1.0  0.119
  H  H407  1  0.727900  0.874100  0.872100  1.0  0.1167
  H  H408  1  0.788600  0.926600  0.775200  1.0  0.0896
  H  H409  1  0.918000  0.783000  0.791800  1.0  0.0883
  H  H410  1  0.874700  0.889700  0.739900  1.0  0.1167
  H  H411  1  0.933300  0.888500  0.698300  1.0  0.1192
  H  H412  1  0.981400  0.834200  0.703600  1.0  0.0892
  H  H413  1  0.071200  0.726200  0.761000  1.0  0.0881
  H  H414  1  0.119800  0.674800  0.772600  1.0  0.1233
  H  H415  1  0.124100  0.619900  0.774100  1.0  0.1182
  H  H416  1  0.029000  0.672400  0.754400  1.0  0.0867
  H  H417  1  0.040800  0.958800  0.685800  1.0  0.0827
  H  H418  1  0.059000  0.903800  0.679600  1.0  0.1217
  H  H419  1  0.052300  0.852500  0.731700  1.0  0.1225
  H  H420  1  0.021200  0.913000  0.791000  1.0  0.0805
  H  H421  1  0.011200  0.820200  0.981000  1.0  0.0873
  H  H422  1  0.021800  0.869400  0.929200  1.0  0.1205
  H  H423  1  0.025900  0.872100  0.874100  1.0  0.1164
  H  H424  1  0.009600  0.775200  0.926600  1.0  0.0905
  H  H425  1  0.007200  0.791800  0.783000  1.0  0.0886
  H  H426  1  0.995700  0.739900  0.889700  1.0  0.1168
  H  H427  1  0.979900  0.698300  0.888500  1.0  0.1197
  H  H428  1  0.980800  0.703600  0.834200  1.0  0.0877
  H  H429  1  0.941600  0.761000  0.726200  1.0  0.0874
  H  H430  1  0.932800  0.772600  0.674800  1.0  0.1237
  H  H431  1  0.981900  0.774100  0.619900  1.0  0.1186
  H  H432  1  0.044200  0.754400  0.672400  1.0  0.087
  H  H433  1  0.540800  0.814600  0.185800  1.0  0.0828
  H  H434  1  0.559000  0.857600  0.179600  1.0  0.1217
  H  H435  1  0.552300  0.863500  0.231700  1.0  0.1224
  H  H436  1  0.521200  0.774800  0.291000  1.0  0.08
  H  H437  1  0.511200  0.687600  0.481000  1.0  0.0861
  H  H438  1  0.521800  0.679600  0.429200  1.0  0.1221
  H  H439  1  0.525900  0.727900  0.374100  1.0  0.1175
  H  H440  1  0.509600  0.788600  0.426600  1.0  0.0894
  H  H441  1  0.507200  0.918000  0.283000  1.0  0.0897
  H  H442  1  0.495700  0.874700  0.389700  1.0  0.1169
  H  H443  1  0.479900  0.933300  0.388500  1.0  0.1169
  H  H444  1  0.480800  0.981400  0.334200  1.0  0.0919
  H  H445  1  0.441600  0.071200  0.226200  1.0  0.0878
  H  H446  1  0.432800  0.119800  0.174800  1.0  0.1249
  H  H447  1  0.481900  0.124100  0.119900  1.0  0.1174
  H  H448  1  0.544200  0.029000  0.172400  1.0  0.0868
  H  H449  1  0.314600  0.040800  0.458800  1.0  0.0808
  H  H450  1  0.357600  0.059000  0.403800  1.0  0.1214
  H  H451  1  0.363500  0.052300  0.352500  1.0  0.1236
  H  H452  1  0.274800  0.021200  0.413000  1.0  0.079
  H  H453  1  0.187600  0.011200  0.320200  1.0  0.0858
  H  H454  1  0.179600  0.021800  0.369400  1.0  0.1187
  H  H455  1  0.227900  0.025900  0.372100  1.0  0.1173
  H  H456  1  0.288600  0.009600  0.275200  1.0  0.0892
  H  H457  1  0.418000  0.007200  0.291800  1.0  0.0896
  H  H458  1  0.374700  0.995700  0.239900  1.0  0.1167
  H  H459  1  0.433300  0.979900  0.198300  1.0  0.1159
  H  H460  1  0.481400  0.980800  0.203600  1.0  0.0903
  H  H461  1  0.571200  0.941600  0.261000  1.0  0.0881
  H  H462  1  0.619800  0.932800  0.272600  1.0  0.1247
  H  H463  1  0.624100  0.981900  0.274100  1.0  0.1169
  H  H464  1  0.529000  0.044200  0.254400  1.0  0.0889
  H  H465  1  0.685800  0.458800  0.040800  1.0  0.0817
  H  H466  1  0.679600  0.403800  0.059000  1.0  0.1201
  H  H467  1  0.731700  0.352500  0.052300  1.0  0.1227
  H  H468  1  0.791000  0.413000  0.021200  1.0  0.0795
  H  H469  1  0.981000  0.320200  0.011200  1.0  0.086
  H  H470  1  0.929200  0.369400  0.021800  1.0  0.1209
  H  H471  1  0.874100  0.372100  0.025900  1.0  0.1177
  H  H472  1  0.926600  0.275200  0.009600  1.0  0.0896
  H  H473  1  0.783000  0.291800  0.007200  1.0  0.0891
  H  H474  1  0.889700  0.239900  0.995700  1.0  0.1158
  H  H475  1  0.888500  0.198300  0.979900  1.0  0.1199
  H  H476  1  0.834200  0.203600  0.980800  1.0  0.0892
  H  H477  1  0.726200  0.261000  0.941600  1.0  0.0892
  H  H478  1  0.674800  0.272600  0.932800  1.0  0.1219
  H  H479  1  0.619900  0.274100  0.981900  1.0  0.1185
  H  H480  1  0.672400  0.254400  0.044200  1.0  0.0895
  H  H481  1  0.958800  0.185800  0.814600  1.0  0.0817
  H  H482  1  0.903800  0.179600  0.857600  1.0  0.1217
  H  H483  1  0.852500  0.231700  0.863500  1.0  0.1241
  H  H484  1  0.913000  0.291000  0.774800  1.0  0.0804
  H  H485  1  0.820200  0.481000  0.687600  1.0  0.0849
  H  H486  1  0.869400  0.429200  0.679600  1.0  0.1195
  H  H487  1  0.872100  0.374100  0.727900  1.0  0.118
  H  H488  1  0.775200  0.426600  0.788600  1.0  0.0895
  H  H489  1  0.791800  0.283000  0.918000  1.0  0.0882
  H  H490  1  0.739900  0.389700  0.874700  1.0  0.1162
  H  H491  1  0.698300  0.388500  0.933300  1.0  0.1183
  H  H492  1  0.703600  0.334200  0.981400  1.0  0.0898
  H  H493  1  0.761000  0.226200  0.071200  1.0  0.0898
  H  H494  1  0.772600  0.174800  0.119800  1.0  0.1229
  H  H495  1  0.774100  0.119900  0.124100  1.0  0.1177
  H  H496  1  0.754400  0.172400  0.029000  1.0  0.0888
  H  H497  1  0.540800  0.185800  0.458800  1.0  0.0821
  H  H498  1  0.559000  0.179600  0.403800  1.0  0.1224
  H  H499  1  0.552300  0.231700  0.352500  1.0  0.1239
  H  H500  1  0.521200  0.291000  0.413000  1.0  0.0793
  H  H501  1  0.511200  0.481000  0.320200  1.0  0.086
  H  H502  1  0.521800  0.429200  0.369400  1.0  0.119
  H  H503  1  0.525900  0.374100  0.372100  1.0  0.1169
  H  H504  1  0.509600  0.426600  0.275200  1.0  0.0922
  H  H505  1  0.507200  0.283000  0.291800  1.0  0.0885
  H  H506  1  0.495700  0.389700  0.239900  1.0  0.1159
  H  H507  1  0.479900  0.388500  0.198300  1.0  0.118
  H  H508  1  0.480800  0.334200  0.203600  1.0  0.091
  H  H509  1  0.441600  0.226200  0.261000  1.0  0.0882
  H  H510  1  0.432800  0.174800  0.272600  1.0  0.1234
  H  H511  1  0.481900  0.119900  0.274100  1.0  0.1171
  H  H512  1  0.544200  0.172400  0.254400  1.0  0.087
  H  H513  1  0.314600  0.458800  0.185800  1.0  0.0808
  H  H514  1  0.357600  0.403800  0.179600  1.0  0.1213
  H  H515  1  0.363500  0.352500  0.231700  1.0  0.1237
  H  H516  1  0.274800  0.413000  0.291000  1.0  0.0794
  H  H517  1  0.187600  0.320200  0.481000  1.0  0.0858
  H  H518  1  0.179600  0.369400  0.429200  1.0  0.1204
  H  H519  1  0.227900  0.372100  0.374100  1.0  0.1156
  H  H520  1  0.288600  0.275200  0.426600  1.0  0.0901
  H  H521  1  0.418000  0.291800  0.283000  1.0  0.0879
  H  H522  1  0.374700  0.239900  0.389700  1.0  0.1164
  H  H523  1  0.433300  0.198300  0.388500  1.0  0.1194
  H  H524  1  0.481400  0.203600  0.334200  1.0  0.0919
  H  H525  1  0.571200  0.261000  0.226200  1.0  0.0892
  H  H526  1  0.619800  0.272600  0.174800  1.0  0.1232
  H  H527  1  0.624100  0.274100  0.119900  1.0  0.1173
  H  H528  1  0.529000  0.254400  0.172400  1.0  0.0869
  H  H529  1  0.685800  0.040800  0.814600  1.0  0.0813
  H  H530  1  0.679600  0.059000  0.857600  1.0  0.1208
  H  H531  1  0.731700  0.052300  0.863500  1.0  0.1236
  H  H532  1  0.791000  0.021200  0.774800  1.0  0.0782
  H  H533  1  0.981000  0.011200  0.687600  1.0  0.0866
  H  H534  1  0.929200  0.021800  0.679600  1.0  0.1188
  H  H535  1  0.874100  0.025900  0.727900  1.0  0.1175
  H  H536  1  0.926600  0.009600  0.788600  1.0  0.0919
  H  H537  1  0.783000  0.007200  0.918000  1.0  0.0881
  H  H538  1  0.889700  0.995700  0.874700  1.0  0.1152
  H  H539  1  0.888500  0.979900  0.933300  1.0  0.1171
  H  H540  1  0.834200  0.980800  0.981400  1.0  0.0877
  H  H541  1  0.726200  0.941600  0.071200  1.0  0.0889
  H  H542  1  0.674800  0.932800  0.119800  1.0  0.1255
  H  H543  1  0.619900  0.981900  0.124100  1.0  0.1187
  H  H544  1  0.672400  0.044200  0.029000  1.0  0.0883
  H  H545  1  0.958800  0.814600  0.040800  1.0  0.0802
  H  H546  1  0.903800  0.857600  0.059000  1.0  0.1225
  H  H547  1  0.852500  0.863500  0.052300  1.0  0.1238
  H  H548  1  0.913000  0.774800  0.021200  1.0  0.0795
  H  H549  1  0.820200  0.687600  0.011200  1.0  0.0856
  H  H550  1  0.869400  0.679600  0.021800  1.0  0.1224
  H  H551  1  0.872100  0.727900  0.025900  1.0  0.1167
  H  H552  1  0.775200  0.788600  0.009600  1.0  0.091
  H  H553  1  0.791800  0.918000  0.007200  1.0  0.0874
  H  H554  1  0.739900  0.874700  0.995700  1.0  0.1158
  H  H555  1  0.698300  0.933300  0.979900  1.0  0.1173
  H  H556  1  0.703600  0.981400  0.980800  1.0  0.0899
  H  H557  1  0.761000  0.071200  0.941600  1.0  0.0894
  H  H558  1  0.772600  0.119800  0.932800  1.0  0.1238
  H  H559  1  0.774100  0.124100  0.981900  1.0  0.1173
  H  H560  1  0.754400  0.029000  0.044200  1.0  0.0881
  H  H561  1  0.540800  0.458800  0.814600  1.0  0.0814
  H  H562  1  0.559000  0.403800  0.857600  1.0  0.1215
  H  H563  1  0.552300  0.352500  0.863500  1.0  0.1222
  H  H564  1  0.521200  0.413000  0.774800  1.0  0.081
  H  H565  1  0.511200  0.320200  0.687600  1.0  0.0872
  H  H566  1  0.521800  0.369400  0.679600  1.0  0.1214
  H  H567  1  0.525900  0.372100  0.727900  1.0  0.1165
  H  H568  1  0.509600  0.275200  0.788600  1.0  0.0907
  H  H569  1  0.507200  0.291800  0.918000  1.0  0.0882
  H  H570  1  0.495700  0.239900  0.874700  1.0  0.1165
  H  H571  1  0.479900  0.198300  0.933300  1.0  0.119
  H  H572  1  0.480800  0.203600  0.981400  1.0  0.0883
  H  H573  1  0.441600  0.261000  0.071200  1.0  0.0876
  H  H574  1  0.432800  0.272600  0.119800  1.0  0.1236
  H  H575  1  0.481900  0.274100  0.124100  1.0  0.1184
  H  H576  1  0.544200  0.254400  0.029000  1.0  0.0869
  H  H577  1  0.314600  0.185800  0.040800  1.0  0.0823
  H  H578  1  0.357600  0.179600  0.059000  1.0  0.1229
  H  H579  1  0.363500  0.231700  0.052300  1.0  0.1237
  H  H580  1  0.274800  0.291000  0.021200  1.0  0.0804
  H  H581  1  0.187600  0.481000  0.011200  1.0  0.0865
  H  H582  1  0.179600  0.429200  0.021800  1.0  0.1191
  H  H583  1  0.227900  0.374100  0.025900  1.0  0.1166
  H  H584  1  0.288600  0.426600  0.009600  1.0  0.0897
  H  H585  1  0.418000  0.283000  0.007200  1.0  0.0879
  H  H586  1  0.374700  0.389700  0.995700  1.0  0.1165
  H  H587  1  0.433300  0.388500  0.979900  1.0  0.1194
  H  H588  1  0.481400  0.334200  0.980800  1.0  0.0897
  H  H589  1  0.571200  0.226200  0.941600  1.0  0.0887
  H  H590  1  0.619800  0.174800  0.932800  1.0  0.1237
  H  H591  1  0.624100  0.119900  0.981900  1.0  0.1184
  H  H592  1  0.529000  0.172400  0.044200  1.0  0.0872
  H  H593  1  0.685800  0.814600  0.458800  1.0  0.0813
  H  H594  1  0.679600  0.857600  0.403800  1.0  0.1218
  H  H595  1  0.731700  0.863500  0.352500  1.0  0.123
  H  H596  1  0.791000  0.774800  0.413000  1.0  0.0803
  H  H597  1  0.981000  0.687600  0.320200  1.0  0.0854
  H  H598  1  0.929200  0.679600  0.369400  1.0  0.1226
  H  H599  1  0.874100  0.727900  0.372100  1.0  0.1171
  H  H600  1  0.926600  0.788600  0.275200  1.0  0.0896
  H  H601  1  0.783000  0.918000  0.291800  1.0  0.0879
  H  H602  1  0.889700  0.874700  0.239900  1.0  0.1153
  H  H603  1  0.888500  0.933300  0.198300  1.0  0.1188
  H  H604  1  0.834200  0.981400  0.203600  1.0  0.0897
  H  H605  1  0.726200  0.071200  0.261000  1.0  0.0887
  H  H606  1  0.674800  0.119800  0.272600  1.0  0.124
  H  H607  1  0.619900  0.124100  0.274100  1.0  0.119
  H  H608  1  0.672400  0.029000  0.254400  1.0  0.0877
  H  H609  1  0.958800  0.040800  0.185800  1.0  0.0822
  H  H610  1  0.903800  0.059000  0.179600  1.0  0.1209
  H  H611  1  0.852500  0.052300  0.231700  1.0  0.1238
  H  H612  1  0.913000  0.021200  0.291000  1.0  0.0801
  H  H613  1  0.820200  0.011200  0.481000  1.0  0.0859
  H  H614  1  0.869400  0.021800  0.429200  1.0  0.1189
  H  H615  1  0.872100  0.025900  0.374100  1.0  0.1167
  H  H616  1  0.775200  0.009600  0.426600  1.0  0.0901
  H  H617  1  0.791800  0.007200  0.283000  1.0  0.0873
  H  H618  1  0.739900  0.995700  0.389700  1.0  0.1168
  H  H619  1  0.698300  0.979900  0.388500  1.0  0.1183
  H  H620  1  0.703600  0.980800  0.334200  1.0  0.088
  H  H621  1  0.761000  0.941600  0.226200  1.0  0.0886
  H  H622  1  0.772600  0.932800  0.174800  1.0  0.1248
  H  H623  1  0.774100  0.981900  0.119900  1.0  0.1184
  H  H624  1  0.754400  0.044200  0.172400  1.0  0.0886
  H  H625  1  0.185400  0.459200  0.314200  1.0  0.0819
  H  H626  1  0.142400  0.441000  0.320400  1.0  0.1213
  H  H627  1  0.136500  0.447700  0.268300  1.0  0.1234
  H  H628  1  0.225200  0.478800  0.209000  1.0  0.0792
  H  H629  1  0.312400  0.488800  0.019000  1.0  0.087
  H  H630  1  0.320400  0.478200  0.070800  1.0  0.1193
  H  H631  1  0.272100  0.474100  0.125900  1.0  0.1172
  H  H632  1  0.211400  0.490400  0.073400  1.0  0.0889
  H  H633  1  0.082000  0.492800  0.217000  1.0  0.0899
  H  H634  1  0.125300  0.504300  0.110300  1.0  0.1165
  H  H635  1  0.066700  0.520100  0.111500  1.0  0.1162
  H  H636  1  0.018600  0.519200  0.165800  1.0  0.0907
  H  H637  1  0.928800  0.558400  0.273800  1.0  0.0883
  H  H638  1  0.880200  0.567200  0.325200  1.0  0.1242
  H  H639  1  0.875900  0.518100  0.380100  1.0  0.1167
  H  H640  1  0.971000  0.455800  0.327600  1.0  0.0886
  H  H641  1  0.959200  0.685400  0.041200  1.0  0.0832
  H  H642  1  0.941000  0.642400  0.096200  1.0  0.1205
  H  H643  1  0.947700  0.636500  0.147500  1.0  0.1228
  H  H644  1  0.978800  0.725200  0.087000  1.0  0.0802
  H  H645  1  0.988800  0.812400  0.179800  1.0  0.0866
  H  H646  1  0.978200  0.820400  0.130600  1.0  0.1231
  H  H647  1  0.974100  0.772100  0.127900  1.0  0.1176
  H  H648  1  0.990400  0.711400  0.224800  1.0  0.0898
  H  H649  1  0.992800  0.582000  0.208200  1.0  0.0897
  H  H650  1  0.004300  0.625300  0.260100  1.0  0.1164
  H  H651  1  0.020100  0.566700  0.301700  1.0  0.1179
  H  H652  1  0.019200  0.518600  0.296400  1.0  0.0912
  H  H653  1  0.058400  0.428800  0.239000  1.0  0.0877
  H  H654  1  0.067200  0.380200  0.227400  1.0  0.1253
  H  H655  1  0.018100  0.375900  0.225900  1.0  0.1173
  H  H656  1  0.955800  0.471000  0.245600  1.0  0.0867
  H  H657  1  0.541200  0.314200  0.459200  1.0  0.0822
  H  H658  1  0.596200  0.320400  0.441000  1.0  0.1221
  H  H659  1  0.647500  0.268300  0.447700  1.0  0.1232
  H  H660  1  0.587000  0.209000  0.478800  1.0  0.0807
  H  H661  1  0.679800  0.019000  0.488800  1.0  0.0849
  H  H662  1  0.630600  0.070800  0.478200  1.0  0.119
  H  H663  1  0.627900  0.125900  0.474100  1.0  0.1176
  H  H664  1  0.724800  0.073400  0.490400  1.0  0.0894
  H  H665  1  0.708200  0.217000  0.492800  1.0  0.0884
  H  H666  1  0.760100  0.110300  0.504300  1.0  0.1159
  H  H667  1  0.801700  0.111500  0.520100  1.0  0.1182
  H  H668  1  0.796400  0.165800  0.519200  1.0  0.0885
  H  H669  1  0.739000  0.273800  0.558400  1.0  0.0903
  H  H670  1  0.727400  0.325200  0.567200  1.0  0.1229
  H  H671  1  0.725900  0.380100  0.518100  1.0  0.1176
  H  H672  1  0.745600  0.327600  0.455800  1.0  0.089
  H  H673  1  0.814200  0.041200  0.685400  1.0  0.0814
  H  H674  1  0.820400  0.096200  0.642400  1.0  0.121
  H  H675  1  0.768300  0.147500  0.636500  1.0  0.1229
  H  H676  1  0.709000  0.087000  0.725200  1.0  0.0791
  H  H677  1  0.519000  0.179800  0.812400  1.0  0.0862
  H  H678  1  0.570800  0.130600  0.820400  1.0  0.1227
  H  H679  1  0.625900  0.127900  0.772100  1.0  0.1179
  H  H680  1  0.573400  0.224800  0.711400  1.0  0.0893
  H  H681  1  0.717000  0.208200  0.582000  1.0  0.0889
  H  H682  1  0.610300  0.260100  0.625300  1.0  0.1156
  H  H683  1  0.611500  0.301700  0.566700  1.0  0.1193
  H  H684  1  0.665800  0.296400  0.518600  1.0  0.0888
  H  H685  1  0.773800  0.239000  0.428800  1.0  0.0897
  H  H686  1  0.825200  0.227400  0.380200  1.0  0.1219
  H  H687  1  0.880100  0.225900  0.375900  1.0  0.1174
  H  H688  1  0.827600  0.245600  0.471000  1.0  0.0895
  H  H689  1  0.814200  0.459200  0.041200  1.0  0.0812
  H  H690  1  0.820400  0.441000  0.096200  1.0  0.1211
  H  H691  1  0.768300  0.447700  0.147500  1.0  0.1234
  H  H692  1  0.709000  0.478800  0.087000  1.0  0.0783
  H  H693  1  0.519000  0.488800  0.179800  1.0  0.0877
  H  H694  1  0.570800  0.478200  0.130600  1.0  0.1183
  H  H695  1  0.625900  0.474100  0.127900  1.0  0.1172
  H  H696  1  0.573400  0.490400  0.224800  1.0  0.0923
  H  H697  1  0.717000  0.492800  0.208200  1.0  0.0885
  H  H698  1  0.610300  0.504300  0.260100  1.0  0.1158
  H  H699  1  0.611500  0.520100  0.301700  1.0  0.118
  H  H700  1  0.665800  0.519200  0.296400  1.0  0.0887
  H  H701  1  0.773800  0.558400  0.239000  1.0  0.0888
  H  H702  1  0.825200  0.567200  0.227400  1.0  0.1244
  H  H703  1  0.880100  0.518100  0.225900  1.0  0.1175
  H  H704  1  0.827600  0.455800  0.245600  1.0  0.0886
  H  H705  1  0.541200  0.685400  0.314200  1.0  0.0808
  H  H706  1  0.596200  0.642400  0.320400  1.0  0.1226
  H  H707  1  0.647500  0.636500  0.268300  1.0  0.1238
  H  H708  1  0.587000  0.725200  0.209000  1.0  0.0798
  H  H709  1  0.679800  0.812400  0.019000  1.0  0.0857
  H  H710  1  0.630600  0.820400  0.070800  1.0  0.1221
  H  H711  1  0.627900  0.772100  0.125900  1.0  0.1166
  H  H712  1  0.724800  0.711400  0.073400  1.0  0.0905
  H  H713  1  0.708200  0.582000  0.217000  1.0  0.0868
  H  H714  1  0.760100  0.625300  0.110300  1.0  0.1159
  H  H715  1  0.801700  0.566700  0.111500  1.0  0.1174
  H  H716  1  0.796400  0.518600  0.165800  1.0  0.0893
  H  H717  1  0.739000  0.428800  0.273800  1.0  0.0903
  H  H718  1  0.727400  0.380200  0.325200  1.0  0.1238
  H  H719  1  0.725900  0.375900  0.380100  1.0  0.1177
  H  H720  1  0.745600  0.471000  0.327600  1.0  0.0876
  H  H721  1  0.959200  0.314200  0.685400  1.0  0.082
  H  H722  1  0.941000  0.320400  0.642400  1.0  0.123
  H  H723  1  0.947700  0.268300  0.636500  1.0  0.1242
  H  H724  1  0.978800  0.209000  0.725200  1.0  0.0796
  H  H725  1  0.988800  0.019000  0.812400  1.0  0.0871
  H  H726  1  0.978200  0.070800  0.820400  1.0  0.1198
  H  H727  1  0.974100  0.125900  0.772100  1.0  0.1166
  H  H728  1  0.990400  0.073400  0.711400  1.0  0.0923
  H  H729  1  0.992800  0.217000  0.582000  1.0  0.0881
  H  H730  1  0.004300  0.110300  0.625300  1.0  0.1153
  H  H731  1  0.020100  0.111500  0.566700  1.0  0.1181
  H  H732  1  0.019200  0.165800  0.518600  1.0  0.0907
  H  H733  1  0.058400  0.273800  0.428800  1.0  0.0886
  H  H734  1  0.067200  0.325200  0.380200  1.0  0.1233
  H  H735  1  0.018100  0.380100  0.375900  1.0  0.1171
  H  H736  1  0.955800  0.327600  0.471000  1.0  0.0865
  H  H737  1  0.185400  0.041200  0.459200  1.0  0.0813
  H  H738  1  0.142400  0.096200  0.441000  1.0  0.1201
  H  H739  1  0.136500  0.147500  0.447700  1.0  0.1239
  H  H740  1  0.225200  0.087000  0.478800  1.0  0.08
  H  H741  1  0.312400  0.179800  0.488800  1.0  0.0872
  H  H742  1  0.320400  0.130600  0.478200  1.0  0.1211
  H  H743  1  0.272100  0.127900  0.474100  1.0  0.1158
  H  H744  1  0.211400  0.224800  0.490400  1.0  0.0901
  H  H745  1  0.082000  0.208200  0.492800  1.0  0.0875
  H  H746  1  0.125300  0.260100  0.504300  1.0  0.1159
  H  H747  1  0.066700  0.301700  0.520100  1.0  0.1182
  H  H748  1  0.018600  0.296400  0.519200  1.0  0.0923
  H  H749  1  0.928800  0.239000  0.558400  1.0  0.0899
  H  H750  1  0.880200  0.227400  0.567200  1.0  0.1234
  H  H751  1  0.875900  0.225900  0.518100  1.0  0.1181
  H  H752  1  0.971000  0.245600  0.455800  1.0  0.0869
  H  H753  1  0.541200  0.459200  0.685400  1.0  0.0831
  H  H754  1  0.596200  0.441000  0.642400  1.0  0.1212
  H  H755  1  0.647500  0.447700  0.636500  1.0  0.123
  H  H756  1  0.587000  0.478800  0.725200  1.0  0.08
  H  H757  1  0.679800  0.488800  0.812400  1.0  0.0873
  H  H758  1  0.630600  0.478200  0.820400  1.0  0.1188
  H  H759  1  0.627900  0.474100  0.772100  1.0  0.1165
  H  H760  1  0.724800  0.490400  0.711400  1.0  0.0901
  H  H761  1  0.708200  0.492800  0.582000  1.0  0.0871
  H  H762  1  0.760100  0.504300  0.625300  1.0  0.1168
  H  H763  1  0.801700  0.520100  0.566700  1.0  0.1176
  H  H764  1  0.796400  0.519200  0.518600  1.0  0.0874
  H  H765  1  0.739000  0.558400  0.428800  1.0  0.0886
  H  H766  1  0.727400  0.567200  0.380200  1.0  0.1243
  H  H767  1  0.725900  0.518100  0.375900  1.0  0.1183
  H  H768  1  0.745600  0.455800  0.471000  1.0  0.0885
  H  H769  1  0.814200  0.685400  0.459200  1.0  0.0815
  H  H770  1  0.820400  0.642400  0.441000  1.0  0.1217
  H  H771  1  0.768300  0.636500  0.447700  1.0  0.1229
  H  H772  1  0.709000  0.725200  0.478800  1.0  0.0801
  H  H773  1  0.519000  0.812400  0.488800  1.0  0.0867
  H  H774  1  0.570800  0.820400  0.478200  1.0  0.1219
  H  H775  1  0.625900  0.772100  0.474100  1.0  0.1177
  H  H776  1  0.573400  0.711400  0.490400  1.0  0.0897
  H  H777  1  0.717000  0.582000  0.492800  1.0  0.0876
  H  H778  1  0.610300  0.625300  0.504300  1.0  0.1153
  H  H779  1  0.611500  0.566700  0.520100  1.0  0.119
  H  H780  1  0.665800  0.518600  0.519200  1.0  0.0894
  H  H781  1  0.773800  0.428800  0.558400  1.0  0.0888
  H  H782  1  0.825200  0.380200  0.567200  1.0  0.1248
  H  H783  1  0.880100  0.375900  0.518100  1.0  0.119
  H  H784  1  0.827600  0.471000  0.455800  1.0  0.0879
  H  H785  1  0.185400  0.314200  0.041200  1.0  0.0818
  H  H786  1  0.142400  0.320400  0.096200  1.0  0.1232
  H  H787  1  0.136500  0.268300  0.147500  1.0  0.1242
  H  H788  1  0.225200  0.209000  0.087000  1.0  0.0807
  H  H789  1  0.312400  0.019000  0.179800  1.0  0.0871
  H  H790  1  0.320400  0.070800  0.130600  1.0  0.1199
  H  H791  1  0.272100  0.125900  0.127900  1.0  0.1168
  H  H792  1  0.211400  0.073400  0.224800  1.0  0.0893
  H  H793  1  0.082000  0.217000  0.208200  1.0  0.0883
  H  H794  1  0.125300  0.110300  0.260100  1.0  0.1162
  H  H795  1  0.066700  0.111500  0.301700  1.0  0.1194
  H  H796  1  0.018600  0.165800  0.296400  1.0  0.0892
  H  H797  1  0.928800  0.273800  0.239000  1.0  0.0887
  H  H798  1  0.880200  0.325200  0.227400  1.0  0.1232
  H  H799  1  0.875900  0.380100  0.225900  1.0  0.1183
  H  H800  1  0.971000  0.327600  0.245600  1.0  0.0876
  H  H801  1  0.959200  0.041200  0.314200  1.0  0.082
  H  H802  1  0.941000  0.096200  0.320400  1.0  0.1217
  H  H803  1  0.947700  0.147500  0.268300  1.0  0.1224
  H  H804  1  0.978800  0.087000  0.209000  1.0  0.0815
  H  H805  1  0.988800  0.179800  0.019000  1.0  0.0871
  H  H806  1  0.978200  0.130600  0.070800  1.0  0.1204
  H  H807  1  0.974100  0.127900  0.125900  1.0  0.1162
  H  H808  1  0.990400  0.224800  0.073400  1.0  0.0897
  H  H809  1  0.992800  0.208200  0.217000  1.0  0.088
  H  H810  1  0.004300  0.260100  0.110300  1.0  0.1167
  H  H811  1  0.020100  0.301700  0.111500  1.0  0.1184
  H  H812  1  0.019200  0.296400  0.165800  1.0  0.088
  H  H813  1  0.058400  0.239000  0.273800  1.0  0.0883
  H  H814  1  0.067200  0.227400  0.325200  1.0  0.1231
  H  H815  1  0.018100  0.225900  0.380100  1.0  0.1185
  H  H816  1  0.955800  0.245600  0.327600  1.0  0.0867
  C  C817  1  0.540670  0.163390  0.525050  1.0  0.2848
  C  C818  1  0.553070  0.944730  0.704530  1.0  0.2591
  C  C819  1  0.460100  0.184700  0.793060  1.0  0.1745
  C  C820  1  0.449970  0.158310  0.796950  1.0  -0.1282
  C  C821  1  0.453090  0.155250  0.766510  1.0  -0.0362
  C  C822  1  0.464470  0.180530  0.733130  1.0  -0.1559
  C  C823  1  0.472300  0.207240  0.731900  1.0  0.1733
  C  C824  1  0.487130  0.292490  0.541210  1.0  0.1776
  C  C825  1  0.480700  0.297600  0.572100  1.0  -0.1418
  C  C826  1  0.478070  0.269450  0.604390  1.0  -0.0312
  C  C827  1  0.481280  0.236640  0.605040  1.0  -0.1687
  C  C828  1  0.487890  0.233850  0.572930  1.0  0.1741
  C  C829  1  0.479680  0.204760  0.638680  1.0  0.3977
  C  C830  1  0.470870  0.178670  0.698630  1.0  0.3408
  C  C831  1  0.486440  0.145040  0.666080  1.0  0.434
  C  C832  1  0.498030  0.079010  0.695190  1.0  0.1854
  C  C833  1  0.496430  0.109590  0.664170  1.0  -0.2063
  C  C834  1  0.504770  0.105150  0.632230  1.0  -0.0365
  C  C835  1  0.513880  0.070640  0.633020  1.0  -0.1275
  C  C836  1  0.513810  0.042050  0.665390  1.0  0.1565
  C  C837  1  0.538550  0.927490  0.795910  1.0  0.1647
  C  C838  1  0.543930  0.898350  0.826370  1.0  -0.1582
  C  C839  1  0.515160  0.895740  0.858640  1.0  -0.0245
  C  C840  1  0.481470  0.923210  0.858850  1.0  -0.1671
  C  C841  1  0.478500  0.952020  0.827160  1.0  0.1866
  C  C842  1  0.449800  0.922300  0.892420  1.0  0.4192
  C  C843  1  0.663390  0.040670  0.770890  1.0  0.2856
  C  C844  1  0.444730  0.053070  0.797670  1.0  0.2654
  C  C845  1  0.684700  0.960100  0.562140  1.0  0.1773
  C  C846  1  0.658310  0.949970  0.594770  1.0  -0.1255
  C  C847  1  0.655250  0.953090  0.625150  1.0  -0.0356
  C  C848  1  0.680530  0.964470  0.621870  1.0  -0.1565
  C  C849  1  0.707240  0.972300  0.588560  1.0  0.1727
  C  C850  1  0.792490  0.987130  0.679170  1.0  0.1806
  C  C851  1  0.797600  0.980700  0.649600  1.0  -0.1375
  C  C852  1  0.769450  0.978070  0.648090  1.0  -0.0326
  C  C853  1  0.736640  0.981280  0.677040  1.0  -0.1665
  C  C854  1  0.733850  0.987890  0.705330  1.0  0.1744
  C  C855  1  0.704760  0.979680  0.676880  1.0  0.3974
  C  C856  1  0.678670  0.970870  0.651830  1.0  0.3401
  C  C857  1  0.645040  0.986440  0.702440  1.0  0.4328
  C  C858  1  0.579010  0.998030  0.727770  1.0  0.1874
  C  C859  1  0.609590  0.996430  0.729810  1.0  -0.2063
  C  C860  1  0.605150  0.004770  0.757850  1.0  -0.0358
  C  C861  1  0.570640  0.013880  0.782460  1.0  -0.1311
  C  C862  1  0.542050  0.013810  0.778750  1.0  0.1583
  C  C863  1  0.427490  0.038550  0.738050  1.0  0.1654
  C  C864  1  0.398350  0.043930  0.731350  1.0  -0.1551
  C  C865  1  0.395740  0.015160  0.730460  1.0  -0.0243
  C  C866  1  0.423210  0.981470  0.736470  1.0  -0.1689
  C  C867  1  0.452020  0.978500  0.742320  1.0  0.1863
  C  C868  1  0.422300  0.949800  0.735480  1.0  0.4203
  C  C869  1  0.025050  0.770890  0.040670  1.0  0.2824
  C  C870  1  0.204530  0.797670  0.053070  1.0  0.2632
  C  C871  1  0.293060  0.562140  0.960100  1.0  0.1749
  C  C872  1  0.296950  0.594770  0.949970  1.0  -0.1199
  C  C873  1  0.266510  0.625150  0.953090  1.0  -0.0367
  C  C874  1  0.233130  0.621870  0.964470  1.0  -0.1575
  C  C875  1  0.231900  0.588560  0.972300  1.0  0.1755
  C  C876  1  0.041210  0.679170  0.987130  1.0  0.1746
  C  C877  1  0.072100  0.649600  0.980700  1.0  -0.1451
  C  C878  1  0.104390  0.648090  0.978070  1.0  -0.0318
  C  C879  1  0.105040  0.677040  0.981280  1.0  -0.1683
  C  C880  1  0.072930  0.705330  0.987890  1.0  0.1742
  C  C881  1  0.138680  0.676880  0.979680  1.0  0.3975
  C  C882  1  0.198630  0.651830  0.970870  1.0  0.3416
  C  C883  1  0.166080  0.702440  0.986440  1.0  0.4335
  C  C884  1  0.195190  0.727770  0.998030  1.0  0.1849
  C  C885  1  0.164170  0.729810  0.996430  1.0  -0.2074
  C  C886  1  0.132230  0.757850  0.004770  1.0  -0.0346
  C  C887  1  0.133020  0.782460  0.013880  1.0  -0.1341
  C  C888  1  0.165390  0.778750  0.013810  1.0  0.1604
  C  C889  1  0.295910  0.738050  0.038550  1.0  0.1644
  C  C890  1  0.326370  0.731350  0.043930  1.0  -0.1546
  C  C891  1  0.358640  0.730460  0.015160  1.0  -0.0255
  C  C892  1  0.358850  0.736470  0.981470  1.0  -0.1673
  C  C893  1  0.327160  0.742320  0.978500  1.0  0.1867
  C  C894  1  0.392420  0.735480  0.949800  1.0  0.42
  C  C895  1  0.270890  0.525050  0.163390  1.0  0.2788
  C  C896  1  0.297670  0.704530  0.944730  1.0  0.2642
  C  C897  1  0.062140  0.793060  0.184700  1.0  0.1734
  C  C898  1  0.094770  0.796950  0.158310  1.0  -0.1251
  C  C899  1  0.125150  0.766510  0.155250  1.0  -0.0353
  C  C900  1  0.121870  0.733130  0.180530  1.0  -0.1556
  C  C901  1  0.088560  0.731900  0.207240  1.0  0.1745
  C  C902  1  0.179170  0.541210  0.292490  1.0  0.1743
  C  C903  1  0.149600  0.572100  0.297600  1.0  -0.1435
  C  C904  1  0.148090  0.604390  0.269450  1.0  -0.0316
  C  C905  1  0.177040  0.605040  0.236640  1.0  -0.1669
  C  C906  1  0.205330  0.572930  0.233850  1.0  0.1749
  C  C907  1  0.176880  0.638680  0.204760  1.0  0.3975
  C  C908  1  0.151830  0.698630  0.178670  1.0  0.3408
  C  C909  1  0.202440  0.666080  0.145040  1.0  0.4327
  C  C910  1  0.227770  0.695190  0.079010  1.0  0.1864
  C  C911  1  0.229810  0.664170  0.109590  1.0  -0.2074
  C  C912  1  0.257850  0.632230  0.105150  1.0  -0.0356
  C  C913  1  0.282460  0.633020  0.070640  1.0  -0.1283
  C  C914  1  0.278750  0.665390  0.042050  1.0  0.1611
  C  C915  1  0.238050  0.795910  0.927490  1.0  0.1639
  C  C916  1  0.231350  0.826370  0.898350  1.0  -0.1521
  C  C917  1  0.230460  0.858640  0.895740  1.0  -0.0244
  C  C918  1  0.236470  0.858850  0.923210  1.0  -0.168
  C  C919  1  0.242320  0.827160  0.952020  1.0  0.1858
  C  C920  1  0.235480  0.892420  0.922300  1.0  0.4197
  C  C921  1  0.540670  0.525050  0.770890  1.0  0.2782
  C  C922  1  0.553070  0.704530  0.797670  1.0  0.2651
  C  C923  1  0.460100  0.793060  0.562140  1.0  0.1752
  C  C924  1  0.449970  0.796950  0.594770  1.0  -0.1259
  C  C925  1  0.453090  0.766510  0.625150  1.0  -0.0378
  C  C926  1  0.464470  0.733130  0.621870  1.0  -0.1555
  C  C927  1  0.472300  0.731900  0.588560  1.0  0.1767
  C  C928  1  0.487130  0.541210  0.679170  1.0  0.1761
  C  C929  1  0.480700  0.572100  0.649600  1.0  -0.1375
  C  C930  1  0.478070  0.604390  0.648090  1.0  -0.031
  C  C931  1  0.481280  0.605040  0.677040  1.0  -0.1669
  C  C932  1  0.487890  0.572930  0.705330  1.0  0.1763
  C  C933  1  0.479680  0.638680  0.676880  1.0  0.3976
  C  C934  1  0.470870  0.698630  0.651830  1.0  0.3404
  C  C935  1  0.486440  0.666080  0.702440  1.0  0.4337
  C  C936  1  0.498030  0.695190  0.727770  1.0  0.1881
  C  C937  1  0.496430  0.664170  0.729810  1.0  -0.2055
  C  C938  1  0.504770  0.632230  0.757850  1.0  -0.0343
  C  C939  1  0.513880  0.633020  0.782460  1.0  -0.1313
  C  C940  1  0.513810  0.665390  0.778750  1.0  0.1593
  C  C941  1  0.538550  0.795910  0.738050  1.0  0.1643
  C  C942  1  0.543930  0.826370  0.731350  1.0  -0.154
  C  C943  1  0.515160  0.858640  0.730460  1.0  -0.023
  C  C944  1  0.481470  0.858850  0.736470  1.0  -0.1675
  C  C945  1  0.478500  0.827160  0.742320  1.0  0.188
  C  C946  1  0.449800  0.892420  0.735480  1.0  0.4196
  C  C947  1  0.663390  0.770890  0.525050  1.0  0.287
  C  C948  1  0.444730  0.797670  0.704530  1.0  0.2626
  C  C949  1  0.684700  0.562140  0.793060  1.0  0.1741
  C  C950  1  0.658310  0.594770  0.796950  1.0  -0.1256
  C  C951  1  0.655250  0.625150  0.766510  1.0  -0.0381
  C  C952  1  0.680530  0.621870  0.733130  1.0  -0.1566
  C  C953  1  0.707240  0.588560  0.731900  1.0  0.1754
  C  C954  1  0.792490  0.679170  0.541210  1.0  0.176
  C  C955  1  0.797600  0.649600  0.572100  1.0  -0.1412
  C  C956  1  0.769450  0.648090  0.604390  1.0  -0.0342
  C  C957  1  0.736640  0.677040  0.605040  1.0  -0.1652
  C  C958  1  0.733850  0.705330  0.572930  1.0  0.1734
  C  C959  1  0.704760  0.676880  0.638680  1.0  0.3973
  C  C960  1  0.678670  0.651830  0.698630  1.0  0.3414
  C  C961  1  0.645040  0.702440  0.666080  1.0  0.4333
  C  C962  1  0.579010  0.727770  0.695190  1.0  0.1851
  C  C963  1  0.609590  0.729810  0.664170  1.0  -0.2066
  C  C964  1  0.605150  0.757850  0.632230  1.0  -0.0346
  C  C965  1  0.570640  0.782460  0.633020  1.0  -0.1335
  C  C966  1  0.542050  0.778750  0.665390  1.0  0.1571
  C  C967  1  0.427490  0.738050  0.795910  1.0  0.1646
  C  C968  1  0.398350  0.731350  0.826370  1.0  -0.1576
  C  C969  1  0.395740  0.730460  0.858640  1.0  -0.0232
  C  C970  1  0.423210  0.736470  0.858850  1.0  -0.1684
  C  C971  1  0.452020  0.742320  0.827160  1.0  0.1862
  C  C972  1  0.422300  0.735480  0.892420  1.0  0.4195
  C  C973  1  0.025050  0.040670  0.163390  1.0  0.2817
  C  C974  1  0.204530  0.053070  0.944730  1.0  0.2628
  C  C975  1  0.293060  0.960100  0.184700  1.0  0.1795
  C  C976  1  0.296950  0.949970  0.158310  1.0  -0.1246
  C  C977  1  0.266510  0.953090  0.155250  1.0  -0.038
  C  C978  1  0.233130  0.964470  0.180530  1.0  -0.1553
  C  C979  1  0.231900  0.972300  0.207240  1.0  0.175
  C  C980  1  0.041210  0.987130  0.292490  1.0  0.1755
  C  C981  1  0.072100  0.980700  0.297600  1.0  -0.1388
  C  C982  1  0.104390  0.978070  0.269450  1.0  -0.031
  C  C983  1  0.105040  0.981280  0.236640  1.0  -0.1686
  C  C984  1  0.072930  0.987890  0.233850  1.0  0.1751
  C  C985  1  0.138680  0.979680  0.204760  1.0  0.3972
  C  C986  1  0.198630  0.970870  0.178670  1.0  0.3411
  C  C987  1  0.166080  0.986440  0.145040  1.0  0.4326
  C  C988  1  0.195190  0.998030  0.079010  1.0  0.1854
  C  C989  1  0.164170  0.996430  0.109590  1.0  -0.2092
  C  C990  1  0.132230  0.004770  0.105150  1.0  -0.0344
  C  C991  1  0.133020  0.013880  0.070640  1.0  -0.1299
  C  C992  1  0.165390  0.013810  0.042050  1.0  0.1636
  C  C993  1  0.295910  0.038550  0.927490  1.0  0.1629
  C  C994  1  0.326370  0.043930  0.898350  1.0  -0.1568
  C  C995  1  0.358640  0.015160  0.895740  1.0  -0.0233
  C  C996  1  0.358850  0.981470  0.923210  1.0  -0.1678
  C  C997  1  0.327160  0.978500  0.952020  1.0  0.1852
  C  C998  1  0.392420  0.949800  0.922300  1.0  0.4209
  C  C999  1  0.270890  0.163390  0.040670  1.0  0.2858
  C  C1000  1  0.297670  0.944730  0.053070  1.0  0.2634
  C  C1001  1  0.062140  0.184700  0.960100  1.0  0.1741
  C  C1002  1  0.094770  0.158310  0.949970  1.0  -0.1258
  C  C1003  1  0.125150  0.155250  0.953090  1.0  -0.039
  C  C1004  1  0.121870  0.180530  0.964470  1.0  -0.1554
  C  C1005  1  0.088560  0.207240  0.972300  1.0  0.1751
  C  C1006  1  0.179170  0.292490  0.987130  1.0  0.1739
  C  C1007  1  0.149600  0.297600  0.980700  1.0  -0.1424
  C  C1008  1  0.148090  0.269450  0.978070  1.0  -0.0326
  C  C1009  1  0.177040  0.236640  0.981280  1.0  -0.1675
  C  C1010  1  0.205330  0.233850  0.987890  1.0  0.1727
  C  C1011  1  0.176880  0.204760  0.979680  1.0  0.3974
  C  C1012  1  0.151830  0.178670  0.970870  1.0  0.3404
  C  C1013  1  0.202440  0.145040  0.986440  1.0  0.4337
  C  C1014  1  0.227770  0.079010  0.998030  1.0  0.1863
  C  C1015  1  0.229810  0.109590  0.996430  1.0  -0.2046
  C  C1016  1  0.257850  0.105150  0.004770  1.0  -0.035
  C  C1017  1  0.282460  0.070640  0.013880  1.0  -0.1283
  C  C1018  1  0.278750  0.042050  0.013810  1.0  0.1579
  C  C1019  1  0.238050  0.927490  0.038550  1.0  0.1632
  C  C1020  1  0.231350  0.898350  0.043930  1.0  -0.1615
  C  C1021  1  0.230460  0.895740  0.015160  1.0  -0.0228
  C  C1022  1  0.236470  0.923210  0.981470  1.0  -0.1657
  C  C1023  1  0.242320  0.952020  0.978500  1.0  0.1877
  C  C1024  1  0.235480  0.922300  0.949800  1.0  0.4194
  C  C1025  1  0.540670  0.770890  0.163390  1.0  0.2832
  C  C1026  1  0.553070  0.797670  0.944730  1.0  0.2671
  C  C1027  1  0.460100  0.562140  0.184700  1.0  0.1738
  C  C1028  1  0.449970  0.594770  0.158310  1.0  -0.121
  C  C1029  1  0.453090  0.625150  0.155250  1.0  -0.0368
  C  C1030  1  0.464470  0.621870  0.180530  1.0  -0.1569
  C  C1031  1  0.472300  0.588560  0.207240  1.0  0.1775
  C  C1032  1  0.487130  0.679170  0.292490  1.0  0.1752
  C  C1033  1  0.480700  0.649600  0.297600  1.0  -0.1457
  C  C1034  1  0.478070  0.648090  0.269450  1.0  -0.0315
  C  C1035  1  0.481280  0.677040  0.236640  1.0  -0.1693
  C  C1036  1  0.487890  0.705330  0.233850  1.0  0.1736
  C  C1037  1  0.479680  0.676880  0.204760  1.0  0.3973
  C  C1038  1  0.470870  0.651830  0.178670  1.0  0.3415
  C  C1039  1  0.486440  0.702440  0.145040  1.0  0.4336
  C  C1040  1  0.498030  0.727770  0.079010  1.0  0.1883
  C  C1041  1  0.496430  0.729810  0.109590  1.0  -0.2026
  C  C1042  1  0.504770  0.757850  0.105150  1.0  -0.0345
  C  C1043  1  0.513880  0.782460  0.070640  1.0  -0.132
  C  C1044  1  0.513810  0.778750  0.042050  1.0  0.161
  C  C1045  1  0.538550  0.738050  0.927490  1.0  0.1675
  C  C1046  1  0.543930  0.731350  0.898350  1.0  -0.1563
  C  C1047  1  0.515160  0.730460  0.895740  1.0  -0.025
  C  C1048  1  0.481470  0.736470  0.923210  1.0  -0.1647
  C  C1049  1  0.478500  0.742320  0.952020  1.0  0.1864
  C  C1050  1  0.449800  0.735480  0.922300  1.0  0.4196
  C  C1051  1  0.663390  0.525050  0.040670  1.0  0.2832
  C  C1052  1  0.444730  0.704530  0.053070  1.0  0.2696
  C  C1053  1  0.684700  0.793060  0.960100  1.0  0.1727
  C  C1054  1  0.658310  0.796950  0.949970  1.0  -0.1266
  C  C1055  1  0.655250  0.766510  0.953090  1.0  -0.0379
  C  C1056  1  0.680530  0.733130  0.964470  1.0  -0.1564
  C  C1057  1  0.707240  0.731900  0.972300  1.0  0.1727
  C  C1058  1  0.792490  0.541210  0.987130  1.0  0.1768
  C  C1059  1  0.797600  0.572100  0.980700  1.0  -0.1379
  C  C1060  1  0.769450  0.604390  0.978070  1.0  -0.0318
  C  C1061  1  0.736640  0.605040  0.981280  1.0  -0.1682
  C  C1062  1  0.733850  0.572930  0.987890  1.0  0.1757
  C  C1063  1  0.704760  0.638680  0.979680  1.0  0.3974
  C  C1064  1  0.678670  0.698630  0.970870  1.0  0.3404
  C  C1065  1  0.645040  0.666080  0.986440  1.0  0.4327
  C  C1066  1  0.579010  0.695190  0.998030  1.0  0.1841
  C  C1067  1  0.609590  0.664170  0.996430  1.0  -0.2074
  C  C1068  1  0.605150  0.632230  0.004770  1.0  -0.0351
  C  C1069  1  0.570640  0.633020  0.013880  1.0  -0.13
  C  C1070  1  0.542050  0.665390  0.013810  1.0  0.158
  C  C1071  1  0.427490  0.795910  0.038550  1.0  0.164
  C  C1072  1  0.398350  0.826370  0.043930  1.0  -0.159
  C  C1073  1  0.395740  0.858640  0.015160  1.0  -0.0211
  C  C1074  1  0.423210  0.858850  0.981470  1.0  -0.1674
  C  C1075  1  0.452020  0.827160  0.978500  1.0  0.1869
  C  C1076  1  0.422300  0.892420  0.949800  1.0  0.4201
  C  C1077  1  0.025050  0.163390  0.770890  1.0  0.286
  C  C1078  1  0.204530  0.944730  0.797670  1.0  0.2685
  C  C1079  1  0.293060  0.184700  0.562140  1.0  0.1747
  C  C1080  1  0.296950  0.158310  0.594770  1.0  -0.1249
  C  C1081  1  0.266510  0.155250  0.625150  1.0  -0.0389
  C  C1082  1  0.233130  0.180530  0.621870  1.0  -0.1543
  C  C1083  1  0.231900  0.207240  0.588560  1.0  0.1747
  C  C1084  1  0.041210  0.292490  0.679170  1.0  0.1748
  C  C1085  1  0.072100  0.297600  0.649600  1.0  -0.1412
  C  C1086  1  0.104390  0.269450  0.648090  1.0  -0.0335
  C  C1087  1  0.105040  0.236640  0.677040  1.0  -0.168
  C  C1088  1  0.072930  0.233850  0.705330  1.0  0.1751
  C  C1089  1  0.138680  0.204760  0.676880  1.0  0.3983
  C  C1090  1  0.198630  0.178670  0.651830  1.0  0.3403
  C  C1091  1  0.166080  0.145040  0.702440  1.0  0.4336
  C  C1092  1  0.195190  0.079010  0.727770  1.0  0.1858
  C  C1093  1  0.164170  0.109590  0.729810  1.0  -0.2063
  C  C1094  1  0.132230  0.105150  0.757850  1.0  -0.0357
  C  C1095  1  0.133020  0.070640  0.782460  1.0  -0.1289
  C  C1096  1  0.165390  0.042050  0.778750  1.0  0.1582
  C  C1097  1  0.295910  0.927490  0.738050  1.0  0.1637
  C  C1098  1  0.326370  0.898350  0.731350  1.0  -0.1593
  C  C1099  1  0.358640  0.895740  0.730460  1.0  -0.0217
  C  C1100  1  0.358850  0.923210  0.736470  1.0  -0.1688
  C  C1101  1  0.327160  0.952020  0.742320  1.0  0.1853
  C  C1102  1  0.392420  0.922300  0.735480  1.0  0.4196
  C  C1103  1  0.270890  0.040670  0.525050  1.0  0.2802
  C  C1104  1  0.297670  0.053070  0.704530  1.0  0.2685
  C  C1105  1  0.062140  0.960100  0.793060  1.0  0.174
  C  C1106  1  0.094770  0.949970  0.796950  1.0  -0.1229
  C  C1107  1  0.125150  0.953090  0.766510  1.0  -0.0356
  C  C1108  1  0.121870  0.964470  0.733130  1.0  -0.1561
  C  C1109  1  0.088560  0.972300  0.731900  1.0  0.1757
  C  C1110  1  0.179170  0.987130  0.541210  1.0  0.1783
  C  C1111  1  0.149600  0.980700  0.572100  1.0  -0.1399
  C  C1112  1  0.148090  0.978070  0.604390  1.0  -0.0315
  C  C1113  1  0.177040  0.981280  0.605040  1.0  -0.1695
  C  C1114  1  0.205330  0.987890  0.572930  1.0  0.1736
  C  C1115  1  0.176880  0.979680  0.638680  1.0  0.3973
  C  C1116  1  0.151830  0.970870  0.698630  1.0  0.3412
  C  C1117  1  0.202440  0.986440  0.666080  1.0  0.4329
  C  C1118  1  0.227770  0.998030  0.695190  1.0  0.187
  C  C1119  1  0.229810  0.996430  0.664170  1.0  -0.2039
  C  C1120  1  0.257850  0.004770  0.632230  1.0  -0.0357
  C  C1121  1  0.282460  0.013880  0.633020  1.0  -0.126
  C  C1122  1  0.278750  0.013810  0.665390  1.0  0.165
  C  C1123  1  0.238050  0.038550  0.795910  1.0  0.1641
  C  C1124  1  0.231350  0.043930  0.826370  1.0  -0.1573
  C  C1125  1  0.230460  0.015160  0.858640  1.0  -0.0227
  C  C1126  1  0.236470  0.981470  0.858850  1.0  -0.164
  C  C1127  1  0.242320  0.978500  0.827160  1.0  0.1894
  C  C1128  1  0.235480  0.949800  0.892420  1.0  0.4199
  C  C1129  1  0.836610  0.459330  0.974950  1.0  0.2865
  C  C1130  1  0.055270  0.446930  0.795470  1.0  0.2635
  C  C1131  1  0.815300  0.539900  0.706940  1.0  0.1785
  C  C1132  1  0.841690  0.550030  0.703050  1.0  -0.1241
  C  C1133  1  0.844750  0.546910  0.733490  1.0  -0.0346
  C  C1134  1  0.819470  0.535530  0.766870  1.0  -0.1572
  C  C1135  1  0.792760  0.527700  0.768100  1.0  0.1732
  C  C1136  1  0.707510  0.512870  0.958790  1.0  0.181
  C  C1137  1  0.702400  0.519300  0.927900  1.0  -0.1389
  C  C1138  1  0.730550  0.521930  0.895610  1.0  -0.0318
  C  C1139  1  0.763360  0.518720  0.894960  1.0  -0.1662
  C  C1140  1  0.766150  0.512110  0.927070  1.0  0.1739
  C  C1141  1  0.795240  0.520320  0.861320  1.0  0.3973
  C  C1142  1  0.821330  0.529130  0.801370  1.0  0.3405
  C  C1143  1  0.854960  0.513560  0.833920  1.0  0.4326
  C  C1144  1  0.920990  0.501970  0.804810  1.0  0.1875
  C  C1145  1  0.890410  0.503570  0.835830  1.0  -0.2069
  C  C1146  1  0.894850  0.495230  0.867770  1.0  -0.0361
  C  C1147  1  0.929360  0.486120  0.866980  1.0  -0.1323
  C  C1148  1  0.957950  0.486190  0.834610  1.0  0.1592
  C  C1149  1  0.072510  0.461450  0.704090  1.0  0.1684
  C  C1150  1  0.101650  0.456070  0.673630  1.0  -0.157
  C  C1151  1  0.104260  0.484840  0.641360  1.0  -0.0239
  C  C1152  1  0.076790  0.518530  0.641150  1.0  -0.168
  C  C1153  1  0.047980  0.521500  0.672840  1.0  0.1844
  C  C1154  1  0.077700  0.550200  0.607580  1.0  0.42
  C  C1155  1  0.959330  0.336610  0.729110  1.0  0.2834
  C  C1156  1  0.946930  0.555270  0.702330  1.0  0.2605
  C  C1157  1  0.039900  0.315300  0.937860  1.0  0.173
  C  C1158  1  0.050030  0.341690  0.905230  1.0  -0.1264
  C  C1159  1  0.046910  0.344750  0.874850  1.0  -0.0363
  C  C1160  1  0.035530  0.319470  0.878130  1.0  -0.1561
  C  C1161  1  0.027700  0.292760  0.911440  1.0  0.1732
  C  C1162  1  0.012870  0.207510  0.820830  1.0  0.1768
  C  C1163  1  0.019300  0.202400  0.850400  1.0  -0.146
  C  C1164  1  0.021930  0.230550  0.851910  1.0  -0.0322
  C  C1165  1  0.018720  0.263360  0.822960  1.0  -0.1684
  C  C1166  1  0.012110  0.266150  0.794670  1.0  0.1749
  C  C1167  1  0.020320  0.295240  0.823120  1.0  0.3981
  C  C1168  1  0.029130  0.321330  0.848170  1.0  0.3408
  C  C1169  1  0.013560  0.354960  0.797560  1.0  0.4341
  C  C1170  1  0.001970  0.420990  0.772230  1.0  0.187
  C  C1171  1  0.003570  0.390410  0.770190  1.0  -0.207
  C  C1172  1  0.995230  0.394850  0.742150  1.0  -0.0369
  C  C1173  1  0.986120  0.429360  0.717540  1.0  -0.1273
  C  C1174  1  0.986190  0.457950  0.721250  1.0  0.1565
  C  C1175  1  0.961450  0.572510  0.761950  1.0  0.1647
  C  C1176  1  0.956070  0.601650  0.768650  1.0  -0.1576
  C  C1177  1  0.984840  0.604260  0.769540  1.0  -0.0241
  C  C1178  1  0.018530  0.576790  0.763530  1.0  -0.1676
  C  C1179  1  0.021500  0.547980  0.757680  1.0  0.1861
  C  C1180  1  0.050200  0.577700  0.764520  1.0  0.4196
  C  C1181  1  0.229110  0.974950  0.459330  1.0  0.2815
  C  C1182  1  0.202330  0.795470  0.446930  1.0  0.2653
  C  C1183  1  0.437860  0.706940  0.539900  1.0  0.1735
  C  C1184  1  0.405230  0.703050  0.550030  1.0  -0.1268
  C  C1185  1  0.374850  0.733490  0.546910  1.0  -0.0369
  C  C1186  1  0.378130  0.766870  0.535530  1.0  -0.1554
  C  C1187  1  0.411440  0.768100  0.527700  1.0  0.1736
  C  C1188  1  0.320830  0.958790  0.512870  1.0  0.1742
  C  C1189  1  0.350400  0.927900  0.519300  1.0  -0.1403
  C  C1190  1  0.351910  0.895610  0.521930  1.0  -0.0319
  C  C1191  1  0.322960  0.894960  0.518720  1.0  -0.1685
  C  C1192  1  0.294670  0.927070  0.512110  1.0  0.1758
  C  C1193  1  0.323120  0.861320  0.520320  1.0  0.3976
  C  C1194  1  0.348170  0.801370  0.529130  1.0  0.3415
  C  C1195  1  0.297560  0.833920  0.513560  1.0  0.4328
  C  C1196  1  0.272230  0.804810  0.501970  1.0  0.1842
  C  C1197  1  0.270190  0.835830  0.503570  1.0  -0.2077
  C  C1198  1  0.242150  0.867770  0.495230  1.0  -0.0362
  C  C1199  1  0.217540  0.866980  0.486120  1.0  -0.1301
  C  C1200  1  0.221250  0.834610  0.486190  1.0  0.1623
  C  C1201  1  0.261950  0.704090  0.461450  1.0  0.1647
  C  C1202  1  0.268650  0.673630  0.456070  1.0  -0.1517
  C  C1203  1  0.269540  0.641360  0.484840  1.0  -0.0252
  C  C1204  1  0.263530  0.641150  0.518530  1.0  -0.1668
  C  C1205  1  0.257680  0.672840  0.521500  1.0  0.1865
  C  C1206  1  0.264520  0.607580  0.550200  1.0  0.4197
  C  C1207  1  0.474950  0.729110  0.336610  1.0  0.2818
  C  C1208  1  0.295470  0.702330  0.555270  1.0  0.2631
  C  C1209  1  0.206940  0.937860  0.315300  1.0  0.175
  C  C1210  1  0.203050  0.905230  0.341690  1.0  -0.1234
  C  C1211  1  0.233490  0.874850  0.344750  1.0  -0.0371
  C  C1212  1  0.266870  0.878130  0.319470  1.0  -0.1572
  C  C1213  1  0.268100  0.911440  0.292760  1.0  0.176
  C  C1214  1  0.458790  0.820830  0.207510  1.0  0.1748
  C  C1215  1  0.427900  0.850400  0.202400  1.0  -0.1448
  C  C1216  1  0.395610  0.851910  0.230550  1.0  -0.0319
  C  C1217  1  0.394960  0.822960  0.263360  1.0  -0.1682
  C  C1218  1  0.427070  0.794670  0.266150  1.0  0.1739
  C  C1219  1  0.361320  0.823120  0.295240  1.0  0.3976
  C  C1220  1  0.301370  0.848170  0.321330  1.0  0.3417
  C  C1221  1  0.333920  0.797560  0.354960  1.0  0.4329
  C  C1222  1  0.304810  0.772230  0.420990  1.0  0.1852
  C  C1223  1  0.335830  0.770190  0.390410  1.0  -0.207
  C  C1224  1  0.367770  0.742150  0.394850  1.0  -0.0353
  C  C1225  1  0.366980  0.717540  0.429360  1.0  -0.1306
  C  C1226  1  0.334610  0.721250  0.457950  1.0  0.1636
  C  C1227  1  0.204090  0.761950  0.572510  1.0  0.1651
  C  C1228  1  0.173630  0.768650  0.601650  1.0  -0.1534
  C  C1229  1  0.141360  0.769540  0.604260  1.0  -0.0258
  C  C1230  1  0.141150  0.763530  0.576790  1.0  -0.1678
  C  C1231  1  0.172840  0.757680  0.547980  1.0  0.1871
  C  C1232  1  0.107580  0.764520  0.577700  1.0  0.4198
  C  C1233  1  0.474950  0.459330  0.729110  1.0  0.2816
  C  C1234  1  0.295470  0.446930  0.702330  1.0  0.2622
  C  C1235  1  0.206940  0.539900  0.937860  1.0  0.1787
  C  C1236  1  0.203050  0.550030  0.905230  1.0  -0.1277
  C  C1237  1  0.233490  0.546910  0.874850  1.0  -0.0382
  C  C1238  1  0.266870  0.535530  0.878130  1.0  -0.1544
  C  C1239  1  0.268100  0.527700  0.911440  1.0  0.1753
  C  C1240  1  0.458790  0.512870  0.820830  1.0  0.1753
  C  C1241  1  0.427900  0.519300  0.850400  1.0  -0.1396
  C  C1242  1  0.395610  0.521930  0.851910  1.0  -0.0306
  C  C1243  1  0.394960  0.518720  0.822960  1.0  -0.1691
  C  C1244  1  0.427070  0.512110  0.794670  1.0  0.1752
  C  C1245  1  0.361320  0.520320  0.823120  1.0  0.3974
  C  C1246  1  0.301370  0.529130  0.848170  1.0  0.3413
  C  C1247  1  0.333920  0.513560  0.797560  1.0  0.4327
  C  C1248  1  0.304810  0.501970  0.772230  1.0  0.1855
  C  C1249  1  0.335830  0.503570  0.770190  1.0  -0.21
  C  C1250  1  0.367770  0.495230  0.742150  1.0  -0.0346
  C  C1251  1  0.366980  0.486120  0.717540  1.0  -0.1281
  C  C1252  1  0.334610  0.486190  0.721250  1.0  0.163
  C  C1253  1  0.204090  0.461450  0.761950  1.0  0.162
  C  C1254  1  0.173630  0.456070  0.768650  1.0  -0.1586
  C  C1255  1  0.141360  0.484840  0.769540  1.0  -0.0231
  C  C1256  1  0.141150  0.518530  0.763530  1.0  -0.1679
  C  C1257  1  0.172840  0.521500  0.757680  1.0  0.1846
  C  C1258  1  0.107580  0.550200  0.764520  1.0  0.4205
  C  C1259  1  0.229110  0.336610  0.974950  1.0  0.2848
  C  C1260  1  0.202330  0.555270  0.795470  1.0  0.264
  C  C1261  1  0.437860  0.315300  0.706940  1.0  0.1746
  C  C1262  1  0.405230  0.341690  0.703050  1.0  -0.1267
  C  C1263  1  0.374850  0.344750  0.733490  1.0  -0.039
  C  C1264  1  0.378130  0.319470  0.766870  1.0  -0.1555
  C  C1265  1  0.411440  0.292760  0.768100  1.0  0.1741
  C  C1266  1  0.320830  0.207510  0.958790  1.0  0.1739
  C  C1267  1  0.350400  0.202400  0.927900  1.0  -0.1416
  C  C1268  1  0.351910  0.230550  0.895610  1.0  -0.0332
  C  C1269  1  0.322960  0.263360  0.894960  1.0  -0.1675
  C  C1270  1  0.294670  0.266150  0.927070  1.0  0.1733
  C  C1271  1  0.323120  0.295240  0.861320  1.0  0.3974
  C  C1272  1  0.348170  0.321330  0.801370  1.0  0.3406
  C  C1273  1  0.297560  0.354960  0.833920  1.0  0.4332
  C  C1274  1  0.272230  0.420990  0.804810  1.0  0.1869
  C  C1275  1  0.270190  0.390410  0.835830  1.0  -0.2054
  C  C1276  1  0.242150  0.394850  0.867770  1.0  -0.0365
  C  C1277  1  0.217540  0.429360  0.866980  1.0  -0.1314
  C  C1278  1  0.221250  0.457950  0.834610  1.0  0.1562
  C  C1279  1  0.261950  0.572510  0.704090  1.0  0.162
  C  C1280  1  0.268650  0.601650  0.673630  1.0  -0.1577
  C  C1281  1  0.269540  0.604260  0.641360  1.0  -0.0237
  C  C1282  1  0.263530  0.576790  0.641150  1.0  -0.1658
  C  C1283  1  0.257680  0.547980  0.672840  1.0  0.1877
  C  C1284  1  0.264520  0.577700  0.607580  1.0  0.4197
  C  C1285  1  0.959330  0.974950  0.336610  1.0  0.2804
  C  C1286  1  0.946930  0.795470  0.555270  1.0  0.2653
  C  C1287  1  0.039900  0.706940  0.315300  1.0  0.1744
  C  C1288  1  0.050030  0.703050  0.341690  1.0  -0.127
  C  C1289  1  0.046910  0.733490  0.344750  1.0  -0.0373
  C  C1290  1  0.035530  0.766870  0.319470  1.0  -0.1551
  C  C1291  1  0.027700  0.768100  0.292760  1.0  0.1768
  C  C1292  1  0.012870  0.958790  0.207510  1.0  0.1755
  C  C1293  1  0.019300  0.927900  0.202400  1.0  -0.1381
  C  C1294  1  0.021930  0.895610  0.230550  1.0  -0.0329
  C  C1295  1  0.018720  0.894960  0.263360  1.0  -0.1685
  C  C1296  1  0.012110  0.927070  0.266150  1.0  0.1766
  C  C1297  1  0.020320  0.861320  0.295240  1.0  0.3981
  C  C1298  1  0.029130  0.801370  0.321330  1.0  0.3405
  C  C1299  1  0.013560  0.833920  0.354960  1.0  0.4342
  C  C1300  1  0.001970  0.804810  0.420990  1.0  0.1885
  C  C1301  1  0.003570  0.835830  0.390410  1.0  -0.2048
  C  C1302  1  0.995230  0.867770  0.394850  1.0  -0.0346
  C  C1303  1  0.986120  0.866980  0.429360  1.0  -0.1304
  C  C1304  1  0.986190  0.834610  0.457950  1.0  0.1596
  C  C1305  1  0.961450  0.704090  0.572510  1.0  0.1651
  C  C1306  1  0.956070  0.673630  0.601650  1.0  -0.1567
  C  C1307  1  0.984840  0.641360  0.604260  1.0  -0.0238
  C  C1308  1  0.018530  0.641150  0.576790  1.0  -0.1668
  C  C1309  1  0.021500  0.672840  0.547980  1.0  0.1865
  C  C1310  1  0.050200  0.607580  0.577700  1.0  0.4199
  C  C1311  1  0.836610  0.729110  0.459330  1.0  0.2875
  C  C1312  1  0.055270  0.702330  0.446930  1.0  0.2616
  C  C1313  1  0.815300  0.937860  0.539900  1.0  0.1739
  C  C1314  1  0.841690  0.905230  0.550030  1.0  -0.1226
  C  C1315  1  0.844750  0.874850  0.546910  1.0  -0.0376
  C  C1316  1  0.819470  0.878130  0.535530  1.0  -0.1569
  C  C1317  1  0.792760  0.911440  0.527700  1.0  0.1759
  C  C1318  1  0.707510  0.820830  0.512870  1.0  0.1757
  C  C1319  1  0.702400  0.850400  0.519300  1.0  -0.1429
  C  C1320  1  0.730550  0.851910  0.521930  1.0  -0.0337
  C  C1321  1  0.763360  0.822960  0.518720  1.0  -0.1656
  C  C1322  1  0.766150  0.794670  0.512110  1.0  0.1743
  C  C1323  1  0.795240  0.823120  0.520320  1.0  0.3976
  C  C1324  1  0.821330  0.848170  0.529130  1.0  0.3413
  C  C1325  1  0.854960  0.797560  0.513560  1.0  0.4331
  C  C1326  1  0.920990  0.772230  0.501970  1.0  0.1843
  C  C1327  1  0.890410  0.770190  0.503570  1.0  -0.2064
  C  C1328  1  0.894850  0.742150  0.495230  1.0  -0.0338
  C  C1329  1  0.929360  0.717540  0.486120  1.0  -0.1322
  C  C1330  1  0.957950  0.721250  0.486190  1.0  0.1565
  C  C1331  1  0.072510  0.761950  0.461450  1.0  0.1658
  C  C1332  1  0.101650  0.768650  0.456070  1.0  -0.1552
  C  C1333  1  0.104260  0.769540  0.484840  1.0  -0.0214
  C  C1334  1  0.076790  0.763530  0.518530  1.0  -0.1687
  C  C1335  1  0.047980  0.757680  0.521500  1.0  0.1858
  C  C1336  1  0.077700  0.764520  0.550200  1.0  0.4197
  C  C1337  1  0.229110  0.459330  0.336610  1.0  0.281
  C  C1338  1  0.202330  0.446930  0.555270  1.0  0.2694
  C  C1339  1  0.437860  0.539900  0.315300  1.0  0.1746
  C  C1340  1  0.405230  0.550030  0.341690  1.0  -0.1242
  C  C1341  1  0.374850  0.546910  0.344750  1.0  -0.037
  C  C1342  1  0.378130  0.535530  0.319470  1.0  -0.1561
  C  C1343  1  0.411440  0.527700  0.292760  1.0  0.175
  C  C1344  1  0.320830  0.512870  0.207510  1.0  0.1788
  C  C1345  1  0.350400  0.519300  0.202400  1.0  -0.1383
  C  C1346  1  0.351910  0.521930  0.230550  1.0  -0.0321
  C  C1347  1  0.322960  0.518720  0.263360  1.0  -0.1694
  C  C1348  1  0.294670  0.512110  0.266150  1.0  0.1748
  C  C1349  1  0.323120  0.520320  0.295240  1.0  0.3974
  C  C1350  1  0.348170  0.529130  0.321330  1.0  0.3414
  C  C1351  1  0.297560  0.513560  0.354960  1.0  0.4328
  C  C1352  1  0.272230  0.501970  0.420990  1.0  0.1856
  C  C1353  1  0.270190  0.503570  0.390410  1.0  -0.2035
  C  C1354  1  0.242150  0.495230  0.394850  1.0  -0.0347
  C  C1355  1  0.217540  0.486120  0.429360  1.0  -0.1285
  C  C1356  1  0.221250  0.486190  0.457950  1.0  0.1658
  C  C1357  1  0.261950  0.461450  0.572510  1.0  0.1645
  C  C1358  1  0.268650  0.456070  0.601650  1.0  -0.1602
  C  C1359  1  0.269540  0.484840  0.604260  1.0  -0.0222
  C  C1360  1  0.263530  0.518530  0.576790  1.0  -0.1638
  C  C1361  1  0.257680  0.521500  0.547980  1.0  0.1882
  C  C1362  1  0.264520  0.550200  0.577700  1.0  0.4198
  C  C1363  1  0.474950  0.336610  0.459330  1.0  0.2853
  C  C1364  1  0.295470  0.555270  0.446930  1.0  0.2678
  C  C1365  1  0.206940  0.315300  0.539900  1.0  0.1746
  C  C1366  1  0.203050  0.341690  0.550030  1.0  -0.1286
  C  C1367  1  0.233490  0.344750  0.546910  1.0  -0.038
  C  C1368  1  0.266870  0.319470  0.535530  1.0  -0.1536
  C  C1369  1  0.268100  0.292760  0.527700  1.0  0.174
  C  C1370  1  0.458790  0.207510  0.512870  1.0  0.1748
  C  C1371  1  0.427900  0.202400  0.519300  1.0  -0.1435
  C  C1372  1  0.395610  0.230550  0.521930  1.0  -0.0334
  C  C1373  1  0.394960  0.263360  0.518720  1.0  -0.1687
  C  C1374  1  0.427070  0.266150  0.512110  1.0  0.1731
  C  C1375  1  0.361320  0.295240  0.520320  1.0  0.3982
  C  C1376  1  0.301370  0.321330  0.529130  1.0  0.3403
  C  C1377  1  0.333920  0.354960  0.513560  1.0  0.4341
  C  C1378  1  0.304810  0.420990  0.501970  1.0  0.1862
  C  C1379  1  0.335830  0.390410  0.503570  1.0  -0.2075
  C  C1380  1  0.367770  0.394850  0.495230  1.0  -0.0357
  C  C1381  1  0.366980  0.429360  0.486120  1.0  -0.127
  C  C1382  1  0.334610  0.457950  0.486190  1.0  0.1582
  C  C1383  1  0.204090  0.572510  0.461450  1.0  0.165
  C  C1384  1  0.173630  0.601650  0.456070  1.0  -0.1583
  C  C1385  1  0.141360  0.604260  0.484840  1.0  -0.0224
  C  C1386  1  0.141150  0.576790  0.518530  1.0  -0.1681
  C  C1387  1  0.172840  0.547980  0.521500  1.0  0.185
  C  C1388  1  0.107580  0.577700  0.550200  1.0  0.4195
  C  C1389  1  0.836610  0.974950  0.729110  1.0  0.285
  C  C1390  1  0.055270  0.795470  0.702330  1.0  0.2703
  C  C1391  1  0.815300  0.706940  0.937860  1.0  0.1724
  C  C1392  1  0.841690  0.703050  0.905230  1.0  -0.1252
  C  C1393  1  0.844750  0.733490  0.874850  1.0  -0.0381
  C  C1394  1  0.819470  0.766870  0.878130  1.0  -0.1555
  C  C1395  1  0.792760  0.768100  0.911440  1.0  0.1737
  C  C1396  1  0.707510  0.958790  0.820830  1.0  0.1783
  C  C1397  1  0.702400  0.927900  0.850400  1.0  -0.1406
  C  C1398  1  0.730550  0.895610  0.851910  1.0  -0.032
  C  C1399  1  0.763360  0.894960  0.822960  1.0  -0.1701
  C  C1400  1  0.766150  0.927070  0.794670  1.0  0.175
  C  C1401  1  0.795240  0.861320  0.823120  1.0  0.3977
  C  C1402  1  0.821330  0.801370  0.848170  1.0  0.3402
  C  C1403  1  0.854960  0.833920  0.797560  1.0  0.4331
  C  C1404  1  0.920990  0.804810  0.772230  1.0  0.1847
  C  C1405  1  0.890410  0.835830  0.770190  1.0  -0.2069
  C  C1406  1  0.894850  0.867770  0.742150  1.0  -0.0361
  C  C1407  1  0.929360  0.866980  0.717540  1.0  -0.1291
  C  C1408  1  0.957950  0.834610  0.721250  1.0  0.1587
  C  C1409  1  0.072510  0.704090  0.761950  1.0  0.1647
  C  C1410  1  0.101650  0.673630  0.768650  1.0  -0.1553
  C  C1411  1  0.104260  0.641360  0.769540  1.0  -0.022
  C  C1412  1  0.076790  0.641150  0.763530  1.0  -0.1681
  C  C1413  1  0.047980  0.672840  0.757680  1.0  0.186
  C  C1414  1  0.077700  0.607580  0.764520  1.0  0.4203
  C  C1415  1  0.959330  0.729110  0.974950  1.0  0.2831
  C  C1416  1  0.946930  0.702330  0.795470  1.0  0.2674
  C  C1417  1  0.039900  0.937860  0.706940  1.0  0.1735
  C  C1418  1  0.050030  0.905230  0.703050  1.0  -0.1211
  C  C1419  1  0.046910  0.874850  0.733490  1.0  -0.0372
  C  C1420  1  0.035530  0.878130  0.766870  1.0  -0.157
  C  C1421  1  0.027700  0.911440  0.768100  1.0  0.1762
  C  C1422  1  0.012870  0.820830  0.958790  1.0  0.1749
  C  C1423  1  0.019300  0.850400  0.927900  1.0  -0.1424
  C  C1424  1  0.021930  0.851910  0.895610  1.0  -0.0316
  C  C1425  1  0.018720  0.822960  0.894960  1.0  -0.1686
  C  C1426  1  0.012110  0.794670  0.927070  1.0  0.1735
  C  C1427  1  0.020320  0.823120  0.861320  1.0  0.3979
  C  C1428  1  0.029130  0.848170  0.801370  1.0  0.3413
  C  C1429  1  0.013560  0.797560  0.833920  1.0  0.4332
  C  C1430  1  0.001970  0.772230  0.804810  1.0  0.1884
  C  C1431  1  0.003570  0.770190  0.835830  1.0  -0.2038
  C  C1432  1  0.995230  0.742150  0.867770  1.0  -0.0343
  C  C1433  1  0.986120  0.717540  0.866980  1.0  -0.1335
  C  C1434  1  0.986190  0.721250  0.834610  1.0  0.1618
  C  C1435  1  0.961450  0.761950  0.704090  1.0  0.1664
  C  C1436  1  0.956070  0.768650  0.673630  1.0  -0.1572
  C  C1437  1  0.984840  0.769540  0.641360  1.0  -0.0249
  C  C1438  1  0.018530  0.763530  0.641150  1.0  -0.1642
  C  C1439  1  0.021500  0.757680  0.672840  1.0  0.1848
  C  C1440  1  0.050200  0.764520  0.607580  1.0  0.4199
  C  C1441  1  0.459330  0.836610  0.474950  1.0  0.2835
  C  C1442  1  0.446930  0.055270  0.295470  1.0  0.263
  C  C1443  1  0.539900  0.815300  0.206940  1.0  0.1734
  C  C1444  1  0.550030  0.841690  0.203050  1.0  -0.1262
  C  C1445  1  0.546910  0.844750  0.233490  1.0  -0.0364
  C  C1446  1  0.535530  0.819470  0.266870  1.0  -0.1568
  C  C1447  1  0.527700  0.792760  0.268100  1.0  0.1729
  C  C1448  1  0.512870  0.707510  0.458790  1.0  0.1774
  C  C1449  1  0.519300  0.702400  0.427900  1.0  -0.1446
  C  C1450  1  0.521930  0.730550  0.395610  1.0  -0.0325
  C  C1451  1  0.518720  0.763360  0.394960  1.0  -0.1687
  C  C1452  1  0.512110  0.766150  0.427070  1.0  0.1746
  C  C1453  1  0.520320  0.795240  0.361320  1.0  0.398
  C  C1454  1  0.529130  0.821330  0.301370  1.0  0.34
  C  C1455  1  0.513560  0.854960  0.333920  1.0  0.4338
  C  C1456  1  0.501970  0.920990  0.304810  1.0  0.1872
  C  C1457  1  0.503570  0.890410  0.335830  1.0  -0.2073
  C  C1458  1  0.495230  0.894850  0.367770  1.0  -0.0371
  C  C1459  1  0.486120  0.929360  0.366980  1.0  -0.1336
  C  C1460  1  0.486190  0.957950  0.334610  1.0  0.1552
  C  C1461  1  0.461450  0.072510  0.204090  1.0  0.1655
  C  C1462  1  0.456070  0.101650  0.173630  1.0  -0.1576
  C  C1463  1  0.484840  0.104260  0.141360  1.0  -0.0242
  C  C1464  1  0.518530  0.076790  0.141150  1.0  -0.1677
  C  C1465  1  0.521500  0.047980  0.172840  1.0  0.186
  C  C1466  1  0.550200  0.077700  0.107580  1.0  0.4198
  C  C1467  1  0.336610  0.959330  0.229110  1.0  0.2841
  C  C1468  1  0.555270  0.946930  0.202330  1.0  0.2616
  C  C1469  1  0.315300  0.039900  0.437860  1.0  0.1769
  C  C1470  1  0.341690  0.050030  0.405230  1.0  -0.1245
  C  C1471  1  0.344750  0.046910  0.374850  1.0  -0.0345
  C  C1472  1  0.319470  0.035530  0.378130  1.0  -0.1564
  C  C1473  1  0.292760  0.027700  0.411440  1.0  0.1737
  C  C1474  1  0.207510  0.012870  0.320830  1.0  0.1799
  C  C1475  1  0.202400  0.019300  0.350400  1.0  -0.1408
  C  C1476  1  0.230550  0.021930  0.351910  1.0  -0.0325
  C  C1477  1  0.263360  0.018720  0.322960  1.0  -0.1655
  C  C1478  1  0.266150  0.012110  0.294670  1.0  0.1739
  C  C1479  1  0.295240  0.020320  0.323120  1.0  0.3974
  C  C1480  1  0.321330  0.029130  0.348170  1.0  0.3414
  C  C1481  1  0.354960  0.013560  0.297560  1.0  0.4329
  C  C1482  1  0.420990  0.001970  0.272230  1.0  0.187
  C  C1483  1  0.390410  0.003570  0.270190  1.0  -0.2064
  C  C1484  1  0.394850  0.995230  0.242150  1.0  -0.0354
  C  C1485  1  0.429360  0.986120  0.217540  1.0  -0.1278
  C  C1486  1  0.457950  0.986190  0.221250  1.0  0.1591
  C  C1487  1  0.572510  0.961450  0.261950  1.0  0.1674
  C  C1488  1  0.601650  0.956070  0.268650  1.0  -0.1574
  C  C1489  1  0.604260  0.984840  0.269540  1.0  -0.0238
  C  C1490  1  0.576790  0.018530  0.263530  1.0  -0.1683
  C  C1491  1  0.547980  0.021500  0.257680  1.0  0.1847
  C  C1492  1  0.577700  0.050200  0.264520  1.0  0.4198
  C  C1493  1  0.974950  0.229110  0.959330  1.0  0.2821
  C  C1494  1  0.795470  0.202330  0.946930  1.0  0.262
  C  C1495  1  0.706940  0.437860  0.039900  1.0  0.1744
  C  C1496  1  0.703050  0.405230  0.050030  1.0  -0.1236
  C  C1497  1  0.733490  0.374850  0.046910  1.0  -0.0371
  C  C1498  1  0.766870  0.378130  0.035530  1.0  -0.1575
  C  C1499  1  0.768100  0.411440  0.027700  1.0  0.1754
  C  C1500  1  0.958790  0.320830  0.012870  1.0  0.1734
  C  C1501  1  0.927900  0.350400  0.019300  1.0  -0.1442
  C  C1502  1  0.895610  0.351910  0.021930  1.0  -0.0323
  C  C1503  1  0.894960  0.322960  0.018720  1.0  -0.1685
  C  C1504  1  0.927070  0.294670  0.012110  1.0  0.1733
  C  C1505  1  0.861320  0.323120  0.020320  1.0  0.3976
  C  C1506  1  0.801370  0.348170  0.029130  1.0  0.3415
  C  C1507  1  0.833920  0.297560  0.013560  1.0  0.4329
  C  C1508  1  0.804810  0.272230  0.001970  1.0  0.1848
  C  C1509  1  0.835830  0.270190  0.003570  1.0  -0.2081
  C  C1510  1  0.867770  0.242150  0.995230  1.0  -0.0357
  C  C1511  1  0.866980  0.217540  0.986120  1.0  -0.13
  C  C1512  1  0.834610  0.221250  0.986190  1.0  0.1632
  C  C1513  1  0.704090  0.261950  0.961450  1.0  0.1646
  C  C1514  1  0.673630  0.268650  0.956070  1.0  -0.1518
  C  C1515  1  0.641360  0.269540  0.984840  1.0  -0.0259
  C  C1516  1  0.641150  0.263530  0.018530  1.0  -0.167
  C  C1517  1  0.672840  0.257680  0.021500  1.0  0.1869
  C  C1518  1  0.607580  0.264520  0.050200  1.0  0.4196
  C  C1519  1  0.729110  0.474950  0.836610  1.0  0.2781
  C  C1520  1  0.702330  0.295470  0.055270  1.0  0.2664
  C  C1521  1  0.937860  0.206940  0.815300  1.0  0.1732
  C  C1522  1  0.905230  0.203050  0.841690  1.0  -0.127
  C  C1523  1  0.874850  0.233490  0.844750  1.0  -0.037
  C  C1524  1  0.878130  0.266870  0.819470  1.0  -0.1553
  C  C1525  1  0.911440  0.268100  0.792760  1.0  0.1742
  C  C1526  1  0.820830  0.458790  0.707510  1.0  0.1747
  C  C1527  1  0.850400  0.427900  0.702400  1.0  -0.1399
  C  C1528  1  0.851910  0.395610  0.730550  1.0  -0.0314
  C  C1529  1  0.822960  0.394960  0.763360  1.0  -0.1682
  C  C1530  1  0.794670  0.427070  0.766150  1.0  0.1763
  C  C1531  1  0.823120  0.361320  0.795240  1.0  0.3976
  C  C1532  1  0.848170  0.301370  0.821330  1.0  0.3416
  C  C1533  1  0.797560  0.333920  0.854960  1.0  0.4328
  C  C1534  1  0.772230  0.304810  0.920990  1.0  0.1843
  C  C1535  1  0.770190  0.335830  0.890410  1.0  -0.207
  C  C1536  1  0.742150  0.367770  0.894850  1.0  -0.0362
  C  C1537  1  0.717540  0.366980  0.929360  1.0  -0.1308
  C  C1538  1  0.721250  0.334610  0.957950  1.0  0.1624
  C  C1539  1  0.761950  0.204090  0.072510  1.0  0.1655
  C  C1540  1  0.768650  0.173630  0.101650  1.0  -0.1534
  C  C1541  1  0.769540  0.141360  0.104260  1.0  -0.0242
  C  C1542  1  0.763530  0.141150  0.076790  1.0  -0.1671
  C  C1543  1  0.757680  0.172840  0.047980  1.0  0.1868
  C  C1544  1  0.764520  0.107580  0.077700  1.0  0.4198
  C  C1545  1  0.459330  0.474950  0.229110  1.0  0.28
  C  C1546  1  0.446930  0.295470  0.202330  1.0  0.2642
  C  C1547  1  0.539900  0.206940  0.437860  1.0  0.1755
  C  C1548  1  0.550030  0.203050  0.405230  1.0  -0.1263
  C  C1549  1  0.546910  0.233490  0.374850  1.0  -0.0393
  C  C1550  1  0.535530  0.266870  0.378130  1.0  -0.1556
  C  C1551  1  0.527700  0.268100  0.411440  1.0  0.1764
  C  C1552  1  0.512870  0.458790  0.320830  1.0  0.1754
  C  C1553  1  0.519300  0.427900  0.350400  1.0  -0.1387
  C  C1554  1  0.521930  0.395610  0.351910  1.0  -0.0321
  C  C1555  1  0.518720  0.394960  0.322960  1.0  -0.1686
  C  C1556  1  0.512110  0.427070  0.294670  1.0  0.1772
  C  C1557  1  0.520320  0.361320  0.323120  1.0  0.3978
  C  C1558  1  0.529130  0.301370  0.348170  1.0  0.3408
  C  C1559  1  0.513560  0.333920  0.297560  1.0  0.4331
  C  C1560  1  0.501970  0.304810  0.272230  1.0  0.1872
  C  C1561  1  0.503570  0.335830  0.270190  1.0  -0.2069
  C  C1562  1  0.495230  0.367770  0.242150  1.0  -0.0345
  C  C1563  1  0.486120  0.366980  0.217540  1.0  -0.1294
  C  C1564  1  0.486190  0.334610  0.221250  1.0  0.1607
  C  C1565  1  0.461450  0.204090  0.261950  1.0  0.1656
  C  C1566  1  0.456070  0.173630  0.268650  1.0  -0.1556
  C  C1567  1  0.484840  0.141360  0.269540  1.0  -0.0238
  C  C1568  1  0.518530  0.141150  0.263530  1.0  -0.1667
  C  C1569  1  0.521500  0.172840  0.257680  1.0  0.1865
  C  C1570  1  0.550200  0.107580  0.264520  1.0  0.42
  C  C1571  1  0.336610  0.229110  0.474950  1.0  0.2862
  C  C1572  1  0.555270  0.202330  0.295470  1.0  0.2627
  C  C1573  1  0.315300  0.437860  0.206940  1.0  0.1744
  C  C1574  1  0.341690  0.405230  0.203050  1.0  -0.1227
  C  C1575  1  0.344750  0.374850  0.233490  1.0  -0.0386
  C  C1576  1  0.319470  0.378130  0.266870  1.0  -0.157
  C  C1577  1  0.292760  0.411440  0.268100  1.0  0.1751
  C  C1578  1  0.207510  0.320830  0.458790  1.0  0.1761
  C  C1579  1  0.202400  0.350400  0.427900  1.0  -0.1429
  C  C1580  1  0.230550  0.351910  0.395610  1.0  -0.0328
  C  C1581  1  0.263360  0.322960  0.394960  1.0  -0.166
  C  C1582  1  0.266150  0.294670  0.427070  1.0  0.1741
  C  C1583  1  0.295240  0.323120  0.361320  1.0  0.3974
  C  C1584  1  0.321330  0.348170  0.301370  1.0  0.341
  C  C1585  1  0.354960  0.297560  0.333920  1.0  0.433
  C  C1586  1  0.420990  0.272230  0.304810  1.0  0.1845
  C  C1587  1  0.390410  0.270190  0.335830  1.0  -0.2062
  C  C1588  1  0.394850  0.242150  0.367770  1.0  -0.0347
  C  C1589  1  0.429360  0.217540  0.366980  1.0  -0.1334
  C  C1590  1  0.457950  0.221250  0.334610  1.0  0.1556
  C  C1591  1  0.572510  0.261950  0.204090  1.0  0.1649
  C  C1592  1  0.601650  0.268650  0.173630  1.0  -0.1551
  C  C1593  1  0.604260  0.269540  0.141360  1.0  -0.0217
  C  C1594  1  0.576790  0.263530  0.141150  1.0  -0.1669
  C  C1595  1  0.547980  0.257680  0.172840  1.0  0.1864
  C  C1596  1  0.577700  0.264520  0.107580  1.0  0.42
  C  C1597  1  0.974950  0.959330  0.836610  1.0  0.2788
  C  C1598  1  0.795470  0.946930  0.055270  1.0  0.263
  C  C1599  1  0.706940  0.039900  0.815300  1.0  0.1762
  C  C1600  1  0.703050  0.050030  0.841690  1.0  -0.1293
  C  C1601  1  0.733490  0.046910  0.844750  1.0  -0.0364
  C  C1602  1  0.766870  0.035530  0.819470  1.0  -0.1544
  C  C1603  1  0.768100  0.027700  0.792760  1.0  0.1753
  C  C1604  1  0.958790  0.012870  0.707510  1.0  0.1773
  C  C1605  1  0.927900  0.019300  0.702400  1.0  -0.1387
  C  C1606  1  0.895610  0.021930  0.730550  1.0  -0.0307
  C  C1607  1  0.894960  0.018720  0.763360  1.0  -0.169
  C  C1608  1  0.927070  0.012110  0.766150  1.0  0.1744
  C  C1609  1  0.861320  0.020320  0.795240  1.0  0.3977
  C  C1610  1  0.801370  0.029130  0.821330  1.0  0.3409
  C  C1611  1  0.833920  0.013560  0.854960  1.0  0.4338
  C  C1612  1  0.804810  0.001970  0.920990  1.0  0.1868
  C  C1613  1  0.835830  0.003570  0.890410  1.0  -0.2072
  C  C1614  1  0.867770  0.995230  0.894850  1.0  -0.0348
  C  C1615  1  0.866980  0.986120  0.929360  1.0  -0.1286
  C  C1616  1  0.834610  0.986190  0.957950  1.0  0.1616
  C  C1617  1  0.704090  0.961450  0.072510  1.0  0.1621
  C  C1618  1  0.673630  0.956070  0.101650  1.0  -0.1601
  C  C1619  1  0.641360  0.984840  0.104260  1.0  -0.0234
  C  C1620  1  0.641150  0.018530  0.076790  1.0  -0.168
  C  C1621  1  0.672840  0.021500  0.047980  1.0  0.1851
  C  C1622  1  0.607580  0.050200  0.077700  1.0  0.4203
  C  C1623  1  0.729110  0.836610  0.959330  1.0  0.2831
  C  C1624  1  0.702330  0.055270  0.946930  1.0  0.2629
  C  C1625  1  0.937860  0.815300  0.039900  1.0  0.1737
  C  C1626  1  0.905230  0.841690  0.050030  1.0  -0.1267
  C  C1627  1  0.874850  0.844750  0.046910  1.0  -0.0388
  C  C1628  1  0.878130  0.819470  0.035530  1.0  -0.1556
  C  C1629  1  0.911440  0.792760  0.027700  1.0  0.1741
  C  C1630  1  0.820830  0.707510  0.012870  1.0  0.1739
  C  C1631  1  0.850400  0.702400  0.019300  1.0  -0.1423
  C  C1632  1  0.851910  0.730550  0.021930  1.0  -0.0341
  C  C1633  1  0.822960  0.763360  0.018720  1.0  -0.1673
  C  C1634  1  0.794670  0.766150  0.012110  1.0  0.1733
  C  C1635  1  0.823120  0.795240  0.020320  1.0  0.3976
  C  C1636  1  0.848170  0.821330  0.029130  1.0  0.3409
  C  C1637  1  0.797560  0.854960  0.013560  1.0  0.4334
  C  C1638  1  0.772230  0.920990  0.001970  1.0  0.1877
  C  C1639  1  0.770190  0.890410  0.003570  1.0  -0.2059
  C  C1640  1  0.742150  0.894850  0.995230  1.0  -0.0359
  C  C1641  1  0.717540  0.929360  0.986120  1.0  -0.1306
  C  C1642  1  0.721250  0.957950  0.986190  1.0  0.1577
  C  C1643  1  0.761950  0.072510  0.961450  1.0  0.1635
  C  C1644  1  0.768650  0.101650  0.956070  1.0  -0.159
  C  C1645  1  0.769540  0.104260  0.984840  1.0  -0.0239
  C  C1646  1  0.763530  0.076790  0.018530  1.0  -0.1675
  C  C1647  1  0.757680  0.047980  0.021500  1.0  0.187
  C  C1648  1  0.764520  0.077700  0.050200  1.0  0.4195
  C  C1649  1  0.459330  0.229110  0.836610  1.0  0.2805
  C  C1650  1  0.446930  0.202330  0.055270  1.0  0.2679
  C  C1651  1  0.539900  0.437860  0.815300  1.0  0.173
  C  C1652  1  0.550030  0.405230  0.841690  1.0  -0.1224
  C  C1653  1  0.546910  0.374850  0.844750  1.0  -0.0364
  C  C1654  1  0.535530  0.378130  0.819470  1.0  -0.1569
  C  C1655  1  0.527700  0.411440  0.792760  1.0  0.1763
  C  C1656  1  0.512870  0.320830  0.707510  1.0  0.1746
  C  C1657  1  0.519300  0.350400  0.702400  1.0  -0.1418
  C  C1658  1  0.521930  0.351910  0.730550  1.0  -0.033
  C  C1659  1  0.518720  0.322960  0.763360  1.0  -0.1703
  C  C1660  1  0.512110  0.294670  0.766150  1.0  0.174
  C  C1661  1  0.520320  0.323120  0.795240  1.0  0.3978
  C  C1662  1  0.529130  0.348170  0.821330  1.0  0.3411
  C  C1663  1  0.513560  0.297560  0.854960  1.0  0.4331
  C  C1664  1  0.501970  0.272230  0.920990  1.0  0.1876
  C  C1665  1  0.503570  0.270190  0.890410  1.0  -0.2038
  C  C1666  1  0.495230  0.242150  0.894850  1.0  -0.0344
  C  C1667  1  0.486120  0.217540  0.929360  1.0  -0.1319
  C  C1668  1  0.486190  0.221250  0.957950  1.0  0.1634
  C  C1669  1  0.461450  0.261950  0.072510  1.0  0.1649
  C  C1670  1  0.456070  0.268650  0.101650  1.0  -0.1575
  C  C1671  1  0.484840  0.269540  0.104260  1.0  -0.024
  C  C1672  1  0.518530  0.263530  0.076790  1.0  -0.1638
  C  C1673  1  0.521500  0.257680  0.047980  1.0  0.1852
  C  C1674  1  0.550200  0.264520  0.077700  1.0  0.4194
  C  C1675  1  0.336610  0.474950  0.959330  1.0  0.2847
  C  C1676  1  0.555270  0.295470  0.946930  1.0  0.2701
  C  C1677  1  0.315300  0.206940  0.039900  1.0  0.1722
  C  C1678  1  0.341690  0.203050  0.050030  1.0  -0.1263
  C  C1679  1  0.344750  0.233490  0.046910  1.0  -0.0366
  C  C1680  1  0.319470  0.266870  0.035530  1.0  -0.1551
  C  C1681  1  0.292760  0.268100  0.027700  1.0  0.174
  C  C1682  1  0.207510  0.458790  0.012870  1.0  0.1779
  C  C1683  1  0.202400  0.427900  0.019300  1.0  -0.1394
  C  C1684  1  0.230550  0.395610  0.021930  1.0  -0.0322
  C  C1685  1  0.263360  0.394960  0.018720  1.0  -0.17
  C  C1686  1  0.266150  0.427070  0.012110  1.0  0.1748
  C  C1687  1  0.295240  0.361320  0.020320  1.0  0.3979
  C  C1688  1  0.321330  0.301370  0.029130  1.0  0.3402
  C  C1689  1  0.354960  0.333920  0.013560  1.0  0.433
  C  C1690  1  0.420990  0.304810  0.001970  1.0  0.1861
  C  C1691  1  0.390410  0.335830  0.003570  1.0  -0.2072
  C  C1692  1  0.394850  0.367770  0.995230  1.0  -0.036
  C  C1693  1  0.429360  0.366980  0.986120  1.0  -0.1294
  C  C1694  1  0.457950  0.334610  0.986190  1.0  0.159
  C  C1695  1  0.572510  0.204090  0.961450  1.0  0.1641
  C  C1696  1  0.601650  0.173630  0.956070  1.0  -0.1543
  C  C1697  1  0.604260  0.141360  0.984840  1.0  -0.0218
  C  C1698  1  0.576790  0.141150  0.018530  1.0  -0.1682
  C  C1699  1  0.547980  0.172840  0.021500  1.0  0.1857
  C  C1700  1  0.577700  0.107580  0.050200  1.0  0.4202
  C  C1701  1  0.974950  0.836610  0.229110  1.0  0.2823
  C  C1702  1  0.795470  0.055270  0.202330  1.0  0.2681
  C  C1703  1  0.706940  0.815300  0.437860  1.0  0.1747
  C  C1704  1  0.703050  0.841690  0.405230  1.0  -0.127
  C  C1705  1  0.733490  0.844750  0.374850  1.0  -0.0391
  C  C1706  1  0.766870  0.819470  0.378130  1.0  -0.1544
  C  C1707  1  0.768100  0.792760  0.411440  1.0  0.1742
  C  C1708  1  0.958790  0.707510  0.320830  1.0  0.1748
  C  C1709  1  0.927900  0.702400  0.350400  1.0  -0.1446
  C  C1710  1  0.895610  0.730550  0.351910  1.0  -0.0332
  C  C1711  1  0.894960  0.763360  0.322960  1.0  -0.1689
  C  C1712  1  0.927070  0.766150  0.294670  1.0  0.1737
  C  C1713  1  0.861320  0.795240  0.323120  1.0  0.3979
  C  C1714  1  0.801370  0.821330  0.348170  1.0  0.3405
  C  C1715  1  0.833920  0.854960  0.297560  1.0  0.4343
  C  C1716  1  0.804810  0.920990  0.272230  1.0  0.185
  C  C1717  1  0.835830  0.890410  0.270190  1.0  -0.2075
  C  C1718  1  0.867770  0.894850  0.242150  1.0  -0.0357
  C  C1719  1  0.866980  0.929360  0.217540  1.0  -0.1267
  C  C1720  1  0.834610  0.957950  0.221250  1.0  0.1583
  C  C1721  1  0.704090  0.072510  0.261950  1.0  0.1645
  C  C1722  1  0.673630  0.101650  0.268650  1.0  -0.1575
  C  C1723  1  0.641360  0.104260  0.269540  1.0  -0.0225
  C  C1724  1  0.641150  0.076790  0.263530  1.0  -0.1681
  C  C1725  1  0.672840  0.047980  0.257680  1.0  0.1857
  C  C1726  1  0.607580  0.077700  0.264520  1.0  0.4196
  C  C1727  1  0.729110  0.959330  0.474950  1.0  0.2807
  C  C1728  1  0.702330  0.946930  0.295470  1.0  0.269
  C  C1729  1  0.937860  0.039900  0.206940  1.0  0.1739
  C  C1730  1  0.905230  0.050030  0.203050  1.0  -0.1217
  C  C1731  1  0.874850  0.046910  0.233490  1.0  -0.0375
  C  C1732  1  0.878130  0.035530  0.266870  1.0  -0.1562
  C  C1733  1  0.911440  0.027700  0.268100  1.0  0.1752
  C  C1734  1  0.820830  0.012870  0.458790  1.0  0.1787
  C  C1735  1  0.850400  0.019300  0.427900  1.0  -0.1392
  C  C1736  1  0.851910  0.021930  0.395610  1.0  -0.031
  C  C1737  1  0.822960  0.018720  0.394960  1.0  -0.1683
  C  C1738  1  0.794670  0.012110  0.427070  1.0  0.1748
  C  C1739  1  0.823120  0.020320  0.361320  1.0  0.3974
  C  C1740  1  0.848170  0.029130  0.301370  1.0  0.3415
  C  C1741  1  0.797560  0.013560  0.333920  1.0  0.4328
  C  C1742  1  0.772230  0.001970  0.304810  1.0  0.1859
  C  C1743  1  0.770190  0.003570  0.335830  1.0  -0.2031
  C  C1744  1  0.742150  0.995230  0.367770  1.0  -0.0348
  C  C1745  1  0.717540  0.986120  0.366980  1.0  -0.1303
  C  C1746  1  0.721250  0.986190  0.334610  1.0  0.1645
  C  C1747  1  0.761950  0.961450  0.204090  1.0  0.1658
  C  C1748  1  0.768650  0.956070  0.173630  1.0  -0.1594
  C  C1749  1  0.769540  0.984840  0.141360  1.0  -0.0236
  C  C1750  1  0.763530  0.018530  0.141150  1.0  -0.1644
  C  C1751  1  0.757680  0.021500  0.172840  1.0  0.1872
  C  C1752  1  0.764520  0.050200  0.107580  1.0  0.4202
  C  C1753  1  0.163390  0.540670  0.025050  1.0  0.2835
  C  C1754  1  0.944730  0.553070  0.204530  1.0  0.263
  C  C1755  1  0.184700  0.460100  0.293060  1.0  0.1773
  C  C1756  1  0.158310  0.449970  0.296950  1.0  -0.1265
  C  C1757  1  0.155250  0.453090  0.266510  1.0  -0.0356
  C  C1758  1  0.180530  0.464470  0.233130  1.0  -0.1563
  C  C1759  1  0.207240  0.472300  0.231900  1.0  0.1735
  C  C1760  1  0.292490  0.487130  0.041210  1.0  0.1802
  C  C1761  1  0.297600  0.480700  0.072100  1.0  -0.138
  C  C1762  1  0.269450  0.478070  0.104390  1.0  -0.0322
  C  C1763  1  0.236640  0.481280  0.105040  1.0  -0.1655
  C  C1764  1  0.233850  0.487890  0.072930  1.0  0.1741
  C  C1765  1  0.204760  0.479680  0.138680  1.0  0.3975
  C  C1766  1  0.178670  0.470870  0.198630  1.0  0.341
  C  C1767  1  0.145040  0.486440  0.166080  1.0  0.4331
  C  C1768  1  0.079010  0.498030  0.195190  1.0  0.1872
  C  C1769  1  0.109590  0.496430  0.164170  1.0  -0.2062
  C  C1770  1  0.105150  0.504770  0.132230  1.0  -0.0361
  C  C1771  1  0.070640  0.513880  0.133020  1.0  -0.1268
  C  C1772  1  0.042050  0.513810  0.165390  1.0  0.1594
  C  C1773  1  0.927490  0.538550  0.295910  1.0  0.1658
  C  C1774  1  0.898350  0.543930  0.326370  1.0  -0.1551
  C  C1775  1  0.895740  0.515160  0.358640  1.0  -0.0241
  C  C1776  1  0.923210  0.481470  0.358850  1.0  -0.1684
  C  C1777  1  0.952020  0.478500  0.327160  1.0  0.1864
  C  C1778  1  0.922300  0.449800  0.392420  1.0  0.4201
  C  C1779  1  0.040670  0.663390  0.270890  1.0  0.2843
  C  C1780  1  0.053070  0.444730  0.297670  1.0  0.2609
  C  C1781  1  0.960100  0.684700  0.062140  1.0  0.1737
  C  C1782  1  0.949970  0.658310  0.094770  1.0  -0.1276
  C  C1783  1  0.953090  0.655250  0.125150  1.0  -0.0363
  C  C1784  1  0.964470  0.680530  0.121870  1.0  -0.1564
  C  C1785  1  0.972300  0.707240  0.088560  1.0  0.1728
  C  C1786  1  0.987130  0.792490  0.179170  1.0  0.1774
  C  C1787  1  0.980700  0.797600  0.149600  1.0  -0.1416
  C  C1788  1  0.978070  0.769450  0.148090  1.0  -0.0309
  C  C1789  1  0.981280  0.736640  0.177040  1.0  -0.1697
  C  C1790  1  0.987890  0.733850  0.205330  1.0  0.1742
  C  C1791  1  0.979680  0.704760  0.176880  1.0  0.3976
  C  C1792  1  0.970870  0.678670  0.151830  1.0  0.34
  C  C1793  1  0.986440  0.645040  0.202440  1.0  0.4337
  C  C1794  1  0.998030  0.579010  0.227770  1.0  0.1863
  C  C1795  1  0.996430  0.609590  0.229810  1.0  -0.2066
  C  C1796  1  0.004770  0.605150  0.257850  1.0  -0.036
  C  C1797  1  0.013880  0.570640  0.282460  1.0  -0.1309
  C  C1798  1  0.013810  0.542050  0.278750  1.0  0.1564
  C  C1799  1  0.038550  0.427490  0.238050  1.0  0.1652
  C  C1800  1  0.043930  0.398350  0.231350  1.0  -0.158
  C  C1801  1  0.015160  0.395740  0.230460  1.0  -0.025
  C  C1802  1  0.981470  0.423210  0.236470  1.0  -0.1671
  C  C1803  1  0.978500  0.452020  0.242320  1.0  0.1864
  C  C1804  1  0.949800  0.422300  0.235480  1.0  0.4193
  C  C1805  1  0.770890  0.025050  0.540670  1.0  0.2764
  C  C1806  1  0.797670  0.204530  0.553070  1.0  0.2659
  C  C1807  1  0.562140  0.293060  0.460100  1.0  0.1728
  C  C1808  1  0.594770  0.296950  0.449970  1.0  -0.1248
  C  C1809  1  0.625150  0.266510  0.453090  1.0  -0.0349
  C  C1810  1  0.621870  0.233130  0.464470  1.0  -0.1555
  C  C1811  1  0.588560  0.231900  0.472300  1.0  0.175
  C  C1812  1  0.679170  0.041210  0.487130  1.0  0.1753
  C  C1813  1  0.649600  0.072100  0.480700  1.0  -0.1423
  C  C1814  1  0.648090  0.104390  0.478070  1.0  -0.0312
  C  C1815  1  0.677040  0.105040  0.481280  1.0  -0.1668
  C  C1816  1  0.705330  0.072930  0.487890  1.0  0.1753
  C  C1817  1  0.676880  0.138680  0.479680  1.0  0.3974
  C  C1818  1  0.651830  0.198630  0.470870  1.0  0.341
  C  C1819  1  0.702440  0.166080  0.486440  1.0  0.4328
  C  C1820  1  0.727770  0.195190  0.498030  1.0  0.1863
  C  C1821  1  0.729810  0.164170  0.496430  1.0  -0.2073
  C  C1822  1  0.757850  0.132230  0.504770  1.0  -0.0357
  C  C1823  1  0.782460  0.133020  0.513880  1.0  -0.129
  C  C1824  1  0.778750  0.165390  0.513810  1.0  0.1609
  C  C1825  1  0.738050  0.295910  0.538550  1.0  0.1645
  C  C1826  1  0.731350  0.326370  0.543930  1.0  -0.1544
  C  C1827  1  0.730460  0.358640  0.515160  1.0  -0.0231
  C  C1828  1  0.736470  0.358850  0.481470  1.0  -0.1683
  C  C1829  1  0.742320  0.327160  0.478500  1.0  0.1861
  C  C1830  1  0.735480  0.392420  0.449800  1.0  0.4199
  C  C1831  1  0.525050  0.270890  0.663390  1.0  0.2825
  C  C1832  1  0.704530  0.297670  0.444730  1.0  0.2616
  C  C1833  1  0.793060  0.062140  0.684700  1.0  0.1749
  C  C1834  1  0.796950  0.094770  0.658310  1.0  -0.1203
  C  C1835  1  0.766510  0.125150  0.655250  1.0  -0.0366
  C  C1836  1  0.733130  0.121870  0.680530  1.0  -0.1576
  C  C1837  1  0.731900  0.088560  0.707240  1.0  0.1753
  C  C1838  1  0.541210  0.179170  0.792490  1.0  0.1738
  C  C1839  1  0.572100  0.149600  0.797600  1.0  -0.1467
  C  C1840  1  0.604390  0.148090  0.769450  1.0  -0.0319
  C  C1841  1  0.605040  0.177040  0.736640  1.0  -0.1683
  C  C1842  1  0.572930  0.205330  0.733850  1.0  0.1738
  C  C1843  1  0.638680  0.176880  0.704760  1.0  0.3975
  C  C1844  1  0.698630  0.151830  0.678670  1.0  0.3414
  C  C1845  1  0.666080  0.202440  0.645040  1.0  0.4335
  C  C1846  1  0.695190  0.227770  0.579010  1.0  0.1851
  C  C1847  1  0.664170  0.229810  0.609590  1.0  -0.207
  C  C1848  1  0.632230  0.257850  0.605150  1.0  -0.0347
  C  C1849  1  0.633020  0.282460  0.570640  1.0  -0.1333
  C  C1850  1  0.665390  0.278750  0.542050  1.0  0.1617
  C  C1851  1  0.795910  0.238050  0.427490  1.0  0.1638
  C  C1852  1  0.826370  0.231350  0.398350  1.0  -0.152
  C  C1853  1  0.858640  0.230460  0.395740  1.0  -0.0269
  C  C1854  1  0.858850  0.236470  0.423210  1.0  -0.1671
  C  C1855  1  0.827160  0.242320  0.452020  1.0  0.1861
  C  C1856  1  0.892420  0.235480  0.422300  1.0  0.4197
  C  C1857  1  0.525050  0.540670  0.270890  1.0  0.2776
  C  C1858  1  0.704530  0.553070  0.297670  1.0  0.2645
  C  C1859  1  0.793060  0.460100  0.062140  1.0  0.1765
  C  C1860  1  0.796950  0.449970  0.094770  1.0  -0.1248
  C  C1861  1  0.766510  0.453090  0.125150  1.0  -0.0363
  C  C1862  1  0.733130  0.464470  0.121870  1.0  -0.1546
  C  C1863  1  0.731900  0.472300  0.088560  1.0  0.1749
  C  C1864  1  0.541210  0.487130  0.179170  1.0  0.1767
  C  C1865  1  0.572100  0.480700  0.149600  1.0  -0.1373
  C  C1866  1  0.604390  0.478070  0.148090  1.0  -0.0315
  C  C1867  1  0.605040  0.481280  0.177040  1.0  -0.1687
  C  C1868  1  0.572930  0.487890  0.205330  1.0  0.1748
  C  C1869  1  0.638680  0.479680  0.176880  1.0  0.3975
  C  C1870  1  0.698630  0.470870  0.151830  1.0  0.3407
  C  C1871  1  0.666080  0.486440  0.202440  1.0  0.4337
  C  C1872  1  0.695190  0.498030  0.227770  1.0  0.1869
  C  C1873  1  0.664170  0.496430  0.229810  1.0  -0.2076
  C  C1874  1  0.632230  0.504770  0.257850  1.0  -0.0343
  C  C1875  1  0.633020  0.513880  0.282460  1.0  -0.1327
  C  C1876  1  0.665390  0.513810  0.278750  1.0  0.1622
  C  C1877  1  0.795910  0.538550  0.238050  1.0  0.1618
  C  C1878  1  0.826370  0.543930  0.231350  1.0  -0.1568
  C  C1879  1  0.858640  0.515160  0.230460  1.0  -0.0238
  C  C1880  1  0.858850  0.481470  0.236470  1.0  -0.1678
  C  C1881  1  0.827160  0.478500  0.242320  1.0  0.1851
  C  C1882  1  0.892420  0.449800  0.235480  1.0  0.4207
  C  C1883  1  0.770890  0.663390  0.025050  1.0  0.2844
  C  C1884  1  0.797670  0.444730  0.204530  1.0  0.262
  C  C1885  1  0.562140  0.684700  0.293060  1.0  0.1735
  C  C1886  1  0.594770  0.658310  0.296950  1.0  -0.1272
  C  C1887  1  0.625150  0.655250  0.266510  1.0  -0.0388
  C  C1888  1  0.621870  0.680530  0.233130  1.0  -0.1554
  C  C1889  1  0.588560  0.707240  0.231900  1.0  0.1758
  C  C1890  1  0.679170  0.792490  0.041210  1.0  0.1744
  C  C1891  1  0.649600  0.797600  0.072100  1.0  -0.1422
  C  C1892  1  0.648090  0.769450  0.104390  1.0  -0.0333
  C  C1893  1  0.677040  0.736640  0.105040  1.0  -0.1664
  C  C1894  1  0.705330  0.733850  0.072930  1.0  0.1726
  C  C1895  1  0.676880  0.704760  0.138680  1.0  0.3976
  C  C1896  1  0.651830  0.678670  0.198630  1.0  0.3407
  C  C1897  1  0.702440  0.645040  0.166080  1.0  0.4338
  C  C1898  1  0.727770  0.579010  0.195190  1.0  0.1873
  C  C1899  1  0.729810  0.609590  0.164170  1.0  -0.2048
  C  C1900  1  0.757850  0.605150  0.132230  1.0  -0.0351
  C  C1901  1  0.782460  0.570640  0.133020  1.0  -0.1287
  C  C1902  1  0.778750  0.542050  0.165390  1.0  0.1582
  C  C1903  1  0.738050  0.427490  0.295910  1.0  0.162
  C  C1904  1  0.731350  0.398350  0.326370  1.0  -0.1598
  C  C1905  1  0.730460  0.395740  0.358640  1.0  -0.0227
  C  C1906  1  0.736470  0.423210  0.358850  1.0  -0.1665
  C  C1907  1  0.742320  0.452020  0.327160  1.0  0.1876
  C  C1908  1  0.735480  0.422300  0.392420  1.0  0.4192
  C  C1909  1  0.040670  0.025050  0.663390  1.0  0.2783
  C  C1910  1  0.053070  0.204530  0.444730  1.0  0.2634
  C  C1911  1  0.960100  0.293060  0.684700  1.0  0.1762
  C  C1912  1  0.949970  0.296950  0.658310  1.0  -0.1258
  C  C1913  1  0.953090  0.266510  0.655250  1.0  -0.0388
  C  C1914  1  0.964470  0.233130  0.680530  1.0  -0.1563
  C  C1915  1  0.972300  0.231900  0.707240  1.0  0.1766
  C  C1916  1  0.987130  0.041210  0.792490  1.0  0.1745
  C  C1917  1  0.980700  0.072100  0.797600  1.0  -0.1399
  C  C1918  1  0.978070  0.104390  0.769450  1.0  -0.0309
  C  C1919  1  0.981280  0.105040  0.736640  1.0  -0.1668
  C  C1920  1  0.987890  0.072930  0.733850  1.0  0.1768
  C  C1921  1  0.979680  0.138680  0.704760  1.0  0.3973
  C  C1922  1  0.970870  0.198630  0.678670  1.0  0.3408
  C  C1923  1  0.986440  0.166080  0.645040  1.0  0.4325
  C  C1924  1  0.998030  0.195190  0.579010  1.0  0.1871
  C  C1925  1  0.996430  0.164170  0.609590  1.0  -0.2072
  C  C1926  1  0.004770  0.132230  0.605150  1.0  -0.0344
  C  C1927  1  0.013880  0.133020  0.570640  1.0  -0.1297
  C  C1928  1  0.013810  0.165390  0.542050  1.0  0.1599
  C  C1929  1  0.038550  0.295910  0.427490  1.0  0.1651
  C  C1930  1  0.043930  0.326370  0.398350  1.0  -0.1535
  C  C1931  1  0.015160  0.358640  0.395740  1.0  -0.0224
  C  C1932  1  0.981470  0.358850  0.423210  1.0  -0.1674
  C  C1933  1  0.978500  0.327160  0.452020  1.0  0.1879
  C  C1934  1  0.949800  0.392420  0.422300  1.0  0.4198
  C  C1935  1  0.163390  0.270890  0.540670  1.0  0.2864
  C  C1936  1  0.944730  0.297670  0.553070  1.0  0.2635
  C  C1937  1  0.184700  0.062140  0.460100  1.0  0.1744
  C  C1938  1  0.158310  0.094770  0.449970  1.0  -0.1247
  C  C1939  1  0.155250  0.125150  0.453090  1.0  -0.0381
  C  C1940  1  0.180530  0.121870  0.464470  1.0  -0.1568
  C  C1941  1  0.207240  0.088560  0.472300  1.0  0.1747
  C  C1942  1  0.292490  0.179170  0.487130  1.0  0.1757
  C  C1943  1  0.297600  0.149600  0.480700  1.0  -0.1403
  C  C1944  1  0.269450  0.148090  0.478070  1.0  -0.0339
  C  C1945  1  0.236640  0.177040  0.481280  1.0  -0.166
  C  C1946  1  0.233850  0.205330  0.487890  1.0  0.1738
  C  C1947  1  0.204760  0.176880  0.479680  1.0  0.3972
  C  C1948  1  0.178670  0.151830  0.470870  1.0  0.341
  C  C1949  1  0.145040  0.202440  0.486440  1.0  0.4332
  C  C1950  1  0.079010  0.227770  0.498030  1.0  0.184
  C  C1951  1  0.109590  0.229810  0.496430  1.0  -0.2063
  C  C1952  1  0.105150  0.257850  0.504770  1.0  -0.0347
  C  C1953  1  0.070640  0.282460  0.513880  1.0  -0.1324
  C  C1954  1  0.042050  0.278750  0.513810  1.0  0.1561
  C  C1955  1  0.927490  0.238050  0.538550  1.0  0.1651
  C  C1956  1  0.898350  0.231350  0.543930  1.0  -0.1589
  C  C1957  1  0.895740  0.230460  0.515160  1.0  -0.0233
  C  C1958  1  0.923210  0.236470  0.481470  1.0  -0.1676
  C  C1959  1  0.952020  0.242320  0.478500  1.0  0.1871
  C  C1960  1  0.922300  0.235480  0.449800  1.0  0.4198
  C  C1961  1  0.770890  0.540670  0.663390  1.0  0.2793
  C  C1962  1  0.797670  0.553070  0.444730  1.0  0.2683
  C  C1963  1  0.562140  0.460100  0.684700  1.0  0.1734
  C  C1964  1  0.594770  0.449970  0.658310  1.0  -0.1216
  C  C1965  1  0.625150  0.453090  0.655250  1.0  -0.0366
  C  C1966  1  0.621870  0.464470  0.680530  1.0  -0.1563
  C  C1967  1  0.588560  0.472300  0.707240  1.0  0.1759
  C  C1968  1  0.679170  0.487130  0.792490  1.0  0.1791
  C  C1969  1  0.649600  0.480700  0.797600  1.0  -0.1418
  C  C1970  1  0.648090  0.478070  0.769450  1.0  -0.0304
  C  C1971  1  0.677040  0.481280  0.736640  1.0  -0.1697
  C  C1972  1  0.705330  0.487890  0.733850  1.0  0.1735
  C  C1973  1  0.676880  0.479680  0.704760  1.0  0.3973
  C  C1974  1  0.651830  0.470870  0.678670  1.0  0.3414
  C  C1975  1  0.702440  0.486440  0.645040  1.0  0.4328
  C  C1976  1  0.727770  0.498030  0.579010  1.0  0.1867
  C  C1977  1  0.729810  0.496430  0.609590  1.0  -0.2031
  C  C1978  1  0.757850  0.504770  0.605150  1.0  -0.0349
  C  C1979  1  0.782460  0.513880  0.570640  1.0  -0.1267
  C  C1980  1  0.778750  0.513810  0.542050  1.0  0.1645
  C  C1981  1  0.738050  0.538550  0.427490  1.0  0.1651
  C  C1982  1  0.731350  0.543930  0.398350  1.0  -0.1591
  C  C1983  1  0.730460  0.515160  0.395740  1.0  -0.024
  C  C1984  1  0.736470  0.481470  0.423210  1.0  -0.1649
  C  C1985  1  0.742320  0.478500  0.452020  1.0  0.1889
  C  C1986  1  0.735480  0.449800  0.422300  1.0  0.4203
  C  C1987  1  0.525050  0.663390  0.540670  1.0  0.2837
  C  C1988  1  0.704530  0.444730  0.553070  1.0  0.2685
  C  C1989  1  0.793060  0.684700  0.460100  1.0  0.174
  C  C1990  1  0.796950  0.658310  0.449970  1.0  -0.1239
  C  C1991  1  0.766510  0.655250  0.453090  1.0  -0.0395
  C  C1992  1  0.733130  0.680530  0.464470  1.0  -0.1547
  C  C1993  1  0.731900  0.707240  0.472300  1.0  0.1744
  C  C1994  1  0.541210  0.792490  0.487130  1.0  0.1748
  C  C1995  1  0.572100  0.797600  0.480700  1.0  -0.1414
  C  C1996  1  0.604390  0.769450  0.478070  1.0  -0.0331
  C  C1997  1  0.605040  0.736640  0.481280  1.0  -0.1682
  C  C1998  1  0.572930  0.733850  0.487890  1.0  0.1747
  C  C1999  1  0.638680  0.704760  0.479680  1.0  0.3981
  C  C2000  1  0.698630  0.678670  0.470870  1.0  0.3405
  C  C2001  1  0.666080  0.645040  0.486440  1.0  0.4337
  C  C2002  1  0.695190  0.579010  0.498030  1.0  0.1835
  C  C2003  1  0.664170  0.609590  0.496430  1.0  -0.2063
  C  C2004  1  0.632230  0.605150  0.504770  1.0  -0.036
  C  C2005  1  0.633020  0.570640  0.513880  1.0  -0.128
  C  C2006  1  0.665390  0.542050  0.513810  1.0  0.1577
  C  C2007  1  0.795910  0.427490  0.538550  1.0  0.1639
  C  C2008  1  0.826370  0.398350  0.543930  1.0  -0.1617
  C  C2009  1  0.858640  0.395740  0.515160  1.0  -0.0218
  C  C2010  1  0.858850  0.423210  0.481470  1.0  -0.1684
  C  C2011  1  0.827160  0.452020  0.478500  1.0  0.1858
  C  C2012  1  0.892420  0.422300  0.449800  1.0  0.4197
  C  C2013  1  0.163390  0.025050  0.270890  1.0  0.2828
  C  C2014  1  0.944730  0.204530  0.297670  1.0  0.2696
  C  C2015  1  0.184700  0.293060  0.062140  1.0  0.1724
  C  C2016  1  0.158310  0.296950  0.094770  1.0  -0.1277
  C  C2017  1  0.155250  0.266510  0.125150  1.0  -0.0373
  C  C2018  1  0.180530  0.233130  0.121870  1.0  -0.155
  C  C2019  1  0.207240  0.231900  0.088560  1.0  0.1729
  C  C2020  1  0.292490  0.041210  0.179170  1.0  0.1771
  C  C2021  1  0.297600  0.072100  0.149600  1.0  -0.1377
  C  C2022  1  0.269450  0.104390  0.148090  1.0  -0.0319
  C  C2023  1  0.236640  0.105040  0.177040  1.0  -0.1681
  C  C2024  1  0.233850  0.072930  0.205330  1.0  0.1755
  C  C2025  1  0.204760  0.138680  0.176880  1.0  0.3976
  C  C2026  1  0.178670  0.198630  0.151830  1.0  0.3401
  C  C2027  1  0.145040  0.166080  0.202440  1.0  0.4327
  C  C2028  1  0.079010  0.195190  0.227770  1.0  0.1859
  C  C2029  1  0.109590  0.164170  0.229810  1.0  -0.2074
  C  C2030  1  0.105150  0.132230  0.257850  1.0  -0.0353
  C  C2031  1  0.070640  0.133020  0.282460  1.0  -0.1307
  C  C2032  1  0.042050  0.165390  0.278750  1.0  0.1584
  C  C2033  1  0.927490  0.295910  0.238050  1.0  0.1647
  C  C2034  1  0.898350  0.326370  0.231350  1.0  -0.1568
  C  C2035  1  0.895740  0.358640  0.230460  1.0  -0.021
  C  C2036  1  0.923210  0.358850  0.236470  1.0  -0.1674
  C  C2037  1  0.952020  0.327160  0.242320  1.0  0.1864
  C  C2038  1  0.922300  0.392420  0.235480  1.0  0.42
  C  C2039  1  0.040670  0.270890  0.025050  1.0  0.2812
  C  C2040  1  0.053070  0.297670  0.204530  1.0  0.2673
  C  C2041  1  0.960100  0.062140  0.293060  1.0  0.1732
  C  C2042  1  0.949970  0.094770  0.296950  1.0  -0.124
  C  C2043  1  0.953090  0.125150  0.266510  1.0  -0.0358
  C  C2044  1  0.964470  0.121870  0.233130  1.0  -0.1566
  C  C2045  1  0.972300  0.088560  0.231900  1.0  0.1769
  C  C2046  1  0.987130  0.179170  0.041210  1.0  0.1745
  C  C2047  1  0.980700  0.149600  0.072100  1.0  -0.1441
  C  C2048  1  0.978070  0.148090  0.104390  1.0  -0.0326
  C  C2049  1  0.981280  0.177040  0.105040  1.0  -0.1696
  C  C2050  1  0.987890  0.205330  0.072930  1.0  0.1737
  C  C2051  1  0.979680  0.176880  0.138680  1.0  0.3972
  C  C2052  1  0.970870  0.151830  0.198630  1.0  0.3413
  C  C2053  1  0.986440  0.202440  0.166080  1.0  0.4336
  C  C2054  1  0.998030  0.227770  0.195190  1.0  0.1883
  C  C2055  1  0.996430  0.229810  0.164170  1.0  -0.2044
  C  C2056  1  0.004770  0.257850  0.132230  1.0  -0.0356
  C  C2057  1  0.013880  0.282460  0.133020  1.0  -0.1312
  C  C2058  1  0.013810  0.278750  0.165390  1.0  0.1608
  C  C2059  1  0.038550  0.238050  0.295910  1.0  0.1666
  C  C2060  1  0.043930  0.231350  0.326370  1.0  -0.1556
  C  C2061  1  0.015160  0.230460  0.358640  1.0  -0.0237
  C  C2062  1  0.981470  0.236470  0.358850  1.0  -0.1638
  C  C2063  1  0.978500  0.242320  0.327160  1.0  0.1868
  C  C2064  1  0.949800  0.235480  0.392420  1.0  0.4191
  S  S2065  1  0.552750  0.119950  0.534930  1.0  -0.3284
  S  S2066  1  0.577430  0.914270  0.684450  1.0  -0.2256
  S  S2067  1  0.619950  0.052750  0.792370  1.0  -0.3267
  S  S2068  1  0.414270  0.077430  0.823850  1.0  -0.2256
  S  S2069  1  0.034930  0.792370  0.052750  1.0  -0.3285
  S  S2070  1  0.184450  0.823850  0.077430  1.0  -0.2275
  S  S2071  1  0.292370  0.534930  0.119950  1.0  -0.3262
  S  S2072  1  0.323850  0.684450  0.914270  1.0  -0.2257
  S  S2073  1  0.552750  0.534930  0.792370  1.0  -0.3276
  S  S2074  1  0.577430  0.684450  0.823850  1.0  -0.2278
  S  S2075  1  0.619950  0.792370  0.534930  1.0  -0.3272
  S  S2076  1  0.414270  0.823850  0.684450  1.0  -0.2246
  S  S2077  1  0.034930  0.052750  0.119950  1.0  -0.3266
  S  S2078  1  0.184450  0.077430  0.914270  1.0  -0.2265
  S  S2079  1  0.292370  0.119950  0.052750  1.0  -0.3283
  S  S2080  1  0.323850  0.914270  0.077430  1.0  -0.2267
  S  S2081  1  0.552750  0.792370  0.119950  1.0  -0.3272
  S  S2082  1  0.577430  0.823850  0.914270  1.0  -0.2262
  S  S2083  1  0.619950  0.534930  0.052750  1.0  -0.3264
  S  S2084  1  0.414270  0.684450  0.077430  1.0  -0.2265
  S  S2085  1  0.034930  0.119950  0.792370  1.0  -0.327
  S  S2086  1  0.184450  0.914270  0.823850  1.0  -0.2268
  S  S2087  1  0.292370  0.052750  0.534930  1.0  -0.3272
  S  S2088  1  0.323850  0.077430  0.684450  1.0  -0.2254
  S  S2089  1  0.880050  0.447250  0.965070  1.0  -0.3276
  S  S2090  1  0.085730  0.422570  0.815550  1.0  -0.2279
  S  S2091  1  0.947250  0.380050  0.707630  1.0  -0.3293
  S  S2092  1  0.922570  0.585730  0.676150  1.0  -0.2253
  S  S2093  1  0.207630  0.965070  0.447250  1.0  -0.3277
  S  S2094  1  0.176150  0.815550  0.422570  1.0  -0.2256
  S  S2095  1  0.465070  0.707630  0.380050  1.0  -0.3279
  S  S2096  1  0.315550  0.676150  0.585730  1.0  -0.2276
  S  S2097  1  0.465070  0.447250  0.707630  1.0  -0.3268
  S  S2098  1  0.315550  0.422570  0.676150  1.0  -0.2258
  S  S2099  1  0.207630  0.380050  0.965070  1.0  -0.329
  S  S2100  1  0.176150  0.585730  0.815550  1.0  -0.2254
  S  S2101  1  0.947250  0.965070  0.380050  1.0  -0.3272
  S  S2102  1  0.922570  0.815550  0.585730  1.0  -0.2269
  S  S2103  1  0.880050  0.707630  0.447250  1.0  -0.325
  S  S2104  1  0.085730  0.676150  0.422570  1.0  -0.2251
  S  S2105  1  0.207630  0.447250  0.380050  1.0  -0.3283
  S  S2106  1  0.176150  0.422570  0.585730  1.0  -0.2263
  S  S2107  1  0.465070  0.380050  0.447250  1.0  -0.3273
  S  S2108  1  0.315550  0.585730  0.422570  1.0  -0.2258
  S  S2109  1  0.880050  0.965070  0.707630  1.0  -0.3266
  S  S2110  1  0.085730  0.815550  0.676150  1.0  -0.2253
  S  S2111  1  0.947250  0.707630  0.965070  1.0  -0.325
  S  S2112  1  0.922570  0.676150  0.815550  1.0  -0.2264
  S  S2113  1  0.447250  0.880050  0.465070  1.0  -0.3292
  S  S2114  1  0.422570  0.085730  0.315550  1.0  -0.2266
  S  S2115  1  0.380050  0.947250  0.207630  1.0  -0.3273
  S  S2116  1  0.585730  0.922570  0.176150  1.0  -0.2253
  S  S2117  1  0.965070  0.207630  0.947250  1.0  -0.3258
  S  S2118  1  0.815550  0.176150  0.922570  1.0  -0.2256
  S  S2119  1  0.707630  0.465070  0.880050  1.0  -0.3287
  S  S2120  1  0.676150  0.315550  0.085730  1.0  -0.2265
  S  S2121  1  0.447250  0.465070  0.207630  1.0  -0.3262
  S  S2122  1  0.422570  0.315550  0.176150  1.0  -0.2261
  S  S2123  1  0.380050  0.207630  0.465070  1.0  -0.3249
  S  S2124  1  0.585730  0.176150  0.315550  1.0  -0.2267
  S  S2125  1  0.965070  0.947250  0.880050  1.0  -0.328
  S  S2126  1  0.815550  0.922570  0.085730  1.0  -0.2279
  S  S2127  1  0.707630  0.880050  0.947250  1.0  -0.3292
  S  S2128  1  0.676150  0.085730  0.922570  1.0  -0.2249
  S  S2129  1  0.447250  0.207630  0.880050  1.0  -0.3269
  S  S2130  1  0.422570  0.176150  0.085730  1.0  -0.2263
  S  S2131  1  0.380050  0.465070  0.947250  1.0  -0.3261
  S  S2132  1  0.585730  0.315550  0.922570  1.0  -0.2257
  S  S2133  1  0.965070  0.880050  0.207630  1.0  -0.3277
  S  S2134  1  0.815550  0.085730  0.176150  1.0  -0.2254
  S  S2135  1  0.707630  0.947250  0.465070  1.0  -0.327
  S  S2136  1  0.676150  0.922570  0.315550  1.0  -0.2264
  S  S2137  1  0.119950  0.552750  0.034930  1.0  -0.3266
  S  S2138  1  0.914270  0.577430  0.184450  1.0  -0.2247
  S  S2139  1  0.052750  0.619950  0.292370  1.0  -0.3286
  S  S2140  1  0.077430  0.414270  0.323850  1.0  -0.2277
  S  S2141  1  0.792370  0.034930  0.552750  1.0  -0.3278
  S  S2142  1  0.823850  0.184450  0.577430  1.0  -0.2277
  S  S2143  1  0.534930  0.292370  0.619950  1.0  -0.3273
  S  S2144  1  0.684450  0.323850  0.414270  1.0  -0.2262
  S  S2145  1  0.534930  0.552750  0.292370  1.0  -0.3279
  S  S2146  1  0.684450  0.577430  0.323850  1.0  -0.2274
  S  S2147  1  0.792370  0.619950  0.034930  1.0  -0.3285
  S  S2148  1  0.823850  0.414270  0.184450  1.0  -0.225
  S  S2149  1  0.052750  0.034930  0.619950  1.0  -0.3266
  S  S2150  1  0.077430  0.184450  0.414270  1.0  -0.2262
  S  S2151  1  0.119950  0.292370  0.552750  1.0  -0.3273
  S  S2152  1  0.914270  0.323850  0.577430  1.0  -0.2253
  S  S2153  1  0.792370  0.552750  0.619950  1.0  -0.3257
  S  S2154  1  0.823850  0.577430  0.414270  1.0  -0.2257
  S  S2155  1  0.534930  0.619950  0.552750  1.0  -0.3272
  S  S2156  1  0.684450  0.414270  0.577430  1.0  -0.2265
  S  S2157  1  0.119950  0.034930  0.292370  1.0  -0.3261
  S  S2158  1  0.914270  0.184450  0.323850  1.0  -0.2268
  S  S2159  1  0.052750  0.292370  0.034930  1.0  -0.3277
  S  S2160  1  0.077430  0.323850  0.184450  1.0  -0.2259
  N  N2161  1  0.531440  0.194700  0.516920  1.0  -0.4504
  N  N2162  1  0.535960  0.966140  0.718820  1.0  -0.4354
  N  N2163  1  0.471150  0.209370  0.760950  1.0  -0.3158
  N  N2164  1  0.491030  0.261150  0.540990  1.0  -0.3295
  N  N2165  1  0.471330  0.208890  0.669490  1.0  -0.3964
  N  N2166  1  0.488180  0.173300  0.635100  1.0  -0.4955
  N  N2167  1  0.477420  0.146440  0.698700  1.0  -0.4502
  N  N2168  1  0.506510  0.045870  0.696110  1.0  -0.3028
  N  N2169  1  0.506350  0.954430  0.795770  1.0  -0.3248
  N  N2170  1  0.420490  0.952090  0.891650  1.0  -0.4216
  N  N2171  1  0.694700  0.031440  0.756940  1.0  -0.4453
  N  N2172  1  0.466140  0.035960  0.779080  1.0  -0.436
  N  N2173  1  0.709370  0.971150  0.558530  1.0  -0.3136
  N  N2174  1  0.761150  0.991030  0.706830  1.0  -0.3297
  N  N2175  1  0.708890  0.971330  0.650290  1.0  -0.3965
  N  N2176  1  0.673300  0.988180  0.703420  1.0  -0.4945
  N  N2177  1  0.646440  0.977420  0.677440  1.0  -0.4515
  N  N2178  1  0.545870  0.006510  0.751510  1.0  -0.3037
  N  N2179  1  0.454430  0.006350  0.743450  1.0  -0.322
  N  N2180  1  0.452090  0.920490  0.735770  1.0  -0.4241
  N  N2181  1  0.016920  0.756940  0.031440  1.0  -0.4437
  N  N2182  1  0.218820  0.779080  0.035960  1.0  -0.4335
  N  N2183  1  0.260950  0.558530  0.971150  1.0  -0.3167
  N  N2184  1  0.040990  0.706830  0.991030  1.0  -0.3278
  N  N2185  1  0.169490  0.650290  0.971330  1.0  -0.3965
  N  N2186  1  0.135100  0.703420  0.988180  1.0  -0.4934
  N  N2187  1  0.198700  0.677440  0.977420  1.0  -0.4523
  N  N2188  1  0.196110  0.751510  0.006510  1.0  -0.3013
  N  N2189  1  0.295770  0.743450  0.006350  1.0  -0.3239
  N  N2190  1  0.391650  0.735770  0.920490  1.0  -0.4234
  N  N2191  1  0.256940  0.516920  0.194700  1.0  -0.4438
  N  N2192  1  0.279080  0.718820  0.966140  1.0  -0.4345
  N  N2193  1  0.058530  0.760950  0.209370  1.0  -0.3114
  N  N2194  1  0.206830  0.540990  0.261150  1.0  -0.328
  N  N2195  1  0.150290  0.669490  0.208890  1.0  -0.3934
  N  N2196  1  0.203420  0.635100  0.173300  1.0  -0.4907
  N  N2197  1  0.177440  0.698700  0.146440  1.0  -0.4517
  N  N2198  1  0.251510  0.696110  0.045870  1.0  -0.3037
  N  N2199  1  0.243450  0.795770  0.954430  1.0  -0.3246
  N  N2200  1  0.235770  0.891650  0.952090  1.0  -0.4215
  N  N2201  1  0.531440  0.516920  0.756940  1.0  -0.4431
  N  N2202  1  0.535960  0.718820  0.779080  1.0  -0.4359
  N  N2203  1  0.471150  0.760950  0.558530  1.0  -0.3199
  N  N2204  1  0.491030  0.540990  0.706830  1.0  -0.3317
  N  N2205  1  0.471330  0.669490  0.650290  1.0  -0.397
  N  N2206  1  0.488180  0.635100  0.703420  1.0  -0.4921
  N  N2207  1  0.477420  0.698700  0.677440  1.0  -0.4518
  N  N2208  1  0.506510  0.696110  0.751510  1.0  -0.3026
  N  N2209  1  0.506350  0.795770  0.743450  1.0  -0.3246
  N  N2210  1  0.420490  0.891650  0.735770  1.0  -0.4227
  N  N2211  1  0.694700  0.756940  0.516920  1.0  -0.4463
  N  N2212  1  0.466140  0.779080  0.718820  1.0  -0.4347
  N  N2213  1  0.709370  0.558530  0.760950  1.0  -0.3172
  N  N2214  1  0.761150  0.706830  0.540990  1.0  -0.3303
  N  N2215  1  0.708890  0.650290  0.669490  1.0  -0.3956
  N  N2216  1  0.673300  0.703420  0.635100  1.0  -0.4949
  N  N2217  1  0.646440  0.677440  0.698700  1.0  -0.4506
  N  N2218  1  0.545870  0.751510  0.696110  1.0  -0.3015
  N  N2219  1  0.454430  0.743450  0.795770  1.0  -0.3215
  N  N2220  1  0.452090  0.735770  0.891650  1.0  -0.4245
  N  N2221  1  0.016920  0.031440  0.194700  1.0  -0.4449
  N  N2222  1  0.218820  0.035960  0.966140  1.0  -0.4333
  N  N2223  1  0.260950  0.971150  0.209370  1.0  -0.3189
  N  N2224  1  0.040990  0.991030  0.261150  1.0  -0.3284
  N  N2225  1  0.169490  0.971330  0.208890  1.0  -0.3955
  N  N2226  1  0.135100  0.988180  0.173300  1.0  -0.4947
  N  N2227  1  0.198700  0.977420  0.146440  1.0  -0.4527
  N  N2228  1  0.196110  0.006510  0.045870  1.0  -0.3007
  N  N2229  1  0.295770  0.006350  0.954430  1.0  -0.323
  N  N2230  1  0.391650  0.920490  0.952090  1.0  -0.4233
  N  N2231  1  0.256940  0.194700  0.031440  1.0  -0.4473
  N  N2232  1  0.279080  0.966140  0.035960  1.0  -0.436
  N  N2233  1  0.058530  0.209370  0.971150  1.0  -0.3142
  N  N2234  1  0.206830  0.261150  0.991030  1.0  -0.3273
  N  N2235  1  0.150290  0.208890  0.971330  1.0  -0.3956
  N  N2236  1  0.203420  0.173300  0.988180  1.0  -0.4948
  N  N2237  1  0.177440  0.146440  0.977420  1.0  -0.4525
  N  N2238  1  0.251510  0.045870  0.006510  1.0  -0.3042
  N  N2239  1  0.243450  0.954430  0.006350  1.0  -0.3222
  N  N2240  1  0.235770  0.952090  0.920490  1.0  -0.421
  N  N2241  1  0.531440  0.756940  0.194700  1.0  -0.4448
  N  N2242  1  0.535960  0.779080  0.966140  1.0  -0.4363
  N  N2243  1  0.471150  0.558530  0.209370  1.0  -0.3191
  N  N2244  1  0.491030  0.706830  0.261150  1.0  -0.328
  N  N2245  1  0.471330  0.650290  0.208890  1.0  -0.3953
  N  N2246  1  0.488180  0.703420  0.173300  1.0  -0.4924
  N  N2247  1  0.477420  0.677440  0.146440  1.0  -0.4568
  N  N2248  1  0.506510  0.751510  0.045870  1.0  -0.3052
  N  N2249  1  0.506350  0.743450  0.954430  1.0  -0.326
  N  N2250  1  0.420490  0.735770  0.952090  1.0  -0.4228
  N  N2251  1  0.694700  0.516920  0.031440  1.0  -0.4474
  N  N2252  1  0.466140  0.718820  0.035960  1.0  -0.438
  N  N2253  1  0.709370  0.760950  0.971150  1.0  -0.3144
  N  N2254  1  0.761150  0.540990  0.991030  1.0  -0.3285
  N  N2255  1  0.708890  0.669490  0.971330  1.0  -0.3962
  N  N2256  1  0.673300  0.635100  0.988180  1.0  -0.4915
  N  N2257  1  0.646440  0.698700  0.977420  1.0  -0.4498
  N  N2258  1  0.545870  0.696110  0.006510  1.0  -0.3015
  N  N2259  1  0.454430  0.795770  0.006350  1.0  -0.3239
  N  N2260  1  0.452090  0.891650  0.920490  1.0  -0.4222
  N  N2261  1  0.016920  0.194700  0.756940  1.0  -0.4467
  N  N2262  1  0.218820  0.966140  0.779080  1.0  -0.4396
  N  N2263  1  0.260950  0.209370  0.558530  1.0  -0.3193
  N  N2264  1  0.040990  0.261150  0.706830  1.0  -0.327
  N  N2265  1  0.169490  0.208890  0.650290  1.0  -0.3949
  N  N2266  1  0.135100  0.173300  0.703420  1.0  -0.4938
  N  N2267  1  0.198700  0.146440  0.677440  1.0  -0.4504
  N  N2268  1  0.196110  0.045870  0.751510  1.0  -0.3019
  N  N2269  1  0.295770  0.954430  0.743450  1.0  -0.3236
  N  N2270  1  0.391650  0.952090  0.735770  1.0  -0.4207
  N  N2271  1  0.256940  0.031440  0.516920  1.0  -0.4423
  N  N2272  1  0.279080  0.035960  0.718820  1.0  -0.4369
  N  N2273  1  0.058530  0.971150  0.760950  1.0  -0.3146
  N  N2274  1  0.206830  0.991030  0.540990  1.0  -0.3267
  N  N2275  1  0.150290  0.971330  0.669490  1.0  -0.3965
  N  N2276  1  0.203420  0.988180  0.635100  1.0  -0.494
  N  N2277  1  0.177440  0.977420  0.698700  1.0  -0.4545
  N  N2278  1  0.251510  0.006510  0.696110  1.0  -0.3031
  N  N2279  1  0.243450  0.006350  0.795770  1.0  -0.3253
  N  N2280  1  0.235770  0.920490  0.891650  1.0  -0.4237
  N  N2281  1  0.805300  0.468560  0.983080  1.0  -0.4459
  N  N2282  1  0.033860  0.464040  0.781180  1.0  -0.4351
  N  N2283  1  0.790630  0.528850  0.739050  1.0  -0.3133
  N  N2284  1  0.738850  0.508970  0.959010  1.0  -0.3301
  N  N2285  1  0.791110  0.528670  0.830510  1.0  -0.397
  N  N2286  1  0.826700  0.511820  0.864900  1.0  -0.4934
  N  N2287  1  0.853560  0.522580  0.801300  1.0  -0.4535
  N  N2288  1  0.954130  0.493490  0.803890  1.0  -0.3035
  N  N2289  1  0.045570  0.493650  0.704230  1.0  -0.3231
  N  N2290  1  0.047910  0.579510  0.608350  1.0  -0.4231
  N  N2291  1  0.968560  0.305300  0.743060  1.0  -0.4486
  N  N2292  1  0.964040  0.533860  0.720920  1.0  -0.434
  N  N2293  1  0.028850  0.290630  0.941470  1.0  -0.3152
  N  N2294  1  0.008970  0.238850  0.793170  1.0  -0.328
  N  N2295  1  0.028670  0.291110  0.849710  1.0  -0.3968
  N  N2296  1  0.011820  0.326700  0.796580  1.0  -0.4949
  N  N2297  1  0.022580  0.353560  0.822560  1.0  -0.4506
  N  N2298  1  0.993490  0.454130  0.748490  1.0  -0.302
  N  N2299  1  0.993650  0.545570  0.756550  1.0  -0.3256
  N  N2300  1  0.079510  0.547910  0.764230  1.0  -0.422
  N  N2301  1  0.243060  0.983080  0.468560  1.0  -0.4408
  N  N2302  1  0.220920  0.781180  0.464040  1.0  -0.4342
  N  N2303  1  0.441470  0.739050  0.528850  1.0  -0.3117
  N  N2304  1  0.293170  0.959010  0.508970  1.0  -0.3279
  N  N2305  1  0.349710  0.830510  0.528670  1.0  -0.3929
  N  N2306  1  0.296580  0.864900  0.511820  1.0  -0.492
  N  N2307  1  0.322560  0.801300  0.522580  1.0  -0.4501
  N  N2308  1  0.248490  0.803890  0.493490  1.0  -0.3041
  N  N2309  1  0.256550  0.704230  0.493650  1.0  -0.3243
  N  N2310  1  0.264230  0.608350  0.579510  1.0  -0.4215
  N  N2311  1  0.483080  0.743060  0.305300  1.0  -0.4447
  N  N2312  1  0.281180  0.720920  0.533860  1.0  -0.4345
  N  N2313  1  0.239050  0.941470  0.290630  1.0  -0.3167
  N  N2314  1  0.459010  0.793170  0.238850  1.0  -0.3277
  N  N2315  1  0.330510  0.849710  0.291110  1.0  -0.3968
  N  N2316  1  0.364900  0.796580  0.326700  1.0  -0.4914
  N  N2317  1  0.301300  0.822560  0.353560  1.0  -0.4519
  N  N2318  1  0.303890  0.748490  0.454130  1.0  -0.302
  N  N2319  1  0.204230  0.756550  0.545570  1.0  -0.3233
  N  N2320  1  0.108350  0.764230  0.547910  1.0  -0.4239
  N  N2321  1  0.483080  0.468560  0.743060  1.0  -0.445
  N  N2322  1  0.281180  0.464040  0.720920  1.0  -0.4341
  N  N2323  1  0.239050  0.528850  0.941470  1.0  -0.319
  N  N2324  1  0.459010  0.508970  0.793170  1.0  -0.3285
  N  N2325  1  0.330510  0.528670  0.849710  1.0  -0.3967
  N  N2326  1  0.364900  0.511820  0.796580  1.0  -0.4939
  N  N2327  1  0.301300  0.522580  0.822560  1.0  -0.4516
  N  N2328  1  0.303890  0.493490  0.748490  1.0  -0.3013
  N  N2329  1  0.204230  0.493650  0.756550  1.0  -0.3217
  N  N2330  1  0.108350  0.579510  0.764230  1.0  -0.4238
  N  N2331  1  0.243060  0.305300  0.983080  1.0  -0.4449
  N  N2332  1  0.220920  0.533860  0.781180  1.0  -0.4347
  N  N2333  1  0.441470  0.290630  0.739050  1.0  -0.3145
  N  N2334  1  0.293170  0.238850  0.959010  1.0  -0.3273
  N  N2335  1  0.349710  0.291110  0.830510  1.0  -0.3965
  N  N2336  1  0.296580  0.326700  0.864900  1.0  -0.4941
  N  N2337  1  0.322560  0.353560  0.801300  1.0  -0.4536
  N  N2338  1  0.248490  0.454130  0.803890  1.0  -0.3037
  N  N2339  1  0.256550  0.545570  0.704230  1.0  -0.3238
  N  N2340  1  0.264230  0.547910  0.608350  1.0  -0.4205
  N  N2341  1  0.968560  0.983080  0.305300  1.0  -0.4437
  N  N2342  1  0.964040  0.781180  0.533860  1.0  -0.4356
  N  N2343  1  0.028850  0.739050  0.290630  1.0  -0.3198
  N  N2344  1  0.008970  0.959010  0.238850  1.0  -0.3305
  N  N2345  1  0.028670  0.830510  0.291110  1.0  -0.3974
  N  N2346  1  0.011820  0.864900  0.326700  1.0  -0.4929
  N  N2347  1  0.022580  0.801300  0.353560  1.0  -0.4502
  N  N2348  1  0.993490  0.803890  0.454130  1.0  -0.3025
  N  N2349  1  0.993650  0.704230  0.545570  1.0  -0.3235
  N  N2350  1  0.079510  0.608350  0.547910  1.0  -0.4217
  N  N2351  1  0.805300  0.743060  0.468560  1.0  -0.4484
  N  N2352  1  0.033860  0.720920  0.464040  1.0  -0.4357
  N  N2353  1  0.790630  0.941470  0.528850  1.0  -0.316
  N  N2354  1  0.738850  0.793170  0.508970  1.0  -0.3311
  N  N2355  1  0.791110  0.849710  0.528670  1.0  -0.3964
  N  N2356  1  0.826700  0.796580  0.511820  1.0  -0.4938
  N  N2357  1  0.853560  0.822560  0.522580  1.0  -0.4518
  N  N2358  1  0.954130  0.748490  0.493490  1.0  -0.3016
  N  N2359  1  0.045570  0.756550  0.493650  1.0  -0.3229
  N  N2360  1  0.047910  0.764230  0.579510  1.0  -0.4236
  N  N2361  1  0.243060  0.468560  0.305300  1.0  -0.4419
  N  N2362  1  0.220920  0.464040  0.533860  1.0  -0.4377
  N  N2363  1  0.441470  0.528850  0.290630  1.0  -0.3145
  N  N2364  1  0.293170  0.508970  0.238850  1.0  -0.3272
  N  N2365  1  0.349710  0.528670  0.291110  1.0  -0.3947
  N  N2366  1  0.296580  0.511820  0.326700  1.0  -0.494
  N  N2367  1  0.322560  0.522580  0.353560  1.0  -0.4549
  N  N2368  1  0.248490  0.493490  0.454130  1.0  -0.3041
  N  N2369  1  0.256550  0.493650  0.545570  1.0  -0.3248
  N  N2370  1  0.264230  0.579510  0.547910  1.0  -0.4231
  N  N2371  1  0.483080  0.305300  0.468560  1.0  -0.4458
  N  N2372  1  0.281180  0.533860  0.464040  1.0  -0.4366
  N  N2373  1  0.239050  0.290630  0.528850  1.0  -0.3198
  N  N2374  1  0.459010  0.238850  0.508970  1.0  -0.3267
  N  N2375  1  0.330510  0.291110  0.528670  1.0  -0.3952
  N  N2376  1  0.364900  0.326700  0.511820  1.0  -0.494
  N  N2377  1  0.301300  0.353560  0.522580  1.0  -0.4496
  N  N2378  1  0.303890  0.454130  0.493490  1.0  -0.3011
  N  N2379  1  0.204230  0.545570  0.493650  1.0  -0.3232
  N  N2380  1  0.108350  0.547910  0.579510  1.0  -0.4214
  N  N2381  1  0.805300  0.983080  0.743060  1.0  -0.4471
  N  N2382  1  0.033860  0.781180  0.720920  1.0  -0.436
  N  N2383  1  0.790630  0.739050  0.941470  1.0  -0.3145
  N  N2384  1  0.738850  0.959010  0.793170  1.0  -0.3279
  N  N2385  1  0.791110  0.830510  0.849710  1.0  -0.3975
  N  N2386  1  0.826700  0.864900  0.796580  1.0  -0.4913
  N  N2387  1  0.853560  0.801300  0.822560  1.0  -0.4498
  N  N2388  1  0.954130  0.803890  0.748490  1.0  -0.3023
  N  N2389  1  0.045570  0.704230  0.756550  1.0  -0.3233
  N  N2390  1  0.047910  0.608350  0.764230  1.0  -0.4216
  N  N2391  1  0.968560  0.743060  0.983080  1.0  -0.4441
  N  N2392  1  0.964040  0.720920  0.781180  1.0  -0.4393
  N  N2393  1  0.028850  0.941470  0.739050  1.0  -0.3182
  N  N2394  1  0.008970  0.793170  0.959010  1.0  -0.3281
  N  N2395  1  0.028670  0.849710  0.830510  1.0  -0.3948
  N  N2396  1  0.011820  0.796580  0.864900  1.0  -0.4921
  N  N2397  1  0.022580  0.822560  0.801300  1.0  -0.4557
  N  N2398  1  0.993490  0.748490  0.803890  1.0  -0.3043
  N  N2399  1  0.993650  0.756550  0.704230  1.0  -0.326
  N  N2400  1  0.079510  0.764230  0.608350  1.0  -0.4227
  N  N2401  1  0.468560  0.805300  0.483080  1.0  -0.4466
  N  N2402  1  0.464040  0.033860  0.281180  1.0  -0.4352
  N  N2403  1  0.528850  0.790630  0.239050  1.0  -0.3154
  N  N2404  1  0.508970  0.738850  0.459010  1.0  -0.3296
  N  N2405  1  0.528670  0.791110  0.330510  1.0  -0.3971
  N  N2406  1  0.511820  0.826700  0.364900  1.0  -0.4949
  N  N2407  1  0.522580  0.853560  0.301300  1.0  -0.4517
  N  N2408  1  0.493490  0.954130  0.303890  1.0  -0.3037
  N  N2409  1  0.493650  0.045570  0.204230  1.0  -0.3249
  N  N2410  1  0.579510  0.047910  0.108350  1.0  -0.4207
  N  N2411  1  0.305300  0.968560  0.243060  1.0  -0.4484
  N  N2412  1  0.533860  0.964040  0.220920  1.0  -0.4347
  N  N2413  1  0.290630  0.028850  0.441470  1.0  -0.3129
  N  N2414  1  0.238850  0.008970  0.293170  1.0  -0.3296
  N  N2415  1  0.291110  0.028670  0.349710  1.0  -0.3971
  N  N2416  1  0.326700  0.011820  0.296580  1.0  -0.4945
  N  N2417  1  0.353560  0.022580  0.322560  1.0  -0.4522
  N  N2418  1  0.454130  0.993490  0.248490  1.0  -0.3017
  N  N2419  1  0.545570  0.993650  0.256550  1.0  -0.3232
  N  N2420  1  0.547910  0.079510  0.264230  1.0  -0.4235
  N  N2421  1  0.983080  0.243060  0.968560  1.0  -0.4443
  N  N2422  1  0.781180  0.220920  0.964040  1.0  -0.4341
  N  N2423  1  0.739050  0.441470  0.028850  1.0  -0.3165
  N  N2424  1  0.959010  0.293170  0.008970  1.0  -0.3276
  N  N2425  1  0.830510  0.349710  0.028670  1.0  -0.395
  N  N2426  1  0.864900  0.296580  0.011820  1.0  -0.4913
  N  N2427  1  0.801300  0.322560  0.022580  1.0  -0.4521
  N  N2428  1  0.803890  0.248490  0.993490  1.0  -0.3023
  N  N2429  1  0.704230  0.256550  0.993650  1.0  -0.3232
  N  N2430  1  0.608350  0.264230  0.079510  1.0  -0.4235
  N  N2431  1  0.743060  0.483080  0.805300  1.0  -0.4411
  N  N2432  1  0.720920  0.281180  0.033860  1.0  -0.4359
  N  N2433  1  0.941470  0.239050  0.790630  1.0  -0.3118
  N  N2434  1  0.793170  0.459010  0.738850  1.0  -0.3276
  N  N2435  1  0.849710  0.330510  0.791110  1.0  -0.3956
  N  N2436  1  0.796580  0.364900  0.826700  1.0  -0.4921
  N  N2437  1  0.822560  0.301300  0.853560  1.0  -0.4498
  N  N2438  1  0.748490  0.303890  0.954130  1.0  -0.3035
  N  N2439  1  0.756550  0.204230  0.045570  1.0  -0.3242
  N  N2440  1  0.764230  0.108350  0.047910  1.0  -0.4218
  N  N2441  1  0.468560  0.483080  0.243060  1.0  -0.4452
  N  N2442  1  0.464040  0.281180  0.220920  1.0  -0.4344
  N  N2443  1  0.528850  0.239050  0.441470  1.0  -0.3185
  N  N2444  1  0.508970  0.459010  0.293170  1.0  -0.3309
  N  N2445  1  0.528670  0.330510  0.349710  1.0  -0.3948
  N  N2446  1  0.511820  0.364900  0.296580  1.0  -0.4938
  N  N2447  1  0.522580  0.301300  0.322560  1.0  -0.4507
  N  N2448  1  0.493490  0.303890  0.248490  1.0  -0.3033
  N  N2449  1  0.493650  0.204230  0.256550  1.0  -0.3239
  N  N2450  1  0.579510  0.108350  0.264230  1.0  -0.4212
  N  N2451  1  0.305300  0.243060  0.483080  1.0  -0.4483
  N  N2452  1  0.533860  0.220920  0.281180  1.0  -0.436
  N  N2453  1  0.290630  0.441470  0.239050  1.0  -0.3156
  N  N2454  1  0.238850  0.293170  0.459010  1.0  -0.3302
  N  N2455  1  0.291110  0.349710  0.330510  1.0  -0.3972
  N  N2456  1  0.326700  0.296580  0.364900  1.0  -0.4931
  N  N2457  1  0.353560  0.322560  0.301300  1.0  -0.4529
  N  N2458  1  0.454130  0.248490  0.303890  1.0  -0.303
  N  N2459  1  0.545570  0.256550  0.204230  1.0  -0.3226
  N  N2460  1  0.547910  0.264230  0.108350  1.0  -0.4234
  N  N2461  1  0.983080  0.968560  0.805300  1.0  -0.4442
  N  N2462  1  0.781180  0.964040  0.033860  1.0  -0.435
  N  N2463  1  0.739050  0.028850  0.790630  1.0  -0.3209
  N  N2464  1  0.959010  0.008970  0.738850  1.0  -0.3278
  N  N2465  1  0.830510  0.028670  0.791110  1.0  -0.3985
  N  N2466  1  0.864900  0.011820  0.826700  1.0  -0.4924
  N  N2467  1  0.801300  0.022580  0.853560  1.0  -0.4514
  N  N2468  1  0.803890  0.993490  0.954130  1.0  -0.3004
  N  N2469  1  0.704230  0.993650  0.045570  1.0  -0.321
  N  N2470  1  0.608350  0.079510  0.047910  1.0  -0.4244
  N  N2471  1  0.743060  0.805300  0.968560  1.0  -0.445
  N  N2472  1  0.720920  0.033860  0.964040  1.0  -0.4339
  N  N2473  1  0.941470  0.790630  0.028850  1.0  -0.3146
  N  N2474  1  0.793170  0.738850  0.008970  1.0  -0.3279
  N  N2475  1  0.849710  0.791110  0.028670  1.0  -0.3953
  N  N2476  1  0.796580  0.826700  0.011820  1.0  -0.4948
  N  N2477  1  0.822560  0.853560  0.022580  1.0  -0.4525
  N  N2478  1  0.748490  0.954130  0.993490  1.0  -0.3026
  N  N2479  1  0.756550  0.045570  0.993650  1.0  -0.324
  N  N2480  1  0.764230  0.047910  0.079510  1.0  -0.4215
  N  N2481  1  0.468560  0.243060  0.805300  1.0  -0.4456
  N  N2482  1  0.464040  0.220920  0.033860  1.0  -0.4395
  N  N2483  1  0.528850  0.441470  0.790630  1.0  -0.3193
  N  N2484  1  0.508970  0.293170  0.738850  1.0  -0.328
  N  N2485  1  0.528670  0.349710  0.791110  1.0  -0.3952
  N  N2486  1  0.511820  0.296580  0.826700  1.0  -0.4927
  N  N2487  1  0.522580  0.322560  0.853560  1.0  -0.4546
  N  N2488  1  0.493490  0.248490  0.954130  1.0  -0.3036
  N  N2489  1  0.493650  0.256550  0.045570  1.0  -0.3263
  N  N2490  1  0.579510  0.264230  0.047910  1.0  -0.4233
  N  N2491  1  0.305300  0.483080  0.968560  1.0  -0.4468
  N  N2492  1  0.533860  0.281180  0.964040  1.0  -0.4363
  N  N2493  1  0.290630  0.239050  0.028850  1.0  -0.3148
  N  N2494  1  0.238850  0.459010  0.008970  1.0  -0.3282
  N  N2495  1  0.291110  0.330510  0.028670  1.0  -0.3973
  N  N2496  1  0.326700  0.364900  0.011820  1.0  -0.4916
  N  N2497  1  0.353560  0.301300  0.022580  1.0  -0.4501
  N  N2498  1  0.454130  0.303890  0.993490  1.0  -0.3023
  N  N2499  1  0.545570  0.204230  0.993650  1.0  -0.3235
  N  N2500  1  0.547910  0.108350  0.079510  1.0  -0.4218
  N  N2501  1  0.983080  0.805300  0.243060  1.0  -0.447
  N  N2502  1  0.781180  0.033860  0.220920  1.0  -0.4366
  N  N2503  1  0.739050  0.790630  0.441470  1.0  -0.3194
  N  N2504  1  0.959010  0.738850  0.293170  1.0  -0.3263
  N  N2505  1  0.830510  0.791110  0.349710  1.0  -0.3955
  N  N2506  1  0.864900  0.826700  0.296580  1.0  -0.4938
  N  N2507  1  0.801300  0.853560  0.322560  1.0  -0.4492
  N  N2508  1  0.803890  0.954130  0.248490  1.0  -0.3007
  N  N2509  1  0.704230  0.045570  0.256550  1.0  -0.3235
  N  N2510  1  0.608350  0.047910  0.264230  1.0  -0.4212
  N  N2511  1  0.743060  0.968560  0.483080  1.0  -0.441
  N  N2512  1  0.720920  0.964040  0.281180  1.0  -0.4375
  N  N2513  1  0.941470  0.028850  0.239050  1.0  -0.3136
  N  N2514  1  0.793170  0.008970  0.459010  1.0  -0.3275
  N  N2515  1  0.849710  0.028670  0.330510  1.0  -0.3942
  N  N2516  1  0.796580  0.011820  0.364900  1.0  -0.4937
  N  N2517  1  0.822560  0.022580  0.301300  1.0  -0.4557
  N  N2518  1  0.748490  0.993490  0.303890  1.0  -0.3056
  N  N2519  1  0.756550  0.993650  0.204230  1.0  -0.3254
  N  N2520  1  0.764230  0.079510  0.108350  1.0  -0.4224
  N  N2521  1  0.194700  0.531440  0.016920  1.0  -0.4483
  N  N2522  1  0.966140  0.535960  0.218820  1.0  -0.4354
  N  N2523  1  0.209370  0.471150  0.260950  1.0  -0.313
  N  N2524  1  0.261150  0.491030  0.040990  1.0  -0.3283
  N  N2525  1  0.208890  0.471330  0.169490  1.0  -0.396
  N  N2526  1  0.173300  0.488180  0.135100  1.0  -0.4944
  N  N2527  1  0.146440  0.477420  0.198700  1.0  -0.4508
  N  N2528  1  0.045870  0.506510  0.196110  1.0  -0.3019
  N  N2529  1  0.954430  0.506350  0.295770  1.0  -0.3231
  N  N2530  1  0.952090  0.420490  0.391650  1.0  -0.4246
  N  N2531  1  0.031440  0.694700  0.256940  1.0  -0.4487
  N  N2532  1  0.035960  0.466140  0.279080  1.0  -0.4354
  N  N2533  1  0.971150  0.709370  0.058530  1.0  -0.3162
  N  N2534  1  0.991030  0.761150  0.206830  1.0  -0.3305
  N  N2535  1  0.971330  0.708890  0.150290  1.0  -0.3961
  N  N2536  1  0.988180  0.673300  0.203420  1.0  -0.4947
  N  N2537  1  0.977420  0.646440  0.177440  1.0  -0.4516
  N  N2538  1  0.006510  0.545870  0.251510  1.0  -0.3048
  N  N2539  1  0.006350  0.454430  0.243450  1.0  -0.3245
  N  N2540  1  0.920490  0.452090  0.235770  1.0  -0.4213
  N  N2541  1  0.756940  0.016920  0.531440  1.0  -0.4442
  N  N2542  1  0.779080  0.218820  0.535960  1.0  -0.4352
  N  N2543  1  0.558530  0.260950  0.471150  1.0  -0.3116
  N  N2544  1  0.706830  0.040990  0.491030  1.0  -0.328
  N  N2545  1  0.650290  0.169490  0.471330  1.0  -0.3948
  N  N2546  1  0.703420  0.135100  0.488180  1.0  -0.491
  N  N2547  1  0.677440  0.198700  0.477420  1.0  -0.4514
  N  N2548  1  0.751510  0.196110  0.506510  1.0  -0.3032
  N  N2549  1  0.743450  0.295770  0.506350  1.0  -0.3249
  N  N2550  1  0.735770  0.391650  0.420490  1.0  -0.4228
  N  N2551  1  0.516920  0.256940  0.694700  1.0  -0.4455
  N  N2552  1  0.718820  0.279080  0.466140  1.0  -0.4322
  N  N2553  1  0.760950  0.058530  0.709370  1.0  -0.3167
  N  N2554  1  0.540990  0.206830  0.761150  1.0  -0.3279
  N  N2555  1  0.669490  0.150290  0.708890  1.0  -0.3939
  N  N2556  1  0.635100  0.203420  0.673300  1.0  -0.4931
  N  N2557  1  0.698700  0.177440  0.646440  1.0  -0.4529
  N  N2558  1  0.696110  0.251510  0.545870  1.0  -0.3017
  N  N2559  1  0.795770  0.243450  0.454430  1.0  -0.3239
  N  N2560  1  0.891650  0.235770  0.452090  1.0  -0.4232
  N  N2561  1  0.516920  0.531440  0.256940  1.0  -0.4439
  N  N2562  1  0.718820  0.535960  0.279080  1.0  -0.4345
  N  N2563  1  0.760950  0.471150  0.058530  1.0  -0.32
  N  N2564  1  0.540990  0.491030  0.206830  1.0  -0.3279
  N  N2565  1  0.669490  0.471330  0.150290  1.0  -0.3983
  N  N2566  1  0.635100  0.488180  0.203420  1.0  -0.4941
  N  N2567  1  0.698700  0.477420  0.177440  1.0  -0.4522
  N  N2568  1  0.696110  0.506510  0.251510  1.0  -0.3002
  N  N2569  1  0.795770  0.506350  0.243450  1.0  -0.3224
  N  N2570  1  0.891650  0.420490  0.235770  1.0  -0.4237
  N  N2571  1  0.756940  0.694700  0.016920  1.0  -0.4483
  N  N2572  1  0.779080  0.466140  0.218820  1.0  -0.436
  N  N2573  1  0.558530  0.709370  0.260950  1.0  -0.3147
  N  N2574  1  0.706830  0.761150  0.040990  1.0  -0.3279
  N  N2575  1  0.650290  0.708890  0.169490  1.0  -0.3951
  N  N2576  1  0.703420  0.673300  0.135100  1.0  -0.4955
  N  N2577  1  0.677440  0.646440  0.198700  1.0  -0.4512
  N  N2578  1  0.751510  0.545870  0.196110  1.0  -0.3027
  N  N2579  1  0.743450  0.454430  0.295770  1.0  -0.3222
  N  N2580  1  0.735770  0.452090  0.391650  1.0  -0.4212
  N  N2581  1  0.031440  0.016920  0.694700  1.0  -0.4471
  N  N2582  1  0.035960  0.218820  0.466140  1.0  -0.4344
  N  N2583  1  0.971150  0.260950  0.709370  1.0  -0.3181
  N  N2584  1  0.991030  0.040990  0.761150  1.0  -0.3321
  N  N2585  1  0.971330  0.169490  0.708890  1.0  -0.3951
  N  N2586  1  0.988180  0.135100  0.673300  1.0  -0.4933
  N  N2587  1  0.977420  0.198700  0.646440  1.0  -0.452
  N  N2588  1  0.006510  0.196110  0.545870  1.0  -0.3034
  N  N2589  1  0.006350  0.295770  0.454430  1.0  -0.3247
  N  N2590  1  0.920490  0.391650  0.452090  1.0  -0.4212
  N  N2591  1  0.194700  0.256940  0.531440  1.0  -0.4479
  N  N2592  1  0.966140  0.279080  0.535960  1.0  -0.4353
  N  N2593  1  0.209370  0.058530  0.471150  1.0  -0.3169
  N  N2594  1  0.261150  0.206830  0.491030  1.0  -0.33
  N  N2595  1  0.208890  0.150290  0.471330  1.0  -0.3966
  N  N2596  1  0.173300  0.203420  0.488180  1.0  -0.4941
  N  N2597  1  0.146440  0.177440  0.477420  1.0  -0.4515
  N  N2598  1  0.045870  0.251510  0.506510  1.0  -0.3032
  N  N2599  1  0.954430  0.243450  0.506350  1.0  -0.3214
  N  N2600  1  0.952090  0.235770  0.420490  1.0  -0.4241
  N  N2601  1  0.756940  0.531440  0.694700  1.0  -0.4438
  N  N2602  1  0.779080  0.535960  0.466140  1.0  -0.4368
  N  N2603  1  0.558530  0.471150  0.709370  1.0  -0.3137
  N  N2604  1  0.706830  0.491030  0.761150  1.0  -0.3271
  N  N2605  1  0.650290  0.471330  0.708890  1.0  -0.3955
  N  N2606  1  0.703420  0.488180  0.673300  1.0  -0.4939
  N  N2607  1  0.677440  0.477420  0.646440  1.0  -0.4556
  N  N2608  1  0.751510  0.506510  0.545870  1.0  -0.305
  N  N2609  1  0.743450  0.506350  0.454430  1.0  -0.325
  N  N2610  1  0.735770  0.420490  0.452090  1.0  -0.4229
  N  N2611  1  0.516920  0.694700  0.531440  1.0  -0.4492
  N  N2612  1  0.718820  0.466140  0.535960  1.0  -0.4396
  N  N2613  1  0.760950  0.709370  0.471150  1.0  -0.3188
  N  N2614  1  0.540990  0.761150  0.491030  1.0  -0.3264
  N  N2615  1  0.669490  0.708890  0.471330  1.0  -0.395
  N  N2616  1  0.635100  0.673300  0.488180  1.0  -0.4939
  N  N2617  1  0.698700  0.646440  0.477420  1.0  -0.4501
  N  N2618  1  0.696110  0.545870  0.506510  1.0  -0.3016
  N  N2619  1  0.795770  0.454430  0.506350  1.0  -0.3234
  N  N2620  1  0.891650  0.452090  0.420490  1.0  -0.4205
  N  N2621  1  0.194700  0.016920  0.256940  1.0  -0.4475
  N  N2622  1  0.966140  0.218820  0.279080  1.0  -0.4381
  N  N2623  1  0.209370  0.260950  0.058530  1.0  -0.3151
  N  N2624  1  0.261150  0.040990  0.206830  1.0  -0.3289
  N  N2625  1  0.208890  0.169490  0.150290  1.0  -0.3963
  N  N2626  1  0.173300  0.135100  0.203420  1.0  -0.4913
  N  N2627  1  0.146440  0.198700  0.177440  1.0  -0.4501
  N  N2628  1  0.045870  0.196110  0.251510  1.0  -0.3021
  N  N2629  1  0.954430  0.295770  0.243450  1.0  -0.3234
  N  N2630  1  0.952090  0.391650  0.235770  1.0  -0.4223
  N  N2631  1  0.031440  0.256940  0.016920  1.0  -0.446
  N  N2632  1  0.035960  0.279080  0.218820  1.0  -0.4363
  N  N2633  1  0.971150  0.058530  0.260950  1.0  -0.3198
  N  N2634  1  0.991030  0.206830  0.040990  1.0  -0.3276
  N  N2635  1  0.971330  0.150290  0.169490  1.0  -0.3958
  N  N2636  1  0.988180  0.203420  0.135100  1.0  -0.4927
  N  N2637  1  0.977420  0.177440  0.198700  1.0  -0.4559
  N  N2638  1  0.006510  0.251510  0.196110  1.0  -0.3032
  N  N2639  1  0.006350  0.243450  0.295770  1.0  -0.3258
  N  N2640  1  0.920490  0.235770  0.391650  1.0  -0.4235
