# generated using pymatgen
data_CoH16C26(SN5)2
_symmetry_space_group_name_H-M   'P 1'
_cell_length_a   44.99180000
_cell_length_b   44.99180000
_cell_length_c   44.99180000
_cell_angle_alpha   60.00000000
_cell_angle_beta   60.00000000
_cell_angle_gamma   60.00000000
_symmetry_Int_Tables_number   1
_chemical_formula_structural   CoH16C26(SN5)2
_chemical_formula_sum   'Co48 H768 C1248 S96 N480'
_cell_volume   64399.88732962
_cell_formula_units_Z   48
loop_
 _symmetry_equiv_pos_site_id
 _symmetry_equiv_pos_as_xyz
  1  'x, y, z'
loop_
 _atom_site_type_symbol
 _atom_site_label
 _atom_site_symmetry_multiplicity
 _atom_site_fract_x
 _atom_site_fract_y
 _atom_site_fract_z
 _atom_site_occupancy
 _atom_site_charge
  Co  Co1  1  0.750000  0.750000  0.992830  1.0  0.6857
  Co  Co2  1  0.250000  0.250000  0.507170  1.0  0.6857
  Co  Co3  1  0.492830  0.507170  0.250000  1.0  0.6845
  Co  Co4  1  0.007170  0.992830  0.750000  1.0  0.6855
  Co  Co5  1  0.750000  0.992830  0.507170  1.0  0.6849
  Co  Co6  1  0.250000  0.507170  0.992830  1.0  0.6852
  Co  Co7  1  0.492830  0.250000  0.750000  1.0  0.6849
  Co  Co8  1  0.007170  0.750000  0.250000  1.0  0.6864
  Co  Co9  1  0.750000  0.507170  0.750000  1.0  0.6854
  Co  Co10  1  0.250000  0.992830  0.250000  1.0  0.6847
  Co  Co11  1  0.492830  0.750000  0.507170  1.0  0.6851
  Co  Co12  1  0.007170  0.250000  0.992830  1.0  0.6862
  Co  Co13  1  0.250000  0.250000  0.007170  1.0  0.6857
  Co  Co14  1  0.750000  0.750000  0.492830  1.0  0.6857
  Co  Co15  1  0.507170  0.492830  0.750000  1.0  0.6855
  Co  Co16  1  0.992830  0.007170  0.250000  1.0  0.6845
  Co  Co17  1  0.250000  0.007170  0.492830  1.0  0.6852
  Co  Co18  1  0.750000  0.492830  0.007170  1.0  0.6849
  Co  Co19  1  0.507170  0.750000  0.250000  1.0  0.6864
  Co  Co20  1  0.992830  0.250000  0.750000  1.0  0.6849
  Co  Co21  1  0.250000  0.492830  0.250000  1.0  0.6847
  Co  Co22  1  0.750000  0.007170  0.750000  1.0  0.6854
  Co  Co23  1  0.507170  0.250000  0.492830  1.0  0.6862
  Co  Co24  1  0.992830  0.750000  0.007170  1.0  0.6851
  Co  Co25  1  0.747610  0.502390  0.247610  1.0  0.6771
  Co  Co26  1  0.002390  0.247610  0.502390  1.0  0.6773
  Co  Co27  1  0.747610  0.247610  0.502390  1.0  0.677
  Co  Co28  1  0.002390  0.502390  0.247610  1.0  0.6767
  Co  Co29  1  0.747610  0.502390  0.502390  1.0  0.6774
  Co  Co30  1  0.002390  0.247610  0.247610  1.0  0.677
  Co  Co31  1  0.497610  0.252390  0.252390  1.0  0.6774
  Co  Co32  1  0.752390  0.997610  0.997610  1.0  0.677
  Co  Co33  1  0.752390  0.252390  0.997610  1.0  0.6767
  Co  Co34  1  0.497610  0.997610  0.252390  1.0  0.677
  Co  Co35  1  0.497610  0.252390  0.997610  1.0  0.6771
  Co  Co36  1  0.752390  0.997610  0.252390  1.0  0.6773
  Co  Co37  1  0.252390  0.497610  0.752390  1.0  0.6773
  Co  Co38  1  0.997610  0.752390  0.497610  1.0  0.6771
  Co  Co39  1  0.252390  0.752390  0.497610  1.0  0.6767
  Co  Co40  1  0.997610  0.497610  0.752390  1.0  0.677
  Co  Co41  1  0.252390  0.497610  0.497610  1.0  0.677
  Co  Co42  1  0.997610  0.752390  0.752390  1.0  0.6774
  Co  Co43  1  0.502390  0.747610  0.747610  1.0  0.677
  Co  Co44  1  0.247610  0.002390  0.002390  1.0  0.6774
  Co  Co45  1  0.247610  0.747610  0.002390  1.0  0.677
  Co  Co46  1  0.502390  0.002390  0.747610  1.0  0.6767
  Co  Co47  1  0.502390  0.747610  0.002390  1.0  0.6773
  Co  Co48  1  0.247610  0.002390  0.747610  1.0  0.6771
  H  H49  1  0.587000  0.726200  0.209800  1.0  0.0815
  H  H50  1  0.647800  0.638200  0.269400  1.0  0.1266
  H  H51  1  0.594800  0.642600  0.321800  1.0  0.1291
  H  H52  1  0.539700  0.685300  0.314300  1.0  0.0867
  H  H53  1  0.679500  0.813300  0.019100  1.0  0.0914
  H  H54  1  0.630500  0.821700  0.071100  1.0  0.1221
  H  H55  1  0.628700  0.773900  0.126500  1.0  0.1187
  H  H56  1  0.726400  0.713400  0.075000  1.0  0.0877
  H  H57  1  0.708500  0.583500  0.217700  1.0  0.0852
  H  H58  1  0.759100  0.627100  0.110700  1.0  0.1197
  H  H59  1  0.801000  0.569000  0.111400  1.0  0.1164
  H  H60  1  0.794200  0.519200  0.165000  1.0  0.0984
  H  H61  1  0.773600  0.558600  0.239600  1.0  0.0906
  H  H62  1  0.824100  0.566100  0.231900  1.0  0.1301
  H  H63  1  0.879500  0.517500  0.228100  1.0  0.1151
  H  H64  1  0.827400  0.456000  0.245800  1.0  0.0884
  H  H65  1  0.226200  0.087000  0.477000  1.0  0.0809
  H  H66  1  0.138200  0.147800  0.444600  1.0  0.126
  H  H67  1  0.142600  0.094800  0.440800  1.0  0.1274
  H  H68  1  0.185300  0.039700  0.460700  1.0  0.0857
  H  H69  1  0.313300  0.179500  0.488100  1.0  0.0925
  H  H70  1  0.321700  0.130500  0.476700  1.0  0.1215
  H  H71  1  0.273900  0.128700  0.470900  1.0  0.1177
  H  H72  1  0.213400  0.226400  0.485200  1.0  0.0875
  H  H73  1  0.083500  0.208500  0.490300  1.0  0.0864
  H  H74  1  0.127100  0.259100  0.503100  1.0  0.1198
  H  H75  1  0.069000  0.301000  0.518600  1.0  0.1165
  H  H76  1  0.019200  0.294200  0.521600  1.0  0.1012
  H  H77  1  0.058600  0.273600  0.428200  1.0  0.0914
  H  H78  1  0.066100  0.324100  0.377900  1.0  0.1285
  H  H79  1  0.017500  0.379500  0.374900  1.0  0.1148
  H  H80  1  0.956000  0.327400  0.470800  1.0  0.0871
  H  H81  1  0.709800  0.477000  0.087000  1.0  0.0801
  H  H82  1  0.769400  0.444600  0.147800  1.0  0.126
  H  H83  1  0.821800  0.440800  0.094800  1.0  0.1276
  H  H84  1  0.814300  0.460700  0.039700  1.0  0.087
  H  H85  1  0.519100  0.488100  0.179500  1.0  0.0929
  H  H86  1  0.571100  0.476700  0.130500  1.0  0.1185
  H  H87  1  0.626500  0.470900  0.128700  1.0  0.1195
  H  H88  1  0.575000  0.485200  0.226400  1.0  0.0894
  H  H89  1  0.717700  0.490300  0.208500  1.0  0.0874
  H  H90  1  0.610700  0.503100  0.259100  1.0  0.1196
  H  H91  1  0.611400  0.518600  0.301000  1.0  0.1163
  H  H92  1  0.665000  0.521600  0.294200  1.0  0.0982
  H  H93  1  0.739600  0.428200  0.273600  1.0  0.0918
  H  H94  1  0.731900  0.377900  0.324100  1.0  0.129
  H  H95  1  0.728100  0.374900  0.379500  1.0  0.1151
  H  H96  1  0.745800  0.470800  0.327400  1.0  0.0881
  H  H97  1  0.977000  0.209800  0.726200  1.0  0.0806
  H  H98  1  0.944600  0.269400  0.638200  1.0  0.1263
  H  H99  1  0.940800  0.321800  0.642600  1.0  0.1304
  H  H100  1  0.960700  0.314300  0.685300  1.0  0.0862
  H  H101  1  0.988100  0.019100  0.813300  1.0  0.0926
  H  H102  1  0.976700  0.071100  0.821700  1.0  0.1202
  H  H103  1  0.970900  0.126500  0.773900  1.0  0.1189
  H  H104  1  0.985200  0.075000  0.713400  1.0  0.0895
  H  H105  1  0.990300  0.217700  0.583500  1.0  0.0875
  H  H106  1  0.003100  0.110700  0.627100  1.0  0.1198
  H  H107  1  0.018600  0.111400  0.569000  1.0  0.1162
  H  H108  1  0.021600  0.165000  0.519200  1.0  0.1017
  H  H109  1  0.928200  0.239600  0.558600  1.0  0.0927
  H  H110  1  0.877900  0.231900  0.566100  1.0  0.1294
  H  H111  1  0.874900  0.228100  0.517500  1.0  0.1151
  H  H112  1  0.970800  0.245800  0.456000  1.0  0.0878
  H  H113  1  0.587000  0.209800  0.477000  1.0  0.081
  H  H114  1  0.647800  0.269400  0.444600  1.0  0.1262
  H  H115  1  0.594800  0.321800  0.440800  1.0  0.1287
  H  H116  1  0.539700  0.314300  0.460700  1.0  0.0866
  H  H117  1  0.679500  0.019100  0.488100  1.0  0.0914
  H  H118  1  0.630500  0.071100  0.476700  1.0  0.12
  H  H119  1  0.628700  0.126500  0.470900  1.0  0.1198
  H  H120  1  0.726400  0.075000  0.485200  1.0  0.0867
  H  H121  1  0.708500  0.217700  0.490300  1.0  0.087
  H  H122  1  0.759100  0.110700  0.503100  1.0  0.1202
  H  H123  1  0.801000  0.111400  0.518600  1.0  0.1172
  H  H124  1  0.794200  0.165000  0.521600  1.0  0.0982
  H  H125  1  0.773600  0.239600  0.428200  1.0  0.0919
  H  H126  1  0.824100  0.231900  0.377900  1.0  0.1276
  H  H127  1  0.879500  0.228100  0.374900  1.0  0.1155
  H  H128  1  0.827400  0.245800  0.470800  1.0  0.0899
  H  H129  1  0.226200  0.477000  0.209800  1.0  0.081
  H  H130  1  0.138200  0.444600  0.269400  1.0  0.1256
  H  H131  1  0.142600  0.440800  0.321800  1.0  0.1272
  H  H132  1  0.185300  0.460700  0.314300  1.0  0.0865
  H  H133  1  0.313300  0.488100  0.019100  1.0  0.0927
  H  H134  1  0.321700  0.476700  0.071100  1.0  0.1197
  H  H135  1  0.273900  0.470900  0.126500  1.0  0.1194
  H  H136  1  0.213400  0.485200  0.075000  1.0  0.0861
  H  H137  1  0.083500  0.490300  0.217700  1.0  0.0893
  H  H138  1  0.127100  0.503100  0.110700  1.0  0.1197
  H  H139  1  0.069000  0.518600  0.111400  1.0  0.1148
  H  H140  1  0.019200  0.521600  0.165000  1.0  0.1002
  H  H141  1  0.058600  0.428200  0.239600  1.0  0.0896
  H  H142  1  0.066100  0.377900  0.231900  1.0  0.1302
  H  H143  1  0.017500  0.374900  0.228100  1.0  0.1147
  H  H144  1  0.956000  0.470800  0.245800  1.0  0.0865
  H  H145  1  0.709800  0.087000  0.726200  1.0  0.0806
  H  H146  1  0.769400  0.147800  0.638200  1.0  0.1253
  H  H147  1  0.821800  0.094800  0.642600  1.0  0.1277
  H  H148  1  0.814300  0.039700  0.685300  1.0  0.0864
  H  H149  1  0.519100  0.179500  0.813300  1.0  0.0923
  H  H150  1  0.571100  0.130500  0.821700  1.0  0.1228
  H  H151  1  0.626500  0.128700  0.773900  1.0  0.1201
  H  H152  1  0.575000  0.226400  0.713400  1.0  0.087
  H  H153  1  0.717700  0.208500  0.583500  1.0  0.0875
  H  H154  1  0.610700  0.259100  0.627100  1.0  0.1202
  H  H155  1  0.611400  0.301000  0.569000  1.0  0.1177
  H  H156  1  0.665000  0.294200  0.519200  1.0  0.0982
  H  H157  1  0.739600  0.273600  0.558600  1.0  0.0923
  H  H158  1  0.731900  0.324100  0.566100  1.0  0.1281
  H  H159  1  0.728100  0.379500  0.517500  1.0  0.1156
  H  H160  1  0.745800  0.327400  0.456000  1.0  0.0891
  H  H161  1  0.977000  0.726200  0.087000  1.0  0.0811
  H  H162  1  0.944600  0.638200  0.147800  1.0  0.1252
  H  H163  1  0.940800  0.642600  0.094800  1.0  0.1273
  H  H164  1  0.960700  0.685300  0.039700  1.0  0.0878
  H  H165  1  0.988100  0.813300  0.179500  1.0  0.0915
  H  H166  1  0.976700  0.821700  0.130500  1.0  0.1232
  H  H167  1  0.970900  0.773900  0.128700  1.0  0.1198
  H  H168  1  0.985200  0.713400  0.226400  1.0  0.0867
  H  H169  1  0.990300  0.583500  0.208500  1.0  0.0883
  H  H170  1  0.003100  0.627100  0.259100  1.0  0.12
  H  H171  1  0.018600  0.569000  0.301000  1.0  0.1158
  H  H172  1  0.021600  0.519200  0.294200  1.0  0.1008
  H  H173  1  0.928200  0.558600  0.273600  1.0  0.09
  H  H174  1  0.877900  0.566100  0.324100  1.0  0.1305
  H  H175  1  0.874900  0.517500  0.379500  1.0  0.1144
  H  H176  1  0.970800  0.456000  0.327400  1.0  0.0882
  H  H177  1  0.587000  0.477000  0.726200  1.0  0.0823
  H  H178  1  0.647800  0.444600  0.638200  1.0  0.1259
  H  H179  1  0.594800  0.440800  0.642600  1.0  0.1276
  H  H180  1  0.539700  0.460700  0.685300  1.0  0.0879
  H  H181  1  0.679500  0.488100  0.813300  1.0  0.093
  H  H182  1  0.630500  0.476700  0.821700  1.0  0.1193
  H  H183  1  0.628700  0.470900  0.773900  1.0  0.1186
  H  H184  1  0.726400  0.485200  0.713400  1.0  0.0875
  H  H185  1  0.708500  0.490300  0.583500  1.0  0.0862
  H  H186  1  0.759100  0.503100  0.627100  1.0  0.1202
  H  H187  1  0.801000  0.518600  0.569000  1.0  0.1171
  H  H188  1  0.794200  0.521600  0.519200  1.0  0.0981
  H  H189  1  0.773600  0.428200  0.558600  1.0  0.0899
  H  H190  1  0.824100  0.377900  0.566100  1.0  0.1302
  H  H191  1  0.879500  0.374900  0.517500  1.0  0.1167
  H  H192  1  0.827400  0.470800  0.456000  1.0  0.0876
  H  H193  1  0.226200  0.209800  0.087000  1.0  0.0814
  H  H194  1  0.138200  0.269400  0.147800  1.0  0.1271
  H  H195  1  0.142600  0.321800  0.094800  1.0  0.1301
  H  H196  1  0.185300  0.314300  0.039700  1.0  0.0857
  H  H197  1  0.313300  0.019100  0.179500  1.0  0.0927
  H  H198  1  0.321700  0.071100  0.130500  1.0  0.1201
  H  H199  1  0.273900  0.126500  0.128700  1.0  0.119
  H  H200  1  0.213400  0.075000  0.226400  1.0  0.0866
  H  H201  1  0.083500  0.217700  0.208500  1.0  0.087
  H  H202  1  0.127100  0.110700  0.259100  1.0  0.1206
  H  H203  1  0.069000  0.111400  0.301000  1.0  0.118
  H  H204  1  0.019200  0.165000  0.294200  1.0  0.0991
  H  H205  1  0.058600  0.239600  0.273600  1.0  0.0905
  H  H206  1  0.066100  0.231900  0.324100  1.0  0.1285
  H  H207  1  0.017500  0.228100  0.379500  1.0  0.1163
  H  H208  1  0.956000  0.245800  0.327400  1.0  0.0868
  H  H209  1  0.709800  0.726200  0.477000  1.0  0.0806
  H  H210  1  0.769400  0.638200  0.444600  1.0  0.1258
  H  H211  1  0.821800  0.642600  0.440800  1.0  0.1282
  H  H212  1  0.814300  0.685300  0.460700  1.0  0.0869
  H  H213  1  0.519100  0.813300  0.488100  1.0  0.0916
  H  H214  1  0.571100  0.821700  0.476700  1.0  0.1216
  H  H215  1  0.626500  0.773900  0.470900  1.0  0.1198
  H  H216  1  0.575000  0.713400  0.485200  1.0  0.0867
  H  H217  1  0.717700  0.583500  0.490300  1.0  0.0867
  H  H218  1  0.610700  0.627100  0.503100  1.0  0.12
  H  H219  1  0.611400  0.569000  0.518600  1.0  0.1174
  H  H220  1  0.665000  0.519200  0.521600  1.0  0.0989
  H  H221  1  0.739600  0.558600  0.428200  1.0  0.0903
  H  H222  1  0.731900  0.566100  0.377900  1.0  0.1306
  H  H223  1  0.728100  0.517500  0.374900  1.0  0.1161
  H  H224  1  0.745800  0.456000  0.470800  1.0  0.0884
  H  H225  1  0.977000  0.087000  0.209800  1.0  0.0828
  H  H226  1  0.944600  0.147800  0.269400  1.0  0.125
  H  H227  1  0.940800  0.094800  0.321800  1.0  0.1284
  H  H228  1  0.960700  0.039700  0.314300  1.0  0.0872
  H  H229  1  0.988100  0.179500  0.019100  1.0  0.0939
  H  H230  1  0.976700  0.130500  0.071100  1.0  0.1207
  H  H231  1  0.970900  0.128700  0.126500  1.0  0.1185
  H  H232  1  0.985200  0.226400  0.075000  1.0  0.0878
  H  H233  1  0.990300  0.208500  0.217700  1.0  0.0874
  H  H234  1  0.003100  0.259100  0.110700  1.0  0.1206
  H  H235  1  0.018600  0.301000  0.111400  1.0  0.1168
  H  H236  1  0.021600  0.294200  0.165000  1.0  0.0981
  H  H237  1  0.928200  0.273600  0.239600  1.0  0.0909
  H  H238  1  0.877900  0.324100  0.231900  1.0  0.1289
  H  H239  1  0.874900  0.379500  0.228100  1.0  0.1156
  H  H240  1  0.970800  0.327400  0.245800  1.0  0.0878
  H  H241  1  0.273800  0.413000  0.290200  1.0  0.081
  H  H242  1  0.361800  0.352200  0.230600  1.0  0.1264
  H  H243  1  0.357400  0.405200  0.178200  1.0  0.1277
  H  H244  1  0.314700  0.460300  0.185700  1.0  0.0857
  H  H245  1  0.186700  0.320500  0.480900  1.0  0.0916
  H  H246  1  0.178300  0.369500  0.428900  1.0  0.1213
  H  H247  1  0.226100  0.371300  0.373500  1.0  0.1178
  H  H248  1  0.286600  0.273600  0.425000  1.0  0.0874
  H  H249  1  0.416500  0.291500  0.282300  1.0  0.0868
  H  H250  1  0.372900  0.240900  0.389300  1.0  0.1205
  H  H251  1  0.431000  0.199000  0.388600  1.0  0.1183
  H  H252  1  0.480800  0.205800  0.335000  1.0  0.1011
  H  H253  1  0.441400  0.226400  0.260400  1.0  0.0905
  H  H254  1  0.433900  0.175900  0.268100  1.0  0.1291
  H  H255  1  0.482500  0.120500  0.271900  1.0  0.1149
  H  H256  1  0.544000  0.172600  0.254200  1.0  0.0872
  H  H257  1  0.913000  0.773800  0.023000  1.0  0.0815
  H  H258  1  0.852200  0.861800  0.055400  1.0  0.1262
  H  H259  1  0.905200  0.857400  0.059200  1.0  0.1294
  H  H260  1  0.960300  0.814700  0.039300  1.0  0.0859
  H  H261  1  0.820500  0.686700  0.011900  1.0  0.0914
  H  H262  1  0.869500  0.678300  0.023300  1.0  0.1219
  H  H263  1  0.871300  0.726100  0.029100  1.0  0.1191
  H  H264  1  0.773600  0.786600  0.014800  1.0  0.0882
  H  H265  1  0.791500  0.916500  0.009700  1.0  0.0864
  H  H266  1  0.740900  0.872900  0.996900  1.0  0.1201
  H  H267  1  0.699000  0.931000  0.981400  1.0  0.1149
  H  H268  1  0.705800  0.980800  0.978400  1.0  0.0987
  H  H269  1  0.726400  0.941400  0.071800  1.0  0.0909
  H  H270  1  0.675900  0.933900  0.122100  1.0  0.1307
  H  H271  1  0.620500  0.982500  0.125100  1.0  0.1161
  H  H272  1  0.672600  0.044000  0.029200  1.0  0.0879
  H  H273  1  0.523000  0.290200  0.413000  1.0  0.0804
  H  H274  1  0.555400  0.230600  0.352200  1.0  0.1265
  H  H275  1  0.559200  0.178200  0.405200  1.0  0.1293
  H  H276  1  0.539300  0.185700  0.460300  1.0  0.0866
  H  H277  1  0.511900  0.480900  0.320500  1.0  0.0923
  H  H278  1  0.523300  0.428900  0.369500  1.0  0.119
  H  H279  1  0.529100  0.373500  0.371300  1.0  0.1191
  H  H280  1  0.514800  0.425000  0.273600  1.0  0.0895
  H  H281  1  0.509700  0.282300  0.291500  1.0  0.0878
  H  H282  1  0.496900  0.389300  0.240900  1.0  0.1198
  H  H283  1  0.481400  0.388600  0.199000  1.0  0.1165
  H  H284  1  0.478400  0.335000  0.205800  1.0  0.1013
  H  H285  1  0.571800  0.260400  0.226400  1.0  0.0913
  H  H286  1  0.622100  0.268100  0.175900  1.0  0.1287
  H  H287  1  0.625100  0.271900  0.120500  1.0  0.1147
  H  H288  1  0.529200  0.254200  0.172600  1.0  0.0879
  H  H289  1  0.790200  0.023000  0.773800  1.0  0.0801
  H  H290  1  0.730600  0.055400  0.861800  1.0  0.1258
  H  H291  1  0.678200  0.059200  0.857400  1.0  0.1276
  H  H292  1  0.685700  0.039300  0.814700  1.0  0.0862
  H  H293  1  0.980900  0.011900  0.686700  1.0  0.0922
  H  H294  1  0.928900  0.023300  0.678300  1.0  0.1189
  H  H295  1  0.873500  0.029100  0.726100  1.0  0.1199
  H  H296  1  0.925000  0.014800  0.786600  1.0  0.0888
  H  H297  1  0.782300  0.009700  0.916500  1.0  0.0874
  H  H298  1  0.889300  0.996900  0.872900  1.0  0.1197
  H  H299  1  0.888600  0.981400  0.931000  1.0  0.1159
  H  H300  1  0.835000  0.978400  0.980800  1.0  0.0972
  H  H301  1  0.760400  0.071800  0.941400  1.0  0.0913
  H  H302  1  0.768100  0.122100  0.933900  1.0  0.1302
  H  H303  1  0.771900  0.125100  0.982500  1.0  0.1147
  H  H304  1  0.754200  0.029200  0.044000  1.0  0.0886
  H  H305  1  0.790200  0.413000  0.023000  1.0  0.0813
  H  H306  1  0.730600  0.352200  0.055400  1.0  0.1252
  H  H307  1  0.678200  0.405200  0.059200  1.0  0.1275
  H  H308  1  0.685700  0.460300  0.039300  1.0  0.0856
  H  H309  1  0.980900  0.320500  0.011900  1.0  0.0918
  H  H310  1  0.928900  0.369500  0.023300  1.0  0.1211
  H  H311  1  0.873500  0.371300  0.029100  1.0  0.1202
  H  H312  1  0.925000  0.273600  0.014800  1.0  0.0863
  H  H313  1  0.782300  0.291500  0.009700  1.0  0.0877
  H  H314  1  0.889300  0.240900  0.996900  1.0  0.1203
  H  H315  1  0.888600  0.199000  0.981400  1.0  0.1184
  H  H316  1  0.835000  0.205800  0.978400  1.0  0.0981
  H  H317  1  0.760400  0.226400  0.071800  1.0  0.0919
  H  H318  1  0.768100  0.175900  0.122100  1.0  0.1277
  H  H319  1  0.771900  0.120500  0.125100  1.0  0.1153
  H  H320  1  0.754200  0.172600  0.029200  1.0  0.089
  H  H321  1  0.523000  0.773800  0.290200  1.0  0.0815
  H  H322  1  0.555400  0.861800  0.230600  1.0  0.1253
  H  H323  1  0.559200  0.857400  0.178200  1.0  0.1288
  H  H324  1  0.539300  0.814700  0.185700  1.0  0.0877
  H  H325  1  0.511900  0.686700  0.480900  1.0  0.0913
  H  H326  1  0.523300  0.678300  0.428900  1.0  0.1217
  H  H327  1  0.529100  0.726100  0.373500  1.0  0.1199
  H  H328  1  0.514800  0.786600  0.425000  1.0  0.087
  H  H329  1  0.509700  0.916500  0.282300  1.0  0.0889
  H  H330  1  0.496900  0.872900  0.389300  1.0  0.1209
  H  H331  1  0.481400  0.931000  0.388600  1.0  0.1158
  H  H332  1  0.478400  0.980800  0.335000  1.0  0.1009
  H  H333  1  0.571800  0.941400  0.260400  1.0  0.0904
  H  H334  1  0.622100  0.933900  0.268100  1.0  0.1304
  H  H335  1  0.625100  0.982500  0.271900  1.0  0.1147
  H  H336  1  0.529200  0.044000  0.254200  1.0  0.0882
  H  H337  1  0.913000  0.290200  0.773800  1.0  0.0814
  H  H338  1  0.852200  0.230600  0.861800  1.0  0.1267
  H  H339  1  0.905200  0.178200  0.857400  1.0  0.1282
  H  H340  1  0.960300  0.185700  0.814700  1.0  0.0859
  H  H341  1  0.820500  0.480900  0.686700  1.0  0.0913
  H  H342  1  0.869500  0.428900  0.678300  1.0  0.12
  H  H343  1  0.871300  0.373500  0.726100  1.0  0.1197
  H  H344  1  0.773600  0.425000  0.786600  1.0  0.0865
  H  H345  1  0.791500  0.282300  0.916500  1.0  0.0869
  H  H346  1  0.740900  0.389300  0.872900  1.0  0.1204
  H  H347  1  0.699000  0.388600  0.931000  1.0  0.1168
  H  H348  1  0.705800  0.335000  0.980800  1.0  0.099
  H  H349  1  0.726400  0.260400  0.941400  1.0  0.0911
  H  H350  1  0.675900  0.268100  0.933900  1.0  0.1276
  H  H351  1  0.620500  0.271900  0.982500  1.0  0.116
  H  H352  1  0.672600  0.254200  0.044000  1.0  0.0898
  H  H353  1  0.273800  0.023000  0.413000  1.0  0.0805
  H  H354  1  0.361800  0.055400  0.352200  1.0  0.1258
  H  H355  1  0.357400  0.059200  0.405200  1.0  0.1273
  H  H356  1  0.314700  0.039300  0.460300  1.0  0.086
  H  H357  1  0.186700  0.011900  0.320500  1.0  0.0922
  H  H358  1  0.178300  0.023300  0.369500  1.0  0.1199
  H  H359  1  0.226100  0.029100  0.371300  1.0  0.1193
  H  H360  1  0.286600  0.014800  0.273600  1.0  0.0866
  H  H361  1  0.416500  0.009700  0.291500  1.0  0.089
  H  H362  1  0.372900  0.996900  0.240900  1.0  0.1206
  H  H363  1  0.431000  0.981400  0.199000  1.0  0.1146
  H  H364  1  0.480800  0.978400  0.205800  1.0  0.0994
  H  H365  1  0.441400  0.071800  0.226400  1.0  0.0897
  H  H366  1  0.433900  0.122100  0.175900  1.0  0.1305
  H  H367  1  0.482500  0.125100  0.120500  1.0  0.1147
  H  H368  1  0.544000  0.029200  0.172600  1.0  0.0862
  H  H369  1  0.523000  0.413000  0.773800  1.0  0.0826
  H  H370  1  0.555400  0.352200  0.861800  1.0  0.125
  H  H371  1  0.559200  0.405200  0.857400  1.0  0.1279
  H  H372  1  0.539300  0.460300  0.814700  1.0  0.0871
  H  H373  1  0.511900  0.320500  0.686700  1.0  0.0935
  H  H374  1  0.523300  0.369500  0.678300  1.0  0.1221
  H  H375  1  0.529100  0.371300  0.726100  1.0  0.1188
  H  H376  1  0.514800  0.273600  0.786600  1.0  0.0879
  H  H377  1  0.509700  0.291500  0.916500  1.0  0.0872
  H  H378  1  0.496900  0.240900  0.872900  1.0  0.1207
  H  H379  1  0.481400  0.199000  0.931000  1.0  0.1175
  H  H380  1  0.478400  0.205800  0.980800  1.0  0.0985
  H  H381  1  0.571800  0.226400  0.941400  1.0  0.0909
  H  H382  1  0.622100  0.175900  0.933900  1.0  0.1288
  H  H383  1  0.625100  0.120500  0.982500  1.0  0.1157
  H  H384  1  0.529200  0.172600  0.044000  1.0  0.0874
  H  H385  1  0.790200  0.773800  0.413000  1.0  0.0809
  H  H386  1  0.730600  0.861800  0.352200  1.0  0.126
  H  H387  1  0.678200  0.857400  0.405200  1.0  0.1288
  H  H388  1  0.685700  0.814700  0.460300  1.0  0.0858
  H  H389  1  0.980900  0.686700  0.320500  1.0  0.0916
  H  H390  1  0.928900  0.678300  0.369500  1.0  0.1222
  H  H391  1  0.873500  0.726100  0.371300  1.0  0.1193
  H  H392  1  0.925000  0.786600  0.273600  1.0  0.087
  H  H393  1  0.782300  0.916500  0.291500  1.0  0.0873
  H  H394  1  0.889300  0.872900  0.240900  1.0  0.1203
  H  H395  1  0.888600  0.931000  0.199000  1.0  0.1177
  H  H396  1  0.835000  0.980800  0.205800  1.0  0.0994
  H  H397  1  0.760400  0.941400  0.226400  1.0  0.0906
  H  H398  1  0.768100  0.933900  0.175900  1.0  0.1301
  H  H399  1  0.771900  0.982500  0.120500  1.0  0.1162
  H  H400  1  0.754200  0.044000  0.172600  1.0  0.0881
  H  H401  1  0.273800  0.290200  0.023000  1.0  0.0812
  H  H402  1  0.361800  0.230600  0.055400  1.0  0.1273
  H  H403  1  0.357400  0.178200  0.059200  1.0  0.1289
  H  H404  1  0.314700  0.185700  0.039300  1.0  0.0864
  H  H405  1  0.186700  0.480900  0.011900  1.0  0.0927
  H  H406  1  0.178300  0.428900  0.023300  1.0  0.1201
  H  H407  1  0.226100  0.373500  0.029100  1.0  0.1187
  H  H408  1  0.286600  0.425000  0.014800  1.0  0.0868
  H  H409  1  0.416500  0.282300  0.009700  1.0  0.0871
  H  H410  1  0.372900  0.389300  0.996900  1.0  0.1212
  H  H411  1  0.431000  0.388600  0.981400  1.0  0.1167
  H  H412  1  0.480800  0.335000  0.978400  1.0  0.0999
  H  H413  1  0.441400  0.260400  0.071800  1.0  0.0901
  H  H414  1  0.433900  0.268100  0.122100  1.0  0.1287
  H  H415  1  0.482500  0.271900  0.125100  1.0  0.1161
  H  H416  1  0.544000  0.254200  0.029200  1.0  0.0867
  H  H417  1  0.913000  0.023000  0.290200  1.0  0.0823
  H  H418  1  0.852200  0.055400  0.230600  1.0  0.1262
  H  H419  1  0.905200  0.059200  0.178200  1.0  0.1276
  H  H420  1  0.960300  0.039300  0.185700  1.0  0.0868
  H  H421  1  0.820500  0.011900  0.480900  1.0  0.0923
  H  H422  1  0.869500  0.023300  0.428900  1.0  0.1194
  H  H423  1  0.871300  0.029100  0.373500  1.0  0.119
  H  H424  1  0.773600  0.014800  0.425000  1.0  0.0874
  H  H425  1  0.791500  0.009700  0.282300  1.0  0.0862
  H  H426  1  0.740900  0.996900  0.389300  1.0  0.1203
  H  H427  1  0.699000  0.981400  0.388600  1.0  0.1165
  H  H428  1  0.705800  0.978400  0.335000  1.0  0.0978
  H  H429  1  0.726400  0.071800  0.260400  1.0  0.09
  H  H430  1  0.675900  0.122100  0.268100  1.0  0.1294
  H  H431  1  0.620500  0.125100  0.271900  1.0  0.1167
  H  H432  1  0.672600  0.029200  0.254200  1.0  0.0873
  H  H433  1  0.413000  0.273800  0.790200  1.0  0.0814
  H  H434  1  0.352200  0.361800  0.730600  1.0  0.1264
  H  H435  1  0.405200  0.357400  0.678200  1.0  0.1289
  H  H436  1  0.460300  0.314700  0.685700  1.0  0.0858
  H  H437  1  0.320500  0.186700  0.980900  1.0  0.0916
  H  H438  1  0.369500  0.178300  0.928900  1.0  0.1232
  H  H439  1  0.371300  0.226100  0.873500  1.0  0.1192
  H  H440  1  0.273600  0.286600  0.925000  1.0  0.088
  H  H441  1  0.291500  0.416500  0.782300  1.0  0.0865
  H  H442  1  0.240900  0.372900  0.889300  1.0  0.1202
  H  H443  1  0.199000  0.431000  0.888600  1.0  0.1163
  H  H444  1  0.205800  0.480800  0.835000  1.0  0.0995
  H  H445  1  0.226400  0.441400  0.760400  1.0  0.0909
  H  H446  1  0.175900  0.433900  0.768100  1.0  0.1301
  H  H447  1  0.120500  0.482500  0.771900  1.0  0.1163
  H  H448  1  0.172600  0.544000  0.754200  1.0  0.0881
  H  H449  1  0.773800  0.913000  0.523000  1.0  0.0809
  H  H450  1  0.861800  0.852200  0.555400  1.0  0.1265
  H  H451  1  0.857400  0.905200  0.559200  1.0  0.1277
  H  H452  1  0.814700  0.960300  0.539300  1.0  0.0851
  H  H453  1  0.686700  0.820500  0.511900  1.0  0.0923
  H  H454  1  0.678300  0.869500  0.523300  1.0  0.121
  H  H455  1  0.726100  0.871300  0.529100  1.0  0.1172
  H  H456  1  0.786600  0.773600  0.514800  1.0  0.0876
  H  H457  1  0.916500  0.791500  0.509700  1.0  0.0863
  H  H458  1  0.872900  0.740900  0.496900  1.0  0.1202
  H  H459  1  0.931000  0.699000  0.481400  1.0  0.1167
  H  H460  1  0.980800  0.705800  0.478400  1.0  0.1007
  H  H461  1  0.941400  0.726400  0.571800  1.0  0.0905
  H  H462  1  0.933900  0.675900  0.622100  1.0  0.1287
  H  H463  1  0.982500  0.620500  0.625100  1.0  0.1146
  H  H464  1  0.044000  0.672600  0.529200  1.0  0.087
  H  H465  1  0.290200  0.523000  0.913000  1.0  0.0798
  H  H466  1  0.230600  0.555400  0.852200  1.0  0.1258
  H  H467  1  0.178200  0.559200  0.905200  1.0  0.1276
  H  H468  1  0.185700  0.539300  0.960300  1.0  0.0856
  H  H469  1  0.480900  0.511900  0.820500  1.0  0.0928
  H  H470  1  0.428900  0.523300  0.869500  1.0  0.1185
  H  H471  1  0.373500  0.529100  0.871300  1.0  0.12
  H  H472  1  0.425000  0.514800  0.773600  1.0  0.0893
  H  H473  1  0.282300  0.509700  0.791500  1.0  0.0869
  H  H474  1  0.389300  0.496900  0.740900  1.0  0.1197
  H  H475  1  0.388600  0.481400  0.699000  1.0  0.1161
  H  H476  1  0.335000  0.478400  0.705800  1.0  0.0986
  H  H477  1  0.260400  0.571800  0.726400  1.0  0.0917
  H  H478  1  0.268100  0.622100  0.675900  1.0  0.1293
  H  H479  1  0.271900  0.625100  0.620500  1.0  0.115
  H  H480  1  0.254200  0.529200  0.672600  1.0  0.0881
  H  H481  1  0.023000  0.790200  0.273800  1.0  0.0807
  H  H482  1  0.055400  0.730600  0.361800  1.0  0.1264
  H  H483  1  0.059200  0.678200  0.357400  1.0  0.1293
  H  H484  1  0.039300  0.685700  0.314700  1.0  0.0873
  H  H485  1  0.011900  0.980900  0.186700  1.0  0.0929
  H  H486  1  0.023300  0.928900  0.178300  1.0  0.1199
  H  H487  1  0.029100  0.873500  0.226100  1.0  0.1187
  H  H488  1  0.014800  0.925000  0.286600  1.0  0.0892
  H  H489  1  0.009700  0.782300  0.416500  1.0  0.0881
  H  H490  1  0.996900  0.889300  0.372900  1.0  0.1201
  H  H491  1  0.981400  0.888600  0.431000  1.0  0.1166
  H  H492  1  0.978400  0.835000  0.480800  1.0  0.1009
  H  H493  1  0.071800  0.760400  0.441400  1.0  0.0917
  H  H494  1  0.122100  0.768100  0.433900  1.0  0.1291
  H  H495  1  0.125100  0.771900  0.482500  1.0  0.1144
  H  H496  1  0.029200  0.754200  0.544000  1.0  0.0883
  H  H497  1  0.413000  0.790200  0.523000  1.0  0.0814
  H  H498  1  0.352200  0.730600  0.555400  1.0  0.1268
  H  H499  1  0.405200  0.678200  0.559200  1.0  0.1282
  H  H500  1  0.460300  0.685700  0.539300  1.0  0.0856
  H  H501  1  0.320500  0.980900  0.511900  1.0  0.0914
  H  H502  1  0.369500  0.928900  0.523300  1.0  0.1197
  H  H503  1  0.371300  0.873500  0.529100  1.0  0.12
  H  H504  1  0.273600  0.925000  0.514800  1.0  0.0863
  H  H505  1  0.291500  0.782300  0.509700  1.0  0.0869
  H  H506  1  0.240900  0.889300  0.496900  1.0  0.1204
  H  H507  1  0.199000  0.888600  0.481400  1.0  0.1177
  H  H508  1  0.205800  0.835000  0.478400  1.0  0.0979
  H  H509  1  0.226400  0.760400  0.571800  1.0  0.0918
  H  H510  1  0.175900  0.768100  0.622100  1.0  0.1278
  H  H511  1  0.120500  0.771900  0.625100  1.0  0.1161
  H  H512  1  0.172600  0.754200  0.529200  1.0  0.0895
  H  H513  1  0.773800  0.523000  0.790200  1.0  0.0805
  H  H514  1  0.861800  0.555400  0.730600  1.0  0.1256
  H  H515  1  0.857400  0.559200  0.678200  1.0  0.1279
  H  H516  1  0.814700  0.539300  0.685700  1.0  0.0875
  H  H517  1  0.686700  0.511900  0.980900  1.0  0.0921
  H  H518  1  0.678300  0.523300  0.928900  1.0  0.1203
  H  H519  1  0.726100  0.529100  0.873500  1.0  0.1203
  H  H520  1  0.786600  0.514800  0.925000  1.0  0.0863
  H  H521  1  0.916500  0.509700  0.782300  1.0  0.0894
  H  H522  1  0.872900  0.496900  0.889300  1.0  0.1206
  H  H523  1  0.931000  0.481400  0.888600  1.0  0.1157
  H  H524  1  0.980800  0.478400  0.835000  1.0  0.1003
  H  H525  1  0.941400  0.571800  0.760400  1.0  0.0896
  H  H526  1  0.933900  0.622100  0.768100  1.0  0.1304
  H  H527  1  0.982500  0.625100  0.771900  1.0  0.1142
  H  H528  1  0.044000  0.529200  0.754200  1.0  0.0864
  H  H529  1  0.290200  0.913000  0.273800  1.0  0.0812
  H  H530  1  0.230600  0.852200  0.361800  1.0  0.1252
  H  H531  1  0.178200  0.905200  0.357400  1.0  0.127
  H  H532  1  0.185700  0.960300  0.314700  1.0  0.0862
  H  H533  1  0.480900  0.820500  0.186700  1.0  0.0918
  H  H534  1  0.428900  0.869500  0.178300  1.0  0.1228
  H  H535  1  0.373500  0.871300  0.226100  1.0  0.1201
  H  H536  1  0.425000  0.773600  0.286600  1.0  0.0868
  H  H537  1  0.282300  0.791500  0.416500  1.0  0.0876
  H  H538  1  0.389300  0.740900  0.372900  1.0  0.1199
  H  H539  1  0.388600  0.699000  0.431000  1.0  0.1177
  H  H540  1  0.335000  0.705800  0.480800  1.0  0.098
  H  H541  1  0.260400  0.726400  0.441400  1.0  0.0922
  H  H542  1  0.268100  0.675900  0.433900  1.0  0.1274
  H  H543  1  0.271900  0.620500  0.482500  1.0  0.1152
  H  H544  1  0.254200  0.672600  0.544000  1.0  0.0893
  H  H545  1  0.023000  0.273800  0.913000  1.0  0.0814
  H  H546  1  0.055400  0.361800  0.852200  1.0  0.1255
  H  H547  1  0.059200  0.357400  0.905200  1.0  0.1279
  H  H548  1  0.039300  0.314700  0.960300  1.0  0.0871
  H  H549  1  0.011900  0.186700  0.820500  1.0  0.0923
  H  H550  1  0.023300  0.178300  0.869500  1.0  0.1233
  H  H551  1  0.029100  0.226100  0.871300  1.0  0.1193
  H  H552  1  0.014800  0.286600  0.773600  1.0  0.0871
  H  H553  1  0.009700  0.416500  0.791500  1.0  0.0887
  H  H554  1  0.996900  0.372900  0.740900  1.0  0.1205
  H  H555  1  0.981400  0.431000  0.699000  1.0  0.1147
  H  H556  1  0.978400  0.480800  0.705800  1.0  0.1003
  H  H557  1  0.071800  0.441400  0.726400  1.0  0.09
  H  H558  1  0.122100  0.433900  0.675900  1.0  0.1305
  H  H559  1  0.125100  0.482500  0.620500  1.0  0.115
  H  H560  1  0.029200  0.544000  0.672600  1.0  0.0879
  H  H561  1  0.413000  0.523000  0.273800  1.0  0.0829
  H  H562  1  0.352200  0.555400  0.361800  1.0  0.1261
  H  H563  1  0.405200  0.559200  0.357400  1.0  0.1281
  H  H564  1  0.460300  0.539300  0.314700  1.0  0.0869
  H  H565  1  0.320500  0.511900  0.186700  1.0  0.0937
  H  H566  1  0.369500  0.523300  0.178300  1.0  0.12
  H  H567  1  0.371300  0.529100  0.226100  1.0  0.1191
  H  H568  1  0.273600  0.514800  0.286600  1.0  0.0876
  H  H569  1  0.291500  0.509700  0.416500  1.0  0.0862
  H  H570  1  0.240900  0.496900  0.372900  1.0  0.1209
  H  H571  1  0.199000  0.481400  0.431000  1.0  0.1167
  H  H572  1  0.205800  0.478400  0.480800  1.0  0.0982
  H  H573  1  0.226400  0.571800  0.441400  1.0  0.0896
  H  H574  1  0.175900  0.622100  0.433900  1.0  0.1302
  H  H575  1  0.120500  0.625100  0.482500  1.0  0.1166
  H  H576  1  0.172600  0.529200  0.544000  1.0  0.0879
  H  H577  1  0.773800  0.790200  0.913000  1.0  0.081
  H  H578  1  0.861800  0.730600  0.852200  1.0  0.1269
  H  H579  1  0.857400  0.678200  0.905200  1.0  0.1291
  H  H580  1  0.814700  0.685700  0.960300  1.0  0.0866
  H  H581  1  0.686700  0.980900  0.820500  1.0  0.0932
  H  H582  1  0.678300  0.928900  0.869500  1.0  0.1199
  H  H583  1  0.726100  0.873500  0.871300  1.0  0.1189
  H  H584  1  0.786600  0.925000  0.773600  1.0  0.0865
  H  H585  1  0.916500  0.782300  0.791500  1.0  0.0874
  H  H586  1  0.872900  0.889300  0.740900  1.0  0.1212
  H  H587  1  0.931000  0.888600  0.699000  1.0  0.1175
  H  H588  1  0.980800  0.835000  0.705800  1.0  0.0995
  H  H589  1  0.941400  0.760400  0.726400  1.0  0.0895
  H  H590  1  0.933900  0.768100  0.675900  1.0  0.1289
  H  H591  1  0.982500  0.771900  0.620500  1.0  0.1161
  H  H592  1  0.044000  0.754200  0.672600  1.0  0.0872
  H  H593  1  0.290200  0.273800  0.523000  1.0  0.081
  H  H594  1  0.230600  0.361800  0.555400  1.0  0.126
  H  H595  1  0.178200  0.357400  0.559200  1.0  0.1287
  H  H596  1  0.185700  0.314700  0.539300  1.0  0.0857
  H  H597  1  0.480900  0.186700  0.511900  1.0  0.0922
  H  H598  1  0.428900  0.178300  0.523300  1.0  0.1216
  H  H599  1  0.373500  0.226100  0.529100  1.0  0.1192
  H  H600  1  0.425000  0.286600  0.514800  1.0  0.0867
  H  H601  1  0.282300  0.416500  0.509700  1.0  0.0869
  H  H602  1  0.389300  0.372900  0.496900  1.0  0.1202
  H  H603  1  0.388600  0.431000  0.481400  1.0  0.1176
  H  H604  1  0.335000  0.480800  0.478400  1.0  0.0992
  H  H605  1  0.260400  0.441400  0.571800  1.0  0.0913
  H  H606  1  0.268100  0.433900  0.622100  1.0  0.1307
  H  H607  1  0.271900  0.482500  0.625100  1.0  0.1163
  H  H608  1  0.254200  0.544000  0.529200  1.0  0.0877
  H  H609  1  0.023000  0.913000  0.790200  1.0  0.0821
  H  H610  1  0.055400  0.852200  0.730600  1.0  0.1253
  H  H611  1  0.059200  0.905200  0.678200  1.0  0.1279
  H  H612  1  0.039300  0.960300  0.685700  1.0  0.0875
  H  H613  1  0.011900  0.820500  0.980900  1.0  0.0934
  H  H614  1  0.023300  0.869500  0.928900  1.0  0.1208
  H  H615  1  0.029100  0.871300  0.873500  1.0  0.1185
  H  H616  1  0.014800  0.773600  0.925000  1.0  0.0876
  H  H617  1  0.009700  0.791500  0.782300  1.0  0.0874
  H  H618  1  0.996900  0.740900  0.889300  1.0  0.1205
  H  H619  1  0.981400  0.699000  0.888600  1.0  0.1181
  H  H620  1  0.978400  0.705800  0.835000  1.0  0.0978
  H  H621  1  0.071800  0.726400  0.760400  1.0  0.0902
  H  H622  1  0.122100  0.675900  0.768100  1.0  0.1286
  H  H623  1  0.125100  0.620500  0.771900  1.0  0.1157
  H  H624  1  0.029200  0.672600  0.754200  1.0  0.0869
  H  H625  1  0.726200  0.587000  0.709800  1.0  0.0812
  H  H626  1  0.638200  0.647800  0.769400  1.0  0.1259
  H  H627  1  0.642600  0.594800  0.821800  1.0  0.1281
  H  H628  1  0.685300  0.539700  0.814300  1.0  0.0864
  H  H629  1  0.813300  0.679500  0.519100  1.0  0.0931
  H  H630  1  0.821700  0.630500  0.571100  1.0  0.1211
  H  H631  1  0.773900  0.628700  0.626500  1.0  0.1174
  H  H632  1  0.713400  0.726400  0.575000  1.0  0.0878
  H  H633  1  0.583500  0.708500  0.717700  1.0  0.0861
  H  H634  1  0.627100  0.759100  0.610700  1.0  0.1198
  H  H635  1  0.569000  0.801000  0.611400  1.0  0.1163
  H  H636  1  0.519200  0.794200  0.665000  1.0  0.101
  H  H637  1  0.558600  0.773600  0.739600  1.0  0.0911
  H  H638  1  0.566100  0.824100  0.731900  1.0  0.1285
  H  H639  1  0.517500  0.879500  0.728100  1.0  0.1139
  H  H640  1  0.456000  0.827400  0.745800  1.0  0.0872
  H  H641  1  0.087000  0.226200  0.977000  1.0  0.081
  H  H642  1  0.147800  0.138200  0.944600  1.0  0.1264
  H  H643  1  0.094800  0.142600  0.940800  1.0  0.1279
  H  H644  1  0.039700  0.185300  0.960700  1.0  0.0866
  H  H645  1  0.179500  0.313300  0.988100  1.0  0.0916
  H  H646  1  0.130500  0.321700  0.976700  1.0  0.1215
  H  H647  1  0.128700  0.273900  0.970900  1.0  0.1193
  H  H648  1  0.226400  0.213400  0.985200  1.0  0.0874
  H  H649  1  0.208500  0.083500  0.990300  1.0  0.0859
  H  H650  1  0.259100  0.127100  0.003100  1.0  0.1197
  H  H651  1  0.301000  0.069000  0.018600  1.0  0.1155
  H  H652  1  0.294200  0.019200  0.021600  1.0  0.0981
  H  H653  1  0.273600  0.058600  0.928200  1.0  0.0905
  H  H654  1  0.324100  0.066100  0.877900  1.0  0.1305
  H  H655  1  0.379500  0.017500  0.874900  1.0  0.1158
  H  H656  1  0.327400  0.956000  0.970800  1.0  0.0886
  H  H657  1  0.477000  0.709800  0.587000  1.0  0.0807
  H  H658  1  0.444600  0.769400  0.647800  1.0  0.1264
  H  H659  1  0.440800  0.821800  0.594800  1.0  0.13
  H  H660  1  0.460700  0.814300  0.539700  1.0  0.0866
  H  H661  1  0.488100  0.519100  0.679500  1.0  0.0931
  H  H662  1  0.476700  0.571100  0.630500  1.0  0.1194
  H  H663  1  0.470900  0.626500  0.628700  1.0  0.1189
  H  H664  1  0.485200  0.575000  0.726400  1.0  0.089
  H  H665  1  0.490300  0.717700  0.708500  1.0  0.0881
  H  H666  1  0.503100  0.610700  0.759100  1.0  0.1199
  H  H667  1  0.518600  0.611400  0.801000  1.0  0.1178
  H  H668  1  0.521600  0.665000  0.794200  1.0  0.1009
  H  H669  1  0.428200  0.739600  0.773600  1.0  0.093
  H  H670  1  0.377900  0.731900  0.824100  1.0  0.1292
  H  H671  1  0.374900  0.728100  0.879500  1.0  0.115
  H  H672  1  0.470800  0.745800  0.827400  1.0  0.0883
  H  H673  1  0.209800  0.977000  0.226200  1.0  0.0795
  H  H674  1  0.269400  0.944600  0.138200  1.0  0.1259
  H  H675  1  0.321800  0.940800  0.142600  1.0  0.1277
  H  H676  1  0.314300  0.960700  0.185300  1.0  0.0866
  H  H677  1  0.019100  0.988100  0.313300  1.0  0.0927
  H  H678  1  0.071100  0.976700  0.321700  1.0  0.1184
  H  H679  1  0.126500  0.970900  0.273900  1.0  0.1202
  H  H680  1  0.075000  0.985200  0.213400  1.0  0.0896
  H  H681  1  0.217700  0.990300  0.083500  1.0  0.0872
  H  H682  1  0.110700  0.003100  0.127100  1.0  0.1196
  H  H683  1  0.111400  0.018600  0.069000  1.0  0.1154
  H  H684  1  0.165000  0.021600  0.019200  1.0  0.0984
  H  H685  1  0.239600  0.928200  0.058600  1.0  0.0912
  H  H686  1  0.231900  0.877900  0.066100  1.0  0.1301
  H  H687  1  0.228100  0.874900  0.017500  1.0  0.1151
  H  H688  1  0.245800  0.970800  0.956000  1.0  0.088
  H  H689  1  0.209800  0.587000  0.977000  1.0  0.0804
  H  H690  1  0.269400  0.647800  0.944600  1.0  0.1251
  H  H691  1  0.321800  0.594800  0.940800  1.0  0.127
  H  H692  1  0.314300  0.539700  0.960700  1.0  0.0867
  H  H693  1  0.019100  0.679500  0.988100  1.0  0.0927
  H  H694  1  0.071100  0.630500  0.976700  1.0  0.1213
  H  H695  1  0.126500  0.628700  0.970900  1.0  0.1199
  H  H696  1  0.075000  0.726400  0.985200  1.0  0.0868
  H  H697  1  0.217700  0.708500  0.990300  1.0  0.0874
  H  H698  1  0.110700  0.759100  0.003100  1.0  0.1203
  H  H699  1  0.111400  0.801000  0.018600  1.0  0.1172
  H  H700  1  0.165000  0.794200  0.021600  1.0  0.0991
  H  H701  1  0.239600  0.773600  0.928200  1.0  0.0922
  H  H702  1  0.231900  0.824100  0.877900  1.0  0.1277
  H  H703  1  0.228100  0.879500  0.874900  1.0  0.1153
  H  H704  1  0.245800  0.827400  0.970800  1.0  0.0894
  H  H705  1  0.477000  0.226200  0.709800  1.0  0.0813
  H  H706  1  0.444600  0.138200  0.769400  1.0  0.125
  H  H707  1  0.440800  0.142600  0.821800  1.0  0.1276
  H  H708  1  0.460700  0.185300  0.814300  1.0  0.0871
  H  H709  1  0.488100  0.313300  0.519100  1.0  0.0924
  H  H710  1  0.476700  0.321700  0.571100  1.0  0.1219
  H  H711  1  0.470900  0.273900  0.626500  1.0  0.1191
  H  H712  1  0.485200  0.213400  0.575000  1.0  0.0868
  H  H713  1  0.490300  0.083500  0.717700  1.0  0.088
  H  H714  1  0.503100  0.127100  0.610700  1.0  0.1202
  H  H715  1  0.518600  0.069000  0.611400  1.0  0.115
  H  H716  1  0.521600  0.019200  0.665000  1.0  0.1005
  H  H717  1  0.428200  0.058600  0.739600  1.0  0.0899
  H  H718  1  0.377900  0.066100  0.731900  1.0  0.1306
  H  H719  1  0.374900  0.017500  0.728100  1.0  0.1151
  H  H720  1  0.470800  0.956000  0.745800  1.0  0.088
  H  H721  1  0.087000  0.709800  0.226200  1.0  0.0812
  H  H722  1  0.147800  0.769400  0.138200  1.0  0.1263
  H  H723  1  0.094800  0.821800  0.142600  1.0  0.1293
  H  H724  1  0.039700  0.814300  0.185300  1.0  0.0862
  H  H725  1  0.179500  0.519100  0.313300  1.0  0.0924
  H  H726  1  0.130500  0.571100  0.321700  1.0  0.1199
  H  H727  1  0.128700  0.626500  0.273900  1.0  0.1199
  H  H728  1  0.226400  0.575000  0.213400  1.0  0.0867
  H  H729  1  0.208500  0.717700  0.083500  1.0  0.087
  H  H730  1  0.259100  0.610700  0.127100  1.0  0.1201
  H  H731  1  0.301000  0.611400  0.069000  1.0  0.1175
  H  H732  1  0.294200  0.665000  0.019200  1.0  0.0984
  H  H733  1  0.273600  0.739600  0.058600  1.0  0.0916
  H  H734  1  0.324100  0.731900  0.066100  1.0  0.1278
  H  H735  1  0.379500  0.728100  0.017500  1.0  0.1159
  H  H736  1  0.327400  0.745800  0.956000  1.0  0.0899
  H  H737  1  0.726200  0.977000  0.587000  1.0  0.0808
  H  H738  1  0.638200  0.944600  0.647800  1.0  0.1258
  H  H739  1  0.642600  0.940800  0.594800  1.0  0.1272
  H  H740  1  0.685300  0.960700  0.539700  1.0  0.0868
  H  H741  1  0.813300  0.988100  0.679500  1.0  0.0927
  H  H742  1  0.821700  0.976700  0.630500  1.0  0.1198
  H  H743  1  0.773900  0.970900  0.628700  1.0  0.1202
  H  H744  1  0.713400  0.985200  0.726400  1.0  0.0862
  H  H745  1  0.583500  0.990300  0.708500  1.0  0.0899
  H  H746  1  0.627100  0.003100  0.759100  1.0  0.12
  H  H747  1  0.569000  0.018600  0.801000  1.0  0.1157
  H  H748  1  0.519200  0.021600  0.794200  1.0  0.1002
  H  H749  1  0.558600  0.928200  0.773600  1.0  0.0904
  H  H750  1  0.566100  0.877900  0.824100  1.0  0.1301
  H  H751  1  0.517500  0.874900  0.879500  1.0  0.1143
  H  H752  1  0.456000  0.970800  0.827400  1.0  0.0867
  H  H753  1  0.477000  0.587000  0.226200  1.0  0.0819
  H  H754  1  0.444600  0.647800  0.138200  1.0  0.1252
  H  H755  1  0.440800  0.594800  0.142600  1.0  0.1278
  H  H756  1  0.460700  0.539700  0.185300  1.0  0.0877
  H  H757  1  0.488100  0.679500  0.313300  1.0  0.0939
  H  H758  1  0.476700  0.630500  0.321700  1.0  0.1214
  H  H759  1  0.470900  0.628700  0.273900  1.0  0.1179
  H  H760  1  0.485200  0.726400  0.213400  1.0  0.0876
  H  H761  1  0.490300  0.708500  0.083500  1.0  0.0874
  H  H762  1  0.503100  0.759100  0.127100  1.0  0.12
  H  H763  1  0.518600  0.801000  0.069000  1.0  0.1171
  H  H764  1  0.521600  0.794200  0.019200  1.0  0.098
  H  H765  1  0.428200  0.773600  0.058600  1.0  0.0909
  H  H766  1  0.377900  0.824100  0.066100  1.0  0.1293
  H  H767  1  0.374900  0.879500  0.017500  1.0  0.1157
  H  H768  1  0.470800  0.827400  0.956000  1.0  0.0873
  H  H769  1  0.209800  0.226200  0.587000  1.0  0.0807
  H  H770  1  0.269400  0.138200  0.647800  1.0  0.1259
  H  H771  1  0.321800  0.142600  0.594800  1.0  0.1282
  H  H772  1  0.314300  0.185300  0.539700  1.0  0.0867
  H  H773  1  0.019100  0.313300  0.679500  1.0  0.0921
  H  H774  1  0.071100  0.321700  0.630500  1.0  0.1222
  H  H775  1  0.126500  0.273900  0.628700  1.0  0.1199
  H  H776  1  0.075000  0.213400  0.726400  1.0  0.0868
  H  H777  1  0.217700  0.083500  0.708500  1.0  0.0865
  H  H778  1  0.110700  0.127100  0.759100  1.0  0.1201
  H  H779  1  0.111400  0.069000  0.801000  1.0  0.1168
  H  H780  1  0.165000  0.019200  0.794200  1.0  0.0991
  H  H781  1  0.239600  0.058600  0.773600  1.0  0.0901
  H  H782  1  0.231900  0.066100  0.824100  1.0  0.1303
  H  H783  1  0.228100  0.017500  0.879500  1.0  0.1163
  H  H784  1  0.245800  0.956000  0.827400  1.0  0.0878
  H  H785  1  0.726200  0.709800  0.977000  1.0  0.0814
  H  H786  1  0.638200  0.769400  0.944600  1.0  0.127
  H  H787  1  0.642600  0.821800  0.940800  1.0  0.1303
  H  H788  1  0.685300  0.814300  0.960700  1.0  0.0858
  H  H789  1  0.813300  0.519100  0.988100  1.0  0.093
  H  H790  1  0.821700  0.571100  0.976700  1.0  0.1201
  H  H791  1  0.773900  0.626500  0.970900  1.0  0.1187
  H  H792  1  0.713400  0.575000  0.985200  1.0  0.087
  H  H793  1  0.583500  0.717700  0.990300  1.0  0.0871
  H  H794  1  0.627100  0.610700  0.003100  1.0  0.1205
  H  H795  1  0.569000  0.611400  0.018600  1.0  0.1181
  H  H796  1  0.519200  0.665000  0.021600  1.0  0.0992
  H  H797  1  0.558600  0.739600  0.928200  1.0  0.0908
  H  H798  1  0.566100  0.731900  0.877900  1.0  0.1285
  H  H799  1  0.517500  0.728100  0.874900  1.0  0.1163
  H  H800  1  0.456000  0.745800  0.970800  1.0  0.0869
  H  H801  1  0.087000  0.977000  0.709800  1.0  0.0831
  H  H802  1  0.147800  0.944600  0.769400  1.0  0.1261
  H  H803  1  0.094800  0.940800  0.821800  1.0  0.128
  H  H804  1  0.039700  0.960700  0.814300  1.0  0.0873
  H  H805  1  0.179500  0.988100  0.519100  1.0  0.0937
  H  H806  1  0.130500  0.976700  0.571100  1.0  0.1192
  H  H807  1  0.128700  0.970900  0.626500  1.0  0.1191
  H  H808  1  0.226400  0.985200  0.575000  1.0  0.088
  H  H809  1  0.208500  0.990300  0.717700  1.0  0.0863
  H  H810  1  0.259100  0.003100  0.610700  1.0  0.1207
  H  H811  1  0.301000  0.018600  0.611400  1.0  0.1165
  H  H812  1  0.294200  0.021600  0.665000  1.0  0.0982
  H  H813  1  0.273600  0.928200  0.739600  1.0  0.0905
  H  H814  1  0.324100  0.877900  0.731900  1.0  0.1289
  H  H815  1  0.379500  0.874900  0.728100  1.0  0.1166
  H  H816  1  0.327400  0.970800  0.745800  1.0  0.0878
  C  C817  1  0.730270  0.836090  0.959730  1.0  0.2779
  C  C818  1  0.798000  0.445280  0.204320  1.0  0.2769
  C  C819  1  0.588370  0.708170  0.232590  1.0  0.1826
  C  C820  1  0.621610  0.682330  0.234050  1.0  -0.1144
  C  C821  1  0.625060  0.656520  0.267500  1.0  -0.0662
  C  C822  1  0.593820  0.658700  0.298120  1.0  -0.1582
  C  C823  1  0.561090  0.684950  0.293310  1.0  0.177
  C  C824  1  0.679180  0.793880  0.041560  1.0  0.1716
  C  C825  1  0.649810  0.799090  0.072410  1.0  -0.1426
  C  C826  1  0.648900  0.771060  0.104960  1.0  -0.0278
  C  C827  1  0.677720  0.738500  0.106080  1.0  -0.1876
  C  C828  1  0.706510  0.735490  0.074050  1.0  0.1768
  C  C829  1  0.677460  0.706620  0.139780  1.0  0.4138
  C  C830  1  0.703370  0.646810  0.167150  1.0  0.4209
  C  C831  1  0.652170  0.680550  0.199890  1.0  0.2843
  C  C832  1  0.727940  0.580500  0.195920  1.0  0.1889
  C  C833  1  0.730380  0.611320  0.165180  1.0  -0.2093
  C  C834  1  0.757430  0.606890  0.132670  1.0  -0.0249
  C  C835  1  0.781580  0.572660  0.133000  1.0  -0.1253
  C  C836  1  0.777690  0.542970  0.165270  1.0  0.1463
  C  C837  1  0.795600  0.538320  0.239380  1.0  0.1627
  C  C838  1  0.825520  0.543280  0.234300  1.0  -0.1809
  C  C839  1  0.857940  0.514580  0.232540  1.0  -0.035
  C  C840  1  0.858410  0.481490  0.237370  1.0  -0.1813
  C  C841  1  0.826780  0.478720  0.242800  1.0  0.2027
  C  C842  1  0.891900  0.449620  0.236700  1.0  0.4306
  C  C843  1  0.336090  0.230270  0.473910  1.0  0.2805
  C  C844  1  0.945280  0.298000  0.552400  1.0  0.2758
  C  C845  1  0.208170  0.088370  0.470870  1.0  0.1816
  C  C846  1  0.182330  0.121610  0.462010  1.0  -0.1143
  C  C847  1  0.156520  0.125060  0.450920  1.0  -0.0655
  C  C848  1  0.158700  0.093820  0.449360  1.0  -0.1555
  C  C849  1  0.184950  0.061090  0.460650  1.0  0.1759
  C  C850  1  0.293880  0.179180  0.485380  1.0  0.1738
  C  C851  1  0.299090  0.149810  0.478690  1.0  -0.1414
  C  C852  1  0.271060  0.148900  0.475080  1.0  -0.0287
  C  C853  1  0.238500  0.177720  0.477700  1.0  -0.1868
  C  C854  1  0.235490  0.206510  0.483950  1.0  0.1764
  C  C855  1  0.206620  0.177460  0.476140  1.0  0.4137
  C  C856  1  0.146810  0.203370  0.482670  1.0  0.4212
  C  C857  1  0.180550  0.152170  0.467390  1.0  0.2848
  C  C858  1  0.080500  0.227940  0.495640  1.0  0.185
  C  C859  1  0.111320  0.230380  0.493120  1.0  -0.2104
  C  C860  1  0.106890  0.257430  0.503010  1.0  -0.0243
  C  C861  1  0.072660  0.281580  0.512760  1.0  -0.1292
  C  C862  1  0.042970  0.277690  0.514070  1.0  0.1452
  C  C863  1  0.038320  0.295600  0.426700  1.0  0.1662
  C  C864  1  0.043280  0.325520  0.396900  1.0  -0.1779
  C  C865  1  0.014580  0.357940  0.394940  1.0  -0.0348
  C  C866  1  0.981490  0.358410  0.422730  1.0  -0.1811
  C  C867  1  0.978720  0.326780  0.451700  1.0  0.2054
  C  C868  1  0.949620  0.391900  0.421780  1.0  0.4296
  C  C869  1  0.459730  0.473910  0.230270  1.0  0.2752
  C  C870  1  0.704320  0.552400  0.298000  1.0  0.2762
  C  C871  1  0.732590  0.470870  0.088370  1.0  0.1832
  C  C872  1  0.734050  0.462010  0.121610  1.0  -0.1113
  C  C873  1  0.767500  0.450920  0.125060  1.0  -0.0646
  C  C874  1  0.798120  0.449360  0.093820  1.0  -0.156
  C  C875  1  0.793310  0.460650  0.061090  1.0  0.1786
  C  C876  1  0.541560  0.485380  0.179180  1.0  0.1734
  C  C877  1  0.572410  0.478690  0.149810  1.0  -0.1372
  C  C878  1  0.604960  0.475080  0.148900  1.0  -0.0263
  C  C879  1  0.606080  0.477700  0.177720  1.0  -0.188
  C  C880  1  0.574050  0.483950  0.206510  1.0  0.1772
  C  C881  1  0.639780  0.476140  0.177460  1.0  0.4141
  C  C882  1  0.667150  0.482670  0.203370  1.0  0.4208
  C  C883  1  0.699890  0.467390  0.152170  1.0  0.2844
  C  C884  1  0.695920  0.495640  0.227940  1.0  0.189
  C  C885  1  0.665180  0.493120  0.230380  1.0  -0.2126
  C  C886  1  0.632670  0.503010  0.257430  1.0  -0.0242
  C  C887  1  0.633000  0.512760  0.281580  1.0  -0.1279
  C  C888  1  0.665270  0.514070  0.277690  1.0  0.1482
  C  C889  1  0.739380  0.426700  0.295600  1.0  0.1638
  C  C890  1  0.734300  0.396900  0.325520  1.0  -0.183
  C  C891  1  0.732540  0.394940  0.357940  1.0  -0.038
  C  C892  1  0.737370  0.422730  0.358410  1.0  -0.1817
  C  C893  1  0.742800  0.451700  0.326780  1.0  0.2045
  C  C894  1  0.736700  0.421780  0.391900  1.0  0.4287
  C  C895  1  0.973910  0.959730  0.836090  1.0  0.2756
  C  C896  1  0.052400  0.204320  0.445280  1.0  0.2763
  C  C897  1  0.970870  0.232590  0.708170  1.0  0.1845
  C  C898  1  0.962010  0.234050  0.682330  1.0  -0.114
  C  C899  1  0.950920  0.267500  0.656520  1.0  -0.0672
  C  C900  1  0.949360  0.298120  0.658700  1.0  -0.1561
  C  C901  1  0.960650  0.293310  0.684950  1.0  0.1775
  C  C902  1  0.985380  0.041560  0.793880  1.0  0.1722
  C  C903  1  0.978690  0.072410  0.799090  1.0  -0.1404
  C  C904  1  0.975080  0.104960  0.771060  1.0  -0.0265
  C  C905  1  0.977700  0.106080  0.738500  1.0  -0.1862
  C  C906  1  0.983950  0.074050  0.735490  1.0  0.1781
  C  C907  1  0.976140  0.139780  0.706620  1.0  0.414
  C  C908  1  0.982670  0.167150  0.646810  1.0  0.42
  C  C909  1  0.967390  0.199890  0.680550  1.0  0.2839
  C  C910  1  0.995640  0.195920  0.580500  1.0  0.1896
  C  C911  1  0.993120  0.165180  0.611320  1.0  -0.2112
  C  C912  1  0.003010  0.132670  0.606890  1.0  -0.0229
  C  C913  1  0.012760  0.133000  0.572660  1.0  -0.1242
  C  C914  1  0.014070  0.165270  0.542970  1.0  0.1474
  C  C915  1  0.926700  0.239380  0.538320  1.0  0.1678
  C  C916  1  0.896900  0.234300  0.543280  1.0  -0.1813
  C  C917  1  0.894940  0.232540  0.514580  1.0  -0.0366
  C  C918  1  0.922730  0.237370  0.481490  1.0  -0.1821
  C  C919  1  0.951700  0.242800  0.478720  1.0  0.2035
  C  C920  1  0.921780  0.236700  0.449620  1.0  0.4297
  C  C921  1  0.730270  0.959730  0.473910  1.0  0.2764
  C  C922  1  0.798000  0.204320  0.552400  1.0  0.2779
  C  C923  1  0.588370  0.232590  0.470870  1.0  0.1821
  C  C924  1  0.621610  0.234050  0.462010  1.0  -0.1144
  C  C925  1  0.625060  0.267500  0.450920  1.0  -0.0636
  C  C926  1  0.593820  0.298120  0.449360  1.0  -0.1557
  C  C927  1  0.561090  0.293310  0.460650  1.0  0.175
  C  C928  1  0.679180  0.041560  0.485380  1.0  0.1742
  C  C929  1  0.649810  0.072410  0.478690  1.0  -0.142
  C  C930  1  0.648900  0.104960  0.475080  1.0  -0.0258
  C  C931  1  0.677720  0.106080  0.477700  1.0  -0.1861
  C  C932  1  0.706510  0.074050  0.483950  1.0  0.1769
  C  C933  1  0.677460  0.139780  0.476140  1.0  0.4137
  C  C934  1  0.703370  0.167150  0.482670  1.0  0.4197
  C  C935  1  0.652170  0.199890  0.467390  1.0  0.2841
  C  C936  1  0.727940  0.195920  0.495640  1.0  0.1874
  C  C937  1  0.730380  0.165180  0.493120  1.0  -0.2107
  C  C938  1  0.757430  0.132670  0.503010  1.0  -0.0243
  C  C939  1  0.781580  0.133000  0.512760  1.0  -0.1252
  C  C940  1  0.777690  0.165270  0.514070  1.0  0.1464
  C  C941  1  0.795600  0.239380  0.426700  1.0  0.1641
  C  C942  1  0.825520  0.234300  0.396900  1.0  -0.1766
  C  C943  1  0.857940  0.232540  0.394940  1.0  -0.0378
  C  C944  1  0.858410  0.237370  0.422730  1.0  -0.1819
  C  C945  1  0.826780  0.242800  0.451700  1.0  0.2033
  C  C946  1  0.891900  0.236700  0.421780  1.0  0.4303
  C  C947  1  0.336090  0.473910  0.959730  1.0  0.2791
  C  C948  1  0.945280  0.552400  0.204320  1.0  0.2769
  C  C949  1  0.208170  0.470870  0.232590  1.0  0.1817
  C  C950  1  0.182330  0.462010  0.234050  1.0  -0.1138
  C  C951  1  0.156520  0.450920  0.267500  1.0  -0.0638
  C  C952  1  0.158700  0.449360  0.298120  1.0  -0.158
  C  C953  1  0.184950  0.460650  0.293310  1.0  0.1791
  C  C954  1  0.293880  0.485380  0.041560  1.0  0.1782
  C  C955  1  0.299090  0.478690  0.072410  1.0  -0.1382
  C  C956  1  0.271060  0.475080  0.104960  1.0  -0.0254
  C  C957  1  0.238500  0.477700  0.106080  1.0  -0.1851
  C  C958  1  0.235490  0.483950  0.074050  1.0  0.1779
  C  C959  1  0.206620  0.476140  0.139780  1.0  0.4141
  C  C960  1  0.146810  0.482670  0.167150  1.0  0.4211
  C  C961  1  0.180550  0.467390  0.199890  1.0  0.2847
  C  C962  1  0.080500  0.495640  0.195920  1.0  0.1881
  C  C963  1  0.111320  0.493120  0.165180  1.0  -0.2098
  C  C964  1  0.106890  0.503010  0.132670  1.0  -0.026
  C  C965  1  0.072660  0.512760  0.133000  1.0  -0.1225
  C  C966  1  0.042970  0.514070  0.165270  1.0  0.1476
  C  C967  1  0.038320  0.426700  0.239380  1.0  0.1662
  C  C968  1  0.043280  0.396900  0.234300  1.0  -0.1819
  C  C969  1  0.014580  0.394940  0.232540  1.0  -0.0379
  C  C970  1  0.981490  0.422730  0.237370  1.0  -0.1817
  C  C971  1  0.978720  0.451700  0.242800  1.0  0.2041
  C  C972  1  0.949620  0.421780  0.236700  1.0  0.4293
  C  C973  1  0.459730  0.230270  0.836090  1.0  0.2762
  C  C974  1  0.704320  0.298000  0.445280  1.0  0.2742
  C  C975  1  0.732590  0.088370  0.708170  1.0  0.1829
  C  C976  1  0.734050  0.121610  0.682330  1.0  -0.1148
  C  C977  1  0.767500  0.125060  0.656520  1.0  -0.0642
  C  C978  1  0.798120  0.093820  0.658700  1.0  -0.1525
  C  C979  1  0.793310  0.061090  0.684950  1.0  0.1763
  C  C980  1  0.541560  0.179180  0.793880  1.0  0.1733
  C  C981  1  0.572410  0.149810  0.799090  1.0  -0.1479
  C  C982  1  0.604960  0.148900  0.771060  1.0  -0.0263
  C  C983  1  0.606080  0.177720  0.738500  1.0  -0.1877
  C  C984  1  0.574050  0.206510  0.735490  1.0  0.1756
  C  C985  1  0.639780  0.177460  0.706620  1.0  0.4141
  C  C986  1  0.667150  0.203370  0.646810  1.0  0.4206
  C  C987  1  0.699890  0.152170  0.680550  1.0  0.2848
  C  C988  1  0.695920  0.227940  0.580500  1.0  0.1862
  C  C989  1  0.665180  0.230380  0.611320  1.0  -0.2121
  C  C990  1  0.632670  0.257430  0.606890  1.0  -0.0239
  C  C991  1  0.633000  0.281580  0.572660  1.0  -0.1291
  C  C992  1  0.665270  0.277690  0.542970  1.0  0.1487
  C  C993  1  0.739380  0.295600  0.538320  1.0  0.1636
  C  C994  1  0.734300  0.325520  0.543280  1.0  -0.1783
  C  C995  1  0.732540  0.357940  0.514580  1.0  -0.0345
  C  C996  1  0.737370  0.358410  0.481490  1.0  -0.1807
  C  C997  1  0.742800  0.326780  0.478720  1.0  0.2032
  C  C998  1  0.736700  0.391900  0.449620  1.0  0.4296
  C  C999  1  0.973910  0.836090  0.230270  1.0  0.2778
  C  C1000  1  0.052400  0.445280  0.298000  1.0  0.276
  C  C1001  1  0.970870  0.708170  0.088370  1.0  0.18
  C  C1002  1  0.962010  0.682330  0.121610  1.0  -0.1142
  C  C1003  1  0.950920  0.656520  0.125060  1.0  -0.0649
  C  C1004  1  0.949360  0.658700  0.093820  1.0  -0.1584
  C  C1005  1  0.960650  0.684950  0.061090  1.0  0.1748
  C  C1006  1  0.985380  0.793880  0.179180  1.0  0.1758
  C  C1007  1  0.978690  0.799090  0.149810  1.0  -0.1423
  C  C1008  1  0.975080  0.771060  0.148900  1.0  -0.0255
  C  C1009  1  0.977700  0.738500  0.177720  1.0  -0.188
  C  C1010  1  0.983950  0.735490  0.206510  1.0  0.1773
  C  C1011  1  0.976140  0.706620  0.177460  1.0  0.415
  C  C1012  1  0.982670  0.646810  0.203370  1.0  0.421
  C  C1013  1  0.967390  0.680550  0.152170  1.0  0.2837
  C  C1014  1  0.995640  0.580500  0.227940  1.0  0.1874
  C  C1015  1  0.993120  0.611320  0.230380  1.0  -0.2095
  C  C1016  1  0.003010  0.606890  0.257430  1.0  -0.0256
  C  C1017  1  0.012760  0.572660  0.281580  1.0  -0.123
  C  C1018  1  0.014070  0.542970  0.277690  1.0  0.1459
  C  C1019  1  0.926700  0.538320  0.295600  1.0  0.1651
  C  C1020  1  0.896900  0.543280  0.325520  1.0  -0.1789
  C  C1021  1  0.894940  0.514580  0.357940  1.0  -0.0367
  C  C1022  1  0.922730  0.481490  0.358410  1.0  -0.1828
  C  C1023  1  0.951700  0.478720  0.326780  1.0  0.203
  C  C1024  1  0.921780  0.449620  0.391900  1.0  0.4293
  C  C1025  1  0.730270  0.473910  0.836090  1.0  0.2744
  C  C1026  1  0.798000  0.552400  0.445280  1.0  0.2827
  C  C1027  1  0.588370  0.470870  0.708170  1.0  0.1839
  C  C1028  1  0.621610  0.462010  0.682330  1.0  -0.1151
  C  C1029  1  0.625060  0.450920  0.656520  1.0  -0.0654
  C  C1030  1  0.593820  0.449360  0.658700  1.0  -0.1515
  C  C1031  1  0.561090  0.460650  0.684950  1.0  0.1764
  C  C1032  1  0.679180  0.485380  0.793880  1.0  0.1773
  C  C1033  1  0.649810  0.478690  0.799090  1.0  -0.1426
  C  C1034  1  0.648900  0.475080  0.771060  1.0  -0.0261
  C  C1035  1  0.677720  0.477700  0.738500  1.0  -0.1889
  C  C1036  1  0.706510  0.483950  0.735490  1.0  0.1772
  C  C1037  1  0.677460  0.476140  0.706620  1.0  0.4138
  C  C1038  1  0.703370  0.482670  0.646810  1.0  0.4198
  C  C1039  1  0.652170  0.467390  0.680550  1.0  0.2847
  C  C1040  1  0.727940  0.495640  0.580500  1.0  0.1877
  C  C1041  1  0.730380  0.493120  0.611320  1.0  -0.2074
  C  C1042  1  0.757430  0.503010  0.606890  1.0  -0.0256
  C  C1043  1  0.781580  0.512760  0.572660  1.0  -0.123
  C  C1044  1  0.777690  0.514070  0.542970  1.0  0.1532
  C  C1045  1  0.795600  0.426700  0.538320  1.0  0.1645
  C  C1046  1  0.825520  0.396900  0.543280  1.0  -0.1839
  C  C1047  1  0.857940  0.394940  0.514580  1.0  -0.0365
  C  C1048  1  0.858410  0.422730  0.481490  1.0  -0.1826
  C  C1049  1  0.826780  0.451700  0.478720  1.0  0.2028
  C  C1050  1  0.891900  0.421780  0.449620  1.0  0.4296
  C  C1051  1  0.336090  0.959730  0.230270  1.0  0.2787
  C  C1052  1  0.945280  0.204320  0.298000  1.0  0.2829
  C  C1053  1  0.208170  0.232590  0.088370  1.0  0.1806
  C  C1054  1  0.182330  0.234050  0.121610  1.0  -0.1131
  C  C1055  1  0.156520  0.267500  0.125060  1.0  -0.0652
  C  C1056  1  0.158700  0.298120  0.093820  1.0  -0.1587
  C  C1057  1  0.184950  0.293310  0.061090  1.0  0.1748
  C  C1058  1  0.293880  0.041560  0.179180  1.0  0.1752
  C  C1059  1  0.299090  0.072410  0.149810  1.0  -0.1377
  C  C1060  1  0.271060  0.104960  0.148900  1.0  -0.0262
  C  C1061  1  0.238500  0.106080  0.177720  1.0  -0.1875
  C  C1062  1  0.235490  0.074050  0.206510  1.0  0.1775
  C  C1063  1  0.206620  0.139780  0.177460  1.0  0.4136
  C  C1064  1  0.146810  0.167150  0.203370  1.0  0.4207
  C  C1065  1  0.180550  0.199890  0.152170  1.0  0.2845
  C  C1066  1  0.080500  0.195920  0.227940  1.0  0.1873
  C  C1067  1  0.111320  0.165180  0.230380  1.0  -0.2109
  C  C1068  1  0.106890  0.132670  0.257430  1.0  -0.0235
  C  C1069  1  0.072660  0.133000  0.281580  1.0  -0.1271
  C  C1070  1  0.042970  0.165270  0.277690  1.0  0.1458
  C  C1071  1  0.038320  0.239380  0.295600  1.0  0.167
  C  C1072  1  0.043280  0.234300  0.325520  1.0  -0.1798
  C  C1073  1  0.014580  0.232540  0.357940  1.0  -0.0339
  C  C1074  1  0.981490  0.237370  0.358410  1.0  -0.1786
  C  C1075  1  0.978720  0.242800  0.326780  1.0  0.2043
  C  C1076  1  0.949620  0.236700  0.391900  1.0  0.4287
  C  C1077  1  0.459730  0.836090  0.473910  1.0  0.2793
  C  C1078  1  0.704320  0.445280  0.552400  1.0  0.2826
  C  C1079  1  0.732590  0.708170  0.470870  1.0  0.1818
  C  C1080  1  0.734050  0.682330  0.462010  1.0  -0.1126
  C  C1081  1  0.767500  0.656520  0.450920  1.0  -0.0684
  C  C1082  1  0.798120  0.658700  0.449360  1.0  -0.156
  C  C1083  1  0.793310  0.684950  0.460650  1.0  0.1754
  C  C1084  1  0.541560  0.793880  0.485380  1.0  0.1718
  C  C1085  1  0.572410  0.799090  0.478690  1.0  -0.142
  C  C1086  1  0.604960  0.771060  0.475080  1.0  -0.0276
  C  C1087  1  0.606080  0.738500  0.477700  1.0  -0.1872
  C  C1088  1  0.574050  0.735490  0.483950  1.0  0.1761
  C  C1089  1  0.639780  0.706620  0.476140  1.0  0.4144
  C  C1090  1  0.667150  0.646810  0.482670  1.0  0.4211
  C  C1091  1  0.699890  0.680550  0.467390  1.0  0.2846
  C  C1092  1  0.695920  0.580500  0.495640  1.0  0.1856
  C  C1093  1  0.665180  0.611320  0.493120  1.0  -0.2106
  C  C1094  1  0.632670  0.606890  0.503010  1.0  -0.0241
  C  C1095  1  0.633000  0.572660  0.512760  1.0  -0.1248
  C  C1096  1  0.665270  0.542970  0.514070  1.0  0.1478
  C  C1097  1  0.739380  0.538320  0.426700  1.0  0.1642
  C  C1098  1  0.734300  0.543280  0.396900  1.0  -0.1815
  C  C1099  1  0.732540  0.514580  0.394940  1.0  -0.0334
  C  C1100  1  0.737370  0.481490  0.422730  1.0  -0.1786
  C  C1101  1  0.742800  0.478720  0.451700  1.0  0.2068
  C  C1102  1  0.736700  0.449620  0.421780  1.0  0.4295
  C  C1103  1  0.973910  0.230270  0.959730  1.0  0.2774
  C  C1104  1  0.052400  0.298000  0.204320  1.0  0.2808
  C  C1105  1  0.970870  0.088370  0.232590  1.0  0.1837
  C  C1106  1  0.962010  0.121610  0.234050  1.0  -0.1133
  C  C1107  1  0.950920  0.125060  0.267500  1.0  -0.0638
  C  C1108  1  0.949360  0.093820  0.298120  1.0  -0.1542
  C  C1109  1  0.960650  0.061090  0.293310  1.0  0.1755
  C  C1110  1  0.985380  0.179180  0.041560  1.0  0.1719
  C  C1111  1  0.978690  0.149810  0.072410  1.0  -0.146
  C  C1112  1  0.975080  0.148900  0.104960  1.0  -0.0275
  C  C1113  1  0.977700  0.177720  0.106080  1.0  -0.1894
  C  C1114  1  0.983950  0.206510  0.074050  1.0  0.1757
  C  C1115  1  0.976140  0.177460  0.139780  1.0  0.4142
  C  C1116  1  0.982670  0.203370  0.167150  1.0  0.4204
  C  C1117  1  0.967390  0.152170  0.199890  1.0  0.2847
  C  C1118  1  0.995640  0.227940  0.195920  1.0  0.1888
  C  C1119  1  0.993120  0.230380  0.165180  1.0  -0.2086
  C  C1120  1  0.003010  0.257430  0.132670  1.0  -0.0247
  C  C1121  1  0.012760  0.281580  0.133000  1.0  -0.1273
  C  C1122  1  0.014070  0.277690  0.165270  1.0  0.1509
  C  C1123  1  0.926700  0.295600  0.239380  1.0  0.1659
  C  C1124  1  0.896900  0.325520  0.234300  1.0  -0.18
  C  C1125  1  0.894940  0.357940  0.232540  1.0  -0.0341
  C  C1126  1  0.922730  0.358410  0.237370  1.0  -0.1832
  C  C1127  1  0.951700  0.326780  0.242800  1.0  0.204
  C  C1128  1  0.921780  0.391900  0.236700  1.0  0.4298
  C  C1129  1  0.163910  0.269730  0.540270  1.0  0.2801
  C  C1130  1  0.554720  0.202000  0.295680  1.0  0.2769
  C  C1131  1  0.291830  0.411630  0.267410  1.0  0.1817
  C  C1132  1  0.317670  0.378390  0.265950  1.0  -0.1142
  C  C1133  1  0.343480  0.374940  0.232500  1.0  -0.0672
  C  C1134  1  0.341300  0.406180  0.201880  1.0  -0.1528
  C  C1135  1  0.315050  0.438910  0.206690  1.0  0.1756
  C  C1136  1  0.206120  0.320820  0.458440  1.0  0.173
  C  C1137  1  0.200910  0.350190  0.427590  1.0  -0.1441
  C  C1138  1  0.228940  0.351100  0.395040  1.0  -0.0276
  C  C1139  1  0.261500  0.322280  0.393920  1.0  -0.1858
  C  C1140  1  0.264510  0.293490  0.425950  1.0  0.1781
  C  C1141  1  0.293380  0.322540  0.360220  1.0  0.4133
  C  C1142  1  0.353190  0.296630  0.332850  1.0  0.4208
  C  C1143  1  0.319450  0.347830  0.300110  1.0  0.2847
  C  C1144  1  0.419500  0.272060  0.304080  1.0  0.1853
  C  C1145  1  0.388680  0.269620  0.334820  1.0  -0.2105
  C  C1146  1  0.393110  0.242570  0.367330  1.0  -0.0241
  C  C1147  1  0.427340  0.218420  0.367000  1.0  -0.1289
  C  C1148  1  0.457030  0.222310  0.334730  1.0  0.145
  C  C1149  1  0.461680  0.204400  0.260620  1.0  0.1665
  C  C1150  1  0.456720  0.174480  0.265700  1.0  -0.1784
  C  C1151  1  0.485420  0.142060  0.267460  1.0  -0.0367
  C  C1152  1  0.518510  0.141590  0.262630  1.0  -0.1815
  C  C1153  1  0.521280  0.173220  0.257200  1.0  0.2036
  C  C1154  1  0.550380  0.108100  0.263300  1.0  0.4296
  C  C1155  1  0.769730  0.663910  0.026090  1.0  0.2787
  C  C1156  1  0.702000  0.054720  0.947600  1.0  0.2765
  C  C1157  1  0.911630  0.791830  0.029130  1.0  0.1822
  C  C1158  1  0.878390  0.817670  0.037990  1.0  -0.1148
  C  C1159  1  0.874940  0.843480  0.049080  1.0  -0.066
  C  C1160  1  0.906180  0.841300  0.050640  1.0  -0.1555
  C  C1161  1  0.938910  0.815050  0.039350  1.0  0.1764
  C  C1162  1  0.820820  0.706120  0.014620  1.0  0.1708
  C  C1163  1  0.850190  0.700910  0.021310  1.0  -0.1429
  C  C1164  1  0.851100  0.728940  0.024920  1.0  -0.028
  C  C1165  1  0.822280  0.761500  0.022300  1.0  -0.1874
  C  C1166  1  0.793490  0.764510  0.016050  1.0  0.1755
  C  C1167  1  0.822540  0.793380  0.023860  1.0  0.4135
  C  C1168  1  0.796630  0.853190  0.017330  1.0  0.4208
  C  C1169  1  0.847830  0.819450  0.032610  1.0  0.2845
  C  C1170  1  0.772060  0.919500  0.004360  1.0  0.1896
  C  C1171  1  0.769620  0.888680  0.006880  1.0  -0.2094
  C  C1172  1  0.742570  0.893110  0.996990  1.0  -0.0244
  C  C1173  1  0.718420  0.927340  0.987240  1.0  -0.127
  C  C1174  1  0.722310  0.957030  0.985930  1.0  0.1466
  C  C1175  1  0.704400  0.961680  0.073300  1.0  0.1627
  C  C1176  1  0.674480  0.956720  0.103100  1.0  -0.1834
  C  C1177  1  0.642060  0.985420  0.105060  1.0  -0.037
  C  C1178  1  0.641590  0.018510  0.077270  1.0  -0.182
  C  C1179  1  0.673220  0.021280  0.048300  1.0  0.203
  C  C1180  1  0.608100  0.050380  0.078220  1.0  0.4298
  C  C1181  1  0.526090  0.540270  0.269730  1.0  0.2769
  C  C1182  1  0.447600  0.295680  0.202000  1.0  0.2766
  C  C1183  1  0.529130  0.267410  0.411630  1.0  0.1842
  C  C1184  1  0.537990  0.265950  0.378390  1.0  -0.1136
  C  C1185  1  0.549080  0.232500  0.374940  1.0  -0.0676
  C  C1186  1  0.550640  0.201880  0.406180  1.0  -0.1563
  C  C1187  1  0.539350  0.206690  0.438910  1.0  0.1763
  C  C1188  1  0.514620  0.458440  0.320820  1.0  0.1736
  C  C1189  1  0.521310  0.427590  0.350190  1.0  -0.1396
  C  C1190  1  0.524920  0.395040  0.351100  1.0  -0.0273
  C  C1191  1  0.522300  0.393920  0.322280  1.0  -0.1877
  C  C1192  1  0.516050  0.425950  0.293490  1.0  0.1785
  C  C1193  1  0.523860  0.360220  0.322540  1.0  0.4145
  C  C1194  1  0.517330  0.332850  0.296630  1.0  0.4207
  C  C1195  1  0.532610  0.300110  0.347830  1.0  0.2839
  C  C1196  1  0.504360  0.304080  0.272060  1.0  0.1889
  C  C1197  1  0.506880  0.334820  0.269620  1.0  -0.2118
  C  C1198  1  0.496990  0.367330  0.242570  1.0  -0.0223
  C  C1199  1  0.487240  0.367000  0.218420  1.0  -0.125
  C  C1200  1  0.485930  0.334730  0.222310  1.0  0.1475
  C  C1201  1  0.573300  0.260620  0.204400  1.0  0.1662
  C  C1202  1  0.603100  0.265700  0.174480  1.0  -0.18
  C  C1203  1  0.605060  0.267460  0.142060  1.0  -0.0343
  C  C1204  1  0.577270  0.262630  0.141590  1.0  -0.1811
  C  C1205  1  0.548300  0.257200  0.173220  1.0  0.204
  C  C1206  1  0.578220  0.263300  0.108100  1.0  0.43
  C  C1207  1  0.040270  0.026090  0.663910  1.0  0.2762
  C  C1208  1  0.795680  0.947600  0.054720  1.0  0.2767
  C  C1209  1  0.767410  0.029130  0.791830  1.0  0.1827
  C  C1210  1  0.765950  0.037990  0.817670  1.0  -0.1121
  C  C1211  1  0.732500  0.049080  0.843480  1.0  -0.0638
  C  C1212  1  0.701880  0.050640  0.841300  1.0  -0.1602
  C  C1213  1  0.706690  0.039350  0.815050  1.0  0.1783
  C  C1214  1  0.958440  0.014620  0.706120  1.0  0.1727
  C  C1215  1  0.927590  0.021310  0.700910  1.0  -0.1383
  C  C1216  1  0.895040  0.024920  0.728940  1.0  -0.0257
  C  C1217  1  0.893920  0.022300  0.761500  1.0  -0.1877
  C  C1218  1  0.925950  0.016050  0.764510  1.0  0.177
  C  C1219  1  0.860220  0.023860  0.793380  1.0  0.4143
  C  C1220  1  0.832850  0.017330  0.853190  1.0  0.4215
  C  C1221  1  0.800110  0.032610  0.819450  1.0  0.2845
  C  C1222  1  0.804080  0.004360  0.919500  1.0  0.1885
  C  C1223  1  0.834820  0.006880  0.888680  1.0  -0.2114
  C  C1224  1  0.867330  0.996990  0.893110  1.0  -0.0254
  C  C1225  1  0.867000  0.987240  0.927340  1.0  -0.1234
  C  C1226  1  0.834730  0.985930  0.957030  1.0  0.1497
  C  C1227  1  0.760620  0.073300  0.961680  1.0  0.1644
  C  C1228  1  0.765700  0.103100  0.956720  1.0  -0.1811
  C  C1229  1  0.767460  0.105060  0.985420  1.0  -0.0362
  C  C1230  1  0.762630  0.077270  0.018510  1.0  -0.1825
  C  C1231  1  0.757200  0.048300  0.021280  1.0  0.2051
  C  C1232  1  0.763300  0.078220  0.050380  1.0  0.4289
  C  C1233  1  0.040270  0.269730  0.026090  1.0  0.2782
  C  C1234  1  0.795680  0.202000  0.947600  1.0  0.2761
  C  C1235  1  0.767410  0.411630  0.029130  1.0  0.182
  C  C1236  1  0.765950  0.378390  0.037990  1.0  -0.115
  C  C1237  1  0.732500  0.374940  0.049080  1.0  -0.0648
  C  C1238  1  0.701880  0.406180  0.050640  1.0  -0.1553
  C  C1239  1  0.706690  0.438910  0.039350  1.0  0.1762
  C  C1240  1  0.958440  0.320820  0.014620  1.0  0.172
  C  C1241  1  0.927590  0.350190  0.021310  1.0  -0.1445
  C  C1242  1  0.895040  0.351100  0.024920  1.0  -0.027
  C  C1243  1  0.893920  0.322280  0.022300  1.0  -0.1875
  C  C1244  1  0.925950  0.293490  0.016050  1.0  0.1754
  C  C1245  1  0.860220  0.322540  0.023860  1.0  0.414
  C  C1246  1  0.832850  0.296630  0.017330  1.0  0.4206
  C  C1247  1  0.800110  0.347830  0.032610  1.0  0.2849
  C  C1248  1  0.804080  0.272060  0.004360  1.0  0.1858
  C  C1249  1  0.834820  0.269620  0.006880  1.0  -0.2131
  C  C1250  1  0.867330  0.242570  0.996990  1.0  -0.0251
  C  C1251  1  0.867000  0.218420  0.987240  1.0  -0.1258
  C  C1252  1  0.834730  0.222310  0.985930  1.0  0.1497
  C  C1253  1  0.760620  0.204400  0.073300  1.0  0.1655
  C  C1254  1  0.765700  0.174480  0.103100  1.0  -0.1778
  C  C1255  1  0.767460  0.142060  0.105060  1.0  -0.0364
  C  C1256  1  0.762630  0.141590  0.077270  1.0  -0.1815
  C  C1257  1  0.757200  0.173220  0.048300  1.0  0.2039
  C  C1258  1  0.763300  0.108100  0.078220  1.0  0.4296
  C  C1259  1  0.526090  0.663910  0.540270  1.0  0.2776
  C  C1260  1  0.447600  0.054720  0.295680  1.0  0.275
  C  C1261  1  0.529130  0.791830  0.267410  1.0  0.1801
  C  C1262  1  0.537990  0.817670  0.265950  1.0  -0.1146
  C  C1263  1  0.549080  0.843480  0.232500  1.0  -0.065
  C  C1264  1  0.550640  0.841300  0.201880  1.0  -0.1549
  C  C1265  1  0.539350  0.815050  0.206690  1.0  0.1752
  C  C1266  1  0.514620  0.706120  0.458440  1.0  0.1757
  C  C1267  1  0.521310  0.700910  0.427590  1.0  -0.1454
  C  C1268  1  0.524920  0.728940  0.395040  1.0  -0.0278
  C  C1269  1  0.522300  0.761500  0.393920  1.0  -0.1865
  C  C1270  1  0.516050  0.764510  0.425950  1.0  0.178
  C  C1271  1  0.523860  0.793380  0.360220  1.0  0.4145
  C  C1272  1  0.517330  0.853190  0.332850  1.0  0.4211
  C  C1273  1  0.532610  0.819450  0.300110  1.0  0.2839
  C  C1274  1  0.504360  0.919500  0.304080  1.0  0.1883
  C  C1275  1  0.506880  0.888680  0.334820  1.0  -0.2107
  C  C1276  1  0.496990  0.893110  0.367330  1.0  -0.0264
  C  C1277  1  0.487240  0.927340  0.367000  1.0  -0.1248
  C  C1278  1  0.485930  0.957030  0.334730  1.0  0.1446
  C  C1279  1  0.573300  0.961680  0.260620  1.0  0.1651
  C  C1280  1  0.603100  0.956720  0.265700  1.0  -0.1807
  C  C1281  1  0.605060  0.985420  0.267460  1.0  -0.0352
  C  C1282  1  0.577270  0.018510  0.262630  1.0  -0.1834
  C  C1283  1  0.548300  0.021280  0.257200  1.0  0.2022
  C  C1284  1  0.578220  0.050380  0.263300  1.0  0.4294
  C  C1285  1  0.769730  0.540270  0.663910  1.0  0.2765
  C  C1286  1  0.702000  0.295680  0.054720  1.0  0.2777
  C  C1287  1  0.911630  0.267410  0.791830  1.0  0.1828
  C  C1288  1  0.878390  0.265950  0.817670  1.0  -0.1147
  C  C1289  1  0.874940  0.232500  0.843480  1.0  -0.0651
  C  C1290  1  0.906180  0.201880  0.841300  1.0  -0.1577
  C  C1291  1  0.938910  0.206690  0.815050  1.0  0.1735
  C  C1292  1  0.820820  0.458440  0.706120  1.0  0.1733
  C  C1293  1  0.850190  0.427590  0.700910  1.0  -0.1394
  C  C1294  1  0.851100  0.395040  0.728940  1.0  -0.0263
  C  C1295  1  0.822280  0.393920  0.761500  1.0  -0.1871
  C  C1296  1  0.793490  0.425950  0.764510  1.0  0.1775
  C  C1297  1  0.822540  0.360220  0.793380  1.0  0.414
  C  C1298  1  0.796630  0.332850  0.853190  1.0  0.4202
  C  C1299  1  0.847830  0.300110  0.819450  1.0  0.2843
  C  C1300  1  0.772060  0.304080  0.919500  1.0  0.1857
  C  C1301  1  0.769620  0.334820  0.888680  1.0  -0.2106
  C  C1302  1  0.742570  0.367330  0.893110  1.0  -0.023
  C  C1303  1  0.718420  0.367000  0.927340  1.0  -0.1273
  C  C1304  1  0.722310  0.334730  0.957030  1.0  0.1479
  C  C1305  1  0.704400  0.260620  0.961680  1.0  0.163
  C  C1306  1  0.674480  0.265700  0.956720  1.0  -0.1763
  C  C1307  1  0.642060  0.267460  0.985420  1.0  -0.0377
  C  C1308  1  0.641590  0.262630  0.018510  1.0  -0.1823
  C  C1309  1  0.673220  0.257200  0.021280  1.0  0.2039
  C  C1310  1  0.608100  0.263300  0.050380  1.0  0.4297
  C  C1311  1  0.163910  0.026090  0.269730  1.0  0.2787
  C  C1312  1  0.554720  0.947600  0.202000  1.0  0.2763
  C  C1313  1  0.291830  0.029130  0.411630  1.0  0.1819
  C  C1314  1  0.317670  0.037990  0.378390  1.0  -0.1135
  C  C1315  1  0.343480  0.049080  0.374940  1.0  -0.0628
  C  C1316  1  0.341300  0.050640  0.406180  1.0  -0.1571
  C  C1317  1  0.315050  0.039350  0.438910  1.0  0.1783
  C  C1318  1  0.206120  0.014620  0.320820  1.0  0.1769
  C  C1319  1  0.200910  0.021310  0.350190  1.0  -0.1411
  C  C1320  1  0.228940  0.024920  0.351100  1.0  -0.0263
  C  C1321  1  0.261500  0.022300  0.322280  1.0  -0.1844
  C  C1322  1  0.264510  0.016050  0.293490  1.0  0.1778
  C  C1323  1  0.293380  0.023860  0.322540  1.0  0.4136
  C  C1324  1  0.353190  0.017330  0.296630  1.0  0.421
  C  C1325  1  0.319450  0.032610  0.347830  1.0  0.2849
  C  C1326  1  0.419500  0.004360  0.272060  1.0  0.188
  C  C1327  1  0.388680  0.006880  0.269620  1.0  -0.2098
  C  C1328  1  0.393110  0.996990  0.242570  1.0  -0.025
  C  C1329  1  0.427340  0.987240  0.218420  1.0  -0.1223
  C  C1330  1  0.457030  0.985930  0.222310  1.0  0.1482
  C  C1331  1  0.461680  0.073300  0.204400  1.0  0.1656
  C  C1332  1  0.456720  0.103100  0.174480  1.0  -0.1806
  C  C1333  1  0.485420  0.105060  0.142060  1.0  -0.0359
  C  C1334  1  0.518510  0.077270  0.141590  1.0  -0.1802
  C  C1335  1  0.521280  0.048300  0.173220  1.0  0.2032
  C  C1336  1  0.550380  0.078220  0.108100  1.0  0.4297
  C  C1337  1  0.526090  0.269730  0.663910  1.0  0.2786
  C  C1338  1  0.447600  0.202000  0.054720  1.0  0.2824
  C  C1339  1  0.529130  0.411630  0.791830  1.0  0.1833
  C  C1340  1  0.537990  0.378390  0.817670  1.0  -0.1144
  C  C1341  1  0.549080  0.374940  0.843480  1.0  -0.0646
  C  C1342  1  0.550640  0.406180  0.841300  1.0  -0.1521
  C  C1343  1  0.539350  0.438910  0.815050  1.0  0.177
  C  C1344  1  0.514620  0.320820  0.706120  1.0  0.1718
  C  C1345  1  0.521310  0.350190  0.700910  1.0  -0.1435
  C  C1346  1  0.524920  0.351100  0.728940  1.0  -0.0277
  C  C1347  1  0.522300  0.322280  0.761500  1.0  -0.1901
  C  C1348  1  0.516050  0.293490  0.764510  1.0  0.175
  C  C1349  1  0.523860  0.322540  0.793380  1.0  0.4138
  C  C1350  1  0.517330  0.296630  0.853190  1.0  0.4202
  C  C1351  1  0.532610  0.347830  0.819450  1.0  0.2842
  C  C1352  1  0.504360  0.272060  0.919500  1.0  0.1882
  C  C1353  1  0.506880  0.269620  0.888680  1.0  -0.2079
  C  C1354  1  0.496990  0.242570  0.893110  1.0  -0.0234
  C  C1355  1  0.487240  0.218420  0.927340  1.0  -0.1275
  C  C1356  1  0.485930  0.222310  0.957030  1.0  0.1523
  C  C1357  1  0.573300  0.204400  0.961680  1.0  0.1644
  C  C1358  1  0.603100  0.174480  0.956720  1.0  -0.1788
  C  C1359  1  0.605060  0.142060  0.985420  1.0  -0.0356
  C  C1360  1  0.577270  0.141590  0.018510  1.0  -0.1834
  C  C1361  1  0.548300  0.173220  0.021280  1.0  0.2049
  C  C1362  1  0.578220  0.108100  0.050380  1.0  0.4297
  C  C1363  1  0.040270  0.663910  0.269730  1.0  0.2785
  C  C1364  1  0.795680  0.054720  0.202000  1.0  0.2811
  C  C1365  1  0.767410  0.791830  0.411630  1.0  0.1815
  C  C1366  1  0.765950  0.817670  0.378390  1.0  -0.113
  C  C1367  1  0.732500  0.843480  0.374940  1.0  -0.0672
  C  C1368  1  0.701880  0.841300  0.406180  1.0  -0.158
  C  C1369  1  0.706690  0.815050  0.438910  1.0  0.1756
  C  C1370  1  0.958440  0.706120  0.320820  1.0  0.1712
  C  C1371  1  0.927590  0.700910  0.350190  1.0  -0.1459
  C  C1372  1  0.895040  0.728940  0.351100  1.0  -0.0282
  C  C1373  1  0.893920  0.761500  0.322280  1.0  -0.1878
  C  C1374  1  0.925950  0.764510  0.293490  1.0  0.177
  C  C1375  1  0.860220  0.793380  0.322540  1.0  0.414
  C  C1376  1  0.832850  0.853190  0.296630  1.0  0.4213
  C  C1377  1  0.800110  0.819450  0.347830  1.0  0.2851
  C  C1378  1  0.804080  0.919500  0.272060  1.0  0.1863
  C  C1379  1  0.834820  0.888680  0.269620  1.0  -0.2109
  C  C1380  1  0.867330  0.893110  0.242570  1.0  -0.0255
  C  C1381  1  0.867000  0.927340  0.218420  1.0  -0.1221
  C  C1382  1  0.834730  0.957030  0.222310  1.0  0.147
  C  C1383  1  0.760620  0.961680  0.204400  1.0  0.1655
  C  C1384  1  0.765700  0.956720  0.174480  1.0  -0.1823
  C  C1385  1  0.767460  0.985420  0.142060  1.0  -0.0341
  C  C1386  1  0.762630  0.018510  0.141590  1.0  -0.1782
  C  C1387  1  0.757200  0.021280  0.173220  1.0  0.2056
  C  C1388  1  0.763300  0.050380  0.108100  1.0  0.4294
  C  C1389  1  0.163910  0.540270  0.026090  1.0  0.2784
  C  C1390  1  0.554720  0.295680  0.947600  1.0  0.2828
  C  C1391  1  0.291830  0.267410  0.029130  1.0  0.1818
  C  C1392  1  0.317670  0.265950  0.037990  1.0  -0.113
  C  C1393  1  0.343480  0.232500  0.049080  1.0  -0.0641
  C  C1394  1  0.341300  0.201880  0.050640  1.0  -0.1573
  C  C1395  1  0.315050  0.206690  0.039350  1.0  0.1744
  C  C1396  1  0.206120  0.458440  0.014620  1.0  0.1753
  C  C1397  1  0.200910  0.427590  0.021310  1.0  -0.1404
  C  C1398  1  0.228940  0.395040  0.024920  1.0  -0.0275
  C  C1399  1  0.261500  0.393920  0.022300  1.0  -0.1887
  C  C1400  1  0.264510  0.425950  0.016050  1.0  0.1769
  C  C1401  1  0.293380  0.360220  0.023860  1.0  0.4136
  C  C1402  1  0.353190  0.332850  0.017330  1.0  0.421
  C  C1403  1  0.319450  0.300110  0.032610  1.0  0.2844
  C  C1404  1  0.419500  0.304080  0.004360  1.0  0.1868
  C  C1405  1  0.388680  0.334820  0.006880  1.0  -0.2102
  C  C1406  1  0.393110  0.367330  0.996990  1.0  -0.025
  C  C1407  1  0.427340  0.367000  0.987240  1.0  -0.1257
  C  C1408  1  0.457030  0.334730  0.985930  1.0  0.1474
  C  C1409  1  0.461680  0.260620  0.073300  1.0  0.1665
  C  C1410  1  0.456720  0.265700  0.103100  1.0  -0.18
  C  C1411  1  0.485420  0.267460  0.105060  1.0  -0.0338
  C  C1412  1  0.518510  0.262630  0.077270  1.0  -0.1782
  C  C1413  1  0.521280  0.257200  0.048300  1.0  0.2016
  C  C1414  1  0.550380  0.263300  0.078220  1.0  0.4292
  C  C1415  1  0.769730  0.026090  0.540270  1.0  0.275
  C  C1416  1  0.702000  0.947600  0.295680  1.0  0.2834
  C  C1417  1  0.911630  0.029130  0.267410  1.0  0.1833
  C  C1418  1  0.878390  0.037990  0.265950  1.0  -0.1153
  C  C1419  1  0.874940  0.049080  0.232500  1.0  -0.0658
  C  C1420  1  0.906180  0.050640  0.201880  1.0  -0.1531
  C  C1421  1  0.938910  0.039350  0.206690  1.0  0.1761
  C  C1422  1  0.820820  0.014620  0.458440  1.0  0.177
  C  C1423  1  0.850190  0.021310  0.427590  1.0  -0.1393
  C  C1424  1  0.851100  0.024920  0.395040  1.0  -0.0265
  C  C1425  1  0.822280  0.022300  0.393920  1.0  -0.1873
  C  C1426  1  0.793490  0.016050  0.425950  1.0  0.1775
  C  C1427  1  0.822540  0.023860  0.360220  1.0  0.4135
  C  C1428  1  0.796630  0.017330  0.332850  1.0  0.4201
  C  C1429  1  0.847830  0.032610  0.300110  1.0  0.2848
  C  C1430  1  0.772060  0.004360  0.304080  1.0  0.1869
  C  C1431  1  0.769620  0.006880  0.334820  1.0  -0.2073
  C  C1432  1  0.742570  0.996990  0.367330  1.0  -0.0254
  C  C1433  1  0.718420  0.987240  0.367000  1.0  -0.1259
  C  C1434  1  0.722310  0.985930  0.334730  1.0  0.1531
  C  C1435  1  0.704400  0.073300  0.260620  1.0  0.1648
  C  C1436  1  0.674480  0.103100  0.265700  1.0  -0.1811
  C  C1437  1  0.642060  0.105060  0.267460  1.0  -0.0351
  C  C1438  1  0.641590  0.077270  0.262630  1.0  -0.1827
  C  C1439  1  0.673220  0.048300  0.257200  1.0  0.2034
  C  C1440  1  0.608100  0.078220  0.263300  1.0  0.4293
  C  C1441  1  0.269730  0.163910  0.040270  1.0  0.2787
  C  C1442  1  0.202000  0.554720  0.795680  1.0  0.276
  C  C1443  1  0.411630  0.291830  0.767410  1.0  0.1819
  C  C1444  1  0.378390  0.317670  0.765950  1.0  -0.1147
  C  C1445  1  0.374940  0.343480  0.732500  1.0  -0.0664
  C  C1446  1  0.406180  0.341300  0.701880  1.0  -0.1567
  C  C1447  1  0.438910  0.315050  0.706690  1.0  0.1763
  C  C1448  1  0.320820  0.206120  0.958440  1.0  0.1708
  C  C1449  1  0.350190  0.200910  0.927590  1.0  -0.1426
  C  C1450  1  0.351100  0.228940  0.895040  1.0  -0.0276
  C  C1451  1  0.322280  0.261500  0.893920  1.0  -0.1872
  C  C1452  1  0.293490  0.264510  0.925950  1.0  0.1763
  C  C1453  1  0.322540  0.293380  0.860220  1.0  0.4134
  C  C1454  1  0.296630  0.353190  0.832850  1.0  0.4208
  C  C1455  1  0.347830  0.319450  0.800110  1.0  0.2842
  C  C1456  1  0.272060  0.419500  0.804080  1.0  0.189
  C  C1457  1  0.269620  0.388680  0.834820  1.0  -0.2096
  C  C1458  1  0.242570  0.393110  0.867330  1.0  -0.0249
  C  C1459  1  0.218420  0.427340  0.867000  1.0  -0.1277
  C  C1460  1  0.222310  0.457030  0.834730  1.0  0.1454
  C  C1461  1  0.204400  0.461680  0.760620  1.0  0.162
  C  C1462  1  0.174480  0.456720  0.765700  1.0  -0.1821
  C  C1463  1  0.142060  0.485420  0.767460  1.0  -0.0371
  C  C1464  1  0.141590  0.518510  0.762630  1.0  -0.1816
  C  C1465  1  0.173220  0.521280  0.757200  1.0  0.2025
  C  C1466  1  0.108100  0.550380  0.763300  1.0  0.4299
  C  C1467  1  0.663910  0.769730  0.526090  1.0  0.2798
  C  C1468  1  0.054720  0.702000  0.447600  1.0  0.2773
  C  C1469  1  0.791830  0.911630  0.529130  1.0  0.1824
  C  C1470  1  0.817670  0.878390  0.537990  1.0  -0.114
  C  C1471  1  0.843480  0.874940  0.549080  1.0  -0.0653
  C  C1472  1  0.841300  0.906180  0.550640  1.0  -0.1532
  C  C1473  1  0.815050  0.938910  0.539350  1.0  0.1754
  C  C1474  1  0.706120  0.820820  0.514620  1.0  0.1726
  C  C1475  1  0.700910  0.850190  0.521310  1.0  -0.1437
  C  C1476  1  0.728940  0.851100  0.524920  1.0  -0.0289
  C  C1477  1  0.761500  0.822280  0.522300  1.0  -0.185
  C  C1478  1  0.764510  0.793490  0.516050  1.0  0.1774
  C  C1479  1  0.793380  0.822540  0.523860  1.0  0.4133
  C  C1480  1  0.853190  0.796630  0.517330  1.0  0.4208
  C  C1481  1  0.819450  0.847830  0.532610  1.0  0.2851
  C  C1482  1  0.919500  0.772060  0.504360  1.0  0.1851
  C  C1483  1  0.888680  0.769620  0.506880  1.0  -0.2101
  C  C1484  1  0.893110  0.742570  0.496990  1.0  -0.0237
  C  C1485  1  0.927340  0.718420  0.487240  1.0  -0.1282
  C  C1486  1  0.957030  0.722310  0.485930  1.0  0.146
  C  C1487  1  0.961680  0.704400  0.573300  1.0  0.1661
  C  C1488  1  0.956720  0.674480  0.603100  1.0  -0.1799
  C  C1489  1  0.985420  0.642060  0.605060  1.0  -0.0371
  C  C1490  1  0.018510  0.641590  0.577270  1.0  -0.1817
  C  C1491  1  0.021280  0.673220  0.548300  1.0  0.2036
  C  C1492  1  0.050380  0.608100  0.578220  1.0  0.4295
  C  C1493  1  0.540270  0.526090  0.769730  1.0  0.2762
  C  C1494  1  0.295680  0.447600  0.702000  1.0  0.2767
  C  C1495  1  0.267410  0.529130  0.911630  1.0  0.1825
  C  C1496  1  0.265950  0.537990  0.878390  1.0  -0.1126
  C  C1497  1  0.232500  0.549080  0.874940  1.0  -0.0658
  C  C1498  1  0.201880  0.550640  0.906180  1.0  -0.1591
  C  C1499  1  0.206690  0.539350  0.938910  1.0  0.1787
  C  C1500  1  0.458440  0.514620  0.820820  1.0  0.1722
  C  C1501  1  0.427590  0.521310  0.850190  1.0  -0.1397
  C  C1502  1  0.395040  0.524920  0.851100  1.0  -0.0257
  C  C1503  1  0.393920  0.522300  0.822280  1.0  -0.1881
  C  C1504  1  0.425950  0.516050  0.793490  1.0  0.1768
  C  C1505  1  0.360220  0.523860  0.822540  1.0  0.4141
  C  C1506  1  0.332850  0.517330  0.796630  1.0  0.421
  C  C1507  1  0.300110  0.532610  0.847830  1.0  0.2846
  C  C1508  1  0.304080  0.504360  0.772060  1.0  0.1879
  C  C1509  1  0.334820  0.506880  0.769620  1.0  -0.2134
  C  C1510  1  0.367330  0.496990  0.742570  1.0  -0.0256
  C  C1511  1  0.367000  0.487240  0.718420  1.0  -0.1232
  C  C1512  1  0.334730  0.485930  0.722310  1.0  0.1507
  C  C1513  1  0.260620  0.573300  0.704400  1.0  0.1635
  C  C1514  1  0.265700  0.603100  0.674480  1.0  -0.1811
  C  C1515  1  0.267460  0.605060  0.642060  1.0  -0.0354
  C  C1516  1  0.262630  0.577270  0.641590  1.0  -0.1809
  C  C1517  1  0.257200  0.548300  0.673220  1.0  0.2056
  C  C1518  1  0.263300  0.578220  0.608100  1.0  0.4296
  C  C1519  1  0.026090  0.040270  0.163910  1.0  0.2771
  C  C1520  1  0.947600  0.795680  0.554720  1.0  0.2764
  C  C1521  1  0.029130  0.767410  0.291830  1.0  0.1848
  C  C1522  1  0.037990  0.765950  0.317670  1.0  -0.1128
  C  C1523  1  0.049080  0.732500  0.343480  1.0  -0.0648
  C  C1524  1  0.050640  0.701880  0.341300  1.0  -0.1563
  C  C1525  1  0.039350  0.706690  0.315050  1.0  0.1753
  C  C1526  1  0.014620  0.958440  0.206120  1.0  0.1729
  C  C1527  1  0.021310  0.927590  0.200910  1.0  -0.1377
  C  C1528  1  0.024920  0.895040  0.228940  1.0  -0.0279
  C  C1529  1  0.022300  0.893920  0.261500  1.0  -0.1876
  C  C1530  1  0.016050  0.925950  0.264510  1.0  0.1785
  C  C1531  1  0.023860  0.860220  0.293380  1.0  0.4147
  C  C1532  1  0.017330  0.832850  0.353190  1.0  0.4212
  C  C1533  1  0.032610  0.800110  0.319450  1.0  0.2839
  C  C1534  1  0.004360  0.804080  0.419500  1.0  0.1898
  C  C1535  1  0.006880  0.834820  0.388680  1.0  -0.2107
  C  C1536  1  0.996990  0.867330  0.393110  1.0  -0.022
  C  C1537  1  0.987240  0.867000  0.427340  1.0  -0.1259
  C  C1538  1  0.985930  0.834730  0.457030  1.0  0.1464
  C  C1539  1  0.073300  0.760620  0.461680  1.0  0.1662
  C  C1540  1  0.103100  0.765700  0.456720  1.0  -0.1796
  C  C1541  1  0.105060  0.767460  0.485420  1.0  -0.0344
  C  C1542  1  0.077270  0.762630  0.518510  1.0  -0.1833
  C  C1543  1  0.048300  0.757200  0.521280  1.0  0.2036
  C  C1544  1  0.078220  0.763300  0.550380  1.0  0.4293
  C  C1545  1  0.269730  0.040270  0.526090  1.0  0.2771
  C  C1546  1  0.202000  0.795680  0.447600  1.0  0.2773
  C  C1547  1  0.411630  0.767410  0.529130  1.0  0.1821
  C  C1548  1  0.378390  0.765950  0.537990  1.0  -0.1146
  C  C1549  1  0.374940  0.732500  0.549080  1.0  -0.0648
  C  C1550  1  0.406180  0.701880  0.550640  1.0  -0.1576
  C  C1551  1  0.438910  0.706690  0.539350  1.0  0.1732
  C  C1552  1  0.320820  0.958440  0.514620  1.0  0.1734
  C  C1553  1  0.350190  0.927590  0.521310  1.0  -0.1404
  C  C1554  1  0.351100  0.895040  0.524920  1.0  -0.0262
  C  C1555  1  0.322280  0.893920  0.522300  1.0  -0.1872
  C  C1556  1  0.293490  0.925950  0.516050  1.0  0.1773
  C  C1557  1  0.322540  0.860220  0.523860  1.0  0.414
  C  C1558  1  0.296630  0.832850  0.517330  1.0  0.4202
  C  C1559  1  0.347830  0.800110  0.532610  1.0  0.2845
  C  C1560  1  0.272060  0.804080  0.504360  1.0  0.1855
  C  C1561  1  0.269620  0.834820  0.506880  1.0  -0.2121
  C  C1562  1  0.242570  0.867330  0.496990  1.0  -0.0235
  C  C1563  1  0.218420  0.867000  0.487240  1.0  -0.1264
  C  C1564  1  0.222310  0.834730  0.485930  1.0  0.1482
  C  C1565  1  0.204400  0.760620  0.573300  1.0  0.164
  C  C1566  1  0.174480  0.765700  0.603100  1.0  -0.1782
  C  C1567  1  0.142060  0.767460  0.605060  1.0  -0.0379
  C  C1568  1  0.141590  0.762630  0.577270  1.0  -0.1823
  C  C1569  1  0.173220  0.757200  0.548300  1.0  0.2037
  C  C1570  1  0.108100  0.763300  0.578220  1.0  0.4297
  C  C1571  1  0.663910  0.526090  0.040270  1.0  0.2781
  C  C1572  1  0.054720  0.447600  0.795680  1.0  0.2763
  C  C1573  1  0.791830  0.529130  0.767410  1.0  0.1811
  C  C1574  1  0.817670  0.537990  0.765950  1.0  -0.1145
  C  C1575  1  0.843480  0.549080  0.732500  1.0  -0.0628
  C  C1576  1  0.841300  0.550640  0.701880  1.0  -0.1556
  C  C1577  1  0.815050  0.539350  0.706690  1.0  0.1779
  C  C1578  1  0.706120  0.514620  0.958440  1.0  0.1784
  C  C1579  1  0.700910  0.521310  0.927590  1.0  -0.14
  C  C1580  1  0.728940  0.524920  0.895040  1.0  -0.0265
  C  C1581  1  0.761500  0.522300  0.893920  1.0  -0.1844
  C  C1582  1  0.764510  0.516050  0.925950  1.0  0.178
  C  C1583  1  0.793380  0.523860  0.860220  1.0  0.4139
  C  C1584  1  0.853190  0.517330  0.832850  1.0  0.421
  C  C1585  1  0.819450  0.532610  0.800110  1.0  0.2843
  C  C1586  1  0.919500  0.504360  0.804080  1.0  0.1891
  C  C1587  1  0.888680  0.506880  0.834820  1.0  -0.2105
  C  C1588  1  0.893110  0.496990  0.867330  1.0  -0.0261
  C  C1589  1  0.927340  0.487240  0.867000  1.0  -0.1225
  C  C1590  1  0.957030  0.485930  0.834730  1.0  0.1478
  C  C1591  1  0.961680  0.573300  0.760620  1.0  0.1651
  C  C1592  1  0.956720  0.603100  0.765700  1.0  -0.1804
  C  C1593  1  0.985420  0.605060  0.767460  1.0  -0.036
  C  C1594  1  0.018510  0.577270  0.762630  1.0  -0.1807
  C  C1595  1  0.021280  0.548300  0.757200  1.0  0.2026
  C  C1596  1  0.050380  0.578220  0.763300  1.0  0.4291
  C  C1597  1  0.540270  0.769730  0.163910  1.0  0.2776
  C  C1598  1  0.295680  0.702000  0.554720  1.0  0.2766
  C  C1599  1  0.267410  0.911630  0.291830  1.0  0.1827
  C  C1600  1  0.265950  0.878390  0.317670  1.0  -0.1149
  C  C1601  1  0.232500  0.874940  0.343480  1.0  -0.0649
  C  C1602  1  0.201880  0.906180  0.341300  1.0  -0.1551
  C  C1603  1  0.206690  0.938910  0.315050  1.0  0.176
  C  C1604  1  0.458440  0.820820  0.206120  1.0  0.1725
  C  C1605  1  0.427590  0.850190  0.200910  1.0  -0.1449
  C  C1606  1  0.395040  0.851100  0.228940  1.0  -0.0267
  C  C1607  1  0.393920  0.822280  0.261500  1.0  -0.1872
  C  C1608  1  0.425950  0.793490  0.264510  1.0  0.1754
  C  C1609  1  0.360220  0.822540  0.293380  1.0  0.4139
  C  C1610  1  0.332850  0.796630  0.353190  1.0  0.4206
  C  C1611  1  0.300110  0.847830  0.319450  1.0  0.2848
  C  C1612  1  0.304080  0.772060  0.419500  1.0  0.1863
  C  C1613  1  0.334820  0.769620  0.388680  1.0  -0.2107
  C  C1614  1  0.367330  0.742570  0.393110  1.0  -0.0247
  C  C1615  1  0.367000  0.718420  0.427340  1.0  -0.1269
  C  C1616  1  0.334730  0.722310  0.457030  1.0  0.1494
  C  C1617  1  0.260620  0.704400  0.461680  1.0  0.1646
  C  C1618  1  0.265700  0.674480  0.456720  1.0  -0.1754
  C  C1619  1  0.267460  0.642060  0.485420  1.0  -0.0358
  C  C1620  1  0.262630  0.641590  0.518510  1.0  -0.1816
  C  C1621  1  0.257200  0.673220  0.521280  1.0  0.2041
  C  C1622  1  0.263300  0.608100  0.550380  1.0  0.4298
  C  C1623  1  0.026090  0.163910  0.769730  1.0  0.2785
  C  C1624  1  0.947600  0.554720  0.702000  1.0  0.2742
  C  C1625  1  0.029130  0.291830  0.911630  1.0  0.1808
  C  C1626  1  0.037990  0.317670  0.878390  1.0  -0.1139
  C  C1627  1  0.049080  0.343480  0.874940  1.0  -0.0644
  C  C1628  1  0.050640  0.341300  0.906180  1.0  -0.1563
  C  C1629  1  0.039350  0.315050  0.938910  1.0  0.1754
  C  C1630  1  0.014620  0.206120  0.820820  1.0  0.1747
  C  C1631  1  0.021310  0.200910  0.850190  1.0  -0.1461
  C  C1632  1  0.024920  0.228940  0.851100  1.0  -0.0262
  C  C1633  1  0.022300  0.261500  0.822280  1.0  -0.1872
  C  C1634  1  0.016050  0.264510  0.793490  1.0  0.1775
  C  C1635  1  0.023860  0.293380  0.822540  1.0  0.4142
  C  C1636  1  0.017330  0.353190  0.796630  1.0  0.4211
  C  C1637  1  0.032610  0.319450  0.847830  1.0  0.2844
  C  C1638  1  0.004360  0.419500  0.772060  1.0  0.1876
  C  C1639  1  0.006880  0.388680  0.769620  1.0  -0.2104
  C  C1640  1  0.996990  0.393110  0.742570  1.0  -0.0255
  C  C1641  1  0.987240  0.427340  0.718420  1.0  -0.1231
  C  C1642  1  0.985930  0.457030  0.722310  1.0  0.1465
  C  C1643  1  0.073300  0.461680  0.704400  1.0  0.1663
  C  C1644  1  0.103100  0.456720  0.674480  1.0  -0.1804
  C  C1645  1  0.105060  0.485420  0.642060  1.0  -0.0355
  C  C1646  1  0.077270  0.518510  0.641590  1.0  -0.1825
  C  C1647  1  0.048300  0.521280  0.673220  1.0  0.2026
  C  C1648  1  0.078220  0.550380  0.608100  1.0  0.43
  C  C1649  1  0.269730  0.526090  0.163910  1.0  0.2749
  C  C1650  1  0.202000  0.447600  0.554720  1.0  0.2832
  C  C1651  1  0.411630  0.529130  0.291830  1.0  0.1832
  C  C1652  1  0.378390  0.537990  0.317670  1.0  -0.1154
  C  C1653  1  0.374940  0.549080  0.343480  1.0  -0.0654
  C  C1654  1  0.406180  0.550640  0.341300  1.0  -0.1546
  C  C1655  1  0.438910  0.539350  0.315050  1.0  0.1756
  C  C1656  1  0.320820  0.514620  0.206120  1.0  0.1774
  C  C1657  1  0.350190  0.521310  0.200910  1.0  -0.1382
  C  C1658  1  0.351100  0.524920  0.228940  1.0  -0.0266
  C  C1659  1  0.322280  0.522300  0.261500  1.0  -0.1893
  C  C1660  1  0.293490  0.516050  0.264510  1.0  0.1771
  C  C1661  1  0.322540  0.523860  0.293380  1.0  0.4138
  C  C1662  1  0.296630  0.517330  0.353190  1.0  0.4202
  C  C1663  1  0.347830  0.532610  0.319450  1.0  0.2847
  C  C1664  1  0.272060  0.504360  0.419500  1.0  0.1869
  C  C1665  1  0.269620  0.506880  0.388680  1.0  -0.208
  C  C1666  1  0.242570  0.496990  0.393110  1.0  -0.0237
  C  C1667  1  0.218420  0.487240  0.427340  1.0  -0.1244
  C  C1668  1  0.222310  0.485930  0.457030  1.0  0.1548
  C  C1669  1  0.204400  0.573300  0.461680  1.0  0.1653
  C  C1670  1  0.174480  0.603100  0.456720  1.0  -0.1807
  C  C1671  1  0.142060  0.605060  0.485420  1.0  -0.035
  C  C1672  1  0.141590  0.577270  0.518510  1.0  -0.1829
  C  C1673  1  0.173220  0.548300  0.521280  1.0  0.2032
  C  C1674  1  0.108100  0.578220  0.550380  1.0  0.4292
  C  C1675  1  0.663910  0.040270  0.769730  1.0  0.2791
  C  C1676  1  0.054720  0.795680  0.702000  1.0  0.283
  C  C1677  1  0.791830  0.767410  0.911630  1.0  0.1815
  C  C1678  1  0.817670  0.765950  0.878390  1.0  -0.1138
  C  C1679  1  0.843480  0.732500  0.874940  1.0  -0.0665
  C  C1680  1  0.841300  0.701880  0.906180  1.0  -0.1565
  C  C1681  1  0.815050  0.706690  0.938910  1.0  0.1736
  C  C1682  1  0.706120  0.958440  0.820820  1.0  0.175
  C  C1683  1  0.700910  0.927590  0.850190  1.0  -0.1408
  C  C1684  1  0.728940  0.895040  0.851100  1.0  -0.0273
  C  C1685  1  0.761500  0.893920  0.822280  1.0  -0.1887
  C  C1686  1  0.764510  0.925950  0.793490  1.0  0.1774
  C  C1687  1  0.793380  0.860220  0.822540  1.0  0.4135
  C  C1688  1  0.853190  0.832850  0.796630  1.0  0.4211
  C  C1689  1  0.819450  0.800110  0.847830  1.0  0.2843
  C  C1690  1  0.919500  0.804080  0.772060  1.0  0.1856
  C  C1691  1  0.888680  0.834820  0.769620  1.0  -0.2102
  C  C1692  1  0.893110  0.867330  0.742570  1.0  -0.0252
  C  C1693  1  0.927340  0.867000  0.718420  1.0  -0.1257
  C  C1694  1  0.957030  0.834730  0.722310  1.0  0.147
  C  C1695  1  0.961680  0.760620  0.704400  1.0  0.1669
  C  C1696  1  0.956720  0.765700  0.674480  1.0  -0.1791
  C  C1697  1  0.985420  0.767460  0.642060  1.0  -0.0354
  C  C1698  1  0.018510  0.762630  0.641590  1.0  -0.1779
  C  C1699  1  0.021280  0.757200  0.673220  1.0  0.2018
  C  C1700  1  0.050380  0.763300  0.608100  1.0  0.4295
  C  C1701  1  0.540270  0.163910  0.526090  1.0  0.278
  C  C1702  1  0.295680  0.554720  0.447600  1.0  0.2811
  C  C1703  1  0.267410  0.291830  0.529130  1.0  0.1813
  C  C1704  1  0.265950  0.317670  0.537990  1.0  -0.1123
  C  C1705  1  0.232500  0.343480  0.549080  1.0  -0.0652
  C  C1706  1  0.201880  0.341300  0.550640  1.0  -0.1594
  C  C1707  1  0.206690  0.315050  0.539350  1.0  0.1758
  C  C1708  1  0.458440  0.206120  0.514620  1.0  0.1713
  C  C1709  1  0.427590  0.200910  0.521310  1.0  -0.1454
  C  C1710  1  0.395040  0.228940  0.524920  1.0  -0.0284
  C  C1711  1  0.393920  0.261500  0.522300  1.0  -0.1878
  C  C1712  1  0.425950  0.264510  0.516050  1.0  0.1764
  C  C1713  1  0.360220  0.293380  0.523860  1.0  0.4142
  C  C1714  1  0.332850  0.353190  0.517330  1.0  0.4213
  C  C1715  1  0.300110  0.319450  0.532610  1.0  0.285
  C  C1716  1  0.304080  0.419500  0.504360  1.0  0.1873
  C  C1717  1  0.334820  0.388680  0.506880  1.0  -0.2108
  C  C1718  1  0.367330  0.393110  0.496990  1.0  -0.0254
  C  C1719  1  0.367000  0.427340  0.487240  1.0  -0.1222
  C  C1720  1  0.334730  0.457030  0.485930  1.0  0.1472
  C  C1721  1  0.260620  0.461680  0.573300  1.0  0.165
  C  C1722  1  0.265700  0.456720  0.603100  1.0  -0.1832
  C  C1723  1  0.267460  0.485420  0.605060  1.0  -0.0322
  C  C1724  1  0.262630  0.518510  0.577270  1.0  -0.1787
  C  C1725  1  0.257200  0.521280  0.548300  1.0  0.2058
  C  C1726  1  0.263300  0.550380  0.578220  1.0  0.429
  C  C1727  1  0.026090  0.769730  0.040270  1.0  0.2779
  C  C1728  1  0.947600  0.702000  0.795680  1.0  0.2826
  C  C1729  1  0.029130  0.911630  0.767410  1.0  0.1831
  C  C1730  1  0.037990  0.878390  0.765950  1.0  -0.1143
  C  C1731  1  0.049080  0.874940  0.732500  1.0  -0.0659
  C  C1732  1  0.050640  0.906180  0.701880  1.0  -0.1515
  C  C1733  1  0.039350  0.938910  0.706690  1.0  0.1759
  C  C1734  1  0.014620  0.820820  0.958440  1.0  0.172
  C  C1735  1  0.021310  0.850190  0.927590  1.0  -0.1441
  C  C1736  1  0.024920  0.851100  0.895040  1.0  -0.0273
  C  C1737  1  0.022300  0.822280  0.893920  1.0  -0.1879
  C  C1738  1  0.016050  0.793490  0.925950  1.0  0.1752
  C  C1739  1  0.023860  0.822540  0.860220  1.0  0.4137
  C  C1740  1  0.017330  0.796630  0.832850  1.0  0.4203
  C  C1741  1  0.032610  0.847830  0.800110  1.0  0.2843
  C  C1742  1  0.004360  0.772060  0.804080  1.0  0.1887
  C  C1743  1  0.006880  0.769620  0.834820  1.0  -0.2073
  C  C1744  1  0.996990  0.742570  0.867330  1.0  -0.0244
  C  C1745  1  0.987240  0.718420  0.867000  1.0  -0.1293
  C  C1746  1  0.985930  0.722310  0.834730  1.0  0.1511
  C  C1747  1  0.073300  0.704400  0.760620  1.0  0.1649
  C  C1748  1  0.103100  0.674480  0.765700  1.0  -0.1798
  C  C1749  1  0.105060  0.642060  0.767460  1.0  -0.036
  C  C1750  1  0.077270  0.641590  0.762630  1.0  -0.1831
  C  C1751  1  0.048300  0.673220  0.757200  1.0  0.2044
  C  C1752  1  0.078220  0.608100  0.763300  1.0  0.4298
  C  C1753  1  0.836090  0.730270  0.459730  1.0  0.2803
  C  C1754  1  0.445280  0.798000  0.704320  1.0  0.2762
  C  C1755  1  0.708170  0.588370  0.732590  1.0  0.1821
  C  C1756  1  0.682330  0.621610  0.734050  1.0  -0.114
  C  C1757  1  0.656520  0.625060  0.767500  1.0  -0.065
  C  C1758  1  0.658700  0.593820  0.798120  1.0  -0.1554
  C  C1759  1  0.684950  0.561090  0.793310  1.0  0.1751
  C  C1760  1  0.793880  0.679180  0.541560  1.0  0.174
  C  C1761  1  0.799090  0.649810  0.572410  1.0  -0.1422
  C  C1762  1  0.771060  0.648900  0.604960  1.0  -0.0287
  C  C1763  1  0.738500  0.677720  0.606080  1.0  -0.186
  C  C1764  1  0.735490  0.706510  0.574050  1.0  0.1757
  C  C1765  1  0.706620  0.677460  0.639780  1.0  0.4136
  C  C1766  1  0.646810  0.703370  0.667150  1.0  0.4212
  C  C1767  1  0.680550  0.652170  0.699890  1.0  0.2851
  C  C1768  1  0.580500  0.727940  0.695920  1.0  0.1859
  C  C1769  1  0.611320  0.730380  0.665180  1.0  -0.2102
  C  C1770  1  0.606890  0.757430  0.632670  1.0  -0.0244
  C  C1771  1  0.572660  0.781580  0.633000  1.0  -0.1306
  C  C1772  1  0.542970  0.777690  0.665270  1.0  0.1458
  C  C1773  1  0.538320  0.795600  0.739380  1.0  0.1658
  C  C1774  1  0.543280  0.825520  0.734300  1.0  -0.1787
  C  C1775  1  0.514580  0.857940  0.732540  1.0  -0.0346
  C  C1776  1  0.481490  0.858410  0.737370  1.0  -0.1816
  C  C1777  1  0.478720  0.826780  0.742800  1.0  0.2053
  C  C1778  1  0.449620  0.891900  0.736700  1.0  0.4295
  C  C1779  1  0.230270  0.336090  0.973910  1.0  0.2779
  C  C1780  1  0.298000  0.945280  0.052400  1.0  0.2771
  C  C1781  1  0.088370  0.208170  0.970870  1.0  0.1819
  C  C1782  1  0.121610  0.182330  0.962010  1.0  -0.1144
  C  C1783  1  0.125060  0.156520  0.950920  1.0  -0.0675
  C  C1784  1  0.093820  0.158700  0.949360  1.0  -0.1576
  C  C1785  1  0.061090  0.184950  0.960650  1.0  0.1765
  C  C1786  1  0.179180  0.293880  0.985380  1.0  0.171
  C  C1787  1  0.149810  0.299090  0.978690  1.0  -0.143
  C  C1788  1  0.148900  0.271060  0.975080  1.0  -0.0273
  C  C1789  1  0.177720  0.238500  0.977700  1.0  -0.1894
  C  C1790  1  0.206510  0.235490  0.983950  1.0  0.1777
  C  C1791  1  0.177460  0.206620  0.976140  1.0  0.4138
  C  C1792  1  0.203370  0.146810  0.982670  1.0  0.4209
  C  C1793  1  0.152170  0.180550  0.967390  1.0  0.284
  C  C1794  1  0.227940  0.080500  0.995640  1.0  0.1882
  C  C1795  1  0.230380  0.111320  0.993120  1.0  -0.2095
  C  C1796  1  0.257430  0.106890  0.003010  1.0  -0.0245
  C  C1797  1  0.281580  0.072660  0.012760  1.0  -0.1243
  C  C1798  1  0.277690  0.042970  0.014070  1.0  0.1465
  C  C1799  1  0.295600  0.038320  0.926700  1.0  0.1633
  C  C1800  1  0.325520  0.043280  0.896900  1.0  -0.1806
  C  C1801  1  0.357940  0.014580  0.894940  1.0  -0.0352
  C  C1802  1  0.358410  0.981490  0.922730  1.0  -0.1811
  C  C1803  1  0.326780  0.978720  0.951700  1.0  0.2031
  C  C1804  1  0.391900  0.949620  0.921780  1.0  0.4307
  C  C1805  1  0.473910  0.459730  0.730270  1.0  0.2753
  C  C1806  1  0.552400  0.704320  0.798000  1.0  0.2766
  C  C1807  1  0.470870  0.732590  0.588370  1.0  0.1848
  C  C1808  1  0.462010  0.734050  0.621610  1.0  -0.1127
  C  C1809  1  0.450920  0.767500  0.625060  1.0  -0.0657
  C  C1810  1  0.449360  0.798120  0.593820  1.0  -0.1555
  C  C1811  1  0.460650  0.793310  0.561090  1.0  0.177
  C  C1812  1  0.485380  0.541560  0.679180  1.0  0.1724
  C  C1813  1  0.478690  0.572410  0.649810  1.0  -0.1375
  C  C1814  1  0.475080  0.604960  0.648900  1.0  -0.0266
  C  C1815  1  0.477700  0.606080  0.677720  1.0  -0.1861
  C  C1816  1  0.483950  0.574050  0.706510  1.0  0.1783
  C  C1817  1  0.476140  0.639780  0.677460  1.0  0.4141
  C  C1818  1  0.482670  0.667150  0.703370  1.0  0.4206
  C  C1819  1  0.467390  0.699890  0.652170  1.0  0.2837
  C  C1820  1  0.495640  0.695920  0.727940  1.0  0.19
  C  C1821  1  0.493120  0.665180  0.730380  1.0  -0.2106
  C  C1822  1  0.503010  0.632670  0.757430  1.0  -0.0226
  C  C1823  1  0.512760  0.633000  0.781580  1.0  -0.1263
  C  C1824  1  0.514070  0.665270  0.777690  1.0  0.1475
  C  C1825  1  0.426700  0.739380  0.795600  1.0  0.1669
  C  C1826  1  0.396900  0.734300  0.825520  1.0  -0.1798
  C  C1827  1  0.394940  0.732540  0.857940  1.0  -0.037
  C  C1828  1  0.422730  0.737370  0.858410  1.0  -0.1832
  C  C1829  1  0.451700  0.742800  0.826780  1.0  0.2029
  C  C1830  1  0.421780  0.736700  0.891900  1.0  0.429
  C  C1831  1  0.959730  0.973910  0.336090  1.0  0.2749
  C  C1832  1  0.204320  0.052400  0.945280  1.0  0.2761
  C  C1833  1  0.232590  0.970870  0.208170  1.0  0.1827
  C  C1834  1  0.234050  0.962010  0.182330  1.0  -0.1127
  C  C1835  1  0.267500  0.950920  0.156520  1.0  -0.0671
  C  C1836  1  0.298120  0.949360  0.158700  1.0  -0.1563
  C  C1837  1  0.293310  0.960650  0.184950  1.0  0.1785
  C  C1838  1  0.041560  0.985380  0.293880  1.0  0.1735
  C  C1839  1  0.072410  0.978690  0.299090  1.0  -0.1392
  C  C1840  1  0.104960  0.975080  0.271060  1.0  -0.0254
  C  C1841  1  0.106080  0.977700  0.238500  1.0  -0.1877
  C  C1842  1  0.074050  0.983950  0.235490  1.0  0.1769
  C  C1843  1  0.139780  0.976140  0.206620  1.0  0.4139
  C  C1844  1  0.167150  0.982670  0.146810  1.0  0.4202
  C  C1845  1  0.199890  0.967390  0.180550  1.0  0.2846
  C  C1846  1  0.195920  0.995640  0.080500  1.0  0.1879
  C  C1847  1  0.165180  0.993120  0.111320  1.0  -0.2126
  C  C1848  1  0.132670  0.003010  0.106890  1.0  -0.0245
  C  C1849  1  0.133000  0.012760  0.072660  1.0  -0.1248
  C  C1850  1  0.165270  0.014070  0.042970  1.0  0.1501
  C  C1851  1  0.239380  0.926700  0.038320  1.0  0.1649
  C  C1852  1  0.234300  0.896900  0.043280  1.0  -0.1842
  C  C1853  1  0.232540  0.894940  0.014580  1.0  -0.0374
  C  C1854  1  0.237370  0.922730  0.981490  1.0  -0.1807
  C  C1855  1  0.242800  0.951700  0.978720  1.0  0.2045
  C  C1856  1  0.236700  0.921780  0.949620  1.0  0.4293
  C  C1857  1  0.959730  0.730270  0.973910  1.0  0.2771
  C  C1858  1  0.204320  0.798000  0.052400  1.0  0.2751
  C  C1859  1  0.232590  0.588370  0.970870  1.0  0.1833
  C  C1860  1  0.234050  0.621610  0.962010  1.0  -0.1146
  C  C1861  1  0.267500  0.625060  0.950920  1.0  -0.0645
  C  C1862  1  0.298120  0.593820  0.949360  1.0  -0.1523
  C  C1863  1  0.293310  0.561090  0.960650  1.0  0.1756
  C  C1864  1  0.041560  0.679180  0.985380  1.0  0.1732
  C  C1865  1  0.072410  0.649810  0.978690  1.0  -0.1456
  C  C1866  1  0.104960  0.648900  0.975080  1.0  -0.0268
  C  C1867  1  0.106080  0.677720  0.977700  1.0  -0.1877
  C  C1868  1  0.074050  0.706510  0.983950  1.0  0.1758
  C  C1869  1  0.139780  0.677460  0.976140  1.0  0.4139
  C  C1870  1  0.167150  0.703370  0.982670  1.0  0.4205
  C  C1871  1  0.199890  0.652170  0.967390  1.0  0.2847
  C  C1872  1  0.195920  0.727940  0.995640  1.0  0.1861
  C  C1873  1  0.165180  0.730380  0.993120  1.0  -0.2119
  C  C1874  1  0.132670  0.757430  0.003010  1.0  -0.0236
  C  C1875  1  0.133000  0.781580  0.012760  1.0  -0.1301
  C  C1876  1  0.165270  0.777690  0.014070  1.0  0.1473
  C  C1877  1  0.239380  0.795600  0.926700  1.0  0.163
  C  C1878  1  0.234300  0.825520  0.896900  1.0  -0.1757
  C  C1879  1  0.232540  0.857940  0.894940  1.0  -0.0353
  C  C1880  1  0.237370  0.858410  0.922730  1.0  -0.1808
  C  C1881  1  0.242800  0.826780  0.951700  1.0  0.2033
  C  C1882  1  0.236700  0.891900  0.921780  1.0  0.4297
  C  C1883  1  0.473910  0.336090  0.459730  1.0  0.2793
  C  C1884  1  0.552400  0.945280  0.704320  1.0  0.2758
  C  C1885  1  0.470870  0.208170  0.732590  1.0  0.1807
  C  C1886  1  0.462010  0.182330  0.734050  1.0  -0.114
  C  C1887  1  0.450920  0.156520  0.767500  1.0  -0.0645
  C  C1888  1  0.449360  0.158700  0.798120  1.0  -0.1585
  C  C1889  1  0.460650  0.184950  0.793310  1.0  0.1758
  C  C1890  1  0.485380  0.293880  0.541560  1.0  0.1756
  C  C1891  1  0.478690  0.299090  0.572410  1.0  -0.1421
  C  C1892  1  0.475080  0.271060  0.604960  1.0  -0.025
  C  C1893  1  0.477700  0.238500  0.606080  1.0  -0.1874
  C  C1894  1  0.483950  0.235490  0.574050  1.0  0.1766
  C  C1895  1  0.476140  0.206620  0.639780  1.0  0.4147
  C  C1896  1  0.482670  0.146810  0.667150  1.0  0.4211
  C  C1897  1  0.467390  0.180550  0.699890  1.0  0.2843
  C  C1898  1  0.495640  0.080500  0.695920  1.0  0.1861
  C  C1899  1  0.493120  0.111320  0.665180  1.0  -0.2089
  C  C1900  1  0.503010  0.106890  0.632670  1.0  -0.0262
  C  C1901  1  0.512760  0.072660  0.633000  1.0  -0.1237
  C  C1902  1  0.514070  0.042970  0.665270  1.0  0.1461
  C  C1903  1  0.426700  0.038320  0.739380  1.0  0.1649
  C  C1904  1  0.396900  0.043280  0.734300  1.0  -0.1791
  C  C1905  1  0.394940  0.014580  0.732540  1.0  -0.0367
  C  C1906  1  0.422730  0.981490  0.737370  1.0  -0.1831
  C  C1907  1  0.451700  0.978720  0.742800  1.0  0.2036
  C  C1908  1  0.421780  0.949620  0.736700  1.0  0.4298
  C  C1909  1  0.230270  0.459730  0.336090  1.0  0.2762
  C  C1910  1  0.298000  0.704320  0.945280  1.0  0.2771
  C  C1911  1  0.088370  0.732590  0.208170  1.0  0.1817
  C  C1912  1  0.121610  0.734050  0.182330  1.0  -0.1144
  C  C1913  1  0.125060  0.767500  0.156520  1.0  -0.0638
  C  C1914  1  0.093820  0.798120  0.158700  1.0  -0.1555
  C  C1915  1  0.061090  0.793310  0.184950  1.0  0.1747
  C  C1916  1  0.179180  0.541560  0.293880  1.0  0.1737
  C  C1917  1  0.149810  0.572410  0.299090  1.0  -0.1436
  C  C1918  1  0.148900  0.604960  0.271060  1.0  -0.0262
  C  C1919  1  0.177720  0.606080  0.238500  1.0  -0.1864
  C  C1920  1  0.206510  0.574050  0.235490  1.0  0.1768
  C  C1921  1  0.177460  0.639780  0.206620  1.0  0.4139
  C  C1922  1  0.203370  0.667150  0.146810  1.0  0.4198
  C  C1923  1  0.152170  0.699890  0.180550  1.0  0.2842
  C  C1924  1  0.227940  0.695920  0.080500  1.0  0.1875
  C  C1925  1  0.230380  0.665180  0.111320  1.0  -0.2113
  C  C1926  1  0.257430  0.632670  0.106890  1.0  -0.0248
  C  C1927  1  0.281580  0.633000  0.072660  1.0  -0.1241
  C  C1928  1  0.277690  0.665270  0.042970  1.0  0.1474
  C  C1929  1  0.295600  0.739380  0.038320  1.0  0.164
  C  C1930  1  0.325520  0.734300  0.043280  1.0  -0.1796
  C  C1931  1  0.357940  0.732540  0.014580  1.0  -0.0368
  C  C1932  1  0.358410  0.737370  0.981490  1.0  -0.1815
  C  C1933  1  0.326780  0.742800  0.978720  1.0  0.2035
  C  C1934  1  0.391900  0.736700  0.949620  1.0  0.4302
  C  C1935  1  0.836090  0.973910  0.730270  1.0  0.2785
  C  C1936  1  0.445280  0.052400  0.798000  1.0  0.2773
  C  C1937  1  0.708170  0.970870  0.588370  1.0  0.1806
  C  C1938  1  0.682330  0.962010  0.621610  1.0  -0.1136
  C  C1939  1  0.656520  0.950920  0.625060  1.0  -0.0641
  C  C1940  1  0.658700  0.949360  0.593820  1.0  -0.1574
  C  C1941  1  0.684950  0.960650  0.561090  1.0  0.1769
  C  C1942  1  0.793880  0.985380  0.679180  1.0  0.1794
  C  C1943  1  0.799090  0.978690  0.649810  1.0  -0.1382
  C  C1944  1  0.771060  0.975080  0.648900  1.0  -0.0271
  C  C1945  1  0.738500  0.977700  0.677720  1.0  -0.1855
  C  C1946  1  0.735490  0.983950  0.706510  1.0  0.1786
  C  C1947  1  0.706620  0.976140  0.677460  1.0  0.4143
  C  C1948  1  0.646810  0.982670  0.703370  1.0  0.421
  C  C1949  1  0.680550  0.967390  0.652170  1.0  0.2841
  C  C1950  1  0.580500  0.995640  0.727940  1.0  0.1891
  C  C1951  1  0.611320  0.993120  0.730380  1.0  -0.21
  C  C1952  1  0.606890  0.003010  0.757430  1.0  -0.026
  C  C1953  1  0.572660  0.012760  0.781580  1.0  -0.1229
  C  C1954  1  0.542970  0.014070  0.777690  1.0  0.147
  C  C1955  1  0.538320  0.926700  0.795600  1.0  0.165
  C  C1956  1  0.543280  0.896900  0.825520  1.0  -0.1823
  C  C1957  1  0.514580  0.894940  0.857940  1.0  -0.0374
  C  C1958  1  0.481490  0.922730  0.858410  1.0  -0.1819
  C  C1959  1  0.478720  0.951700  0.826780  1.0  0.2037
  C  C1960  1  0.449620  0.921780  0.891900  1.0  0.4288
  C  C1961  1  0.473910  0.730270  0.336090  1.0  0.2761
  C  C1962  1  0.552400  0.798000  0.945280  1.0  0.2812
  C  C1963  1  0.470870  0.588370  0.208170  1.0  0.1843
  C  C1964  1  0.462010  0.621610  0.182330  1.0  -0.1133
  C  C1965  1  0.450920  0.625060  0.156520  1.0  -0.0647
  C  C1966  1  0.449360  0.593820  0.158700  1.0  -0.1526
  C  C1967  1  0.460650  0.561090  0.184950  1.0  0.1756
  C  C1968  1  0.485380  0.679180  0.293880  1.0  0.1727
  C  C1969  1  0.478690  0.649810  0.299090  1.0  -0.1483
  C  C1970  1  0.475080  0.648900  0.271060  1.0  -0.0273
  C  C1971  1  0.477700  0.677720  0.238500  1.0  -0.1888
  C  C1972  1  0.483950  0.706510  0.235490  1.0  0.1759
  C  C1973  1  0.476140  0.677460  0.206620  1.0  0.4141
  C  C1974  1  0.482670  0.703370  0.146810  1.0  0.4203
  C  C1975  1  0.467390  0.652170  0.180550  1.0  0.2848
  C  C1976  1  0.495640  0.727940  0.080500  1.0  0.1887
  C  C1977  1  0.493120  0.730380  0.111320  1.0  -0.207
  C  C1978  1  0.503010  0.757430  0.106890  1.0  -0.0253
  C  C1979  1  0.512760  0.781580  0.072660  1.0  -0.1281
  C  C1980  1  0.514070  0.777690  0.042970  1.0  0.1514
  C  C1981  1  0.426700  0.795600  0.038320  1.0  0.1657
  C  C1982  1  0.396900  0.825520  0.043280  1.0  -0.1818
  C  C1983  1  0.394940  0.857940  0.014580  1.0  -0.0338
  C  C1984  1  0.422730  0.858410  0.981490  1.0  -0.1828
  C  C1985  1  0.451700  0.826780  0.978720  1.0  0.2039
  C  C1986  1  0.421780  0.891900  0.949620  1.0  0.43
  C  C1987  1  0.959730  0.336090  0.730270  1.0  0.2773
  C  C1988  1  0.204320  0.945280  0.798000  1.0  0.2824
  C  C1989  1  0.232590  0.208170  0.588370  1.0  0.1822
  C  C1990  1  0.234050  0.182330  0.621610  1.0  -0.1118
  C  C1991  1  0.267500  0.156520  0.625060  1.0  -0.0667
  C  C1992  1  0.298120  0.158700  0.593820  1.0  -0.1567
  C  C1993  1  0.293310  0.184950  0.561090  1.0  0.1757
  C  C1994  1  0.041560  0.293880  0.679180  1.0  0.1722
  C  C1995  1  0.072410  0.299090  0.649810  1.0  -0.1418
  C  C1996  1  0.104960  0.271060  0.648900  1.0  -0.0276
  C  C1997  1  0.106080  0.238500  0.677720  1.0  -0.1872
  C  C1998  1  0.074050  0.235490  0.706510  1.0  0.1762
  C  C1999  1  0.139780  0.206620  0.677460  1.0  0.4146
  C  C2000  1  0.167150  0.146810  0.703370  1.0  0.4211
  C  C2001  1  0.199890  0.180550  0.652170  1.0  0.2845
  C  C2002  1  0.195920  0.080500  0.727940  1.0  0.1878
  C  C2003  1  0.165180  0.111320  0.730380  1.0  -0.2105
  C  C2004  1  0.132670  0.106890  0.757430  1.0  -0.0238
  C  C2005  1  0.133000  0.072660  0.781580  1.0  -0.1251
  C  C2006  1  0.165270  0.042970  0.777690  1.0  0.1481
  C  C2007  1  0.239380  0.038320  0.795600  1.0  0.1645
  C  C2008  1  0.234300  0.043280  0.825520  1.0  -0.1804
  C  C2009  1  0.232540  0.014580  0.857940  1.0  -0.0322
  C  C2010  1  0.237370  0.981490  0.858410  1.0  -0.1785
  C  C2011  1  0.242800  0.978720  0.826780  1.0  0.2063
  C  C2012  1  0.236700  0.949620  0.891900  1.0  0.4292
  C  C2013  1  0.836090  0.459730  0.973910  1.0  0.279
  C  C2014  1  0.445280  0.704320  0.052400  1.0  0.2832
  C  C2015  1  0.708170  0.732590  0.970870  1.0  0.1804
  C  C2016  1  0.682330  0.734050  0.962010  1.0  -0.1144
  C  C2017  1  0.656520  0.767500  0.950920  1.0  -0.0663
  C  C2018  1  0.658700  0.798120  0.949360  1.0  -0.1577
  C  C2019  1  0.684950  0.793310  0.960650  1.0  0.1736
  C  C2020  1  0.793880  0.541560  0.985380  1.0  0.1744
  C  C2021  1  0.799090  0.572410  0.978690  1.0  -0.1378
  C  C2022  1  0.771060  0.604960  0.975080  1.0  -0.0262
  C  C2023  1  0.738500  0.606080  0.977700  1.0  -0.1875
  C  C2024  1  0.735490  0.574050  0.983950  1.0  0.178
  C  C2025  1  0.706620  0.639780  0.976140  1.0  0.4134
  C  C2026  1  0.646810  0.667150  0.982670  1.0  0.4208
  C  C2027  1  0.680550  0.699890  0.967390  1.0  0.2845
  C  C2028  1  0.580500  0.695920  0.995640  1.0  0.1859
  C  C2029  1  0.611320  0.665180  0.993120  1.0  -0.211
  C  C2030  1  0.606890  0.632670  0.003010  1.0  -0.0237
  C  C2031  1  0.572660  0.633000  0.012760  1.0  -0.1265
  C  C2032  1  0.542970  0.665270  0.014070  1.0  0.1454
  C  C2033  1  0.538320  0.739380  0.926700  1.0  0.167
  C  C2034  1  0.543280  0.734300  0.896900  1.0  -0.1797
  C  C2035  1  0.514580  0.732540  0.894940  1.0  -0.0361
  C  C2036  1  0.481490  0.737370  0.922730  1.0  -0.1786
  C  C2037  1  0.478720  0.742800  0.951700  1.0  0.2045
  C  C2038  1  0.449620  0.736700  0.921780  1.0  0.4291
  C  C2039  1  0.230270  0.973910  0.459730  1.0  0.276
  C  C2040  1  0.298000  0.052400  0.704320  1.0  0.2821
  C  C2041  1  0.088370  0.970870  0.732590  1.0  0.1834
  C  C2042  1  0.121610  0.962010  0.734050  1.0  -0.1151
  C  C2043  1  0.125060  0.950920  0.767500  1.0  -0.064
  C  C2044  1  0.093820  0.949360  0.798120  1.0  -0.1523
  C  C2045  1  0.061090  0.960650  0.793310  1.0  0.1761
  C  C2046  1  0.179180  0.985380  0.541560  1.0  0.1768
  C  C2047  1  0.149810  0.978690  0.572410  1.0  -0.1405
  C  C2048  1  0.148900  0.975080  0.604960  1.0  -0.026
  C  C2049  1  0.177720  0.977700  0.606080  1.0  -0.1891
  C  C2050  1  0.206510  0.983950  0.574050  1.0  0.1765
  C  C2051  1  0.177460  0.976140  0.639780  1.0  0.414
  C  C2052  1  0.203370  0.982670  0.667150  1.0  0.4199
  C  C2053  1  0.152170  0.967390  0.699890  1.0  0.2846
  C  C2054  1  0.227940  0.995640  0.695920  1.0  0.188
  C  C2055  1  0.230380  0.993120  0.665180  1.0  -0.2088
  C  C2056  1  0.257430  0.003010  0.632670  1.0  -0.0251
  C  C2057  1  0.281580  0.012760  0.633000  1.0  -0.1222
  C  C2058  1  0.277690  0.014070  0.665270  1.0  0.1534
  C  C2059  1  0.295600  0.926700  0.739380  1.0  0.164
  C  C2060  1  0.325520  0.896900  0.734300  1.0  -0.1829
  C  C2061  1  0.357940  0.894940  0.732540  1.0  -0.0365
  C  C2062  1  0.358410  0.922730  0.737370  1.0  -0.1831
  C  C2063  1  0.326780  0.951700  0.742800  1.0  0.2028
  C  C2064  1  0.391900  0.921780  0.736700  1.0  0.4293
  S  S2065  1  0.709000  0.879640  0.946360  1.0  -0.3178
  S  S2066  1  0.824090  0.414410  0.184550  1.0  -0.2289
  S  S2067  1  0.379640  0.209000  0.465000  1.0  -0.3131
  S  S2068  1  0.914410  0.324090  0.576950  1.0  -0.2303
  S  S2069  1  0.446360  0.465000  0.209000  1.0  -0.3156
  S  S2070  1  0.684550  0.576950  0.324090  1.0  -0.2315
  S  S2071  1  0.965000  0.946360  0.879640  1.0  -0.3178
  S  S2072  1  0.076950  0.184550  0.414410  1.0  -0.229
  S  S2073  1  0.709000  0.946360  0.465000  1.0  -0.3166
  S  S2074  1  0.824090  0.184550  0.576950  1.0  -0.2313
  S  S2075  1  0.379640  0.465000  0.946360  1.0  -0.3145
  S  S2076  1  0.914410  0.576950  0.184550  1.0  -0.228
  S  S2077  1  0.446360  0.209000  0.879640  1.0  -0.3167
  S  S2078  1  0.684550  0.324090  0.414410  1.0  -0.2285
  S  S2079  1  0.965000  0.879640  0.209000  1.0  -0.3177
  S  S2080  1  0.076950  0.414410  0.324090  1.0  -0.2308
  S  S2081  1  0.709000  0.465000  0.879640  1.0  -0.3169
  S  S2082  1  0.824090  0.576950  0.414410  1.0  -0.229
  S  S2083  1  0.379640  0.946360  0.209000  1.0  -0.3149
  S  S2084  1  0.914410  0.184550  0.324090  1.0  -0.2315
  S  S2085  1  0.446360  0.879640  0.465000  1.0  -0.3181
  S  S2086  1  0.684550  0.414410  0.576950  1.0  -0.2313
  S  S2087  1  0.965000  0.209000  0.946360  1.0  -0.3156
  S  S2088  1  0.076950  0.324090  0.184550  1.0  -0.2278
  S  S2089  1  0.120360  0.291000  0.553640  1.0  -0.3157
  S  S2090  1  0.585590  0.175910  0.315450  1.0  -0.2311
  S  S2091  1  0.791000  0.620360  0.035000  1.0  -0.3162
  S  S2092  1  0.675910  0.085590  0.923050  1.0  -0.2283
  S  S2093  1  0.535000  0.553640  0.291000  1.0  -0.3164
  S  S2094  1  0.423050  0.315450  0.175910  1.0  -0.2288
  S  S2095  1  0.053640  0.035000  0.620360  1.0  -0.3154
  S  S2096  1  0.815450  0.923050  0.085590  1.0  -0.2313
  S  S2097  1  0.053640  0.291000  0.035000  1.0  -0.3159
  S  S2098  1  0.815450  0.175910  0.923050  1.0  -0.2285
  S  S2099  1  0.535000  0.620360  0.553640  1.0  -0.3164
  S  S2100  1  0.423050  0.085590  0.315450  1.0  -0.2302
  S  S2101  1  0.791000  0.553640  0.620360  1.0  -0.3146
  S  S2102  1  0.675910  0.315450  0.085590  1.0  -0.2305
  S  S2103  1  0.120360  0.035000  0.291000  1.0  -0.3155
  S  S2104  1  0.585590  0.923050  0.175910  1.0  -0.2287
  S  S2105  1  0.535000  0.291000  0.620360  1.0  -0.3158
  S  S2106  1  0.423050  0.175910  0.085590  1.0  -0.2312
  S  S2107  1  0.053640  0.620360  0.291000  1.0  -0.3172
  S  S2108  1  0.815450  0.085590  0.175910  1.0  -0.2289
  S  S2109  1  0.120360  0.553640  0.035000  1.0  -0.3159
  S  S2110  1  0.585590  0.315450  0.923050  1.0  -0.2282
  S  S2111  1  0.791000  0.035000  0.553640  1.0  -0.3147
  S  S2112  1  0.675910  0.923050  0.315450  1.0  -0.231
  S  S2113  1  0.291000  0.120360  0.053640  1.0  -0.3162
  S  S2114  1  0.175910  0.585590  0.815450  1.0  -0.2303
  S  S2115  1  0.620360  0.791000  0.535000  1.0  -0.3158
  S  S2116  1  0.085590  0.675910  0.423050  1.0  -0.2292
  S  S2117  1  0.553640  0.535000  0.791000  1.0  -0.3159
  S  S2118  1  0.315450  0.423050  0.675910  1.0  -0.2291
  S  S2119  1  0.035000  0.053640  0.120360  1.0  -0.3154
  S  S2120  1  0.923050  0.815450  0.585590  1.0  -0.2311
  S  S2121  1  0.291000  0.053640  0.535000  1.0  -0.3151
  S  S2122  1  0.175910  0.815450  0.423050  1.0  -0.2287
  S  S2123  1  0.620360  0.535000  0.053640  1.0  -0.3155
  S  S2124  1  0.085590  0.423050  0.815450  1.0  -0.2312
  S  S2125  1  0.553640  0.791000  0.120360  1.0  -0.3159
  S  S2126  1  0.315450  0.675910  0.585590  1.0  -0.2304
  S  S2127  1  0.035000  0.120360  0.791000  1.0  -0.3164
  S  S2128  1  0.923050  0.585590  0.675910  1.0  -0.2277
  S  S2129  1  0.291000  0.535000  0.120360  1.0  -0.3144
  S  S2130  1  0.175910  0.423050  0.585590  1.0  -0.2314
  S  S2131  1  0.620360  0.053640  0.791000  1.0  -0.3157
  S  S2132  1  0.085590  0.815450  0.675910  1.0  -0.2289
  S  S2133  1  0.553640  0.120360  0.535000  1.0  -0.3172
  S  S2134  1  0.315450  0.585590  0.423050  1.0  -0.2283
  S  S2135  1  0.035000  0.791000  0.053640  1.0  -0.316
  S  S2136  1  0.923050  0.675910  0.815450  1.0  -0.2308
  S  S2137  1  0.879640  0.709000  0.446360  1.0  -0.3131
  S  S2138  1  0.414410  0.824090  0.684550  1.0  -0.2282
  S  S2139  1  0.209000  0.379640  0.965000  1.0  -0.3179
  S  S2140  1  0.324090  0.914410  0.076950  1.0  -0.2312
  S  S2141  1  0.465000  0.446360  0.709000  1.0  -0.3164
  S  S2142  1  0.576950  0.684550  0.824090  1.0  -0.2311
  S  S2143  1  0.946360  0.965000  0.379640  1.0  -0.3171
  S  S2144  1  0.184550  0.076950  0.914410  1.0  -0.2289
  S  S2145  1  0.946360  0.709000  0.965000  1.0  -0.3153
  S  S2146  1  0.184550  0.824090  0.076950  1.0  -0.2308
  S  S2147  1  0.465000  0.379640  0.446360  1.0  -0.3177
  S  S2148  1  0.576950  0.914410  0.684550  1.0  -0.2289
  S  S2149  1  0.209000  0.446360  0.379640  1.0  -0.3177
  S  S2150  1  0.324090  0.684550  0.914410  1.0  -0.2289
  S  S2151  1  0.879640  0.965000  0.709000  1.0  -0.3146
  S  S2152  1  0.414410  0.076950  0.824090  1.0  -0.2302
  S  S2153  1  0.465000  0.709000  0.379640  1.0  -0.3168
  S  S2154  1  0.576950  0.824090  0.914410  1.0  -0.2284
  S  S2155  1  0.946360  0.379640  0.709000  1.0  -0.3182
  S  S2156  1  0.184550  0.914410  0.824090  1.0  -0.2315
  S  S2157  1  0.879640  0.446360  0.965000  1.0  -0.3149
  S  S2158  1  0.414410  0.684550  0.076950  1.0  -0.2313
  S  S2159  1  0.209000  0.965000  0.446360  1.0  -0.3162
  S  S2160  1  0.324090  0.076950  0.684550  1.0  -0.2284
  N  N2161  1  0.744740  0.804800  0.969100  1.0  -0.4478
  N  N2162  1  0.779260  0.466600  0.218320  1.0  -0.3686
  N  N2163  1  0.557630  0.709610  0.261350  1.0  -0.3451
  N  N2164  1  0.707400  0.762400  0.041840  1.0  -0.3544
  N  N2165  1  0.704410  0.675110  0.136670  1.0  -0.4314
  N  N2166  1  0.650770  0.710850  0.170410  1.0  -0.4326
  N  N2167  1  0.678450  0.648090  0.200350  1.0  -0.4656
  N  N2168  1  0.751110  0.547290  0.196610  1.0  -0.3081
  N  N2169  1  0.795450  0.506390  0.244070  1.0  -0.319
  N  N2170  1  0.919990  0.451970  0.236750  1.0  -0.4191
  N  N2171  1  0.304800  0.244740  0.481360  1.0  -0.4478
  N  N2172  1  0.966600  0.279260  0.535820  1.0  -0.37
  N  N2173  1  0.209610  0.057630  0.471410  1.0  -0.3469
  N  N2174  1  0.262400  0.207400  0.488360  1.0  -0.3575
  N  N2175  1  0.175110  0.204410  0.483810  1.0  -0.4293
  N  N2176  1  0.210850  0.150770  0.467970  1.0  -0.4346
  N  N2177  1  0.148090  0.178450  0.473110  1.0  -0.466
  N  N2178  1  0.047290  0.251110  0.504990  1.0  -0.3075
  N  N2179  1  0.006390  0.295450  0.454090  1.0  -0.3212
  N  N2180  1  0.951970  0.419990  0.391290  1.0  -0.4213
  N  N2181  1  0.469100  0.481360  0.244740  1.0  -0.4459
  N  N2182  1  0.718320  0.535820  0.279260  1.0  -0.3696
  N  N2183  1  0.761350  0.471410  0.057630  1.0  -0.3465
  N  N2184  1  0.541840  0.488360  0.207400  1.0  -0.352
  N  N2185  1  0.636670  0.483810  0.204410  1.0  -0.4297
  N  N2186  1  0.670410  0.467970  0.150770  1.0  -0.4357
  N  N2187  1  0.700350  0.473110  0.178450  1.0  -0.4663
  N  N2188  1  0.696610  0.504990  0.251110  1.0  -0.3048
  N  N2189  1  0.744070  0.454090  0.295450  1.0  -0.3203
  N  N2190  1  0.736750  0.391290  0.419990  1.0  -0.4208
  N  N2191  1  0.981360  0.969100  0.804800  1.0  -0.4475
  N  N2192  1  0.035820  0.218320  0.466600  1.0  -0.3686
  N  N2193  1  0.971410  0.261350  0.709610  1.0  -0.3478
  N  N2194  1  0.988360  0.041840  0.762400  1.0  -0.3574
  N  N2195  1  0.983810  0.136670  0.675110  1.0  -0.4281
  N  N2196  1  0.967970  0.170410  0.710850  1.0  -0.4334
  N  N2197  1  0.973110  0.200350  0.648090  1.0  -0.466
  N  N2198  1  0.004990  0.196610  0.547290  1.0  -0.3074
  N  N2199  1  0.954090  0.244070  0.506390  1.0  -0.3189
  N  N2200  1  0.891290  0.236750  0.451970  1.0  -0.4197
  N  N2201  1  0.744740  0.969100  0.481360  1.0  -0.444
  N  N2202  1  0.779260  0.218320  0.535820  1.0  -0.3668
  N  N2203  1  0.557630  0.261350  0.471410  1.0  -0.3432
  N  N2204  1  0.707400  0.041840  0.488360  1.0  -0.3554
  N  N2205  1  0.704410  0.136670  0.483810  1.0  -0.4269
  N  N2206  1  0.650770  0.170410  0.467970  1.0  -0.4333
  N  N2207  1  0.678450  0.200350  0.473110  1.0  -0.4649
  N  N2208  1  0.751110  0.196610  0.504990  1.0  -0.3084
  N  N2209  1  0.795450  0.244070  0.454090  1.0  -0.3203
  N  N2210  1  0.919990  0.236750  0.391290  1.0  -0.4216
  N  N2211  1  0.304800  0.481360  0.969100  1.0  -0.4471
  N  N2212  1  0.966600  0.535820  0.218320  1.0  -0.3681
  N  N2213  1  0.209610  0.471410  0.261350  1.0  -0.3455
  N  N2214  1  0.262400  0.488360  0.041840  1.0  -0.3548
  N  N2215  1  0.175110  0.483810  0.136670  1.0  -0.4306
  N  N2216  1  0.210850  0.467970  0.170410  1.0  -0.434
  N  N2217  1  0.148090  0.473110  0.200350  1.0  -0.4658
  N  N2218  1  0.047290  0.504990  0.196610  1.0  -0.3067
  N  N2219  1  0.006390  0.454090  0.244070  1.0  -0.3223
  N  N2220  1  0.951970  0.391290  0.236750  1.0  -0.4194
  N  N2221  1  0.469100  0.244740  0.804800  1.0  -0.4484
  N  N2222  1  0.718320  0.279260  0.466600  1.0  -0.3674
  N  N2223  1  0.761350  0.057630  0.709610  1.0  -0.3458
  N  N2224  1  0.541840  0.207400  0.762400  1.0  -0.3532
  N  N2225  1  0.636670  0.204410  0.675110  1.0  -0.4287
  N  N2226  1  0.670410  0.150770  0.710850  1.0  -0.4328
  N  N2227  1  0.700350  0.178450  0.648090  1.0  -0.4663
  N  N2228  1  0.696610  0.251110  0.547290  1.0  -0.3058
  N  N2229  1  0.744070  0.295450  0.506390  1.0  -0.3222
  N  N2230  1  0.736750  0.419990  0.451970  1.0  -0.4207
  N  N2231  1  0.981360  0.804800  0.244740  1.0  -0.4488
  N  N2232  1  0.035820  0.466600  0.279260  1.0  -0.368
  N  N2233  1  0.971410  0.709610  0.057630  1.0  -0.3468
  N  N2234  1  0.988360  0.762400  0.207400  1.0  -0.3581
  N  N2235  1  0.983810  0.675110  0.204410  1.0  -0.4299
  N  N2236  1  0.967970  0.710850  0.150770  1.0  -0.4333
  N  N2237  1  0.973110  0.648090  0.178450  1.0  -0.4652
  N  N2238  1  0.004990  0.547290  0.251110  1.0  -0.3082
  N  N2239  1  0.954090  0.506390  0.295450  1.0  -0.3208
  N  N2240  1  0.891290  0.451970  0.419990  1.0  -0.4184
  N  N2241  1  0.744740  0.481360  0.804800  1.0  -0.4432
  N  N2242  1  0.779260  0.535820  0.466600  1.0  -0.3719
  N  N2243  1  0.557630  0.471410  0.709610  1.0  -0.3446
  N  N2244  1  0.707400  0.488360  0.762400  1.0  -0.3536
  N  N2245  1  0.704410  0.483810  0.675110  1.0  -0.4316
  N  N2246  1  0.650770  0.467970  0.710850  1.0  -0.4341
  N  N2247  1  0.678450  0.473110  0.648090  1.0  -0.4689
  N  N2248  1  0.751110  0.504990  0.547290  1.0  -0.309
  N  N2249  1  0.795450  0.454090  0.506390  1.0  -0.3205
  N  N2250  1  0.919990  0.391290  0.451970  1.0  -0.4189
  N  N2251  1  0.304800  0.969100  0.244740  1.0  -0.446
  N  N2252  1  0.966600  0.218320  0.279260  1.0  -0.371
  N  N2253  1  0.209610  0.261350  0.057630  1.0  -0.3455
  N  N2254  1  0.262400  0.041840  0.207400  1.0  -0.3553
  N  N2255  1  0.175110  0.136670  0.204410  1.0  -0.4276
  N  N2256  1  0.210850  0.170410  0.150770  1.0  -0.4349
  N  N2257  1  0.148090  0.200350  0.178450  1.0  -0.4655
  N  N2258  1  0.047290  0.196610  0.251110  1.0  -0.3065
  N  N2259  1  0.006390  0.244070  0.295450  1.0  -0.3228
  N  N2260  1  0.951970  0.236750  0.419990  1.0  -0.4207
  N  N2261  1  0.469100  0.804800  0.481360  1.0  -0.4471
  N  N2262  1  0.718320  0.466600  0.535820  1.0  -0.3728
  N  N2263  1  0.761350  0.709610  0.471410  1.0  -0.3486
  N  N2264  1  0.541840  0.762400  0.488360  1.0  -0.3514
  N  N2265  1  0.636670  0.675110  0.483810  1.0  -0.43
  N  N2266  1  0.670410  0.710850  0.467970  1.0  -0.4325
  N  N2267  1  0.700350  0.648090  0.473110  1.0  -0.464
  N  N2268  1  0.696610  0.547290  0.504990  1.0  -0.3058
  N  N2269  1  0.744070  0.506390  0.454090  1.0  -0.323
  N  N2270  1  0.736750  0.451970  0.391290  1.0  -0.4196
  N  N2271  1  0.981360  0.244740  0.969100  1.0  -0.4459
  N  N2272  1  0.035820  0.279260  0.218320  1.0  -0.3714
  N  N2273  1  0.971410  0.057630  0.261350  1.0  -0.3478
  N  N2274  1  0.988360  0.207400  0.041840  1.0  -0.355
  N  N2275  1  0.983810  0.204410  0.136670  1.0  -0.4274
  N  N2276  1  0.967970  0.150770  0.170410  1.0  -0.4336
  N  N2277  1  0.973110  0.178450  0.200350  1.0  -0.4681
  N  N2278  1  0.004990  0.251110  0.196610  1.0  -0.3083
  N  N2279  1  0.954090  0.295450  0.244070  1.0  -0.3202
  N  N2280  1  0.891290  0.419990  0.236750  1.0  -0.4204
  N  N2281  1  0.195200  0.255260  0.530900  1.0  -0.4438
  N  N2282  1  0.533400  0.220740  0.281680  1.0  -0.3682
  N  N2283  1  0.290390  0.442370  0.238650  1.0  -0.3454
  N  N2284  1  0.237600  0.292600  0.458160  1.0  -0.3584
  N  N2285  1  0.324890  0.295590  0.363330  1.0  -0.4278
  N  N2286  1  0.289150  0.349230  0.329590  1.0  -0.4347
  N  N2287  1  0.351910  0.321550  0.299650  1.0  -0.4662
  N  N2288  1  0.452710  0.248890  0.303390  1.0  -0.3063
  N  N2289  1  0.493610  0.204550  0.255930  1.0  -0.321
  N  N2290  1  0.548030  0.080010  0.263250  1.0  -0.4202
  N  N2291  1  0.755260  0.695200  0.018640  1.0  -0.4468
  N  N2292  1  0.720740  0.033400  0.964180  1.0  -0.3699
  N  N2293  1  0.942370  0.790390  0.028590  1.0  -0.3463
  N  N2294  1  0.792600  0.737600  0.011640  1.0  -0.353
  N  N2295  1  0.795590  0.824890  0.016190  1.0  -0.4293
  N  N2296  1  0.849230  0.789150  0.032030  1.0  -0.4332
  N  N2297  1  0.821550  0.851910  0.026890  1.0  -0.4674
  N  N2298  1  0.748890  0.952710  0.995010  1.0  -0.3073
  N  N2299  1  0.704550  0.993610  0.045910  1.0  -0.3177
  N  N2300  1  0.580010  0.048030  0.108710  1.0  -0.4189
  N  N2301  1  0.518640  0.530900  0.255260  1.0  -0.4441
  N  N2302  1  0.464180  0.281680  0.220740  1.0  -0.3694
  N  N2303  1  0.528590  0.238650  0.442370  1.0  -0.3481
  N  N2304  1  0.511640  0.458160  0.292600  1.0  -0.3564
  N  N2305  1  0.516190  0.363330  0.295590  1.0  -0.4278
  N  N2306  1  0.532030  0.329590  0.349230  1.0  -0.4327
  N  N2307  1  0.526890  0.299650  0.321550  1.0  -0.4652
  N  N2308  1  0.495010  0.303390  0.248890  1.0  -0.3081
  N  N2309  1  0.545910  0.255930  0.204550  1.0  -0.3195
  N  N2310  1  0.608710  0.263250  0.080010  1.0  -0.4207
  N  N2311  1  0.030900  0.018640  0.695200  1.0  -0.4457
  N  N2312  1  0.781680  0.964180  0.033400  1.0  -0.3679
  N  N2313  1  0.738650  0.028590  0.790390  1.0  -0.3471
  N  N2314  1  0.958160  0.011640  0.737600  1.0  -0.354
  N  N2315  1  0.863330  0.016190  0.824890  1.0  -0.4302
  N  N2316  1  0.829590  0.032030  0.789150  1.0  -0.4355
  N  N2317  1  0.799650  0.026890  0.851910  1.0  -0.4665
  N  N2318  1  0.803390  0.995010  0.952710  1.0  -0.3059
  N  N2319  1  0.755930  0.045910  0.993610  1.0  -0.3215
  N  N2320  1  0.763250  0.108710  0.048030  1.0  -0.42
  N  N2321  1  0.030900  0.255260  0.018640  1.0  -0.4473
  N  N2322  1  0.781680  0.220740  0.964180  1.0  -0.3678
  N  N2323  1  0.738650  0.442370  0.028590  1.0  -0.3463
  N  N2324  1  0.958160  0.292600  0.011640  1.0  -0.355
  N  N2325  1  0.863330  0.295590  0.016190  1.0  -0.4287
  N  N2326  1  0.829590  0.349230  0.032030  1.0  -0.4331
  N  N2327  1  0.799650  0.321550  0.026890  1.0  -0.4662
  N  N2328  1  0.803390  0.248890  0.995010  1.0  -0.3073
  N  N2329  1  0.755930  0.204550  0.045910  1.0  -0.3218
  N  N2330  1  0.763250  0.080010  0.108710  1.0  -0.4208
  N  N2331  1  0.518640  0.695200  0.530900  1.0  -0.4474
  N  N2332  1  0.464180  0.033400  0.281680  1.0  -0.3701
  N  N2333  1  0.528590  0.790390  0.238650  1.0  -0.3452
  N  N2334  1  0.511640  0.737600  0.458160  1.0  -0.3567
  N  N2335  1  0.516190  0.824890  0.363330  1.0  -0.4296
  N  N2336  1  0.532030  0.789150  0.329590  1.0  -0.4342
  N  N2337  1  0.526890  0.851910  0.299650  1.0  -0.4657
  N  N2338  1  0.495010  0.952710  0.303390  1.0  -0.307
  N  N2339  1  0.545910  0.993610  0.255930  1.0  -0.3203
  N  N2340  1  0.608710  0.048030  0.263250  1.0  -0.4188
  N  N2341  1  0.755260  0.530900  0.695200  1.0  -0.4423
  N  N2342  1  0.720740  0.281680  0.033400  1.0  -0.3689
  N  N2343  1  0.942370  0.238650  0.790390  1.0  -0.3449
  N  N2344  1  0.792600  0.458160  0.737600  1.0  -0.3542
  N  N2345  1  0.795590  0.363330  0.824890  1.0  -0.4273
  N  N2346  1  0.849230  0.329590  0.789150  1.0  -0.4344
  N  N2347  1  0.821550  0.299650  0.851910  1.0  -0.4643
  N  N2348  1  0.748890  0.303390  0.952710  1.0  -0.3084
  N  N2349  1  0.704550  0.255930  0.993610  1.0  -0.3195
  N  N2350  1  0.580010  0.263250  0.048030  1.0  -0.4213
  N  N2351  1  0.195200  0.018640  0.255260  1.0  -0.4452
  N  N2352  1  0.533400  0.964180  0.220740  1.0  -0.3666
  N  N2353  1  0.290390  0.028590  0.442370  1.0  -0.3445
  N  N2354  1  0.237600  0.011640  0.292600  1.0  -0.3562
  N  N2355  1  0.324890  0.016190  0.295590  1.0  -0.4305
  N  N2356  1  0.289150  0.032030  0.349230  1.0  -0.4345
  N  N2357  1  0.351910  0.026890  0.321550  1.0  -0.4667
  N  N2358  1  0.452710  0.995010  0.248890  1.0  -0.3062
  N  N2359  1  0.493610  0.045910  0.204550  1.0  -0.3223
  N  N2360  1  0.548030  0.108710  0.080010  1.0  -0.4186
  N  N2361  1  0.518640  0.255260  0.695200  1.0  -0.4454
  N  N2362  1  0.464180  0.220740  0.033400  1.0  -0.3729
  N  N2363  1  0.528590  0.442370  0.790390  1.0  -0.347
  N  N2364  1  0.511640  0.292600  0.737600  1.0  -0.3547
  N  N2365  1  0.516190  0.295590  0.824890  1.0  -0.4275
  N  N2366  1  0.532030  0.349230  0.789150  1.0  -0.4331
  N  N2367  1  0.526890  0.321550  0.851910  1.0  -0.4677
  N  N2368  1  0.495010  0.248890  0.952710  1.0  -0.3085
  N  N2369  1  0.545910  0.204550  0.993610  1.0  -0.3209
  N  N2370  1  0.608710  0.080010  0.048030  1.0  -0.4214
  N  N2371  1  0.030900  0.695200  0.255260  1.0  -0.4466
  N  N2372  1  0.781680  0.033400  0.220740  1.0  -0.3714
  N  N2373  1  0.738650  0.790390  0.442370  1.0  -0.349
  N  N2374  1  0.958160  0.737600  0.292600  1.0  -0.3524
  N  N2375  1  0.863330  0.824890  0.295590  1.0  -0.4305
  N  N2376  1  0.829590  0.789150  0.349230  1.0  -0.4331
  N  N2377  1  0.799650  0.851910  0.321550  1.0  -0.4653
  N  N2378  1  0.803390  0.952710  0.248890  1.0  -0.3059
  N  N2379  1  0.755930  0.993610  0.204550  1.0  -0.323
  N  N2380  1  0.763250  0.048030  0.080010  1.0  -0.4198
  N  N2381  1  0.195200  0.530900  0.018640  1.0  -0.443
  N  N2382  1  0.533400  0.281680  0.964180  1.0  -0.3712
  N  N2383  1  0.290390  0.238650  0.028590  1.0  -0.3441
  N  N2384  1  0.237600  0.458160  0.011640  1.0  -0.3556
  N  N2385  1  0.324890  0.363330  0.016190  1.0  -0.4271
  N  N2386  1  0.289150  0.329590  0.032030  1.0  -0.4352
  N  N2387  1  0.351910  0.299650  0.026890  1.0  -0.4636
  N  N2388  1  0.452710  0.303390  0.995010  1.0  -0.307
  N  N2389  1  0.493610  0.255930  0.045910  1.0  -0.323
  N  N2390  1  0.548030  0.263250  0.108710  1.0  -0.4196
  N  N2391  1  0.755260  0.018640  0.530900  1.0  -0.4423
  N  N2392  1  0.720740  0.964180  0.281680  1.0  -0.371
  N  N2393  1  0.942370  0.028590  0.238650  1.0  -0.3456
  N  N2394  1  0.792600  0.011640  0.458160  1.0  -0.3524
  N  N2395  1  0.795590  0.016190  0.363330  1.0  -0.4294
  N  N2396  1  0.849230  0.032030  0.329590  1.0  -0.4341
  N  N2397  1  0.821550  0.026890  0.299650  1.0  -0.4683
  N  N2398  1  0.748890  0.995010  0.303390  1.0  -0.3092
  N  N2399  1  0.704550  0.045910  0.255930  1.0  -0.3208
  N  N2400  1  0.580010  0.108710  0.263250  1.0  -0.4195
  N  N2401  1  0.255260  0.195200  0.030900  1.0  -0.4473
  N  N2402  1  0.220740  0.533400  0.781680  1.0  -0.3701
  N  N2403  1  0.442370  0.290390  0.738650  1.0  -0.3463
  N  N2404  1  0.292600  0.237600  0.958160  1.0  -0.3532
  N  N2405  1  0.295590  0.324890  0.863330  1.0  -0.4294
  N  N2406  1  0.349230  0.289150  0.829590  1.0  -0.4344
  N  N2407  1  0.321550  0.351910  0.799650  1.0  -0.4676
  N  N2408  1  0.248890  0.452710  0.803390  1.0  -0.3074
  N  N2409  1  0.204550  0.493610  0.755930  1.0  -0.3184
  N  N2410  1  0.080010  0.548030  0.763250  1.0  -0.42
  N  N2411  1  0.695200  0.755260  0.518640  1.0  -0.4446
  N  N2412  1  0.033400  0.720740  0.464180  1.0  -0.3685
  N  N2413  1  0.790390  0.942370  0.528590  1.0  -0.3458
  N  N2414  1  0.737600  0.792600  0.511640  1.0  -0.3582
  N  N2415  1  0.824890  0.795590  0.516190  1.0  -0.4284
  N  N2416  1  0.789150  0.849230  0.532030  1.0  -0.434
  N  N2417  1  0.851910  0.821550  0.526890  1.0  -0.4662
  N  N2418  1  0.952710  0.748890  0.495010  1.0  -0.306
  N  N2419  1  0.993610  0.704550  0.545910  1.0  -0.3206
  N  N2420  1  0.048030  0.580010  0.608710  1.0  -0.4197
  N  N2421  1  0.530900  0.518640  0.755260  1.0  -0.4462
  N  N2422  1  0.281680  0.464180  0.720740  1.0  -0.3671
  N  N2423  1  0.238650  0.528590  0.942370  1.0  -0.3485
  N  N2424  1  0.458160  0.511640  0.792600  1.0  -0.354
  N  N2425  1  0.363330  0.516190  0.795590  1.0  -0.4304
  N  N2426  1  0.329590  0.532030  0.849230  1.0  -0.4347
  N  N2427  1  0.299650  0.526890  0.821550  1.0  -0.4667
  N  N2428  1  0.303390  0.495010  0.748890  1.0  -0.3061
  N  N2429  1  0.255930  0.545910  0.704550  1.0  -0.3217
  N  N2430  1  0.263250  0.608710  0.580010  1.0  -0.4194
  N  N2431  1  0.018640  0.030900  0.195200  1.0  -0.4453
  N  N2432  1  0.964180  0.781680  0.533400  1.0  -0.3708
  N  N2433  1  0.028590  0.738650  0.290390  1.0  -0.3465
  N  N2434  1  0.011640  0.958160  0.237600  1.0  -0.3561
  N  N2435  1  0.016190  0.863330  0.324890  1.0  -0.4282
  N  N2436  1  0.032030  0.829590  0.289150  1.0  -0.4341
  N  N2437  1  0.026890  0.799650  0.351910  1.0  -0.4647
  N  N2438  1  0.995010  0.803390  0.452710  1.0  -0.308
  N  N2439  1  0.045910  0.755930  0.493610  1.0  -0.3193
  N  N2440  1  0.108710  0.763250  0.548030  1.0  -0.4216
  N  N2441  1  0.255260  0.030900  0.518640  1.0  -0.444
  N  N2442  1  0.220740  0.781680  0.464180  1.0  -0.3678
  N  N2443  1  0.442370  0.738650  0.528590  1.0  -0.3446
  N  N2444  1  0.292600  0.958160  0.511640  1.0  -0.3538
  N  N2445  1  0.295590  0.863330  0.516190  1.0  -0.4271
  N  N2446  1  0.349230  0.829590  0.532030  1.0  -0.4329
  N  N2447  1  0.321550  0.799650  0.526890  1.0  -0.464
  N  N2448  1  0.248890  0.803390  0.495010  1.0  -0.3089
  N  N2449  1  0.204550  0.755930  0.545910  1.0  -0.3199
  N  N2450  1  0.080010  0.763250  0.608710  1.0  -0.4208
  N  N2451  1  0.695200  0.518640  0.030900  1.0  -0.4469
  N  N2452  1  0.033400  0.464180  0.781680  1.0  -0.367
  N  N2453  1  0.790390  0.528590  0.738650  1.0  -0.3445
  N  N2454  1  0.737600  0.511640  0.958160  1.0  -0.3578
  N  N2455  1  0.824890  0.516190  0.863330  1.0  -0.4293
  N  N2456  1  0.789150  0.532030  0.829590  1.0  -0.4346
  N  N2457  1  0.851910  0.526890  0.799650  1.0  -0.4668
  N  N2458  1  0.952710  0.495010  0.803390  1.0  -0.3065
  N  N2459  1  0.993610  0.545910  0.755930  1.0  -0.323
  N  N2460  1  0.048030  0.608710  0.763250  1.0  -0.4188
  N  N2461  1  0.530900  0.755260  0.195200  1.0  -0.4477
  N  N2462  1  0.281680  0.720740  0.533400  1.0  -0.3671
  N  N2463  1  0.238650  0.942370  0.290390  1.0  -0.3467
  N  N2464  1  0.458160  0.792600  0.237600  1.0  -0.3556
  N  N2465  1  0.363330  0.795590  0.324890  1.0  -0.4288
  N  N2466  1  0.329590  0.849230  0.289150  1.0  -0.4343
  N  N2467  1  0.299650  0.821550  0.351910  1.0  -0.4665
  N  N2468  1  0.303390  0.748890  0.452710  1.0  -0.3071
  N  N2469  1  0.255930  0.704550  0.493610  1.0  -0.3218
  N  N2470  1  0.263250  0.580010  0.548030  1.0  -0.4213
  N  N2471  1  0.018640  0.195200  0.755260  1.0  -0.4474
  N  N2472  1  0.964180  0.533400  0.720740  1.0  -0.3689
  N  N2473  1  0.028590  0.290390  0.942370  1.0  -0.3454
  N  N2474  1  0.011640  0.237600  0.792600  1.0  -0.3548
  N  N2475  1  0.016190  0.324890  0.795590  1.0  -0.4301
  N  N2476  1  0.032030  0.289150  0.849230  1.0  -0.4334
  N  N2477  1  0.026890  0.351910  0.821550  1.0  -0.4655
  N  N2478  1  0.995010  0.452710  0.748890  1.0  -0.3067
  N  N2479  1  0.045910  0.493610  0.704550  1.0  -0.3202
  N  N2480  1  0.108710  0.548030  0.580010  1.0  -0.4188
  N  N2481  1  0.255260  0.518640  0.195200  1.0  -0.4444
  N  N2482  1  0.220740  0.464180  0.533400  1.0  -0.3713
  N  N2483  1  0.442370  0.528590  0.290390  1.0  -0.3456
  N  N2484  1  0.292600  0.511640  0.237600  1.0  -0.352
  N  N2485  1  0.295590  0.516190  0.324890  1.0  -0.4295
  N  N2486  1  0.349230  0.532030  0.289150  1.0  -0.4346
  N  N2487  1  0.321550  0.526890  0.351910  1.0  -0.4672
  N  N2488  1  0.248890  0.495010  0.452710  1.0  -0.3084
  N  N2489  1  0.204550  0.545910  0.493610  1.0  -0.3205
  N  N2490  1  0.080010  0.608710  0.548030  1.0  -0.4203
  N  N2491  1  0.695200  0.030900  0.755260  1.0  -0.4432
  N  N2492  1  0.033400  0.781680  0.720740  1.0  -0.3711
  N  N2493  1  0.790390  0.738650  0.942370  1.0  -0.3454
  N  N2494  1  0.737600  0.958160  0.792600  1.0  -0.3555
  N  N2495  1  0.824890  0.863330  0.795590  1.0  -0.4269
  N  N2496  1  0.789150  0.829590  0.849230  1.0  -0.4349
  N  N2497  1  0.851910  0.799650  0.821550  1.0  -0.4631
  N  N2498  1  0.952710  0.803390  0.748890  1.0  -0.307
  N  N2499  1  0.993610  0.755930  0.704550  1.0  -0.3234
  N  N2500  1  0.048030  0.763250  0.580010  1.0  -0.42
  N  N2501  1  0.530900  0.195200  0.518640  1.0  -0.4482
  N  N2502  1  0.281680  0.533400  0.464180  1.0  -0.3714
  N  N2503  1  0.238650  0.290390  0.528590  1.0  -0.3475
  N  N2504  1  0.458160  0.237600  0.511640  1.0  -0.3526
  N  N2505  1  0.363330  0.324890  0.516190  1.0  -0.4305
  N  N2506  1  0.329590  0.289150  0.532030  1.0  -0.4333
  N  N2507  1  0.299650  0.351910  0.526890  1.0  -0.4658
  N  N2508  1  0.303390  0.452710  0.495010  1.0  -0.3061
  N  N2509  1  0.255930  0.493610  0.545910  1.0  -0.3217
  N  N2510  1  0.263250  0.548030  0.608710  1.0  -0.419
  N  N2511  1  0.018640  0.755260  0.030900  1.0  -0.4463
  N  N2512  1  0.964180  0.720740  0.781680  1.0  -0.3725
  N  N2513  1  0.028590  0.942370  0.738650  1.0  -0.3469
  N  N2514  1  0.011640  0.792600  0.958160  1.0  -0.3549
  N  N2515  1  0.016190  0.795590  0.863330  1.0  -0.4271
  N  N2516  1  0.032030  0.849230  0.829590  1.0  -0.4321
  N  N2517  1  0.026890  0.821550  0.799650  1.0  -0.4691
  N  N2518  1  0.995010  0.748890  0.803390  1.0  -0.3083
  N  N2519  1  0.045910  0.704550  0.755930  1.0  -0.3206
  N  N2520  1  0.108710  0.580010  0.763250  1.0  -0.4205
  N  N2521  1  0.804800  0.744740  0.469100  1.0  -0.4468
  N  N2522  1  0.466600  0.779260  0.718320  1.0  -0.3693
  N  N2523  1  0.709610  0.557630  0.761350  1.0  -0.3473
  N  N2524  1  0.762400  0.707400  0.541840  1.0  -0.357
  N  N2525  1  0.675110  0.704410  0.636670  1.0  -0.4295
  N  N2526  1  0.710850  0.650770  0.670410  1.0  -0.4339
  N  N2527  1  0.648090  0.678450  0.700350  1.0  -0.466
  N  N2528  1  0.547290  0.751110  0.696610  1.0  -0.3069
  N  N2529  1  0.506390  0.795450  0.744070  1.0  -0.3207
  N  N2530  1  0.451970  0.919990  0.736750  1.0  -0.4205
  N  N2531  1  0.244740  0.304800  0.981360  1.0  -0.4464
  N  N2532  1  0.279260  0.966600  0.035820  1.0  -0.3683
  N  N2533  1  0.057630  0.209610  0.971410  1.0  -0.3447
  N  N2534  1  0.207400  0.262400  0.988360  1.0  -0.3549
  N  N2535  1  0.204410  0.175110  0.983810  1.0  -0.4314
  N  N2536  1  0.150770  0.210850  0.967970  1.0  -0.433
  N  N2537  1  0.178450  0.148090  0.973110  1.0  -0.4664
  N  N2538  1  0.251110  0.047290  0.004990  1.0  -0.3084
  N  N2539  1  0.295450  0.006390  0.954090  1.0  -0.3194
  N  N2540  1  0.419990  0.951970  0.891290  1.0  -0.4198
  N  N2541  1  0.481360  0.469100  0.744740  1.0  -0.4461
  N  N2542  1  0.535820  0.718320  0.779260  1.0  -0.369
  N  N2543  1  0.471410  0.761350  0.557630  1.0  -0.3462
  N  N2544  1  0.488360  0.541840  0.707400  1.0  -0.3572
  N  N2545  1  0.483810  0.636670  0.704410  1.0  -0.4277
  N  N2546  1  0.467970  0.670410  0.650770  1.0  -0.4342
  N  N2547  1  0.473110  0.700350  0.678450  1.0  -0.4658
  N  N2548  1  0.504990  0.696610  0.751110  1.0  -0.3074
  N  N2549  1  0.454090  0.744070  0.795450  1.0  -0.3187
  N  N2550  1  0.391290  0.736750  0.919990  1.0  -0.4204
  N  N2551  1  0.969100  0.981360  0.304800  1.0  -0.4453
  N  N2552  1  0.218320  0.035820  0.966600  1.0  -0.368
  N  N2553  1  0.261350  0.971410  0.209610  1.0  -0.3483
  N  N2554  1  0.041840  0.988360  0.262400  1.0  -0.3525
  N  N2555  1  0.136670  0.983810  0.175110  1.0  -0.4296
  N  N2556  1  0.170410  0.967970  0.210850  1.0  -0.4341
  N  N2557  1  0.200350  0.973110  0.148090  1.0  -0.4668
  N  N2558  1  0.196610  0.004990  0.047290  1.0  -0.3048
  N  N2559  1  0.244070  0.954090  0.006390  1.0  -0.3206
  N  N2560  1  0.236750  0.891290  0.951970  1.0  -0.4195
  N  N2561  1  0.969100  0.744740  0.981360  1.0  -0.4457
  N  N2562  1  0.218320  0.779260  0.035820  1.0  -0.3684
  N  N2563  1  0.261350  0.557630  0.971410  1.0  -0.3459
  N  N2564  1  0.041840  0.707400  0.988360  1.0  -0.3538
  N  N2565  1  0.136670  0.704410  0.983810  1.0  -0.4289
  N  N2566  1  0.170410  0.650770  0.967970  1.0  -0.4343
  N  N2567  1  0.200350  0.678450  0.973110  1.0  -0.4665
  N  N2568  1  0.196610  0.751110  0.004990  1.0  -0.3053
  N  N2569  1  0.244070  0.795450  0.954090  1.0  -0.3217
  N  N2570  1  0.236750  0.919990  0.891290  1.0  -0.4214
  N  N2571  1  0.481360  0.304800  0.469100  1.0  -0.4466
  N  N2572  1  0.535820  0.966600  0.718320  1.0  -0.3684
  N  N2573  1  0.471410  0.209610  0.761350  1.0  -0.3467
  N  N2574  1  0.488360  0.262400  0.541840  1.0  -0.3562
  N  N2575  1  0.483810  0.175110  0.636670  1.0  -0.4305
  N  N2576  1  0.467970  0.210850  0.670410  1.0  -0.4329
  N  N2577  1  0.473110  0.148090  0.700350  1.0  -0.4649
  N  N2578  1  0.504990  0.047290  0.696610  1.0  -0.3076
  N  N2579  1  0.454090  0.006390  0.744070  1.0  -0.3196
  N  N2580  1  0.391290  0.951970  0.736750  1.0  -0.4183
  N  N2581  1  0.244740  0.469100  0.304800  1.0  -0.4438
  N  N2582  1  0.279260  0.718320  0.966600  1.0  -0.367
  N  N2583  1  0.057630  0.761350  0.209610  1.0  -0.343
  N  N2584  1  0.207400  0.541840  0.262400  1.0  -0.355
  N  N2585  1  0.204410  0.636670  0.175110  1.0  -0.4268
  N  N2586  1  0.150770  0.670410  0.210850  1.0  -0.4324
  N  N2587  1  0.178450  0.700350  0.148090  1.0  -0.4646
  N  N2588  1  0.251110  0.696610  0.047290  1.0  -0.3085
  N  N2589  1  0.295450  0.744070  0.006390  1.0  -0.3205
  N  N2590  1  0.419990  0.736750  0.951970  1.0  -0.4208
  N  N2591  1  0.804800  0.981360  0.744740  1.0  -0.4463
  N  N2592  1  0.466600  0.035820  0.779260  1.0  -0.3695
  N  N2593  1  0.709610  0.971410  0.557630  1.0  -0.3456
  N  N2594  1  0.762400  0.988360  0.707400  1.0  -0.3566
  N  N2595  1  0.675110  0.983810  0.704410  1.0  -0.43
  N  N2596  1  0.710850  0.967970  0.650770  1.0  -0.4349
  N  N2597  1  0.648090  0.973110  0.678450  1.0  -0.4661
  N  N2598  1  0.547290  0.004990  0.751110  1.0  -0.3073
  N  N2599  1  0.506390  0.954090  0.795450  1.0  -0.3223
  N  N2600  1  0.451970  0.891290  0.919990  1.0  -0.4193
  N  N2601  1  0.481360  0.744740  0.304800  1.0  -0.4456
  N  N2602  1  0.535820  0.779260  0.966600  1.0  -0.3718
  N  N2603  1  0.471410  0.557630  0.209610  1.0  -0.3476
  N  N2604  1  0.488360  0.707400  0.262400  1.0  -0.3555
  N  N2605  1  0.483810  0.704410  0.175110  1.0  -0.4275
  N  N2606  1  0.467970  0.650770  0.210850  1.0  -0.4326
  N  N2607  1  0.473110  0.678450  0.148090  1.0  -0.4691
  N  N2608  1  0.504990  0.751110  0.047290  1.0  -0.3093
  N  N2609  1  0.454090  0.795450  0.006390  1.0  -0.3206
  N  N2610  1  0.391290  0.919990  0.951970  1.0  -0.4196
  N  N2611  1  0.969100  0.304800  0.744740  1.0  -0.4468
  N  N2612  1  0.218320  0.966600  0.779260  1.0  -0.3733
  N  N2613  1  0.261350  0.209610  0.557630  1.0  -0.3477
  N  N2614  1  0.041840  0.262400  0.707400  1.0  -0.3516
  N  N2615  1  0.136670  0.175110  0.704410  1.0  -0.4298
  N  N2616  1  0.170410  0.210850  0.650770  1.0  -0.4329
  N  N2617  1  0.200350  0.148090  0.678450  1.0  -0.4645
  N  N2618  1  0.196610  0.047290  0.751110  1.0  -0.306
  N  N2619  1  0.244070  0.006390  0.795450  1.0  -0.3223
  N  N2620  1  0.236750  0.951970  0.919990  1.0  -0.4193
  N  N2621  1  0.804800  0.469100  0.981360  1.0  -0.445
  N  N2622  1  0.466600  0.718320  0.035820  1.0  -0.3705
  N  N2623  1  0.709610  0.761350  0.971410  1.0  -0.3458
  N  N2624  1  0.762400  0.541840  0.988360  1.0  -0.3554
  N  N2625  1  0.675110  0.636670  0.983810  1.0  -0.4278
  N  N2626  1  0.710850  0.670410  0.967970  1.0  -0.4342
  N  N2627  1  0.648090  0.700350  0.973110  1.0  -0.4648
  N  N2628  1  0.547290  0.696610  0.004990  1.0  -0.3062
  N  N2629  1  0.506390  0.744070  0.954090  1.0  -0.3241
  N  N2630  1  0.451970  0.736750  0.891290  1.0  -0.4213
  N  N2631  1  0.244740  0.981360  0.469100  1.0  -0.4415
  N  N2632  1  0.279260  0.035820  0.718320  1.0  -0.3716
  N  N2633  1  0.057630  0.971410  0.761350  1.0  -0.3447
  N  N2634  1  0.207400  0.988360  0.541840  1.0  -0.3529
  N  N2635  1  0.204410  0.983810  0.636670  1.0  -0.4313
  N  N2636  1  0.150770  0.967970  0.670410  1.0  -0.4348
  N  N2637  1  0.178450  0.973110  0.700350  1.0  -0.4672
  N  N2638  1  0.251110  0.004990  0.696610  1.0  -0.3083
  N  N2639  1  0.295450  0.954090  0.744070  1.0  -0.3205
  N  N2640  1  0.419990  0.891290  0.736750  1.0  -0.4205
