# generated using pymatgen
data_CoH16C26(SN5)2
_symmetry_space_group_name_H-M   'P 1'
_cell_length_a   45.09640000
_cell_length_b   45.09640000
_cell_length_c   45.09640000
_cell_angle_alpha   60.00000000
_cell_angle_beta   60.00000000
_cell_angle_gamma   60.00000000
_symmetry_Int_Tables_number   1
_chemical_formula_structural   CoH16C26(SN5)2
_chemical_formula_sum   'Co48 H768 C1248 S96 N480'
_cell_volume   64850.09611388
_cell_formula_units_Z   48
loop_
 _symmetry_equiv_pos_site_id
 _symmetry_equiv_pos_as_xyz
  1  'x, y, z'
loop_
 _atom_site_type_symbol
 _atom_site_label
 _atom_site_symmetry_multiplicity
 _atom_site_fract_x
 _atom_site_fract_y
 _atom_site_fract_z
 _atom_site_occupancy
 _atom_site_charge
  Co  Co1  1  0.384160  0.625000  0.125000  1.0  0.6795
  Co  Co2  1  0.625000  0.384160  0.865840  1.0  0.6795
  Co  Co3  1  0.125000  0.865840  0.384160  1.0  0.6781
  Co  Co4  1  0.865840  0.125000  0.625000  1.0  0.6787
  Co  Co5  1  0.125000  0.384160  0.625000  1.0  0.6796
  Co  Co6  1  0.865840  0.625000  0.384160  1.0  0.6788
  Co  Co7  1  0.384160  0.125000  0.865840  1.0  0.6794
  Co  Co8  1  0.625000  0.865840  0.125000  1.0  0.678
  Co  Co9  1  0.625000  0.125000  0.384160  1.0  0.679
  Co  Co10  1  0.384160  0.865840  0.625000  1.0  0.6791
  Co  Co11  1  0.865840  0.384160  0.125000  1.0  0.6793
  Co  Co12  1  0.125000  0.625000  0.865840  1.0  0.6802
  Co  Co13  1  0.365840  0.125000  0.625000  1.0  0.6787
  Co  Co14  1  0.125000  0.365840  0.884160  1.0  0.6781
  Co  Co15  1  0.625000  0.884160  0.365840  1.0  0.6795
  Co  Co16  1  0.884160  0.625000  0.125000  1.0  0.6795
  Co  Co17  1  0.625000  0.365840  0.125000  1.0  0.678
  Co  Co18  1  0.884160  0.125000  0.365840  1.0  0.6794
  Co  Co19  1  0.365840  0.625000  0.884160  1.0  0.6788
  Co  Co20  1  0.125000  0.884160  0.625000  1.0  0.6796
  Co  Co21  1  0.125000  0.625000  0.365840  1.0  0.6802
  Co  Co22  1  0.365840  0.884160  0.125000  1.0  0.6793
  Co  Co23  1  0.884160  0.365840  0.625000  1.0  0.6791
  Co  Co24  1  0.625000  0.125000  0.884160  1.0  0.679
  Co  Co25  1  0.377330  0.377330  0.122670  1.0  0.6536
  Co  Co26  1  0.122670  0.122670  0.377330  1.0  0.6568
  Co  Co27  1  0.122670  0.377330  0.377330  1.0  0.6567
  Co  Co28  1  0.377330  0.122670  0.122670  1.0  0.6563
  Co  Co29  1  0.377330  0.122670  0.377330  1.0  0.6566
  Co  Co30  1  0.122670  0.377330  0.122670  1.0  0.6564
  Co  Co31  1  0.872670  0.872670  0.127330  1.0  0.6568
  Co  Co32  1  0.127330  0.127330  0.872670  1.0  0.6536
  Co  Co33  1  0.127330  0.872670  0.127330  1.0  0.6566
  Co  Co34  1  0.872670  0.127330  0.872670  1.0  0.6564
  Co  Co35  1  0.872670  0.127330  0.127330  1.0  0.6567
  Co  Co36  1  0.127330  0.872670  0.872670  1.0  0.6563
  Co  Co37  1  0.372670  0.372670  0.627330  1.0  0.6568
  Co  Co38  1  0.627330  0.627330  0.372670  1.0  0.6536
  Co  Co39  1  0.627330  0.372670  0.372670  1.0  0.6563
  Co  Co40  1  0.372670  0.627330  0.627330  1.0  0.6567
  Co  Co41  1  0.372670  0.627330  0.372670  1.0  0.6564
  Co  Co42  1  0.627330  0.372670  0.627330  1.0  0.6566
  Co  Co43  1  0.877330  0.877330  0.622670  1.0  0.6536
  Co  Co44  1  0.622670  0.622670  0.877330  1.0  0.6568
  Co  Co45  1  0.622670  0.877330  0.622670  1.0  0.6564
  Co  Co46  1  0.877330  0.622670  0.877330  1.0  0.6566
  Co  Co47  1  0.877330  0.622670  0.622670  1.0  0.6563
  Co  Co48  1  0.622670  0.877330  0.877330  1.0  0.6567
  H  H49  1  0.365500  0.586700  0.100100  1.0  0.091
  H  H50  1  0.352900  0.600100  0.963100  1.0  0.0859
  H  H51  1  0.345600  0.331200  0.202800  1.0  0.0911
  H  H52  1  0.331000  0.562000  0.918000  1.0  0.0773
  H  H53  1  0.347600  0.647400  0.004600  1.0  0.1173
  H  H54  1  0.318400  0.513200  0.024800  1.0  0.1316
  H  H55  1  0.367200  0.457400  0.083600  1.0  0.0889
  H  H56  1  0.313700  0.517900  0.972700  1.0  0.1255
  H  H57  1  0.395100  0.393100  0.171300  1.0  0.0955
  H  H58  1  0.355300  0.695500  0.004700  1.0  0.1291
  H  H59  1  0.395600  0.441400  0.177200  1.0  0.1248
  H  H60  1  0.249600  0.392400  0.254400  1.0  0.113
  H  H61  1  0.303600  0.433800  0.148800  1.0  0.0911
  H  H62  1  0.366500  0.686900  0.053900  1.0  0.083
  H  H63  1  0.379900  0.500500  0.134900  1.0  0.1163
  H  H64  1  0.253500  0.442100  0.199900  1.0  0.1297
  H  H65  1  0.586700  0.365500  0.947700  1.0  0.0901
  H  H66  1  0.600100  0.352900  0.083900  1.0  0.0841
  H  H67  1  0.331200  0.345600  0.120400  1.0  0.0896
  H  H68  1  0.562000  0.331000  0.189000  1.0  0.0766
  H  H69  1  0.647400  0.347600  0.000400  1.0  0.1166
  H  H70  1  0.513200  0.318400  0.143600  1.0  0.132
  H  H71  1  0.457400  0.367200  0.091800  1.0  0.0899
  H  H72  1  0.517900  0.313700  0.195700  1.0  0.1258
  H  H73  1  0.393100  0.395100  0.040500  1.0  0.0948
  H  H74  1  0.695500  0.355300  0.944500  1.0  0.1259
  H  H75  1  0.441400  0.395600  0.985800  1.0  0.1234
  H  H76  1  0.392400  0.249600  0.103600  1.0  0.1128
  H  H77  1  0.433800  0.303600  0.113800  1.0  0.0905
  H  H78  1  0.686900  0.366500  0.892700  1.0  0.0825
  H  H79  1  0.500500  0.379900  0.984700  1.0  0.1159
  H  H80  1  0.442100  0.253500  0.104500  1.0  0.1293
  H  H81  1  0.100100  0.947700  0.365500  1.0  0.0901
  H  H82  1  0.963100  0.083900  0.352900  1.0  0.0862
  H  H83  1  0.202800  0.120400  0.345600  1.0  0.0924
  H  H84  1  0.918000  0.189000  0.331000  1.0  0.0763
  H  H85  1  0.004600  0.000400  0.347600  1.0  0.1171
  H  H86  1  0.024800  0.143600  0.318400  1.0  0.1322
  H  H87  1  0.083600  0.091800  0.367200  1.0  0.0881
  H  H88  1  0.972700  0.195700  0.313700  1.0  0.1266
  H  H89  1  0.171300  0.040500  0.395100  1.0  0.0929
  H  H90  1  0.004700  0.944500  0.355300  1.0  0.127
  H  H91  1  0.177200  0.985800  0.395600  1.0  0.1248
  H  H92  1  0.254400  0.103600  0.249600  1.0  0.1138
  H  H93  1  0.148800  0.113800  0.303600  1.0  0.0924
  H  H94  1  0.053900  0.892700  0.366500  1.0  0.0821
  H  H95  1  0.134900  0.984700  0.379900  1.0  0.1165
  H  H96  1  0.199900  0.104500  0.253500  1.0  0.1266
  H  H97  1  0.947700  0.100100  0.586700  1.0  0.0908
  H  H98  1  0.083900  0.963100  0.600100  1.0  0.0844
  H  H99  1  0.120400  0.202800  0.331200  1.0  0.0922
  H  H100  1  0.189000  0.918000  0.562000  1.0  0.0761
  H  H101  1  0.000400  0.004600  0.647400  1.0  0.1176
  H  H102  1  0.143600  0.024800  0.513200  1.0  0.1324
  H  H103  1  0.091800  0.083600  0.457400  1.0  0.0886
  H  H104  1  0.195700  0.972700  0.517900  1.0  0.1261
  H  H105  1  0.040500  0.171300  0.393100  1.0  0.0934
  H  H106  1  0.944500  0.004700  0.695500  1.0  0.128
  H  H107  1  0.985800  0.177200  0.441400  1.0  0.1257
  H  H108  1  0.103600  0.254400  0.392400  1.0  0.1137
  H  H109  1  0.113800  0.148800  0.433800  1.0  0.0928
  H  H110  1  0.892700  0.053900  0.686900  1.0  0.0833
  H  H111  1  0.984700  0.134900  0.500500  1.0  0.1168
  H  H112  1  0.104500  0.199900  0.442100  1.0  0.1275
  H  H113  1  0.100100  0.365500  0.586700  1.0  0.0911
  H  H114  1  0.963100  0.352900  0.600100  1.0  0.0865
  H  H115  1  0.202800  0.345600  0.331200  1.0  0.0908
  H  H116  1  0.918000  0.331000  0.562000  1.0  0.0771
  H  H117  1  0.004600  0.347600  0.647400  1.0  0.1161
  H  H118  1  0.024800  0.318400  0.513200  1.0  0.1318
  H  H119  1  0.083600  0.367200  0.457400  1.0  0.0868
  H  H120  1  0.972700  0.313700  0.517900  1.0  0.1258
  H  H121  1  0.171300  0.395100  0.393100  1.0  0.0924
  H  H122  1  0.004700  0.355300  0.695500  1.0  0.1269
  H  H123  1  0.177200  0.395600  0.441400  1.0  0.1255
  H  H124  1  0.254400  0.249600  0.392400  1.0  0.1151
  H  H125  1  0.148800  0.303600  0.433800  1.0  0.0913
  H  H126  1  0.053900  0.366500  0.686900  1.0  0.084
  H  H127  1  0.134900  0.379900  0.500500  1.0  0.1173
  H  H128  1  0.199900  0.253500  0.442100  1.0  0.1288
  H  H129  1  0.947700  0.586700  0.365500  1.0  0.0911
  H  H130  1  0.083900  0.600100  0.352900  1.0  0.0858
  H  H131  1  0.120400  0.331200  0.345600  1.0  0.0906
  H  H132  1  0.189000  0.562000  0.331000  1.0  0.0762
  H  H133  1  0.000400  0.647400  0.347600  1.0  0.1171
  H  H134  1  0.143600  0.513200  0.318400  1.0  0.1313
  H  H135  1  0.091800  0.457400  0.367200  1.0  0.0873
  H  H136  1  0.195700  0.517900  0.313700  1.0  0.1268
  H  H137  1  0.040500  0.393100  0.395100  1.0  0.0936
  H  H138  1  0.944500  0.695500  0.355300  1.0  0.1282
  H  H139  1  0.985800  0.441400  0.395600  1.0  0.1258
  H  H140  1  0.103600  0.392400  0.249600  1.0  0.1145
  H  H141  1  0.113800  0.433800  0.303600  1.0  0.0916
  H  H142  1  0.892700  0.686900  0.366500  1.0  0.0834
  H  H143  1  0.984700  0.500500  0.379900  1.0  0.1163
  H  H144  1  0.104500  0.442100  0.253500  1.0  0.1297
  H  H145  1  0.365500  0.100100  0.947700  1.0  0.0912
  H  H146  1  0.352900  0.963100  0.083900  1.0  0.0867
  H  H147  1  0.345600  0.202800  0.120400  1.0  0.0905
  H  H148  1  0.331000  0.918000  0.189000  1.0  0.0762
  H  H149  1  0.347600  0.004600  0.000400  1.0  0.1156
  H  H150  1  0.318400  0.024800  0.143600  1.0  0.1316
  H  H151  1  0.367200  0.083600  0.091800  1.0  0.0878
  H  H152  1  0.313700  0.972700  0.195700  1.0  0.1263
  H  H153  1  0.395100  0.171300  0.040500  1.0  0.0926
  H  H154  1  0.355300  0.004700  0.944500  1.0  0.127
  H  H155  1  0.395600  0.177200  0.985800  1.0  0.1257
  H  H156  1  0.249600  0.254400  0.103600  1.0  0.1139
  H  H157  1  0.303600  0.148800  0.113800  1.0  0.0911
  H  H158  1  0.366500  0.053900  0.892700  1.0  0.085
  H  H159  1  0.379900  0.134900  0.984700  1.0  0.1174
  H  H160  1  0.253500  0.199900  0.104500  1.0  0.128
  H  H161  1  0.586700  0.947700  0.100100  1.0  0.0903
  H  H162  1  0.600100  0.083900  0.963100  1.0  0.0863
  H  H163  1  0.331200  0.120400  0.202800  1.0  0.0894
  H  H164  1  0.562000  0.189000  0.918000  1.0  0.0765
  H  H165  1  0.647400  0.000400  0.004600  1.0  0.116
  H  H166  1  0.513200  0.143600  0.024800  1.0  0.1333
  H  H167  1  0.457400  0.091800  0.083600  1.0  0.0883
  H  H168  1  0.517900  0.195700  0.972700  1.0  0.128
  H  H169  1  0.393100  0.040500  0.171300  1.0  0.0937
  H  H170  1  0.695500  0.944500  0.004700  1.0  0.1275
  H  H171  1  0.441400  0.985800  0.177200  1.0  0.126
  H  H172  1  0.392400  0.103600  0.254400  1.0  0.115
  H  H173  1  0.433800  0.113800  0.148800  1.0  0.0908
  H  H174  1  0.686900  0.892700  0.053900  1.0  0.0828
  H  H175  1  0.500500  0.984700  0.134900  1.0  0.1167
  H  H176  1  0.442100  0.104500  0.199900  1.0  0.1278
  H  H177  1  0.586700  0.100100  0.365500  1.0  0.0916
  H  H178  1  0.600100  0.963100  0.352900  1.0  0.0849
  H  H179  1  0.331200  0.202800  0.345600  1.0  0.0896
  H  H180  1  0.562000  0.918000  0.331000  1.0  0.0754
  H  H181  1  0.647400  0.004600  0.347600  1.0  0.1151
  H  H182  1  0.513200  0.024800  0.318400  1.0  0.1329
  H  H183  1  0.457400  0.083600  0.367200  1.0  0.0875
  H  H184  1  0.517900  0.972700  0.313700  1.0  0.1257
  H  H185  1  0.393100  0.171300  0.395100  1.0  0.0965
  H  H186  1  0.695500  0.004700  0.355300  1.0  0.1279
  H  H187  1  0.441400  0.177200  0.395600  1.0  0.1256
  H  H188  1  0.392400  0.254400  0.249600  1.0  0.1133
  H  H189  1  0.433800  0.148800  0.303600  1.0  0.0912
  H  H190  1  0.686900  0.053900  0.366500  1.0  0.0833
  H  H191  1  0.500500  0.134900  0.379900  1.0  0.1162
  H  H192  1  0.442100  0.199900  0.253500  1.0  0.1281
  H  H193  1  0.365500  0.947700  0.586700  1.0  0.0932
  H  H194  1  0.352900  0.083900  0.600100  1.0  0.085
  H  H195  1  0.345600  0.120400  0.331200  1.0  0.0907
  H  H196  1  0.331000  0.189000  0.562000  1.0  0.0753
  H  H197  1  0.347600  0.000400  0.647400  1.0  0.1156
  H  H198  1  0.318400  0.143600  0.513200  1.0  0.1324
  H  H199  1  0.367200  0.091800  0.457400  1.0  0.0883
  H  H200  1  0.313700  0.195700  0.517900  1.0  0.1281
  H  H201  1  0.395100  0.040500  0.393100  1.0  0.0953
  H  H202  1  0.355300  0.944500  0.695500  1.0  0.1262
  H  H203  1  0.395600  0.985800  0.441400  1.0  0.1244
  H  H204  1  0.249600  0.103600  0.392400  1.0  0.1138
  H  H205  1  0.303600  0.113800  0.433800  1.0  0.0924
  H  H206  1  0.366500  0.892700  0.686900  1.0  0.0841
  H  H207  1  0.379900  0.984700  0.500500  1.0  0.116
  H  H208  1  0.253500  0.104500  0.442100  1.0  0.1285
  H  H209  1  0.947700  0.365500  0.100100  1.0  0.0935
  H  H210  1  0.083900  0.352900  0.963100  1.0  0.0836
  H  H211  1  0.120400  0.345600  0.202800  1.0  0.0912
  H  H212  1  0.189000  0.331000  0.918000  1.0  0.0764
  H  H213  1  0.000400  0.347600  0.004600  1.0  0.1169
  H  H214  1  0.143600  0.318400  0.024800  1.0  0.1319
  H  H215  1  0.091800  0.367200  0.083600  1.0  0.088
  H  H216  1  0.195700  0.313700  0.972700  1.0  0.1261
  H  H217  1  0.040500  0.395100  0.171300  1.0  0.0932
  H  H218  1  0.944500  0.355300  0.004700  1.0  0.1269
  H  H219  1  0.985800  0.395600  0.177200  1.0  0.1249
  H  H220  1  0.103600  0.249600  0.254400  1.0  0.1133
  H  H221  1  0.113800  0.303600  0.148800  1.0  0.0928
  H  H222  1  0.892700  0.366500  0.053900  1.0  0.084
  H  H223  1  0.984700  0.379900  0.134900  1.0  0.116
  H  H224  1  0.104500  0.253500  0.199900  1.0  0.1279
  H  H225  1  0.100100  0.586700  0.947700  1.0  0.0917
  H  H226  1  0.963100  0.600100  0.083900  1.0  0.0852
  H  H227  1  0.202800  0.331200  0.120400  1.0  0.0907
  H  H228  1  0.918000  0.562000  0.189000  1.0  0.0752
  H  H229  1  0.004600  0.647400  0.000400  1.0  0.1158
  H  H230  1  0.024800  0.513200  0.143600  1.0  0.1325
  H  H231  1  0.083600  0.457400  0.091800  1.0  0.0866
  H  H232  1  0.972700  0.517900  0.195700  1.0  0.1275
  H  H233  1  0.171300  0.393100  0.040500  1.0  0.0936
  H  H234  1  0.004700  0.695500  0.944500  1.0  0.1286
  H  H235  1  0.177200  0.441400  0.985800  1.0  0.1246
  H  H236  1  0.254400  0.392400  0.103600  1.0  0.1136
  H  H237  1  0.148800  0.433800  0.113800  1.0  0.0919
  H  H238  1  0.053900  0.686900  0.892700  1.0  0.0825
  H  H239  1  0.134900  0.500500  0.984700  1.0  0.1156
  H  H240  1  0.199900  0.442100  0.104500  1.0  0.1297
  H  H241  1  0.884500  0.663300  0.302300  1.0  0.091
  H  H242  1  0.897100  0.649900  0.166100  1.0  0.0859
  H  H243  1  0.904400  0.918800  0.129600  1.0  0.0908
  H  H244  1  0.919000  0.688000  0.061000  1.0  0.0771
  H  H245  1  0.902400  0.602600  0.249600  1.0  0.1172
  H  H246  1  0.931600  0.736800  0.106400  1.0  0.1314
  H  H247  1  0.882800  0.792600  0.158200  1.0  0.0895
  H  H248  1  0.936300  0.732100  0.054300  1.0  0.1263
  H  H249  1  0.854900  0.856900  0.209500  1.0  0.0964
  H  H250  1  0.894700  0.554500  0.305500  1.0  0.1279
  H  H251  1  0.854400  0.808600  0.264200  1.0  0.1247
  H  H252  1  0.000400  0.857600  0.146400  1.0  0.1131
  H  H253  1  0.946400  0.816200  0.136200  1.0  0.0914
  H  H254  1  0.883500  0.563100  0.357300  1.0  0.083
  H  H255  1  0.870100  0.749500  0.265300  1.0  0.1171
  H  H256  1  0.996500  0.807900  0.145500  1.0  0.1289
  H  H257  1  0.663300  0.884500  0.149900  1.0  0.0901
  H  H258  1  0.649900  0.897100  0.286900  1.0  0.0842
  H  H259  1  0.918800  0.904400  0.047200  1.0  0.0896
  H  H260  1  0.688000  0.919000  0.332000  1.0  0.0764
  H  H261  1  0.602600  0.902400  0.245400  1.0  0.1163
  H  H262  1  0.736800  0.931600  0.225200  1.0  0.1321
  H  H263  1  0.792600  0.882800  0.166400  1.0  0.0897
  H  H264  1  0.732100  0.936300  0.277300  1.0  0.126
  H  H265  1  0.856900  0.854900  0.078700  1.0  0.0946
  H  H266  1  0.554500  0.894700  0.245300  1.0  0.1258
  H  H267  1  0.808600  0.854400  0.072800  1.0  0.1232
  H  H268  1  0.857600  0.000400  0.995600  1.0  0.1134
  H  H269  1  0.816200  0.946400  0.101200  1.0  0.0905
  H  H270  1  0.563100  0.883500  0.196100  1.0  0.0825
  H  H271  1  0.749500  0.870100  0.115100  1.0  0.1164
  H  H272  1  0.807900  0.996500  0.050100  1.0  0.1294
  H  H273  1  0.149900  0.302300  0.663300  1.0  0.0906
  H  H274  1  0.286900  0.166100  0.649900  1.0  0.0862
  H  H275  1  0.047200  0.129600  0.918800  1.0  0.0921
  H  H276  1  0.332000  0.061000  0.688000  1.0  0.0763
  H  H277  1  0.245400  0.249600  0.602600  1.0  0.1171
  H  H278  1  0.225200  0.106400  0.736800  1.0  0.1326
  H  H279  1  0.166400  0.158200  0.792600  1.0  0.0879
  H  H280  1  0.277300  0.054300  0.732100  1.0  0.1272
  H  H281  1  0.078700  0.209500  0.856900  1.0  0.0941
  H  H282  1  0.245300  0.305500  0.554500  1.0  0.1268
  H  H283  1  0.072800  0.264200  0.808600  1.0  0.1251
  H  H284  1  0.995600  0.146400  0.857600  1.0  0.1143
  H  H285  1  0.101200  0.136200  0.816200  1.0  0.0916
  H  H286  1  0.196100  0.357300  0.563100  1.0  0.083
  H  H287  1  0.115100  0.265300  0.749500  1.0  0.1167
  H  H288  1  0.050100  0.145500  0.807900  1.0  0.1263
  H  H289  1  0.302300  0.149900  0.884500  1.0  0.0906
  H  H290  1  0.166100  0.286900  0.897100  1.0  0.085
  H  H291  1  0.129600  0.047200  0.904400  1.0  0.0919
  H  H292  1  0.061000  0.332000  0.919000  1.0  0.0761
  H  H293  1  0.249600  0.245400  0.902400  1.0  0.1174
  H  H294  1  0.106400  0.225200  0.931600  1.0  0.1318
  H  H295  1  0.158200  0.166400  0.882800  1.0  0.089
  H  H296  1  0.054300  0.277300  0.936300  1.0  0.125
  H  H297  1  0.209500  0.078700  0.854900  1.0  0.0936
  H  H298  1  0.305500  0.245300  0.894700  1.0  0.1271
  H  H299  1  0.264200  0.072800  0.854400  1.0  0.126
  H  H300  1  0.146400  0.995600  0.000400  1.0  0.1137
  H  H301  1  0.136200  0.101200  0.946400  1.0  0.093
  H  H302  1  0.357300  0.196100  0.883500  1.0  0.0832
  H  H303  1  0.265300  0.115100  0.870100  1.0  0.1169
  H  H304  1  0.145500  0.050100  0.996500  1.0  0.1277
  H  H305  1  0.149900  0.884500  0.302300  1.0  0.091
  H  H306  1  0.286900  0.897100  0.166100  1.0  0.0867
  H  H307  1  0.047200  0.904400  0.129600  1.0  0.0903
  H  H308  1  0.332000  0.919000  0.061000  1.0  0.076
  H  H309  1  0.245400  0.902400  0.249600  1.0  0.1162
  H  H310  1  0.225200  0.931600  0.106400  1.0  0.1323
  H  H311  1  0.166400  0.882800  0.158200  1.0  0.0872
  H  H312  1  0.277300  0.936300  0.054300  1.0  0.1252
  H  H313  1  0.078700  0.854900  0.209500  1.0  0.0925
  H  H314  1  0.245300  0.894700  0.305500  1.0  0.1261
  H  H315  1  0.072800  0.854400  0.264200  1.0  0.1256
  H  H316  1  0.995600  0.000400  0.146400  1.0  0.1152
  H  H317  1  0.101200  0.946400  0.136200  1.0  0.0908
  H  H318  1  0.196100  0.883500  0.357300  1.0  0.0837
  H  H319  1  0.115100  0.870100  0.265300  1.0  0.1174
  H  H320  1  0.050100  0.996500  0.145500  1.0  0.1284
  H  H321  1  0.302300  0.663300  0.149900  1.0  0.0912
  H  H322  1  0.166100  0.649900  0.286900  1.0  0.0861
  H  H323  1  0.129600  0.918800  0.047200  1.0  0.0903
  H  H324  1  0.061000  0.688000  0.332000  1.0  0.076
  H  H325  1  0.249600  0.602600  0.245400  1.0  0.1168
  H  H326  1  0.106400  0.736800  0.225200  1.0  0.1316
  H  H327  1  0.158200  0.792600  0.166400  1.0  0.0879
  H  H328  1  0.054300  0.732100  0.277300  1.0  0.1268
  H  H329  1  0.209500  0.856900  0.078700  1.0  0.0942
  H  H330  1  0.305500  0.554500  0.245300  1.0  0.1281
  H  H331  1  0.264200  0.808600  0.072800  1.0  0.1255
  H  H332  1  0.146400  0.857600  0.995600  1.0  0.1145
  H  H333  1  0.136200  0.816200  0.101200  1.0  0.0914
  H  H334  1  0.357300  0.563100  0.196100  1.0  0.0831
  H  H335  1  0.265300  0.749500  0.115100  1.0  0.1164
  H  H336  1  0.145500  0.807900  0.050100  1.0  0.1289
  H  H337  1  0.884500  0.149900  0.663300  1.0  0.0918
  H  H338  1  0.897100  0.286900  0.649900  1.0  0.0866
  H  H339  1  0.904400  0.047200  0.918800  1.0  0.0903
  H  H340  1  0.919000  0.332000  0.688000  1.0  0.075
  H  H341  1  0.902400  0.245400  0.602600  1.0  0.1157
  H  H342  1  0.931600  0.225200  0.736800  1.0  0.1315
  H  H343  1  0.882800  0.166400  0.792600  1.0  0.0881
  H  H344  1  0.936300  0.277300  0.732100  1.0  0.126
  H  H345  1  0.854900  0.078700  0.856900  1.0  0.0925
  H  H346  1  0.894700  0.245300  0.554500  1.0  0.1275
  H  H347  1  0.854400  0.072800  0.808600  1.0  0.1256
  H  H348  1  0.000400  0.995600  0.857600  1.0  0.114
  H  H349  1  0.946400  0.101200  0.816200  1.0  0.0912
  H  H350  1  0.883500  0.196100  0.563100  1.0  0.0845
  H  H351  1  0.870100  0.115100  0.749500  1.0  0.1174
  H  H352  1  0.996500  0.050100  0.807900  1.0  0.1277
  H  H353  1  0.663300  0.302300  0.884500  1.0  0.0903
  H  H354  1  0.649900  0.166100  0.897100  1.0  0.086
  H  H355  1  0.918800  0.129600  0.904400  1.0  0.0895
  H  H356  1  0.688000  0.061000  0.919000  1.0  0.0768
  H  H357  1  0.602600  0.249600  0.902400  1.0  0.1156
  H  H358  1  0.736800  0.106400  0.931600  1.0  0.1333
  H  H359  1  0.792600  0.158200  0.882800  1.0  0.0881
  H  H360  1  0.732100  0.054300  0.936300  1.0  0.128
  H  H361  1  0.856900  0.209500  0.854900  1.0  0.0946
  H  H362  1  0.554500  0.305500  0.894700  1.0  0.1264
  H  H363  1  0.808600  0.264200  0.854400  1.0  0.1258
  H  H364  1  0.857600  0.146400  0.000400  1.0  0.1147
  H  H365  1  0.816200  0.136200  0.946400  1.0  0.0902
  H  H366  1  0.563100  0.357300  0.883500  1.0  0.0833
  H  H367  1  0.749500  0.265300  0.870100  1.0  0.1172
  H  H368  1  0.807900  0.145500  0.996500  1.0  0.1276
  H  H369  1  0.663300  0.149900  0.302300  1.0  0.0909
  H  H370  1  0.649900  0.286900  0.166100  1.0  0.0847
  H  H371  1  0.918800  0.047200  0.129600  1.0  0.09
  H  H372  1  0.688000  0.332000  0.061000  1.0  0.075
  H  H373  1  0.602600  0.245400  0.249600  1.0  0.1147
  H  H374  1  0.736800  0.225200  0.106400  1.0  0.1325
  H  H375  1  0.792600  0.166400  0.158200  1.0  0.088
  H  H376  1  0.732100  0.277300  0.054300  1.0  0.1265
  H  H377  1  0.856900  0.078700  0.209500  1.0  0.0962
  H  H378  1  0.554500  0.245300  0.305500  1.0  0.1277
  H  H379  1  0.808600  0.072800  0.264200  1.0  0.1262
  H  H380  1  0.857600  0.995600  0.146400  1.0  0.1129
  H  H381  1  0.816200  0.101200  0.136200  1.0  0.0909
  H  H382  1  0.563100  0.196100  0.357300  1.0  0.0825
  H  H383  1  0.749500  0.115100  0.265300  1.0  0.1166
  H  H384  1  0.807900  0.050100  0.145500  1.0  0.1287
  H  H385  1  0.884500  0.302300  0.149900  1.0  0.0931
  H  H386  1  0.897100  0.166100  0.286900  1.0  0.0842
  H  H387  1  0.904400  0.129600  0.047200  1.0  0.0905
  H  H388  1  0.919000  0.061000  0.332000  1.0  0.0759
  H  H389  1  0.902400  0.249600  0.245400  1.0  0.1159
  H  H390  1  0.931600  0.106400  0.225200  1.0  0.1327
  H  H391  1  0.882800  0.158200  0.166400  1.0  0.0886
  H  H392  1  0.936300  0.054300  0.277300  1.0  0.1281
  H  H393  1  0.854900  0.209500  0.078700  1.0  0.0953
  H  H394  1  0.894700  0.305500  0.245300  1.0  0.1263
  H  H395  1  0.854400  0.264200  0.072800  1.0  0.1248
  H  H396  1  0.000400  0.146400  0.995600  1.0  0.1135
  H  H397  1  0.946400  0.136200  0.101200  1.0  0.0916
  H  H398  1  0.883500  0.357300  0.196100  1.0  0.0842
  H  H399  1  0.870100  0.265300  0.115100  1.0  0.1159
  H  H400  1  0.996500  0.145500  0.050100  1.0  0.1276
  H  H401  1  0.302300  0.884500  0.663300  1.0  0.0932
  H  H402  1  0.166100  0.897100  0.649900  1.0  0.0834
  H  H403  1  0.129600  0.904400  0.918800  1.0  0.0916
  H  H404  1  0.061000  0.919000  0.688000  1.0  0.0768
  H  H405  1  0.249600  0.902400  0.602600  1.0  0.1172
  H  H406  1  0.106400  0.931600  0.736800  1.0  0.1321
  H  H407  1  0.158200  0.882800  0.792600  1.0  0.0878
  H  H408  1  0.054300  0.936300  0.732100  1.0  0.1256
  H  H409  1  0.209500  0.854900  0.856900  1.0  0.0923
  H  H410  1  0.305500  0.894700  0.554500  1.0  0.1266
  H  H411  1  0.264200  0.854400  0.808600  1.0  0.1248
  H  H412  1  0.146400  0.000400  0.857600  1.0  0.1134
  H  H413  1  0.136200  0.946400  0.816200  1.0  0.0923
  H  H414  1  0.357300  0.883500  0.563100  1.0  0.0834
  H  H415  1  0.265300  0.870100  0.749500  1.0  0.116
  H  H416  1  0.145500  0.996500  0.807900  1.0  0.1283
  H  H417  1  0.149900  0.663300  0.884500  1.0  0.0918
  H  H418  1  0.286900  0.649900  0.897100  1.0  0.0853
  H  H419  1  0.047200  0.918800  0.904400  1.0  0.0906
  H  H420  1  0.332000  0.688000  0.919000  1.0  0.0737
  H  H421  1  0.245400  0.602600  0.902400  1.0  0.1163
  H  H422  1  0.225200  0.736800  0.931600  1.0  0.1326
  H  H423  1  0.166400  0.792600  0.882800  1.0  0.0872
  H  H424  1  0.277300  0.732100  0.936300  1.0  0.1271
  H  H425  1  0.078700  0.856900  0.854900  1.0  0.0938
  H  H426  1  0.245300  0.554500  0.894700  1.0  0.1279
  H  H427  1  0.072800  0.808600  0.854400  1.0  0.1244
  H  H428  1  0.995600  0.857600  0.000400  1.0  0.1141
  H  H429  1  0.101200  0.816200  0.946400  1.0  0.092
  H  H430  1  0.196100  0.563100  0.883500  1.0  0.0831
  H  H431  1  0.115100  0.749500  0.870100  1.0  0.1161
  H  H432  1  0.050100  0.807900  0.996500  1.0  0.1296
  H  H433  1  0.384500  0.163300  0.649900  1.0  0.0912
  H  H434  1  0.397100  0.149900  0.786900  1.0  0.0855
  H  H435  1  0.404400  0.418800  0.547200  1.0  0.0909
  H  H436  1  0.419000  0.188000  0.832000  1.0  0.0746
  H  H437  1  0.402400  0.102600  0.745400  1.0  0.1166
  H  H438  1  0.431600  0.236800  0.725200  1.0  0.132
  H  H439  1  0.382800  0.292600  0.666400  1.0  0.0891
  H  H440  1  0.436300  0.232100  0.777300  1.0  0.1259
  H  H441  1  0.354900  0.356900  0.578700  1.0  0.0953
  H  H442  1  0.394700  0.054500  0.745300  1.0  0.1282
  H  H443  1  0.354400  0.308600  0.572800  1.0  0.1239
  H  H444  1  0.500400  0.357600  0.495600  1.0  0.1132
  H  H445  1  0.446400  0.316200  0.601200  1.0  0.0909
  H  H446  1  0.383500  0.063100  0.696100  1.0  0.0835
  H  H447  1  0.370100  0.249500  0.615100  1.0  0.1166
  H  H448  1  0.496500  0.307900  0.550100  1.0  0.1297
  H  H449  1  0.163300  0.384500  0.802300  1.0  0.09
  H  H450  1  0.149900  0.397100  0.666100  1.0  0.0849
  H  H451  1  0.418800  0.404400  0.629600  1.0  0.0896
  H  H452  1  0.188000  0.419000  0.561000  1.0  0.0768
  H  H453  1  0.102600  0.402400  0.749600  1.0  0.1174
  H  H454  1  0.236800  0.431600  0.606400  1.0  0.1316
  H  H455  1  0.292600  0.382800  0.658200  1.0  0.0901
  H  H456  1  0.232100  0.436300  0.554300  1.0  0.1262
  H  H457  1  0.356900  0.354900  0.709500  1.0  0.0961
  H  H458  1  0.054500  0.394700  0.805500  1.0  0.1266
  H  H459  1  0.308600  0.354400  0.764200  1.0  0.1247
  H  H460  1  0.357600  0.500400  0.646400  1.0  0.1128
  H  H461  1  0.316200  0.446400  0.636200  1.0  0.0904
  H  H462  1  0.063100  0.383500  0.857300  1.0  0.0822
  H  H463  1  0.249500  0.370100  0.765300  1.0  0.1167
  H  H464  1  0.307900  0.496500  0.645500  1.0  0.1297
  H  H465  1  0.649900  0.802300  0.384500  1.0  0.0907
  H  H466  1  0.786900  0.666100  0.397100  1.0  0.0861
  H  H467  1  0.547200  0.629600  0.404400  1.0  0.092
  H  H468  1  0.832000  0.561000  0.419000  1.0  0.0752
  H  H469  1  0.745400  0.749600  0.402400  1.0  0.1172
  H  H470  1  0.725200  0.606400  0.431600  1.0  0.1329
  H  H471  1  0.666400  0.658200  0.382800  1.0  0.088
  H  H472  1  0.777300  0.554300  0.436300  1.0  0.1269
  H  H473  1  0.578700  0.709500  0.354900  1.0  0.0932
  H  H474  1  0.745300  0.805500  0.394700  1.0  0.1264
  H  H475  1  0.572800  0.764200  0.354400  1.0  0.1257
  H  H476  1  0.495600  0.646400  0.500400  1.0  0.1143
  H  H477  1  0.601200  0.636200  0.446400  1.0  0.0924
  H  H478  1  0.696100  0.857300  0.383500  1.0  0.0827
  H  H479  1  0.615100  0.765300  0.370100  1.0  0.1167
  H  H480  1  0.550100  0.645500  0.496500  1.0  0.1272
  H  H481  1  0.802300  0.649900  0.163300  1.0  0.091
  H  H482  1  0.666100  0.786900  0.149900  1.0  0.0852
  H  H483  1  0.629600  0.547200  0.418800  1.0  0.0918
  H  H484  1  0.561000  0.832000  0.188000  1.0  0.0742
  H  H485  1  0.749600  0.745400  0.102600  1.0  0.1174
  H  H486  1  0.606400  0.725200  0.236800  1.0  0.1316
  H  H487  1  0.658200  0.666400  0.292600  1.0  0.0886
  H  H488  1  0.554300  0.777300  0.232100  1.0  0.1251
  H  H489  1  0.709500  0.578700  0.356900  1.0  0.0935
  H  H490  1  0.805500  0.745300  0.054500  1.0  0.1277
  H  H491  1  0.764200  0.572800  0.308600  1.0  0.1253
  H  H492  1  0.646400  0.495600  0.357600  1.0  0.1135
  H  H493  1  0.636200  0.601200  0.316200  1.0  0.0927
  H  H494  1  0.857300  0.696100  0.063100  1.0  0.0827
  H  H495  1  0.765300  0.615100  0.249500  1.0  0.1165
  H  H496  1  0.645500  0.550100  0.307900  1.0  0.127
  H  H497  1  0.649900  0.384500  0.163300  1.0  0.091
  H  H498  1  0.786900  0.397100  0.149900  1.0  0.0866
  H  H499  1  0.547200  0.404400  0.418800  1.0  0.091
  H  H500  1  0.832000  0.419000  0.188000  1.0  0.0737
  H  H501  1  0.745400  0.402400  0.102600  1.0  0.1162
  H  H502  1  0.725200  0.431600  0.236800  1.0  0.1326
  H  H503  1  0.666400  0.382800  0.292600  1.0  0.0868
  H  H504  1  0.777300  0.436300  0.232100  1.0  0.1259
  H  H505  1  0.578700  0.354900  0.356900  1.0  0.0923
  H  H506  1  0.745300  0.394700  0.054500  1.0  0.1266
  H  H507  1  0.572800  0.354400  0.308600  1.0  0.1252
  H  H508  1  0.495600  0.500400  0.357600  1.0  0.115
  H  H509  1  0.601200  0.446400  0.316200  1.0  0.0905
  H  H510  1  0.696100  0.383500  0.063100  1.0  0.0843
  H  H511  1  0.615100  0.370100  0.249500  1.0  0.1174
  H  H512  1  0.550100  0.496500  0.307900  1.0  0.1288
  H  H513  1  0.802300  0.163300  0.384500  1.0  0.0905
  H  H514  1  0.666100  0.149900  0.397100  1.0  0.0862
  H  H515  1  0.629600  0.418800  0.404400  1.0  0.0902
  H  H516  1  0.561000  0.188000  0.419000  1.0  0.075
  H  H517  1  0.749600  0.102600  0.402400  1.0  0.1167
  H  H518  1  0.606400  0.236800  0.431600  1.0  0.1317
  H  H519  1  0.658200  0.292600  0.382800  1.0  0.0874
  H  H520  1  0.554300  0.232100  0.436300  1.0  0.1267
  H  H521  1  0.709500  0.356900  0.354900  1.0  0.0939
  H  H522  1  0.805500  0.054500  0.394700  1.0  0.1281
  H  H523  1  0.764200  0.308600  0.354400  1.0  0.1254
  H  H524  1  0.646400  0.357600  0.500400  1.0  0.1152
  H  H525  1  0.636200  0.316200  0.446400  1.0  0.0918
  H  H526  1  0.857300  0.063100  0.383500  1.0  0.0828
  H  H527  1  0.765300  0.249500  0.370100  1.0  0.1162
  H  H528  1  0.645500  0.307900  0.496500  1.0  0.1295
  H  H529  1  0.384500  0.649900  0.802300  1.0  0.0914
  H  H530  1  0.397100  0.786900  0.666100  1.0  0.0868
  H  H531  1  0.404400  0.547200  0.629600  1.0  0.09
  H  H532  1  0.419000  0.832000  0.561000  1.0  0.075
  H  H533  1  0.402400  0.745400  0.749600  1.0  0.1157
  H  H534  1  0.431600  0.725200  0.606400  1.0  0.1313
  H  H535  1  0.382800  0.666400  0.658200  1.0  0.0885
  H  H536  1  0.436300  0.777300  0.554300  1.0  0.126
  H  H537  1  0.354900  0.578700  0.709500  1.0  0.0921
  H  H538  1  0.394700  0.745300  0.805500  1.0  0.1268
  H  H539  1  0.354400  0.572800  0.764200  1.0  0.1261
  H  H540  1  0.500400  0.495600  0.646400  1.0  0.1142
  H  H541  1  0.446400  0.601200  0.636200  1.0  0.0905
  H  H542  1  0.383500  0.696100  0.857300  1.0  0.0846
  H  H543  1  0.370100  0.615100  0.765300  1.0  0.1177
  H  H544  1  0.496500  0.550100  0.645500  1.0  0.1276
  H  H545  1  0.163300  0.802300  0.649900  1.0  0.0905
  H  H546  1  0.149900  0.666100  0.786900  1.0  0.0859
  H  H547  1  0.418800  0.629600  0.547200  1.0  0.0899
  H  H548  1  0.188000  0.561000  0.832000  1.0  0.0755
  H  H549  1  0.102600  0.749600  0.745400  1.0  0.1158
  H  H550  1  0.236800  0.606400  0.725200  1.0  0.1326
  H  H551  1  0.292600  0.658200  0.666400  1.0  0.0885
  H  H552  1  0.232100  0.554300  0.777300  1.0  0.128
  H  H553  1  0.356900  0.709500  0.578700  1.0  0.0944
  H  H554  1  0.054500  0.805500  0.745300  1.0  0.1266
  H  H555  1  0.308600  0.764200  0.572800  1.0  0.1261
  H  H556  1  0.357600  0.646400  0.495600  1.0  0.1143
  H  H557  1  0.316200  0.636200  0.601200  1.0  0.0898
  H  H558  1  0.063100  0.857300  0.696100  1.0  0.0834
  H  H559  1  0.249500  0.765300  0.615100  1.0  0.1174
  H  H560  1  0.307900  0.645500  0.550100  1.0  0.1283
  H  H561  1  0.163300  0.649900  0.384500  1.0  0.0913
  H  H562  1  0.149900  0.786900  0.397100  1.0  0.0843
  H  H563  1  0.418800  0.547200  0.404400  1.0  0.09
  H  H564  1  0.188000  0.832000  0.419000  1.0  0.0729
  H  H565  1  0.102600  0.745400  0.402400  1.0  0.114
  H  H566  1  0.236800  0.725200  0.431600  1.0  0.1325
  H  H567  1  0.292600  0.666400  0.382800  1.0  0.0875
  H  H568  1  0.232100  0.777300  0.436300  1.0  0.1266
  H  H569  1  0.356900  0.578700  0.354900  1.0  0.0954
  H  H570  1  0.054500  0.745300  0.394700  1.0  0.1275
  H  H571  1  0.308600  0.572800  0.354400  1.0  0.1246
  H  H572  1  0.357600  0.495600  0.500400  1.0  0.1129
  H  H573  1  0.316200  0.601200  0.446400  1.0  0.0911
  H  H574  1  0.063100  0.696100  0.383500  1.0  0.082
  H  H575  1  0.249500  0.615100  0.370100  1.0  0.1163
  H  H576  1  0.307900  0.550100  0.496500  1.0  0.1287
  H  H577  1  0.384500  0.802300  0.163300  1.0  0.0932
  H  H578  1  0.397100  0.666100  0.149900  1.0  0.0841
  H  H579  1  0.404400  0.629600  0.418800  1.0  0.0909
  H  H580  1  0.419000  0.561000  0.188000  1.0  0.0752
  H  H581  1  0.402400  0.749600  0.102600  1.0  0.1158
  H  H582  1  0.431600  0.606400  0.236800  1.0  0.1324
  H  H583  1  0.382800  0.658200  0.292600  1.0  0.0887
  H  H584  1  0.436300  0.554300  0.232100  1.0  0.1282
  H  H585  1  0.354900  0.709500  0.356900  1.0  0.0951
  H  H586  1  0.394700  0.805500  0.054500  1.0  0.1275
  H  H587  1  0.354400  0.764200  0.308600  1.0  0.1254
  H  H588  1  0.500400  0.646400  0.357600  1.0  0.1134
  H  H589  1  0.446400  0.636200  0.316200  1.0  0.0921
  H  H590  1  0.383500  0.857300  0.063100  1.0  0.0843
  H  H591  1  0.370100  0.765300  0.249500  1.0  0.1161
  H  H592  1  0.496500  0.645500  0.307900  1.0  0.128
  H  H593  1  0.802300  0.384500  0.649900  1.0  0.093
  H  H594  1  0.666100  0.397100  0.786900  1.0  0.0843
  H  H595  1  0.629600  0.404400  0.547200  1.0  0.0911
  H  H596  1  0.561000  0.419000  0.832000  1.0  0.0745
  H  H597  1  0.749600  0.402400  0.745400  1.0  0.1168
  H  H598  1  0.606400  0.431600  0.725200  1.0  0.1318
  H  H599  1  0.658200  0.382800  0.666400  1.0  0.0875
  H  H600  1  0.554300  0.436300  0.777300  1.0  0.1254
  H  H601  1  0.709500  0.354900  0.578700  1.0  0.0934
  H  H602  1  0.805500  0.394700  0.745300  1.0  0.126
  H  H603  1  0.764200  0.354400  0.572800  1.0  0.1244
  H  H604  1  0.646400  0.500400  0.495600  1.0  0.1136
  H  H605  1  0.636200  0.446400  0.601200  1.0  0.0926
  H  H606  1  0.857300  0.383500  0.696100  1.0  0.0836
  H  H607  1  0.765300  0.370100  0.615100  1.0  0.116
  H  H608  1  0.645500  0.496500  0.550100  1.0  0.1284
  H  H609  1  0.649900  0.163300  0.802300  1.0  0.0918
  H  H610  1  0.786900  0.149900  0.666100  1.0  0.0859
  H  H611  1  0.547200  0.418800  0.629600  1.0  0.0904
  H  H612  1  0.832000  0.188000  0.561000  1.0  0.0727
  H  H613  1  0.745400  0.102600  0.749600  1.0  0.1165
  H  H614  1  0.725200  0.236800  0.606400  1.0  0.1328
  H  H615  1  0.666400  0.292600  0.658200  1.0  0.0875
  H  H616  1  0.777300  0.232100  0.554300  1.0  0.1265
  H  H617  1  0.578700  0.356900  0.709500  1.0  0.0944
  H  H618  1  0.745300  0.054500  0.805500  1.0  0.1283
  H  H619  1  0.572800  0.308600  0.764200  1.0  0.1252
  H  H620  1  0.495600  0.357600  0.646400  1.0  0.1143
  H  H621  1  0.601200  0.316200  0.636200  1.0  0.0917
  H  H622  1  0.696100  0.063100  0.857300  1.0  0.083
  H  H623  1  0.615100  0.249500  0.765300  1.0  0.1163
  H  H624  1  0.550100  0.307900  0.645500  1.0  0.1293
  H  H625  1  0.865500  0.086700  0.447700  1.0  0.0909
  H  H626  1  0.852900  0.100100  0.583900  1.0  0.0852
  H  H627  1  0.845600  0.831200  0.620400  1.0  0.0912
  H  H628  1  0.831000  0.062000  0.689000  1.0  0.075
  H  H629  1  0.847600  0.147400  0.500400  1.0  0.1165
  H  H630  1  0.818400  0.013200  0.643600  1.0  0.1317
  H  H631  1  0.867200  0.957400  0.591800  1.0  0.0885
  H  H632  1  0.813700  0.017900  0.695700  1.0  0.1266
  H  H633  1  0.895100  0.893100  0.540500  1.0  0.0951
  H  H634  1  0.855300  0.195500  0.444500  1.0  0.1282
  H  H635  1  0.895600  0.941400  0.485800  1.0  0.1236
  H  H636  1  0.749600  0.892400  0.603600  1.0  0.1137
  H  H637  1  0.803600  0.933800  0.613800  1.0  0.091
  H  H638  1  0.866500  0.186900  0.392700  1.0  0.0834
  H  H639  1  0.879900  0.000500  0.484700  1.0  0.1163
  H  H640  1  0.753500  0.942100  0.604500  1.0  0.1297
  H  H641  1  0.086700  0.865500  0.600100  1.0  0.0899
  H  H642  1  0.100100  0.852900  0.463100  1.0  0.0849
  H  H643  1  0.831200  0.845600  0.702800  1.0  0.0896
  H  H644  1  0.062000  0.831000  0.418000  1.0  0.0763
  H  H645  1  0.147400  0.847600  0.504600  1.0  0.1173
  H  H646  1  0.013200  0.818400  0.524800  1.0  0.1318
  H  H647  1  0.957400  0.867200  0.583600  1.0  0.0907
  H  H648  1  0.017900  0.813700  0.472700  1.0  0.1251
  H  H649  1  0.893100  0.895100  0.671300  1.0  0.0957
  H  H650  1  0.195500  0.855300  0.504700  1.0  0.1265
  H  H651  1  0.941400  0.895600  0.677200  1.0  0.1243
  H  H652  1  0.892400  0.749600  0.754400  1.0  0.1126
  H  H653  1  0.933800  0.803600  0.648800  1.0  0.0911
  H  H654  1  0.186900  0.866500  0.553900  1.0  0.083
  H  H655  1  0.000500  0.879900  0.634900  1.0  0.1164
  H  H656  1  0.942100  0.753500  0.699900  1.0  0.1288
  H  H657  1  0.600100  0.447700  0.086700  1.0  0.0905
  H  H658  1  0.463100  0.583900  0.100100  1.0  0.0862
  H  H659  1  0.702800  0.620400  0.831200  1.0  0.0928
  H  H660  1  0.418000  0.689000  0.062000  1.0  0.075
  H  H661  1  0.504600  0.500400  0.147400  1.0  0.117
  H  H662  1  0.524800  0.643600  0.013200  1.0  0.1326
  H  H663  1  0.583600  0.591800  0.957400  1.0  0.0884
  H  H664  1  0.472700  0.695700  0.017900  1.0  0.1269
  H  H665  1  0.671300  0.540500  0.893100  1.0  0.0931
  H  H666  1  0.504700  0.444500  0.195500  1.0  0.1265
  H  H667  1  0.677200  0.485800  0.941400  1.0  0.1256
  H  H668  1  0.754400  0.603600  0.892400  1.0  0.114
  H  H669  1  0.648800  0.613800  0.933800  1.0  0.0924
  H  H670  1  0.553900  0.392700  0.186900  1.0  0.0829
  H  H671  1  0.634900  0.484700  0.000500  1.0  0.1166
  H  H672  1  0.699900  0.604500  0.942100  1.0  0.1273
  H  H673  1  0.447700  0.600100  0.865500  1.0  0.09
  H  H674  1  0.583900  0.463100  0.852900  1.0  0.0846
  H  H675  1  0.620400  0.702800  0.845600  1.0  0.0919
  H  H676  1  0.689000  0.418000  0.831000  1.0  0.0745
  H  H677  1  0.500400  0.504600  0.847600  1.0  0.1174
  H  H678  1  0.643600  0.524800  0.818400  1.0  0.1319
  H  H679  1  0.591800  0.583600  0.867200  1.0  0.0883
  H  H680  1  0.695700  0.472700  0.813700  1.0  0.1257
  H  H681  1  0.540500  0.671300  0.895100  1.0  0.0939
  H  H682  1  0.444500  0.504700  0.855300  1.0  0.1267
  H  H683  1  0.485800  0.677200  0.895600  1.0  0.1252
  H  H684  1  0.603600  0.754400  0.749600  1.0  0.1136
  H  H685  1  0.613800  0.648800  0.803600  1.0  0.0925
  H  H686  1  0.392700  0.553900  0.866500  1.0  0.0836
  H  H687  1  0.484700  0.634900  0.879900  1.0  0.1169
  H  H688  1  0.604500  0.699900  0.753500  1.0  0.1269
  H  H689  1  0.600100  0.865500  0.447700  1.0  0.091
  H  H690  1  0.463100  0.852900  0.583900  1.0  0.0868
  H  H691  1  0.702800  0.845600  0.620400  1.0  0.0907
  H  H692  1  0.418000  0.831000  0.689000  1.0  0.075
  H  H693  1  0.504600  0.847600  0.500400  1.0  0.1163
  H  H694  1  0.524800  0.818400  0.643600  1.0  0.1322
  H  H695  1  0.583600  0.867200  0.591800  1.0  0.0866
  H  H696  1  0.472700  0.813700  0.695700  1.0  0.1263
  H  H697  1  0.671300  0.895100  0.540500  1.0  0.0923
  H  H698  1  0.504700  0.855300  0.444500  1.0  0.1257
  H  H699  1  0.677200  0.895600  0.485800  1.0  0.1257
  H  H700  1  0.754400  0.749600  0.603600  1.0  0.1149
  H  H701  1  0.648800  0.803600  0.613800  1.0  0.0913
  H  H702  1  0.553900  0.866500  0.392700  1.0  0.0838
  H  H703  1  0.634900  0.879900  0.484700  1.0  0.1172
  H  H704  1  0.699900  0.753500  0.604500  1.0  0.128
  H  H705  1  0.447700  0.086700  0.600100  1.0  0.0908
  H  H706  1  0.583900  0.100100  0.463100  1.0  0.0857
  H  H707  1  0.620400  0.831200  0.702800  1.0  0.0902
  H  H708  1  0.689000  0.062000  0.418000  1.0  0.0749
  H  H709  1  0.500400  0.147400  0.504600  1.0  0.1171
  H  H710  1  0.643600  0.013200  0.524800  1.0  0.1318
  H  H711  1  0.591800  0.957400  0.583600  1.0  0.0871
  H  H712  1  0.695700  0.017900  0.472700  1.0  0.1269
  H  H713  1  0.540500  0.893100  0.671300  1.0  0.0938
  H  H714  1  0.444500  0.195500  0.504700  1.0  0.1289
  H  H715  1  0.485800  0.941400  0.677200  1.0  0.1258
  H  H716  1  0.603600  0.892400  0.754400  1.0  0.115
  H  H717  1  0.613800  0.933800  0.648800  1.0  0.0914
  H  H718  1  0.392700  0.186900  0.553900  1.0  0.0835
  H  H719  1  0.484700  0.000500  0.634900  1.0  0.1164
  H  H720  1  0.604500  0.942100  0.699900  1.0  0.1296
  H  H721  1  0.865500  0.600100  0.086700  1.0  0.0914
  H  H722  1  0.852900  0.463100  0.100100  1.0  0.0866
  H  H723  1  0.845600  0.702800  0.831200  1.0  0.0903
  H  H724  1  0.831000  0.418000  0.062000  1.0  0.0756
  H  H725  1  0.847600  0.504600  0.147400  1.0  0.1153
  H  H726  1  0.818400  0.524800  0.013200  1.0  0.1314
  H  H727  1  0.867200  0.583600  0.957400  1.0  0.0881
  H  H728  1  0.813700  0.472700  0.017900  1.0  0.1258
  H  H729  1  0.895100  0.671300  0.893100  1.0  0.0926
  H  H730  1  0.855300  0.504700  0.195500  1.0  0.1273
  H  H731  1  0.895600  0.677200  0.941400  1.0  0.1255
  H  H732  1  0.749600  0.754400  0.892400  1.0  0.114
  H  H733  1  0.803600  0.648800  0.933800  1.0  0.0917
  H  H734  1  0.866500  0.553900  0.186900  1.0  0.0848
  H  H735  1  0.879900  0.634900  0.000500  1.0  0.1174
  H  H736  1  0.753500  0.699900  0.942100  1.0  0.128
  H  H737  1  0.086700  0.447700  0.865500  1.0  0.0912
  H  H738  1  0.100100  0.583900  0.852900  1.0  0.0865
  H  H739  1  0.831200  0.620400  0.845600  1.0  0.0893
  H  H740  1  0.062000  0.689000  0.831000  1.0  0.0751
  H  H741  1  0.147400  0.500400  0.847600  1.0  0.116
  H  H742  1  0.013200  0.643600  0.818400  1.0  0.1329
  H  H743  1  0.957400  0.591800  0.867200  1.0  0.0883
  H  H744  1  0.017900  0.695700  0.813700  1.0  0.1282
  H  H745  1  0.893100  0.540500  0.895100  1.0  0.0939
  H  H746  1  0.195500  0.444500  0.855300  1.0  0.1263
  H  H747  1  0.941400  0.485800  0.895600  1.0  0.1259
  H  H748  1  0.892400  0.603600  0.749600  1.0  0.1146
  H  H749  1  0.933800  0.613800  0.803600  1.0  0.0906
  H  H750  1  0.186900  0.392700  0.866500  1.0  0.0833
  H  H751  1  0.000500  0.484700  0.879900  1.0  0.1167
  H  H752  1  0.942100  0.604500  0.753500  1.0  0.128
  H  H753  1  0.086700  0.600100  0.447700  1.0  0.0918
  H  H754  1  0.100100  0.463100  0.583900  1.0  0.0851
  H  H755  1  0.831200  0.702800  0.620400  1.0  0.0899
  H  H756  1  0.062000  0.418000  0.689000  1.0  0.0745
  H  H757  1  0.147400  0.504600  0.500400  1.0  0.1147
  H  H758  1  0.013200  0.524800  0.643600  1.0  0.1328
  H  H759  1  0.957400  0.583600  0.591800  1.0  0.0873
  H  H760  1  0.017900  0.472700  0.695700  1.0  0.1268
  H  H761  1  0.893100  0.671300  0.540500  1.0  0.0963
  H  H762  1  0.195500  0.504700  0.444500  1.0  0.1273
  H  H763  1  0.941400  0.677200  0.485800  1.0  0.1247
  H  H764  1  0.892400  0.754400  0.603600  1.0  0.1126
  H  H765  1  0.933800  0.648800  0.613800  1.0  0.0914
  H  H766  1  0.186900  0.553900  0.392700  1.0  0.0836
  H  H767  1  0.000500  0.634900  0.484700  1.0  0.1162
  H  H768  1  0.942100  0.699900  0.604500  1.0  0.1284
  H  H769  1  0.865500  0.447700  0.600100  1.0  0.0932
  H  H770  1  0.852900  0.583900  0.463100  1.0  0.0846
  H  H771  1  0.845600  0.620400  0.702800  1.0  0.0911
  H  H772  1  0.831000  0.689000  0.418000  1.0  0.0743
  H  H773  1  0.847600  0.500400  0.504600  1.0  0.1159
  H  H774  1  0.818400  0.643600  0.524800  1.0  0.1325
  H  H775  1  0.867200  0.591800  0.583600  1.0  0.0886
  H  H776  1  0.813700  0.695700  0.472700  1.0  0.1279
  H  H777  1  0.895100  0.540500  0.671300  1.0  0.095
  H  H778  1  0.855300  0.444500  0.504700  1.0  0.1268
  H  H779  1  0.895600  0.485800  0.677200  1.0  0.1255
  H  H780  1  0.749600  0.603600  0.754400  1.0  0.1137
  H  H781  1  0.803600  0.613800  0.648800  1.0  0.0924
  H  H782  1  0.866500  0.392700  0.553900  1.0  0.0844
  H  H783  1  0.879900  0.484700  0.634900  1.0  0.116
  H  H784  1  0.753500  0.604500  0.699900  1.0  0.1281
  H  H785  1  0.447700  0.865500  0.086700  1.0  0.0935
  H  H786  1  0.583900  0.852900  0.100100  1.0  0.0844
  H  H787  1  0.620400  0.845600  0.831200  1.0  0.091
  H  H788  1  0.689000  0.831000  0.062000  1.0  0.0742
  H  H789  1  0.500400  0.847600  0.147400  1.0  0.1174
  H  H790  1  0.643600  0.818400  0.013200  1.0  0.1321
  H  H791  1  0.591800  0.867200  0.957400  1.0  0.088
  H  H792  1  0.695700  0.813700  0.017900  1.0  0.1261
  H  H793  1  0.540500  0.895100  0.893100  1.0  0.093
  H  H794  1  0.444500  0.855300  0.195500  1.0  0.1259
  H  H795  1  0.485800  0.895600  0.941400  1.0  0.1242
  H  H796  1  0.603600  0.749600  0.892400  1.0  0.1133
  H  H797  1  0.613800  0.803600  0.933800  1.0  0.0926
  H  H798  1  0.392700  0.866500  0.186900  1.0  0.0839
  H  H799  1  0.484700  0.879900  0.000500  1.0  0.1159
  H  H800  1  0.604500  0.753500  0.942100  1.0  0.129
  H  H801  1  0.600100  0.086700  0.865500  1.0  0.0915
  H  H802  1  0.463100  0.100100  0.852900  1.0  0.0854
  H  H803  1  0.702800  0.831200  0.845600  1.0  0.0908
  H  H804  1  0.418000  0.062000  0.831000  1.0  0.0744
  H  H805  1  0.504600  0.147400  0.847600  1.0  0.1165
  H  H806  1  0.524800  0.013200  0.818400  1.0  0.1323
  H  H807  1  0.583600  0.957400  0.867200  1.0  0.0871
  H  H808  1  0.472700  0.017900  0.813700  1.0  0.1264
  H  H809  1  0.671300  0.893100  0.895100  1.0  0.0936
  H  H810  1  0.504700  0.195500  0.855300  1.0  0.1286
  H  H811  1  0.677200  0.941400  0.895600  1.0  0.1251
  H  H812  1  0.754400  0.892400  0.749600  1.0  0.114
  H  H813  1  0.648800  0.933800  0.803600  1.0  0.0917
  H  H814  1  0.553900  0.186900  0.866500  1.0  0.083
  H  H815  1  0.634900  0.000500  0.879900  1.0  0.1156
  H  H816  1  0.699900  0.942100  0.753500  1.0  0.1296
  C  C817  1  0.353380  0.580440  0.053020  1.0  0.4222
  C  C818  1  0.355520  0.612180  0.052820  1.0  -0.1894
  C  C819  1  0.362880  0.609220  0.080780  1.0  0.1946
  C  C820  1  0.345610  0.582650  0.964990  1.0  0.1842
  C  C821  1  0.326590  0.353930  0.202210  1.0  0.1881
  C  C822  1  0.332540  0.560680  0.938860  1.0  0.1742
  C  C823  1  0.343710  0.554650  0.028390  1.0  0.2737
  C  C824  1  0.297820  0.356600  0.233660  1.0  -0.1636
  C  C825  1  0.296890  0.324950  0.267150  1.0  0.4028
  C  C826  1  0.336740  0.556680  0.998680  1.0  -0.1349
  C  C827  1  0.352580  0.644520  0.024240  1.0  -0.0228
  C  C828  1  0.416620  0.538220  0.145240  1.0  0.2227
  C  C829  1  0.324650  0.531450  0.002170  1.0  -0.0691
  C  C830  1  0.372170  0.454450  0.103330  1.0  0.1919
  C  C831  1  0.322240  0.534040  0.971460  1.0  -0.1784
  C  C832  1  0.369810  0.485430  0.105910  1.0  -0.178
  C  C833  1  0.389170  0.416730  0.154110  1.0  0.1542
  C  C834  1  0.320080  0.427740  0.079920  1.0  0.2689
  C  C835  1  0.356920  0.673000  0.024260  1.0  -0.1286
  C  C836  1  0.389250  0.445410  0.158030  1.0  -0.1307
  C  C837  1  0.269890  0.389830  0.233130  1.0  -0.0022
  C  C838  1  0.302040  0.413800  0.170780  1.0  0.1664
  C  C839  1  0.363710  0.667470  0.053770  1.0  0.1868
  C  C840  1  0.379650  0.480570  0.133090  1.0  -0.0281
  C  C841  1  0.359910  0.520590  0.078710  1.0  0.445
  C  C842  1  0.272050  0.419170  0.200990  1.0  -0.1586
  C  C843  1  0.580440  0.353380  0.013160  1.0  0.4215
  C  C844  1  0.612180  0.355520  0.979480  1.0  -0.187
  C  C845  1  0.609220  0.362880  0.947120  1.0  0.1932
  C  C846  1  0.582650  0.345610  0.106750  1.0  0.1864
  C  C847  1  0.353930  0.326590  0.117270  1.0  0.1882
  C  C848  1  0.560680  0.332540  0.167920  1.0  0.1797
  C  C849  1  0.554650  0.343710  0.073250  1.0  0.2735
  C  C850  1  0.356600  0.297820  0.111920  1.0  -0.1628
  C  C851  1  0.324950  0.296890  0.111010  1.0  0.402
  C  C852  1  0.556680  0.336740  0.107900  1.0  -0.135
  C  C853  1  0.644520  0.352580  0.978660  1.0  -0.0224
  C  C854  1  0.538220  0.416620  0.899920  1.0  0.2235
  C  C855  1  0.531450  0.324650  0.141730  1.0  -0.0698
  C  C856  1  0.454450  0.372170  0.070050  1.0  0.1923
  C  C857  1  0.534040  0.322240  0.172260  1.0  -0.1792
  C  C858  1  0.485430  0.369810  0.038850  1.0  -0.1791
  C  C859  1  0.416730  0.389170  0.039990  1.0  0.1578
  C  C860  1  0.427740  0.320080  0.172260  1.0  0.267
  C  C861  1  0.673000  0.356920  0.945820  1.0  -0.1253
  C  C862  1  0.445410  0.389250  0.007310  1.0  -0.13
  C  C863  1  0.389830  0.269890  0.107150  1.0  -0.0035
  C  C864  1  0.413800  0.302040  0.113380  1.0  0.1666
  C  C865  1  0.667470  0.363710  0.915050  1.0  0.1904
  C  C866  1  0.480570  0.379650  0.006690  1.0  -0.0313
  C  C867  1  0.520590  0.359910  0.040790  1.0  0.4452
  C  C868  1  0.419170  0.272050  0.107790  1.0  -0.1607
  C  C869  1  0.053020  0.013160  0.353380  1.0  0.4218
  C  C870  1  0.052820  0.979480  0.355520  1.0  -0.1878
  C  C871  1  0.080780  0.947120  0.362880  1.0  0.1938
  C  C872  1  0.964990  0.106750  0.345610  1.0  0.187
  C  C873  1  0.202210  0.117270  0.326590  1.0  0.1887
  C  C874  1  0.938860  0.167920  0.332540  1.0  0.1737
  C  C875  1  0.028390  0.073250  0.343710  1.0  0.2745
  C  C876  1  0.233660  0.111920  0.297820  1.0  -0.1629
  C  C877  1  0.267150  0.111010  0.296890  1.0  0.4031
  C  C878  1  0.998680  0.107900  0.336740  1.0  -0.1359
  C  C879  1  0.024240  0.978660  0.352580  1.0  -0.0224
  C  C880  1  0.145240  0.899920  0.416620  1.0  0.2149
  C  C881  1  0.002170  0.141730  0.324650  1.0  -0.07
  C  C882  1  0.103330  0.070050  0.372170  1.0  0.1901
  C  C883  1  0.971460  0.172260  0.322240  1.0  -0.1759
  C  C884  1  0.105910  0.038850  0.369810  1.0  -0.1794
  C  C885  1  0.154110  0.039990  0.389170  1.0  0.1582
  C  C886  1  0.079920  0.172260  0.320080  1.0  0.267
  C  C887  1  0.024260  0.945820  0.356920  1.0  -0.1283
  C  C888  1  0.158030  0.007310  0.389250  1.0  -0.1312
  C  C889  1  0.233130  0.107150  0.269890  1.0  -0.0052
  C  C890  1  0.170780  0.113380  0.302040  1.0  0.1657
  C  C891  1  0.053770  0.915050  0.363710  1.0  0.1857
  C  C892  1  0.133090  0.006690  0.379650  1.0  -0.0275
  C  C893  1  0.078710  0.040790  0.359910  1.0  0.4439
  C  C894  1  0.200990  0.107790  0.272050  1.0  -0.155
  C  C895  1  0.013160  0.053020  0.580440  1.0  0.422
  C  C896  1  0.979480  0.052820  0.612180  1.0  -0.1878
  C  C897  1  0.947120  0.080780  0.609220  1.0  0.1906
  C  C898  1  0.106750  0.964990  0.582650  1.0  0.1862
  C  C899  1  0.117270  0.202210  0.353930  1.0  0.1884
  C  C900  1  0.167920  0.938860  0.560680  1.0  0.1765
  C  C901  1  0.073250  0.028390  0.554650  1.0  0.2746
  C  C902  1  0.111920  0.233660  0.356600  1.0  -0.1636
  C  C903  1  0.111010  0.267150  0.324950  1.0  0.4024
  C  C904  1  0.107900  0.998680  0.556680  1.0  -0.1377
  C  C905  1  0.978660  0.024240  0.644520  1.0  -0.0229
  C  C906  1  0.899920  0.145240  0.538220  1.0  0.2212
  C  C907  1  0.141730  0.002170  0.531450  1.0  -0.0697
  C  C908  1  0.070050  0.103330  0.454450  1.0  0.1907
  C  C909  1  0.172260  0.971460  0.534040  1.0  -0.1736
  C  C910  1  0.038850  0.105910  0.485430  1.0  -0.1811
  C  C911  1  0.039990  0.154110  0.416730  1.0  0.16
  C  C912  1  0.172260  0.079920  0.427740  1.0  0.2707
  C  C913  1  0.945820  0.024260  0.673000  1.0  -0.1325
  C  C914  1  0.007310  0.158030  0.445410  1.0  -0.1354
  C  C915  1  0.107150  0.233130  0.389830  1.0  -0.0006
  C  C916  1  0.113380  0.170780  0.413800  1.0  0.1663
  C  C917  1  0.915050  0.053770  0.667470  1.0  0.1839
  C  C918  1  0.006690  0.133090  0.480570  1.0  -0.0277
  C  C919  1  0.040790  0.078710  0.520590  1.0  0.4451
  C  C920  1  0.107790  0.200990  0.419170  1.0  -0.1554
  C  C921  1  0.053020  0.353380  0.580440  1.0  0.4217
  C  C922  1  0.052820  0.355520  0.612180  1.0  -0.1896
  C  C923  1  0.080780  0.362880  0.609220  1.0  0.193
  C  C924  1  0.964990  0.345610  0.582650  1.0  0.1885
  C  C925  1  0.202210  0.326590  0.353930  1.0  0.1881
  C  C926  1  0.938860  0.332540  0.560680  1.0  0.1735
  C  C927  1  0.028390  0.343710  0.554650  1.0  0.2753
  C  C928  1  0.233660  0.297820  0.356600  1.0  -0.1641
  C  C929  1  0.267150  0.296890  0.324950  1.0  0.4024
  C  C930  1  0.998680  0.336740  0.556680  1.0  -0.137
  C  C931  1  0.024240  0.352580  0.644520  1.0  -0.0229
  C  C932  1  0.145240  0.416620  0.538220  1.0  0.2189
  C  C933  1  0.002170  0.324650  0.531450  1.0  -0.0709
  C  C934  1  0.103330  0.372170  0.454450  1.0  0.1912
  C  C935  1  0.971460  0.322240  0.534040  1.0  -0.1735
  C  C936  1  0.105910  0.369810  0.485430  1.0  -0.1752
  C  C937  1  0.154110  0.389170  0.416730  1.0  0.1635
  C  C938  1  0.079920  0.320080  0.427740  1.0  0.2767
  C  C939  1  0.024260  0.356920  0.673000  1.0  -0.1278
  C  C940  1  0.158030  0.389250  0.445410  1.0  -0.1304
  C  C941  1  0.233130  0.269890  0.389830  1.0  -0.0011
  C  C942  1  0.170780  0.302040  0.413800  1.0  0.1666
  C  C943  1  0.053770  0.363710  0.667470  1.0  0.1883
  C  C944  1  0.133090  0.379650  0.480570  1.0  -0.0262
  C  C945  1  0.078710  0.359910  0.520590  1.0  0.4439
  C  C946  1  0.200990  0.272050  0.419170  1.0  -0.1629
  C  C947  1  0.013160  0.580440  0.353380  1.0  0.4224
  C  C948  1  0.979480  0.612180  0.355520  1.0  -0.1875
  C  C949  1  0.947120  0.609220  0.362880  1.0  0.192
  C  C950  1  0.106750  0.582650  0.345610  1.0  0.1853
  C  C951  1  0.117270  0.353930  0.326590  1.0  0.1908
  C  C952  1  0.167920  0.560680  0.332540  1.0  0.1751
  C  C953  1  0.073250  0.554650  0.343710  1.0  0.2737
  C  C954  1  0.111920  0.356600  0.297820  1.0  -0.1603
  C  C955  1  0.111010  0.324950  0.296890  1.0  0.4027
  C  C956  1  0.107900  0.556680  0.336740  1.0  -0.134
  C  C957  1  0.978660  0.644520  0.352580  1.0  -0.0231
  C  C958  1  0.899920  0.538220  0.416620  1.0  0.222
  C  C959  1  0.141730  0.531450  0.324650  1.0  -0.073
  C  C960  1  0.070050  0.454450  0.372170  1.0  0.1877
  C  C961  1  0.172260  0.534040  0.322240  1.0  -0.1764
  C  C962  1  0.038850  0.485430  0.369810  1.0  -0.1785
  C  C963  1  0.039990  0.416730  0.389170  1.0  0.1568
  C  C964  1  0.172260  0.427740  0.320080  1.0  0.2746
  C  C965  1  0.945820  0.673000  0.356920  1.0  -0.1276
  C  C966  1  0.007310  0.445410  0.389250  1.0  -0.1325
  C  C967  1  0.107150  0.389830  0.269890  1.0  -0.0037
  C  C968  1  0.113380  0.413800  0.302040  1.0  0.1662
  C  C969  1  0.915050  0.667470  0.363710  1.0  0.1841
  C  C970  1  0.006690  0.480570  0.379650  1.0  -0.0281
  C  C971  1  0.040790  0.520590  0.359910  1.0  0.4452
  C  C972  1  0.107790  0.419170  0.272050  1.0  -0.1598
  C  C973  1  0.353380  0.053020  0.013160  1.0  0.4214
  C  C974  1  0.355520  0.052820  0.979480  1.0  -0.1892
  C  C975  1  0.362880  0.080780  0.947120  1.0  0.1921
  C  C976  1  0.345610  0.964990  0.106750  1.0  0.189
  C  C977  1  0.326590  0.202210  0.117270  1.0  0.1884
  C  C978  1  0.332540  0.938860  0.167920  1.0  0.1747
  C  C979  1  0.343710  0.028390  0.073250  1.0  0.2746
  C  C980  1  0.297820  0.233660  0.111920  1.0  -0.164
  C  C981  1  0.296890  0.267150  0.111010  1.0  0.4023
  C  C982  1  0.336740  0.998680  0.107900  1.0  -0.1363
  C  C983  1  0.352580  0.024240  0.978660  1.0  -0.0241
  C  C984  1  0.416620  0.145240  0.899920  1.0  0.2188
  C  C985  1  0.324650  0.002170  0.141730  1.0  -0.0697
  C  C986  1  0.372170  0.103330  0.070050  1.0  0.1926
  C  C987  1  0.322240  0.971460  0.172260  1.0  -0.1764
  C  C988  1  0.369810  0.105910  0.038850  1.0  -0.1763
  C  C989  1  0.389170  0.154110  0.039990  1.0  0.1617
  C  C990  1  0.320080  0.079920  0.172260  1.0  0.2763
  C  C991  1  0.356920  0.024260  0.945820  1.0  -0.1312
  C  C992  1  0.389250  0.158030  0.007310  1.0  -0.1346
  C  C993  1  0.269890  0.233130  0.107150  1.0  0.0007
  C  C994  1  0.302040  0.170780  0.113380  1.0  0.1661
  C  C995  1  0.363710  0.053770  0.915050  1.0  0.1835
  C  C996  1  0.379650  0.133090  0.006690  1.0  -0.0292
  C  C997  1  0.359910  0.078710  0.040790  1.0  0.445
  C  C998  1  0.272050  0.200990  0.107790  1.0  -0.1586
  C  C999  1  0.580440  0.013160  0.053020  1.0  0.4213
  C  C1000  1  0.612180  0.979480  0.052820  1.0  -0.1888
  C  C1001  1  0.609220  0.947120  0.080780  1.0  0.1932
  C  C1002  1  0.582650  0.106750  0.964990  1.0  0.1853
  C  C1003  1  0.353930  0.117270  0.202210  1.0  0.1883
  C  C1004  1  0.560680  0.167920  0.938860  1.0  0.1733
  C  C1005  1  0.554650  0.073250  0.028390  1.0  0.2732
  C  C1006  1  0.356600  0.111920  0.233660  1.0  -0.1592
  C  C1007  1  0.324950  0.111010  0.267150  1.0  0.4014
  C  C1008  1  0.556680  0.107900  0.998680  1.0  -0.134
  C  C1009  1  0.644520  0.978660  0.024240  1.0  -0.0221
  C  C1010  1  0.538220  0.899920  0.145240  1.0  0.2223
  C  C1011  1  0.531450  0.141730  0.002170  1.0  -0.0721
  C  C1012  1  0.454450  0.070050  0.103330  1.0  0.1904
  C  C1013  1  0.534040  0.172260  0.971460  1.0  -0.1793
  C  C1014  1  0.485430  0.038850  0.105910  1.0  -0.1797
  C  C1015  1  0.416730  0.039990  0.154110  1.0  0.1564
  C  C1016  1  0.427740  0.172260  0.079920  1.0  0.274
  C  C1017  1  0.673000  0.945820  0.024260  1.0  -0.1261
  C  C1018  1  0.445410  0.007310  0.158030  1.0  -0.1336
  C  C1019  1  0.389830  0.107150  0.233130  1.0  -0.0015
  C  C1020  1  0.413800  0.113380  0.170780  1.0  0.1689
  C  C1021  1  0.667470  0.915050  0.053770  1.0  0.187
  C  C1022  1  0.480570  0.006690  0.133090  1.0  -0.0285
  C  C1023  1  0.520590  0.040790  0.078710  1.0  0.4444
  C  C1024  1  0.419170  0.107790  0.200990  1.0  -0.1567
  C  C1025  1  0.580440  0.053020  0.353380  1.0  0.4211
  C  C1026  1  0.612180  0.052820  0.355520  1.0  -0.1864
  C  C1027  1  0.609220  0.080780  0.362880  1.0  0.1927
  C  C1028  1  0.582650  0.964990  0.345610  1.0  0.186
  C  C1029  1  0.353930  0.202210  0.326590  1.0  0.1896
  C  C1030  1  0.560680  0.938860  0.332540  1.0  0.1752
  C  C1031  1  0.554650  0.028390  0.343710  1.0  0.2743
  C  C1032  1  0.356600  0.233660  0.297820  1.0  -0.1639
  C  C1033  1  0.324950  0.267150  0.296890  1.0  0.4021
  C  C1034  1  0.556680  0.998680  0.336740  1.0  -0.1359
  C  C1035  1  0.644520  0.024240  0.352580  1.0  -0.025
  C  C1036  1  0.538220  0.145240  0.416620  1.0  0.2259
  C  C1037  1  0.531450  0.002170  0.324650  1.0  -0.0711
  C  C1038  1  0.454450  0.103330  0.372170  1.0  0.1894
  C  C1039  1  0.534040  0.971460  0.322240  1.0  -0.1761
  C  C1040  1  0.485430  0.105910  0.369810  1.0  -0.1795
  C  C1041  1  0.416730  0.154110  0.389170  1.0  0.1553
  C  C1042  1  0.427740  0.079920  0.320080  1.0  0.2691
  C  C1043  1  0.673000  0.024260  0.356920  1.0  -0.1291
  C  C1044  1  0.445410  0.158030  0.389250  1.0  -0.1343
  C  C1045  1  0.389830  0.233130  0.269890  1.0  -0.0008
  C  C1046  1  0.413800  0.170780  0.302040  1.0  0.166
  C  C1047  1  0.667470  0.053770  0.363710  1.0  0.1858
  C  C1048  1  0.480570  0.133090  0.379650  1.0  -0.028
  C  C1049  1  0.520590  0.078710  0.359910  1.0  0.4449
  C  C1050  1  0.419170  0.200990  0.272050  1.0  -0.156
  C  C1051  1  0.353380  0.013160  0.580440  1.0  0.4216
  C  C1052  1  0.355520  0.979480  0.612180  1.0  -0.1878
  C  C1053  1  0.362880  0.947120  0.609220  1.0  0.1945
  C  C1054  1  0.345610  0.106750  0.582650  1.0  0.1883
  C  C1055  1  0.326590  0.117270  0.353930  1.0  0.1885
  C  C1056  1  0.332540  0.167920  0.560680  1.0  0.1762
  C  C1057  1  0.343710  0.073250  0.554650  1.0  0.2739
  C  C1058  1  0.297820  0.111920  0.356600  1.0  -0.1612
  C  C1059  1  0.296890  0.111010  0.324950  1.0  0.4025
  C  C1060  1  0.336740  0.107900  0.556680  1.0  -0.1356
  C  C1061  1  0.352580  0.978660  0.644520  1.0  -0.0225
  C  C1062  1  0.416620  0.899920  0.538220  1.0  0.2179
  C  C1063  1  0.324650  0.141730  0.531450  1.0  -0.0744
  C  C1064  1  0.372170  0.070050  0.454450  1.0  0.1918
  C  C1065  1  0.322240  0.172260  0.534040  1.0  -0.1773
  C  C1066  1  0.369810  0.038850  0.485430  1.0  -0.1799
  C  C1067  1  0.389170  0.039990  0.416730  1.0  0.1579
  C  C1068  1  0.320080  0.172260  0.427740  1.0  0.2686
  C  C1069  1  0.356920  0.945820  0.673000  1.0  -0.1261
  C  C1070  1  0.389250  0.007310  0.445410  1.0  -0.132
  C  C1071  1  0.269890  0.107150  0.389830  1.0  -0.0009
  C  C1072  1  0.302040  0.113380  0.413800  1.0  0.168
  C  C1073  1  0.363710  0.915050  0.667470  1.0  0.1837
  C  C1074  1  0.379650  0.006690  0.480570  1.0  -0.0272
  C  C1075  1  0.359910  0.040790  0.520590  1.0  0.4448
  C  C1076  1  0.272050  0.107790  0.419170  1.0  -0.1603
  C  C1077  1  0.013160  0.353380  0.053020  1.0  0.4216
  C  C1078  1  0.979480  0.355520  0.052820  1.0  -0.1886
  C  C1079  1  0.947120  0.362880  0.080780  1.0  0.1927
  C  C1080  1  0.106750  0.345610  0.964990  1.0  0.1868
  C  C1081  1  0.117270  0.326590  0.202210  1.0  0.1889
  C  C1082  1  0.167920  0.332540  0.938860  1.0  0.1773
  C  C1083  1  0.073250  0.343710  0.028390  1.0  0.274
  C  C1084  1  0.111920  0.297820  0.233660  1.0  -0.1611
  C  C1085  1  0.111010  0.296890  0.267150  1.0  0.4018
  C  C1086  1  0.107900  0.336740  0.998680  1.0  -0.1335
  C  C1087  1  0.978660  0.352580  0.024240  1.0  -0.0227
  C  C1088  1  0.899920  0.416620  0.145240  1.0  0.2164
  C  C1089  1  0.141730  0.324650  0.002170  1.0  -0.0715
  C  C1090  1  0.070050  0.372170  0.103330  1.0  0.1914
  C  C1091  1  0.172260  0.322240  0.971460  1.0  -0.1785
  C  C1092  1  0.038850  0.369810  0.105910  1.0  -0.1807
  C  C1093  1  0.039990  0.389170  0.154110  1.0  0.1598
  C  C1094  1  0.172260  0.320080  0.079920  1.0  0.2678
  C  C1095  1  0.945820  0.356920  0.024260  1.0  -0.1248
  C  C1096  1  0.007310  0.389250  0.158030  1.0  -0.1353
  C  C1097  1  0.107150  0.269890  0.233130  1.0  -0.0022
  C  C1098  1  0.113380  0.302040  0.170780  1.0  0.1642
  C  C1099  1  0.915050  0.363710  0.053770  1.0  0.1854
  C  C1100  1  0.006690  0.379650  0.133090  1.0  -0.028
  C  C1101  1  0.040790  0.359910  0.078710  1.0  0.4452
  C  C1102  1  0.107790  0.272050  0.200990  1.0  -0.162
  C  C1103  1  0.053020  0.580440  0.013160  1.0  0.4215
  C  C1104  1  0.052820  0.612180  0.979480  1.0  -0.186
  C  C1105  1  0.080780  0.609220  0.947120  1.0  0.1917
  C  C1106  1  0.964990  0.582650  0.106750  1.0  0.1873
  C  C1107  1  0.202210  0.353930  0.117270  1.0  0.1874
  C  C1108  1  0.938860  0.560680  0.167920  1.0  0.1739
  C  C1109  1  0.028390  0.554650  0.073250  1.0  0.2739
  C  C1110  1  0.233660  0.356600  0.111920  1.0  -0.1635
  C  C1111  1  0.267150  0.324950  0.111010  1.0  0.4038
  C  C1112  1  0.998680  0.556680  0.107900  1.0  -0.1356
  C  C1113  1  0.024240  0.644520  0.978660  1.0  -0.0244
  C  C1114  1  0.145240  0.538220  0.899920  1.0  0.2234
  C  C1115  1  0.002170  0.531450  0.141730  1.0  -0.0713
  C  C1116  1  0.103330  0.454450  0.070050  1.0  0.1919
  C  C1117  1  0.971460  0.534040  0.172260  1.0  -0.1785
  C  C1118  1  0.105910  0.485430  0.038850  1.0  -0.1775
  C  C1119  1  0.154110  0.416730  0.039990  1.0  0.1566
  C  C1120  1  0.079920  0.427740  0.172260  1.0  0.2683
  C  C1121  1  0.024260  0.673000  0.945820  1.0  -0.1292
  C  C1122  1  0.158030  0.445410  0.007310  1.0  -0.1321
  C  C1123  1  0.233130  0.389830  0.107150  1.0  -0.0026
  C  C1124  1  0.170780  0.413800  0.113380  1.0  0.1633
  C  C1125  1  0.053770  0.667470  0.915050  1.0  0.1835
  C  C1126  1  0.133090  0.480570  0.006690  1.0  -0.0278
  C  C1127  1  0.078710  0.520590  0.040790  1.0  0.4445
  C  C1128  1  0.200990  0.419170  0.107790  1.0  -0.1589
  C  C1129  1  0.896620  0.669560  0.236840  1.0  0.4215
  C  C1130  1  0.894480  0.637820  0.270520  1.0  -0.1882
  C  C1131  1  0.887120  0.640780  0.302880  1.0  0.1941
  C  C1132  1  0.904390  0.667350  0.143250  1.0  0.1844
  C  C1133  1  0.923410  0.896070  0.132730  1.0  0.1884
  C  C1134  1  0.917460  0.689320  0.082080  1.0  0.1741
  C  C1135  1  0.906290  0.695350  0.176750  1.0  0.274
  C  C1136  1  0.952180  0.893400  0.138080  1.0  -0.1645
  C  C1137  1  0.953110  0.925050  0.138990  1.0  0.402
  C  C1138  1  0.913260  0.693320  0.142100  1.0  -0.1362
  C  C1139  1  0.897420  0.605480  0.271340  1.0  -0.0231
  C  C1140  1  0.833380  0.711780  0.350080  1.0  0.2216
  C  C1141  1  0.925350  0.718550  0.108270  1.0  -0.0689
  C  C1142  1  0.877830  0.795550  0.179950  1.0  0.1913
  C  C1143  1  0.927760  0.715960  0.077740  1.0  -0.176
  C  C1144  1  0.880190  0.764570  0.211150  1.0  -0.178
  C  C1145  1  0.860830  0.833270  0.210010  1.0  0.1539
  C  C1146  1  0.929920  0.822260  0.077740  1.0  0.2685
  C  C1147  1  0.893080  0.577000  0.304180  1.0  -0.13
  C  C1148  1  0.860750  0.804590  0.242690  1.0  -0.1318
  C  C1149  1  0.980110  0.860170  0.142850  1.0  -0.0021
  C  C1150  1  0.947960  0.836200  0.136620  1.0  0.1671
  C  C1151  1  0.886290  0.582530  0.334950  1.0  0.1872
  C  C1152  1  0.870350  0.769430  0.243310  1.0  -0.0288
  C  C1153  1  0.890090  0.729410  0.209210  1.0  0.4456
  C  C1154  1  0.977950  0.830830  0.142210  1.0  -0.1593
  C  C1155  1  0.669560  0.896620  0.196980  1.0  0.4218
  C  C1156  1  0.637820  0.894480  0.197180  1.0  -0.1868
  C  C1157  1  0.640780  0.887120  0.169220  1.0  0.1929
  C  C1158  1  0.667350  0.904390  0.285010  1.0  0.1863
  C  C1159  1  0.896070  0.923410  0.047790  1.0  0.188
  C  C1160  1  0.689320  0.917460  0.311140  1.0  0.1792
  C  C1161  1  0.695350  0.906290  0.221610  1.0  0.2738
  C  C1162  1  0.893400  0.952180  0.016340  1.0  -0.1626
  C  C1163  1  0.925050  0.953110  0.982850  1.0  0.4023
  C  C1164  1  0.693320  0.913260  0.251320  1.0  -0.1349
  C  C1165  1  0.605480  0.897420  0.225760  1.0  -0.0228
  C  C1166  1  0.711780  0.833380  0.104760  1.0  0.224
  C  C1167  1  0.718550  0.925350  0.247830  1.0  -0.068
  C  C1168  1  0.795550  0.877830  0.146670  1.0  0.1915
  C  C1169  1  0.715960  0.927760  0.278540  1.0  -0.1772
  C  C1170  1  0.764570  0.880190  0.144090  1.0  -0.1786
  C  C1171  1  0.833270  0.860830  0.095890  1.0  0.1581
  C  C1172  1  0.822260  0.929920  0.170080  1.0  0.268
  C  C1173  1  0.577000  0.893080  0.225740  1.0  -0.1268
  C  C1174  1  0.804590  0.860750  0.091970  1.0  -0.1298
  C  C1175  1  0.860170  0.980110  0.016870  1.0  -0.0021
  C  C1176  1  0.836200  0.947960  0.079220  1.0  0.1668
  C  C1177  1  0.582530  0.886290  0.196230  1.0  0.1891
  C  C1178  1  0.769430  0.870350  0.116910  1.0  -0.0305
  C  C1179  1  0.729410  0.890090  0.171290  1.0  0.4453
  C  C1180  1  0.830830  0.977950  0.049010  1.0  -0.1611
  C  C1181  1  0.196980  0.236840  0.669560  1.0  0.4217
  C  C1182  1  0.197180  0.270520  0.637820  1.0  -0.1874
  C  C1183  1  0.169220  0.302880  0.640780  1.0  0.1937
  C  C1184  1  0.285010  0.143250  0.667350  1.0  0.1864
  C  C1185  1  0.047790  0.132730  0.896070  1.0  0.1885
  C  C1186  1  0.311140  0.082080  0.689320  1.0  0.1741
  C  C1187  1  0.221610  0.176750  0.695350  1.0  0.2747
  C  C1188  1  0.016340  0.138080  0.893400  1.0  -0.1628
  C  C1189  1  0.982850  0.138990  0.925050  1.0  0.4022
  C  C1190  1  0.251320  0.142100  0.693320  1.0  -0.136
  C  C1191  1  0.225760  0.271340  0.605480  1.0  -0.0222
  C  C1192  1  0.104760  0.350080  0.711780  1.0  0.2158
  C  C1193  1  0.247830  0.108270  0.718550  1.0  -0.072
  C  C1194  1  0.146670  0.179950  0.795550  1.0  0.1884
  C  C1195  1  0.278540  0.077740  0.715960  1.0  -0.1779
  C  C1196  1  0.144090  0.211150  0.764570  1.0  -0.1791
  C  C1197  1  0.095890  0.210010  0.833270  1.0  0.1599
  C  C1198  1  0.170080  0.077740  0.822260  1.0  0.2688
  C  C1199  1  0.225740  0.304180  0.577000  1.0  -0.1265
  C  C1200  1  0.091970  0.242690  0.804590  1.0  -0.1326
  C  C1201  1  0.016870  0.142850  0.860170  1.0  -0.0045
  C  C1202  1  0.079220  0.136620  0.836200  1.0  0.1658
  C  C1203  1  0.196230  0.334950  0.582530  1.0  0.1846
  C  C1204  1  0.116910  0.243310  0.769430  1.0  -0.0268
  C  C1205  1  0.171290  0.209210  0.729410  1.0  0.4443
  C  C1206  1  0.049010  0.142210  0.830830  1.0  -0.1556
  C  C1207  1  0.236840  0.196980  0.896620  1.0  0.4216
  C  C1208  1  0.270520  0.197180  0.894480  1.0  -0.1884
  C  C1209  1  0.302880  0.169220  0.887120  1.0  0.1919
  C  C1210  1  0.143250  0.285010  0.904390  1.0  0.1859
  C  C1211  1  0.132730  0.047790  0.923410  1.0  0.1884
  C  C1212  1  0.082080  0.311140  0.917460  1.0  0.1758
  C  C1213  1  0.176750  0.221610  0.906290  1.0  0.2745
  C  C1214  1  0.138080  0.016340  0.952180  1.0  -0.1627
  C  C1215  1  0.138990  0.982850  0.953110  1.0  0.4025
  C  C1216  1  0.142100  0.251320  0.913260  1.0  -0.1373
  C  C1217  1  0.271340  0.225760  0.897420  1.0  -0.0242
  C  C1218  1  0.350080  0.104760  0.833380  1.0  0.2202
  C  C1219  1  0.108270  0.247830  0.925350  1.0  -0.0697
  C  C1220  1  0.179950  0.146670  0.877830  1.0  0.19
  C  C1221  1  0.077740  0.278540  0.927760  1.0  -0.1764
  C  C1222  1  0.211150  0.144090  0.880190  1.0  -0.1821
  C  C1223  1  0.210010  0.095890  0.860830  1.0  0.1605
  C  C1224  1  0.077740  0.170080  0.929920  1.0  0.2703
  C  C1225  1  0.304180  0.225740  0.893080  1.0  -0.1311
  C  C1226  1  0.242690  0.091970  0.860750  1.0  -0.1332
  C  C1227  1  0.142850  0.016870  0.980110  1.0  -0.0028
  C  C1228  1  0.136620  0.079220  0.947960  1.0  0.1677
  C  C1229  1  0.334950  0.196230  0.886290  1.0  0.1834
  C  C1230  1  0.243310  0.116910  0.870350  1.0  -0.0285
  C  C1231  1  0.209210  0.171290  0.890090  1.0  0.4441
  C  C1232  1  0.142210  0.049010  0.977950  1.0  -0.1557
  C  C1233  1  0.196980  0.896620  0.236840  1.0  0.4218
  C  C1234  1  0.197180  0.894480  0.270520  1.0  -0.1877
  C  C1235  1  0.169220  0.887120  0.302880  1.0  0.1927
  C  C1236  1  0.285010  0.904390  0.143250  1.0  0.1875
  C  C1237  1  0.047790  0.923410  0.132730  1.0  0.1882
  C  C1238  1  0.311140  0.917460  0.082080  1.0  0.1744
  C  C1239  1  0.221610  0.906290  0.176750  1.0  0.2743
  C  C1240  1  0.016340  0.952180  0.138080  1.0  -0.1638
  C  C1241  1  0.982850  0.953110  0.138990  1.0  0.4025
  C  C1242  1  0.251320  0.913260  0.142100  1.0  -0.1363
  C  C1243  1  0.225760  0.897420  0.271340  1.0  -0.0227
  C  C1244  1  0.104760  0.833380  0.350080  1.0  0.219
  C  C1245  1  0.247830  0.925350  0.108270  1.0  -0.0717
  C  C1246  1  0.146670  0.877830  0.179950  1.0  0.1899
  C  C1247  1  0.278540  0.927760  0.077740  1.0  -0.1735
  C  C1248  1  0.144090  0.880190  0.211150  1.0  -0.1753
  C  C1249  1  0.095890  0.860830  0.210010  1.0  0.1641
  C  C1250  1  0.170080  0.929920  0.077740  1.0  0.275
  C  C1251  1  0.225740  0.893080  0.304180  1.0  -0.1259
  C  C1252  1  0.091970  0.860750  0.242690  1.0  -0.1329
  C  C1253  1  0.016870  0.980110  0.142850  1.0  -0.0
  C  C1254  1  0.079220  0.947960  0.136620  1.0  0.1671
  C  C1255  1  0.196230  0.886290  0.334950  1.0  0.1889
  C  C1256  1  0.116910  0.870350  0.243310  1.0  -0.0263
  C  C1257  1  0.171290  0.890090  0.209210  1.0  0.4439
  C  C1258  1  0.049010  0.977950  0.142210  1.0  -0.1595
  C  C1259  1  0.236840  0.669560  0.196980  1.0  0.4215
  C  C1260  1  0.270520  0.637820  0.197180  1.0  -0.1887
  C  C1261  1  0.302880  0.640780  0.169220  1.0  0.1927
  C  C1262  1  0.143250  0.667350  0.285010  1.0  0.1859
  C  C1263  1  0.132730  0.896070  0.047790  1.0  0.1904
  C  C1264  1  0.082080  0.689320  0.311140  1.0  0.1744
  C  C1265  1  0.176750  0.695350  0.221610  1.0  0.2737
  C  C1266  1  0.138080  0.893400  0.016340  1.0  -0.16
  C  C1267  1  0.138990  0.925050  0.982850  1.0  0.4022
  C  C1268  1  0.142100  0.693320  0.251320  1.0  -0.1339
  C  C1269  1  0.271340  0.605480  0.225760  1.0  -0.0238
  C  C1270  1  0.350080  0.711780  0.104760  1.0  0.2212
  C  C1271  1  0.108270  0.718550  0.247830  1.0  -0.0722
  C  C1272  1  0.179950  0.795550  0.146670  1.0  0.1897
  C  C1273  1  0.077740  0.715960  0.278540  1.0  -0.1785
  C  C1274  1  0.211150  0.764570  0.144090  1.0  -0.1787
  C  C1275  1  0.210010  0.833270  0.095890  1.0  0.1567
  C  C1276  1  0.077740  0.822260  0.170080  1.0  0.2765
  C  C1277  1  0.304180  0.577000  0.225740  1.0  -0.1318
  C  C1278  1  0.242690  0.804590  0.091970  1.0  -0.1305
  C  C1279  1  0.142850  0.860170  0.016870  1.0  -0.0031
  C  C1280  1  0.136620  0.836200  0.079220  1.0  0.1682
  C  C1281  1  0.334950  0.582530  0.196230  1.0  0.1843
  C  C1282  1  0.243310  0.769430  0.116910  1.0  -0.0281
  C  C1283  1  0.209210  0.729410  0.171290  1.0  0.4458
  C  C1284  1  0.142210  0.830830  0.049010  1.0  -0.1603
  C  C1285  1  0.896620  0.196980  0.669560  1.0  0.4214
  C  C1286  1  0.894480  0.197180  0.637820  1.0  -0.1895
  C  C1287  1  0.887120  0.169220  0.640780  1.0  0.1917
  C  C1288  1  0.904390  0.285010  0.667350  1.0  0.1888
  C  C1289  1  0.923410  0.047790  0.896070  1.0  0.1883
  C  C1290  1  0.917460  0.311140  0.689320  1.0  0.174
  C  C1291  1  0.906290  0.221610  0.695350  1.0  0.2745
  C  C1292  1  0.952180  0.016340  0.893400  1.0  -0.1641
  C  C1293  1  0.953110  0.982850  0.925050  1.0  0.4025
  C  C1294  1  0.913260  0.251320  0.693320  1.0  -0.1375
  C  C1295  1  0.897420  0.225760  0.605480  1.0  -0.0241
  C  C1296  1  0.833380  0.104760  0.711780  1.0  0.2178
  C  C1297  1  0.925350  0.247830  0.718550  1.0  -0.0697
  C  C1298  1  0.877830  0.146670  0.795550  1.0  0.1913
  C  C1299  1  0.927760  0.278540  0.715960  1.0  -0.1747
  C  C1300  1  0.880190  0.144090  0.764570  1.0  -0.1756
  C  C1301  1  0.860830  0.095890  0.833270  1.0  0.1627
  C  C1302  1  0.929920  0.170080  0.822260  1.0  0.2758
  C  C1303  1  0.893080  0.225740  0.577000  1.0  -0.1302
  C  C1304  1  0.860750  0.091970  0.804590  1.0  -0.1344
  C  C1305  1  0.980110  0.016870  0.860170  1.0  -0.0005
  C  C1306  1  0.947960  0.079220  0.836200  1.0  0.1661
  C  C1307  1  0.886290  0.196230  0.582530  1.0  0.1839
  C  C1308  1  0.870350  0.116910  0.769430  1.0  -0.028
  C  C1309  1  0.890090  0.171290  0.729410  1.0  0.4442
  C  C1310  1  0.977950  0.049010  0.830830  1.0  -0.1569
  C  C1311  1  0.669560  0.236840  0.896620  1.0  0.4212
  C  C1312  1  0.637820  0.270520  0.894480  1.0  -0.1893
  C  C1313  1  0.640780  0.302880  0.887120  1.0  0.1934
  C  C1314  1  0.667350  0.143250  0.904390  1.0  0.1862
  C  C1315  1  0.896070  0.132730  0.923410  1.0  0.1867
  C  C1316  1  0.689320  0.082080  0.917460  1.0  0.1734
  C  C1317  1  0.695350  0.176750  0.906290  1.0  0.2734
  C  C1318  1  0.893400  0.138080  0.952180  1.0  -0.1593
  C  C1319  1  0.925050  0.138990  0.953110  1.0  0.4019
  C  C1320  1  0.693320  0.142100  0.913260  1.0  -0.1354
  C  C1321  1  0.605480  0.271340  0.897420  1.0  -0.0225
  C  C1322  1  0.711780  0.350080  0.833380  1.0  0.2233
  C  C1323  1  0.718550  0.108270  0.925350  1.0  -0.0705
  C  C1324  1  0.795550  0.179950  0.877830  1.0  0.1899
  C  C1325  1  0.715960  0.077740  0.927760  1.0  -0.1777
  C  C1326  1  0.764570  0.211150  0.880190  1.0  -0.1784
  C  C1327  1  0.833270  0.210010  0.860830  1.0  0.1582
  C  C1328  1  0.822260  0.077740  0.929920  1.0  0.2765
  C  C1329  1  0.577000  0.304180  0.893080  1.0  -0.1265
  C  C1330  1  0.804590  0.242690  0.860750  1.0  -0.1327
  C  C1331  1  0.860170  0.142850  0.980110  1.0  -0.0014
  C  C1332  1  0.836200  0.136620  0.947960  1.0  0.1678
  C  C1333  1  0.582530  0.334950  0.886290  1.0  0.1869
  C  C1334  1  0.769430  0.243310  0.870350  1.0  -0.0293
  C  C1335  1  0.729410  0.209210  0.890090  1.0  0.4452
  C  C1336  1  0.830830  0.142210  0.977950  1.0  -0.1585
  C  C1337  1  0.669560  0.196980  0.236840  1.0  0.421
  C  C1338  1  0.637820  0.197180  0.270520  1.0  -0.1859
  C  C1339  1  0.640780  0.169220  0.302880  1.0  0.1933
  C  C1340  1  0.667350  0.285010  0.143250  1.0  0.1866
  C  C1341  1  0.896070  0.047790  0.132730  1.0  0.1892
  C  C1342  1  0.689320  0.311140  0.082080  1.0  0.1748
  C  C1343  1  0.695350  0.221610  0.176750  1.0  0.2742
  C  C1344  1  0.893400  0.016340  0.138080  1.0  -0.163
  C  C1345  1  0.925050  0.982850  0.138990  1.0  0.4022
  C  C1346  1  0.693320  0.251320  0.142100  1.0  -0.1361
  C  C1347  1  0.605480  0.225760  0.271340  1.0  -0.0245
  C  C1348  1  0.711780  0.104760  0.350080  1.0  0.2252
  C  C1349  1  0.718550  0.247830  0.108270  1.0  -0.0718
  C  C1350  1  0.795550  0.146670  0.179950  1.0  0.1891
  C  C1351  1  0.715960  0.278540  0.077740  1.0  -0.1744
  C  C1352  1  0.764570  0.144090  0.211150  1.0  -0.1788
  C  C1353  1  0.833270  0.095890  0.210010  1.0  0.1542
  C  C1354  1  0.822260  0.170080  0.077740  1.0  0.2688
  C  C1355  1  0.577000  0.225740  0.304180  1.0  -0.1312
  C  C1356  1  0.804590  0.091970  0.242690  1.0  -0.1351
  C  C1357  1  0.860170  0.016870  0.142850  1.0  -0.0018
  C  C1358  1  0.836200  0.079220  0.136620  1.0  0.1667
  C  C1359  1  0.582530  0.196230  0.334950  1.0  0.1855
  C  C1360  1  0.769430  0.116910  0.243310  1.0  -0.0279
  C  C1361  1  0.729410  0.171290  0.209210  1.0  0.4448
  C  C1362  1  0.830830  0.049010  0.142210  1.0  -0.1576
  C  C1363  1  0.896620  0.236840  0.196980  1.0  0.4213
  C  C1364  1  0.894480  0.270520  0.197180  1.0  -0.1878
  C  C1365  1  0.887120  0.302880  0.169220  1.0  0.1948
  C  C1366  1  0.904390  0.143250  0.285010  1.0  0.1881
  C  C1367  1  0.923410  0.132730  0.047790  1.0  0.1884
  C  C1368  1  0.917460  0.082080  0.311140  1.0  0.1751
  C  C1369  1  0.906290  0.176750  0.221610  1.0  0.274
  C  C1370  1  0.952180  0.138080  0.016340  1.0  -0.1612
  C  C1371  1  0.953110  0.138990  0.982850  1.0  0.403
  C  C1372  1  0.913260  0.142100  0.251320  1.0  -0.1356
  C  C1373  1  0.897420  0.271340  0.225760  1.0  -0.0225
  C  C1374  1  0.833380  0.350080  0.104760  1.0  0.2185
  C  C1375  1  0.925350  0.108270  0.247830  1.0  -0.0742
  C  C1376  1  0.877830  0.179950  0.146670  1.0  0.1912
  C  C1377  1  0.927760  0.077740  0.278540  1.0  -0.1778
  C  C1378  1  0.880190  0.211150  0.144090  1.0  -0.1805
  C  C1379  1  0.860830  0.210010  0.095890  1.0  0.1586
  C  C1380  1  0.929920  0.077740  0.170080  1.0  0.2686
  C  C1381  1  0.893080  0.304180  0.225740  1.0  -0.1252
  C  C1382  1  0.860750  0.242690  0.091970  1.0  -0.1333
  C  C1383  1  0.980110  0.142850  0.016870  1.0  -0.0012
  C  C1384  1  0.947960  0.136620  0.079220  1.0  0.1666
  C  C1385  1  0.886290  0.334950  0.196230  1.0  0.1846
  C  C1386  1  0.870350  0.243310  0.116910  1.0  -0.0268
  C  C1387  1  0.890090  0.209210  0.171290  1.0  0.4445
  C  C1388  1  0.977950  0.142210  0.049010  1.0  -0.1572
  C  C1389  1  0.236840  0.896620  0.669560  1.0  0.4216
  C  C1390  1  0.270520  0.894480  0.637820  1.0  -0.1891
  C  C1391  1  0.302880  0.887120  0.640780  1.0  0.1932
  C  C1392  1  0.143250  0.904390  0.667350  1.0  0.1872
  C  C1393  1  0.132730  0.923410  0.896070  1.0  0.1889
  C  C1394  1  0.082080  0.917460  0.689320  1.0  0.177
  C  C1395  1  0.176750  0.906290  0.695350  1.0  0.274
  C  C1396  1  0.138080  0.952180  0.893400  1.0  -0.1621
  C  C1397  1  0.138990  0.953110  0.925050  1.0  0.4019
  C  C1398  1  0.142100  0.913260  0.693320  1.0  -0.1329
  C  C1399  1  0.271340  0.897420  0.605480  1.0  -0.0229
  C  C1400  1  0.350080  0.833380  0.711780  1.0  0.2175
  C  C1401  1  0.108270  0.925350  0.718550  1.0  -0.0712
  C  C1402  1  0.179950  0.877830  0.795550  1.0  0.1915
  C  C1403  1  0.077740  0.927760  0.715960  1.0  -0.182
  C  C1404  1  0.211150  0.880190  0.764570  1.0  -0.1802
  C  C1405  1  0.210010  0.860830  0.833270  1.0  0.161
  C  C1406  1  0.077740  0.929920  0.822260  1.0  0.2676
  C  C1407  1  0.304180  0.893080  0.577000  1.0  -0.1259
  C  C1408  1  0.242690  0.860750  0.804590  1.0  -0.1307
  C  C1409  1  0.142850  0.980110  0.860170  1.0  -0.0016
  C  C1410  1  0.136620  0.947960  0.836200  1.0  0.1658
  C  C1411  1  0.334950  0.886290  0.582530  1.0  0.1854
  C  C1412  1  0.243310  0.870350  0.769430  1.0  -0.0288
  C  C1413  1  0.209210  0.890090  0.729410  1.0  0.4449
  C  C1414  1  0.142210  0.977950  0.830830  1.0  -0.1606
  C  C1415  1  0.196980  0.669560  0.896620  1.0  0.4211
  C  C1416  1  0.197180  0.637820  0.894480  1.0  -0.1866
  C  C1417  1  0.169220  0.640780  0.887120  1.0  0.191
  C  C1418  1  0.285010  0.667350  0.904390  1.0  0.1858
  C  C1419  1  0.047790  0.896070  0.923410  1.0  0.1883
  C  C1420  1  0.311140  0.689320  0.917460  1.0  0.1732
  C  C1421  1  0.221610  0.695350  0.906290  1.0  0.2738
  C  C1422  1  0.016340  0.893400  0.952180  1.0  -0.1639
  C  C1423  1  0.982850  0.925050  0.953110  1.0  0.4023
  C  C1424  1  0.251320  0.693320  0.913260  1.0  -0.1357
  C  C1425  1  0.225760  0.605480  0.897420  1.0  -0.0245
  C  C1426  1  0.104760  0.711780  0.833380  1.0  0.2214
  C  C1427  1  0.247830  0.718550  0.925350  1.0  -0.0718
  C  C1428  1  0.146670  0.795550  0.877830  1.0  0.1922
  C  C1429  1  0.278540  0.715960  0.927760  1.0  -0.1773
  C  C1430  1  0.144090  0.764570  0.880190  1.0  -0.1772
  C  C1431  1  0.095890  0.833270  0.860830  1.0  0.157
  C  C1432  1  0.170080  0.822260  0.929920  1.0  0.2695
  C  C1433  1  0.225740  0.577000  0.893080  1.0  -0.129
  C  C1434  1  0.091970  0.804590  0.860750  1.0  -0.1349
  C  C1435  1  0.016870  0.860170  0.980110  1.0  -0.0013
  C  C1436  1  0.079220  0.836200  0.947960  1.0  0.1636
  C  C1437  1  0.196230  0.582530  0.886290  1.0  0.1838
  C  C1438  1  0.116910  0.769430  0.870350  1.0  -0.0271
  C  C1439  1  0.171290  0.729410  0.890090  1.0  0.4454
  C  C1440  1  0.049010  0.830830  0.977950  1.0  -0.1614
  C  C1441  1  0.396620  0.169560  0.696980  1.0  0.4214
  C  C1442  1  0.394480  0.137820  0.697180  1.0  -0.1887
  C  C1443  1  0.387120  0.140780  0.669220  1.0  0.1926
  C  C1444  1  0.404390  0.167350  0.785010  1.0  0.1851
  C  C1445  1  0.423410  0.396070  0.547790  1.0  0.1882
  C  C1446  1  0.417460  0.189320  0.811140  1.0  0.1736
  C  C1447  1  0.406290  0.195350  0.721610  1.0  0.2738
  C  C1448  1  0.452180  0.393400  0.516340  1.0  -0.1642
  C  C1449  1  0.453110  0.425050  0.482850  1.0  0.4022
  C  C1450  1  0.413260  0.193320  0.751320  1.0  -0.1351
  C  C1451  1  0.397420  0.105480  0.725760  1.0  -0.0233
  C  C1452  1  0.333380  0.211780  0.604760  1.0  0.22
  C  C1453  1  0.425350  0.218550  0.747830  1.0  -0.0684
  C  C1454  1  0.377830  0.295550  0.646670  1.0  0.1913
  C  C1455  1  0.427760  0.215960  0.778540  1.0  -0.1767
  C  C1456  1  0.380190  0.264570  0.644090  1.0  -0.1778
  C  C1457  1  0.360830  0.333270  0.595890  1.0  0.1559
  C  C1458  1  0.429920  0.322260  0.670080  1.0  0.2689
  C  C1459  1  0.393080  0.077000  0.725740  1.0  -0.1316
  C  C1460  1  0.360750  0.304590  0.591970  1.0  -0.1298
  C  C1461  1  0.480110  0.360170  0.516870  1.0  -0.0026
  C  C1462  1  0.447960  0.336200  0.579220  1.0  0.1684
  C  C1463  1  0.386290  0.082530  0.696230  1.0  0.1863
  C  C1464  1  0.370350  0.269430  0.616910  1.0  -0.0294
  C  C1465  1  0.390090  0.229410  0.671290  1.0  0.4458
  C  C1466  1  0.477950  0.330830  0.549010  1.0  -0.1592
  C  C1467  1  0.169560  0.396620  0.736840  1.0  0.4219
  C  C1468  1  0.137820  0.394480  0.770520  1.0  -0.1864
  C  C1469  1  0.140780  0.387120  0.802880  1.0  0.1947
  C  C1470  1  0.167350  0.404390  0.643250  1.0  0.1853
  C  C1471  1  0.396070  0.423410  0.632730  1.0  0.1881
  C  C1472  1  0.189320  0.417460  0.582080  1.0  0.1795
  C  C1473  1  0.195350  0.406290  0.676750  1.0  0.2739
  C  C1474  1  0.393400  0.452180  0.638080  1.0  -0.1628
  C  C1475  1  0.425050  0.453110  0.638990  1.0  0.4022
  C  C1476  1  0.193320  0.413260  0.642100  1.0  -0.1361
  C  C1477  1  0.105480  0.397420  0.771340  1.0  -0.0221
  C  C1478  1  0.211780  0.333380  0.850080  1.0  0.2229
  C  C1479  1  0.218550  0.425350  0.608270  1.0  -0.0685
  C  C1480  1  0.295550  0.377830  0.679950  1.0  0.1923
  C  C1481  1  0.215960  0.427760  0.577740  1.0  -0.1766
  C  C1482  1  0.264570  0.380190  0.711150  1.0  -0.179
  C  C1483  1  0.333270  0.360830  0.710010  1.0  0.1568
  C  C1484  1  0.322260  0.429920  0.577740  1.0  0.2668
  C  C1485  1  0.077000  0.393080  0.804180  1.0  -0.1254
  C  C1486  1  0.304590  0.360750  0.742690  1.0  -0.1302
  C  C1487  1  0.360170  0.480110  0.642850  1.0  -0.0017
  C  C1488  1  0.336200  0.447960  0.636620  1.0  0.1668
  C  C1489  1  0.082530  0.386290  0.834950  1.0  0.1906
  C  C1490  1  0.269430  0.370350  0.743310  1.0  -0.0301
  C  C1491  1  0.229410  0.390090  0.709210  1.0  0.4449
  C  C1492  1  0.330830  0.477950  0.642210  1.0  -0.1607
  C  C1493  1  0.696980  0.736840  0.396620  1.0  0.4215
  C  C1494  1  0.697180  0.770520  0.394480  1.0  -0.1877
  C  C1495  1  0.669220  0.802880  0.387120  1.0  0.1932
  C  C1496  1  0.785010  0.643250  0.404390  1.0  0.1856
  C  C1497  1  0.547790  0.632730  0.423410  1.0  0.1883
  C  C1498  1  0.811140  0.582080  0.417460  1.0  0.1734
  C  C1499  1  0.721610  0.676750  0.406290  1.0  0.2747
  C  C1500  1  0.516340  0.638080  0.452180  1.0  -0.1634
  C  C1501  1  0.482850  0.638990  0.453110  1.0  0.4022
  C  C1502  1  0.751320  0.642100  0.413260  1.0  -0.136
  C  C1503  1  0.725760  0.771340  0.397420  1.0  -0.022
  C  C1504  1  0.604760  0.850080  0.333380  1.0  0.217
  C  C1505  1  0.747830  0.608270  0.425350  1.0  -0.0718
  C  C1506  1  0.646670  0.679950  0.377830  1.0  0.1884
  C  C1507  1  0.778540  0.577740  0.427760  1.0  -0.1777
  C  C1508  1  0.644090  0.711150  0.380190  1.0  -0.1808
  C  C1509  1  0.595890  0.710010  0.360830  1.0  0.1597
  C  C1510  1  0.670080  0.577740  0.429920  1.0  0.2697
  C  C1511  1  0.725740  0.804180  0.393080  1.0  -0.1262
  C  C1512  1  0.591970  0.742690  0.360750  1.0  -0.1331
  C  C1513  1  0.516870  0.642850  0.480110  1.0  -0.0036
  C  C1514  1  0.579220  0.636620  0.447960  1.0  0.1664
  C  C1515  1  0.696230  0.834950  0.386290  1.0  0.1847
  C  C1516  1  0.616910  0.743310  0.370350  1.0  -0.0268
  C  C1517  1  0.671290  0.709210  0.390090  1.0  0.4441
  C  C1518  1  0.549010  0.642210  0.477950  1.0  -0.156
  C  C1519  1  0.736840  0.696980  0.169560  1.0  0.4218
  C  C1520  1  0.770520  0.697180  0.137820  1.0  -0.188
  C  C1521  1  0.802880  0.669220  0.140780  1.0  0.1923
  C  C1522  1  0.643250  0.785010  0.167350  1.0  0.1868
  C  C1523  1  0.632730  0.547790  0.396070  1.0  0.1886
  C  C1524  1  0.582080  0.811140  0.189320  1.0  0.176
  C  C1525  1  0.676750  0.721610  0.195350  1.0  0.2745
  C  C1526  1  0.638080  0.516340  0.393400  1.0  -0.1622
  C  C1527  1  0.638990  0.482850  0.425050  1.0  0.4026
  C  C1528  1  0.642100  0.751320  0.193320  1.0  -0.1373
  C  C1529  1  0.771340  0.725760  0.105480  1.0  -0.0239
  C  C1530  1  0.850080  0.604760  0.211780  1.0  0.2167
  C  C1531  1  0.608270  0.747830  0.218550  1.0  -0.0695
  C  C1532  1  0.679950  0.646670  0.295550  1.0  0.19
  C  C1533  1  0.577740  0.778540  0.215960  1.0  -0.1762
  C  C1534  1  0.711150  0.644090  0.264570  1.0  -0.1795
  C  C1535  1  0.710010  0.595890  0.333270  1.0  0.1608
  C  C1536  1  0.577740  0.670080  0.322260  1.0  0.2697
  C  C1537  1  0.804180  0.725740  0.077000  1.0  -0.1325
  C  C1538  1  0.742690  0.591970  0.304590  1.0  -0.1324
  C  C1539  1  0.642850  0.516870  0.360170  1.0  -0.0036
  C  C1540  1  0.636620  0.579220  0.336200  1.0  0.1668
  C  C1541  1  0.834950  0.696230  0.082530  1.0  0.184
  C  C1542  1  0.743310  0.616910  0.269430  1.0  -0.0282
  C  C1543  1  0.709210  0.671290  0.229410  1.0  0.4441
  C  C1544  1  0.642210  0.549010  0.330830  1.0  -0.155
  C  C1545  1  0.696980  0.396620  0.169560  1.0  0.4215
  C  C1546  1  0.697180  0.394480  0.137820  1.0  -0.1891
  C  C1547  1  0.669220  0.387120  0.140780  1.0  0.1926
  C  C1548  1  0.785010  0.404390  0.167350  1.0  0.1882
  C  C1549  1  0.547790  0.423410  0.396070  1.0  0.1878
  C  C1550  1  0.811140  0.417460  0.189320  1.0  0.1748
  C  C1551  1  0.721610  0.406290  0.195350  1.0  0.2741
  C  C1552  1  0.516340  0.452180  0.393400  1.0  -0.1638
  C  C1553  1  0.482850  0.453110  0.425050  1.0  0.4022
  C  C1554  1  0.751320  0.413260  0.193320  1.0  -0.1368
  C  C1555  1  0.725760  0.397420  0.105480  1.0  -0.0226
  C  C1556  1  0.604760  0.333380  0.211780  1.0  0.2159
  C  C1557  1  0.747830  0.425350  0.218550  1.0  -0.0721
  C  C1558  1  0.646670  0.377830  0.295550  1.0  0.1898
  C  C1559  1  0.778540  0.427760  0.215960  1.0  -0.1769
  C  C1560  1  0.644090  0.380190  0.264570  1.0  -0.1761
  C  C1561  1  0.595890  0.360830  0.333270  1.0  0.1653
  C  C1562  1  0.670080  0.429920  0.322260  1.0  0.2748
  C  C1563  1  0.725740  0.393080  0.077000  1.0  -0.1255
  C  C1564  1  0.591970  0.360750  0.304590  1.0  -0.1325
  C  C1565  1  0.516870  0.480110  0.360170  1.0  -0.0005
  C  C1566  1  0.579220  0.447960  0.336200  1.0  0.1676
  C  C1567  1  0.696230  0.386290  0.082530  1.0  0.1887
  C  C1568  1  0.616910  0.370350  0.269430  1.0  -0.0284
  C  C1569  1  0.671290  0.390090  0.229410  1.0  0.4441
  C  C1570  1  0.549010  0.477950  0.330830  1.0  -0.1602
  C  C1571  1  0.736840  0.169560  0.396620  1.0  0.4216
  C  C1572  1  0.770520  0.137820  0.394480  1.0  -0.1886
  C  C1573  1  0.802880  0.140780  0.387120  1.0  0.1923
  C  C1574  1  0.643250  0.167350  0.404390  1.0  0.1861
  C  C1575  1  0.632730  0.396070  0.423410  1.0  0.1902
  C  C1576  1  0.582080  0.189320  0.417460  1.0  0.1738
  C  C1577  1  0.676750  0.195350  0.406290  1.0  0.2737
  C  C1578  1  0.638080  0.393400  0.452180  1.0  -0.1595
  C  C1579  1  0.638990  0.425050  0.453110  1.0  0.4017
  C  C1580  1  0.642100  0.193320  0.413260  1.0  -0.1333
  C  C1581  1  0.771340  0.105480  0.397420  1.0  -0.0242
  C  C1582  1  0.850080  0.211780  0.333380  1.0  0.221
  C  C1583  1  0.608270  0.218550  0.425350  1.0  -0.0712
  C  C1584  1  0.679950  0.295550  0.377830  1.0  0.1908
  C  C1585  1  0.577740  0.215960  0.427760  1.0  -0.1795
  C  C1586  1  0.711150  0.264570  0.380190  1.0  -0.1785
  C  C1587  1  0.710010  0.333270  0.360830  1.0  0.1569
  C  C1588  1  0.577740  0.322260  0.429920  1.0  0.2767
  C  C1589  1  0.804180  0.077000  0.393080  1.0  -0.1307
  C  C1590  1  0.742690  0.304590  0.360750  1.0  -0.1295
  C  C1591  1  0.642850  0.360170  0.480110  1.0  -0.0003
  C  C1592  1  0.636620  0.336200  0.447960  1.0  0.1672
  C  C1593  1  0.834950  0.082530  0.386290  1.0  0.1845
  C  C1594  1  0.743310  0.269430  0.370350  1.0  -0.0278
  C  C1595  1  0.709210  0.229410  0.390090  1.0  0.4457
  C  C1596  1  0.642210  0.330830  0.477950  1.0  -0.1618
  C  C1597  1  0.396620  0.696980  0.736840  1.0  0.4217
  C  C1598  1  0.394480  0.697180  0.770520  1.0  -0.1877
  C  C1599  1  0.387120  0.669220  0.802880  1.0  0.1919
  C  C1600  1  0.404390  0.785010  0.643250  1.0  0.1881
  C  C1601  1  0.423410  0.547790  0.632730  1.0  0.1882
  C  C1602  1  0.417460  0.811140  0.582080  1.0  0.1727
  C  C1603  1  0.406290  0.721610  0.676750  1.0  0.2747
  C  C1604  1  0.452180  0.516340  0.638080  1.0  -0.1639
  C  C1605  1  0.453110  0.482850  0.638990  1.0  0.4027
  C  C1606  1  0.413260  0.751320  0.642100  1.0  -0.1373
  C  C1607  1  0.397420  0.725760  0.771340  1.0  -0.0238
  C  C1608  1  0.333380  0.604760  0.850080  1.0  0.2185
  C  C1609  1  0.425350  0.747830  0.608270  1.0  -0.0705
  C  C1610  1  0.377830  0.646670  0.679950  1.0  0.192
  C  C1611  1  0.427760  0.778540  0.577740  1.0  -0.1724
  C  C1612  1  0.380190  0.644090  0.711150  1.0  -0.1751
  C  C1613  1  0.360830  0.595890  0.710010  1.0  0.1616
  C  C1614  1  0.429920  0.670080  0.577740  1.0  0.2761
  C  C1615  1  0.393080  0.725740  0.804180  1.0  -0.1303
  C  C1616  1  0.360750  0.591970  0.742690  1.0  -0.1346
  C  C1617  1  0.480110  0.516870  0.642850  1.0  -0.0006
  C  C1618  1  0.447960  0.579220  0.636620  1.0  0.1665
  C  C1619  1  0.386290  0.696230  0.834950  1.0  0.1839
  C  C1620  1  0.370350  0.616910  0.743310  1.0  -0.0257
  C  C1621  1  0.390090  0.671290  0.709210  1.0  0.4442
  C  C1622  1  0.477950  0.549010  0.642210  1.0  -0.1575
  C  C1623  1  0.169560  0.736840  0.696980  1.0  0.4213
  C  C1624  1  0.137820  0.770520  0.697180  1.0  -0.1893
  C  C1625  1  0.140780  0.802880  0.669220  1.0  0.1936
  C  C1626  1  0.167350  0.643250  0.785010  1.0  0.1857
  C  C1627  1  0.396070  0.632730  0.547790  1.0  0.1875
  C  C1628  1  0.189320  0.582080  0.811140  1.0  0.1733
  C  C1629  1  0.195350  0.676750  0.721610  1.0  0.2734
  C  C1630  1  0.393400  0.638080  0.516340  1.0  -0.1598
  C  C1631  1  0.425050  0.638990  0.482850  1.0  0.4024
  C  C1632  1  0.193320  0.642100  0.751320  1.0  -0.1356
  C  C1633  1  0.105480  0.771340  0.725760  1.0  -0.022
  C  C1634  1  0.211780  0.850080  0.604760  1.0  0.2214
  C  C1635  1  0.218550  0.608270  0.747830  1.0  -0.0727
  C  C1636  1  0.295550  0.679950  0.646670  1.0  0.1888
  C  C1637  1  0.215960  0.577740  0.778540  1.0  -0.1765
  C  C1638  1  0.264570  0.711150  0.644090  1.0  -0.1786
  C  C1639  1  0.333270  0.710010  0.595890  1.0  0.1582
  C  C1640  1  0.322260  0.577740  0.670080  1.0  0.2763
  C  C1641  1  0.077000  0.804180  0.725740  1.0  -0.1278
  C  C1642  1  0.304590  0.742690  0.591970  1.0  -0.1334
  C  C1643  1  0.360170  0.642850  0.516870  1.0  -0.0038
  C  C1644  1  0.336200  0.636620  0.579220  1.0  0.1689
  C  C1645  1  0.082530  0.834950  0.696230  1.0  0.1867
  C  C1646  1  0.269430  0.743310  0.616910  1.0  -0.0296
  C  C1647  1  0.229410  0.709210  0.671290  1.0  0.4453
  C  C1648  1  0.330830  0.642210  0.549010  1.0  -0.1583
  C  C1649  1  0.169560  0.696980  0.396620  1.0  0.421
  C  C1650  1  0.137820  0.697180  0.394480  1.0  -0.1854
  C  C1651  1  0.140780  0.669220  0.387120  1.0  0.1925
  C  C1652  1  0.167350  0.785010  0.404390  1.0  0.1869
  C  C1653  1  0.396070  0.547790  0.423410  1.0  0.1891
  C  C1654  1  0.189320  0.811140  0.417460  1.0  0.1745
  C  C1655  1  0.195350  0.721610  0.406290  1.0  0.274
  C  C1656  1  0.393400  0.516340  0.452180  1.0  -0.163
  C  C1657  1  0.425050  0.482850  0.453110  1.0  0.4021
  C  C1658  1  0.193320  0.751320  0.413260  1.0  -0.1365
  C  C1659  1  0.105480  0.725760  0.397420  1.0  -0.0256
  C  C1660  1  0.211780  0.604760  0.333380  1.0  0.2237
  C  C1661  1  0.218550  0.747830  0.425350  1.0  -0.0704
  C  C1662  1  0.295550  0.646670  0.377830  1.0  0.1891
  C  C1663  1  0.215960  0.778540  0.427760  1.0  -0.1759
  C  C1664  1  0.264570  0.644090  0.380190  1.0  -0.1787
  C  C1665  1  0.333270  0.595890  0.360830  1.0  0.1567
  C  C1666  1  0.322260  0.670080  0.429920  1.0  0.2688
  C  C1667  1  0.077000  0.725740  0.393080  1.0  -0.131
  C  C1668  1  0.304590  0.591970  0.360750  1.0  -0.1338
  C  C1669  1  0.360170  0.516870  0.480110  1.0  -0.0019
  C  C1670  1  0.336200  0.579220  0.447960  1.0  0.1664
  C  C1671  1  0.082530  0.696230  0.386290  1.0  0.1849
  C  C1672  1  0.269430  0.616910  0.370350  1.0  -0.028
  C  C1673  1  0.229410  0.671290  0.390090  1.0  0.4448
  C  C1674  1  0.330830  0.549010  0.477950  1.0  -0.1582
  C  C1675  1  0.396620  0.736840  0.169560  1.0  0.4214
  C  C1676  1  0.394480  0.770520  0.137820  1.0  -0.1874
  C  C1677  1  0.387120  0.802880  0.140780  1.0  0.1951
  C  C1678  1  0.404390  0.643250  0.167350  1.0  0.1887
  C  C1679  1  0.423410  0.632730  0.396070  1.0  0.1881
  C  C1680  1  0.417460  0.582080  0.189320  1.0  0.1736
  C  C1681  1  0.406290  0.676750  0.195350  1.0  0.2739
  C  C1682  1  0.452180  0.638080  0.393400  1.0  -0.1634
  C  C1683  1  0.453110  0.638990  0.425050  1.0  0.4025
  C  C1684  1  0.413260  0.642100  0.193320  1.0  -0.1348
  C  C1685  1  0.397420  0.771340  0.105480  1.0  -0.0231
  C  C1686  1  0.333380  0.850080  0.211780  1.0  0.2155
  C  C1687  1  0.425350  0.608270  0.218550  1.0  -0.0719
  C  C1688  1  0.377830  0.679950  0.295550  1.0  0.1921
  C  C1689  1  0.427760  0.577740  0.215960  1.0  -0.1789
  C  C1690  1  0.380190  0.711150  0.264570  1.0  -0.1789
  C  C1691  1  0.360830  0.710010  0.333270  1.0  0.1569
  C  C1692  1  0.429920  0.577740  0.322260  1.0  0.2678
  C  C1693  1  0.393080  0.804180  0.077000  1.0  -0.1247
  C  C1694  1  0.360750  0.742690  0.304590  1.0  -0.1325
  C  C1695  1  0.480110  0.642850  0.360170  1.0  -0.0009
  C  C1696  1  0.447960  0.636620  0.336200  1.0  0.1671
  C  C1697  1  0.386290  0.834950  0.082530  1.0  0.1851
  C  C1698  1  0.370350  0.743310  0.269430  1.0  -0.0271
  C  C1699  1  0.390090  0.709210  0.229410  1.0  0.4447
  C  C1700  1  0.477950  0.642210  0.330830  1.0  -0.1575
  C  C1701  1  0.736840  0.396620  0.696980  1.0  0.4215
  C  C1702  1  0.770520  0.394480  0.697180  1.0  -0.1895
  C  C1703  1  0.802880  0.387120  0.669220  1.0  0.1932
  C  C1704  1  0.643250  0.404390  0.785010  1.0  0.187
  C  C1705  1  0.632730  0.423410  0.547790  1.0  0.1894
  C  C1706  1  0.582080  0.417460  0.811140  1.0  0.1784
  C  C1707  1  0.676750  0.406290  0.721610  1.0  0.2742
  C  C1708  1  0.638080  0.452180  0.516340  1.0  -0.1606
  C  C1709  1  0.638990  0.453110  0.482850  1.0  0.4023
  C  C1710  1  0.642100  0.413260  0.751320  1.0  -0.1338
  C  C1711  1  0.771340  0.397420  0.725760  1.0  -0.0229
  C  C1712  1  0.850080  0.333380  0.604760  1.0  0.2183
  C  C1713  1  0.608270  0.425350  0.747830  1.0  -0.0725
  C  C1714  1  0.679950  0.377830  0.646670  1.0  0.1906
  C  C1715  1  0.577740  0.427760  0.778540  1.0  -0.1803
  C  C1716  1  0.711150  0.380190  0.644090  1.0  -0.1826
  C  C1717  1  0.710010  0.360830  0.595890  1.0  0.1619
  C  C1718  1  0.577740  0.429920  0.670080  1.0  0.2687
  C  C1719  1  0.804180  0.393080  0.725740  1.0  -0.126
  C  C1720  1  0.742690  0.360750  0.591970  1.0  -0.1314
  C  C1721  1  0.642850  0.480110  0.516870  1.0  -0.0013
  C  C1722  1  0.636620  0.447960  0.579220  1.0  0.1646
  C  C1723  1  0.834950  0.386290  0.696230  1.0  0.1841
  C  C1724  1  0.743310  0.370350  0.616910  1.0  -0.0284
  C  C1725  1  0.709210  0.390090  0.671290  1.0  0.4448
  C  C1726  1  0.642210  0.477950  0.549010  1.0  -0.1603
  C  C1727  1  0.696980  0.169560  0.736840  1.0  0.4211
  C  C1728  1  0.697180  0.137820  0.770520  1.0  -0.1871
  C  C1729  1  0.669220  0.140780  0.802880  1.0  0.1919
  C  C1730  1  0.785010  0.167350  0.643250  1.0  0.1859
  C  C1731  1  0.547790  0.396070  0.632730  1.0  0.188
  C  C1732  1  0.811140  0.189320  0.582080  1.0  0.1731
  C  C1733  1  0.721610  0.195350  0.676750  1.0  0.274
  C  C1734  1  0.516340  0.393400  0.638080  1.0  -0.1638
  C  C1735  1  0.482850  0.425050  0.638990  1.0  0.4024
  C  C1736  1  0.751320  0.193320  0.642100  1.0  -0.1352
  C  C1737  1  0.725760  0.105480  0.771340  1.0  -0.0239
  C  C1738  1  0.604760  0.211780  0.850080  1.0  0.2206
  C  C1739  1  0.747830  0.218550  0.608270  1.0  -0.0721
  C  C1740  1  0.646670  0.295550  0.679950  1.0  0.1915
  C  C1741  1  0.778540  0.215960  0.577740  1.0  -0.1766
  C  C1742  1  0.644090  0.264570  0.711150  1.0  -0.1772
  C  C1743  1  0.595890  0.333270  0.710010  1.0  0.1546
  C  C1744  1  0.670080  0.322260  0.577740  1.0  0.2692
  C  C1745  1  0.725740  0.077000  0.804180  1.0  -0.1289
  C  C1746  1  0.591970  0.304590  0.742690  1.0  -0.1347
  C  C1747  1  0.516870  0.360170  0.642850  1.0  -0.0013
  C  C1748  1  0.579220  0.336200  0.636620  1.0  0.1638
  C  C1749  1  0.696230  0.082530  0.834950  1.0  0.184
  C  C1750  1  0.616910  0.269430  0.743310  1.0  -0.0274
  C  C1751  1  0.671290  0.229410  0.709210  1.0  0.4452
  C  C1752  1  0.549010  0.330830  0.642210  1.0  -0.1601
  C  C1753  1  0.853380  0.080440  0.513160  1.0  0.4221
  C  C1754  1  0.855520  0.112180  0.479480  1.0  -0.1891
  C  C1755  1  0.862880  0.109220  0.447120  1.0  0.1925
  C  C1756  1  0.845610  0.082650  0.606750  1.0  0.1854
  C  C1757  1  0.826590  0.853930  0.617270  1.0  0.1881
  C  C1758  1  0.832540  0.060680  0.667920  1.0  0.1754
  C  C1759  1  0.843710  0.054650  0.573250  1.0  0.2735
  C  C1760  1  0.797820  0.856600  0.611920  1.0  -0.1641
  C  C1761  1  0.796890  0.824950  0.611010  1.0  0.403
  C  C1762  1  0.836740  0.056680  0.607900  1.0  -0.1344
  C  C1763  1  0.852580  0.144520  0.478660  1.0  -0.0233
  C  C1764  1  0.916620  0.038220  0.399920  1.0  0.2219
  C  C1765  1  0.824650  0.031450  0.641730  1.0  -0.0684
  C  C1766  1  0.872170  0.954450  0.570050  1.0  0.1911
  C  C1767  1  0.822240  0.034040  0.672260  1.0  -0.1786
  C  C1768  1  0.869810  0.985430  0.538850  1.0  -0.1778
  C  C1769  1  0.889170  0.916730  0.539990  1.0  0.1559
  C  C1770  1  0.820080  0.927740  0.672260  1.0  0.2694
  C  C1771  1  0.856920  0.173000  0.445820  1.0  -0.1281
  C  C1772  1  0.889250  0.945410  0.507310  1.0  -0.1303
  C  C1773  1  0.769890  0.889830  0.607150  1.0  -0.0027
  C  C1774  1  0.802040  0.913800  0.613380  1.0  0.1658
  C  C1775  1  0.863710  0.167470  0.415050  1.0  0.1863
  C  C1776  1  0.879650  0.980570  0.506690  1.0  -0.03
  C  C1777  1  0.859910  0.020590  0.540790  1.0  0.4453
  C  C1778  1  0.772050  0.919170  0.607790  1.0  -0.159
  C  C1779  1  0.080440  0.853380  0.553020  1.0  0.4215
  C  C1780  1  0.112180  0.855520  0.552820  1.0  -0.1873
  C  C1781  1  0.109220  0.862880  0.580780  1.0  0.1951
  C  C1782  1  0.082650  0.845610  0.464990  1.0  0.185
  C  C1783  1  0.853930  0.826590  0.702210  1.0  0.1883
  C  C1784  1  0.060680  0.832540  0.438860  1.0  0.1779
  C  C1785  1  0.054650  0.843710  0.528390  1.0  0.2739
  C  C1786  1  0.856600  0.797820  0.733660  1.0  -0.1627
  C  C1787  1  0.824950  0.796890  0.767150  1.0  0.4018
  C  C1788  1  0.056680  0.836740  0.498680  1.0  -0.1353
  C  C1789  1  0.144520  0.852580  0.524240  1.0  -0.0226
  C  C1790  1  0.038220  0.916620  0.645240  1.0  0.2225
  C  C1791  1  0.031450  0.824650  0.502170  1.0  -0.0701
  C  C1792  1  0.954450  0.872170  0.603330  1.0  0.1927
  C  C1793  1  0.034040  0.822240  0.471460  1.0  -0.1791
  C  C1794  1  0.985430  0.869810  0.605910  1.0  -0.1793
  C  C1795  1  0.916730  0.889170  0.654110  1.0  0.1559
  C  C1796  1  0.927740  0.820080  0.579920  1.0  0.2666
  C  C1797  1  0.173000  0.856920  0.524260  1.0  -0.1249
  C  C1798  1  0.945410  0.889250  0.658030  1.0  -0.1314
  C  C1799  1  0.889830  0.769890  0.733130  1.0  -0.003
  C  C1800  1  0.913800  0.802040  0.670780  1.0  0.1662
  C  C1801  1  0.167470  0.863710  0.553770  1.0  0.1913
  C  C1802  1  0.980570  0.879650  0.633090  1.0  -0.0291
  C  C1803  1  0.020590  0.859910  0.578710  1.0  0.4448
  C  C1804  1  0.919170  0.772050  0.700990  1.0  -0.1608
  C  C1805  1  0.553020  0.513160  0.080440  1.0  0.4217
  C  C1806  1  0.552820  0.479480  0.112180  1.0  -0.188
  C  C1807  1  0.580780  0.447120  0.109220  1.0  0.1935
  C  C1808  1  0.464990  0.606750  0.082650  1.0  0.1862
  C  C1809  1  0.702210  0.617270  0.853930  1.0  0.189
  C  C1810  1  0.438860  0.667920  0.060680  1.0  0.1736
  C  C1811  1  0.528390  0.573250  0.054650  1.0  0.2745
  C  C1812  1  0.733660  0.611920  0.856600  1.0  -0.1634
  C  C1813  1  0.767150  0.611010  0.824950  1.0  0.4032
  C  C1814  1  0.498680  0.607900  0.056680  1.0  -0.136
  C  C1815  1  0.524240  0.478660  0.144520  1.0  -0.0233
  C  C1816  1  0.645240  0.399920  0.038220  1.0  0.2149
  C  C1817  1  0.502170  0.641730  0.031450  1.0  -0.0703
  C  C1818  1  0.603330  0.570050  0.954450  1.0  0.1904
  C  C1819  1  0.471460  0.672260  0.034040  1.0  -0.1758
  C  C1820  1  0.605910  0.538850  0.985430  1.0  -0.1805
  C  C1821  1  0.654110  0.539990  0.916730  1.0  0.1583
  C  C1822  1  0.579920  0.672260  0.927740  1.0  0.2682
  C  C1823  1  0.524260  0.445820  0.173000  1.0  -0.1288
  C  C1824  1  0.658030  0.507310  0.945410  1.0  -0.1317
  C  C1825  1  0.733130  0.607150  0.889830  1.0  -0.0036
  C  C1826  1  0.670780  0.613380  0.913800  1.0  0.1663
  C  C1827  1  0.553770  0.415050  0.167470  1.0  0.1846
  C  C1828  1  0.633090  0.506690  0.980570  1.0  -0.0283
  C  C1829  1  0.578710  0.540790  0.020590  1.0  0.4438
  C  C1830  1  0.700990  0.607790  0.919170  1.0  -0.1562
  C  C1831  1  0.513160  0.553020  0.853380  1.0  0.4221
  C  C1832  1  0.479480  0.552820  0.855520  1.0  -0.1878
  C  C1833  1  0.447120  0.580780  0.862880  1.0  0.1911
  C  C1834  1  0.606750  0.464990  0.845610  1.0  0.1867
  C  C1835  1  0.617270  0.702210  0.826590  1.0  0.1883
  C  C1836  1  0.667920  0.438860  0.832540  1.0  0.1764
  C  C1837  1  0.573250  0.528390  0.843710  1.0  0.2746
  C  C1838  1  0.611920  0.733660  0.797820  1.0  -0.1631
  C  C1839  1  0.611010  0.767150  0.796890  1.0  0.4024
  C  C1840  1  0.607900  0.498680  0.836740  1.0  -0.1376
  C  C1841  1  0.478660  0.524240  0.852580  1.0  -0.0231
  C  C1842  1  0.399920  0.645240  0.916620  1.0  0.2174
  C  C1843  1  0.641730  0.502170  0.824650  1.0  -0.0697
  C  C1844  1  0.570050  0.603330  0.872170  1.0  0.1906
  C  C1845  1  0.672260  0.471460  0.822240  1.0  -0.1734
  C  C1846  1  0.538850  0.605910  0.869810  1.0  -0.1803
  C  C1847  1  0.539990  0.654110  0.889170  1.0  0.1595
  C  C1848  1  0.672260  0.579920  0.820080  1.0  0.2695
  C  C1849  1  0.445820  0.524260  0.856920  1.0  -0.1317
  C  C1850  1  0.507310  0.658030  0.889250  1.0  -0.135
  C  C1851  1  0.607150  0.733130  0.769890  1.0  -0.0029
  C  C1852  1  0.613380  0.670780  0.802040  1.0  0.1657
  C  C1853  1  0.415050  0.553770  0.863710  1.0  0.1842
  C  C1854  1  0.506690  0.633090  0.879650  1.0  -0.0274
  C  C1855  1  0.540790  0.578710  0.859910  1.0  0.4453
  C  C1856  1  0.607790  0.700990  0.772050  1.0  -0.1544
  C  C1857  1  0.553020  0.853380  0.513160  1.0  0.4213
  C  C1858  1  0.552820  0.855520  0.479480  1.0  -0.1891
  C  C1859  1  0.580780  0.862880  0.447120  1.0  0.1924
  C  C1860  1  0.464990  0.845610  0.606750  1.0  0.1889
  C  C1861  1  0.702210  0.826590  0.617270  1.0  0.1882
  C  C1862  1  0.438860  0.832540  0.667920  1.0  0.1738
  C  C1863  1  0.528390  0.843710  0.573250  1.0  0.275
  C  C1864  1  0.733660  0.797820  0.611920  1.0  -0.1644
  C  C1865  1  0.767150  0.796890  0.611010  1.0  0.4022
  C  C1866  1  0.498680  0.836740  0.607900  1.0  -0.1372
  C  C1867  1  0.524240  0.852580  0.478660  1.0  -0.0229
  C  C1868  1  0.645240  0.916620  0.399920  1.0  0.2162
  C  C1869  1  0.502170  0.824650  0.641730  1.0  -0.0699
  C  C1870  1  0.603330  0.872170  0.570050  1.0  0.1913
  C  C1871  1  0.471460  0.822240  0.672260  1.0  -0.1759
  C  C1872  1  0.605910  0.869810  0.538850  1.0  -0.1764
  C  C1873  1  0.654110  0.889170  0.539990  1.0  0.164
  C  C1874  1  0.579920  0.820080  0.672260  1.0  0.2766
  C  C1875  1  0.524260  0.856920  0.445820  1.0  -0.1258
  C  C1876  1  0.658030  0.889250  0.507310  1.0  -0.1308
  C  C1877  1  0.733130  0.769890  0.607150  1.0  -0.0012
  C  C1878  1  0.670780  0.802040  0.613380  1.0  0.1664
  C  C1879  1  0.553770  0.863710  0.415050  1.0  0.187
  C  C1880  1  0.633090  0.879650  0.506690  1.0  -0.0295
  C  C1881  1  0.578710  0.859910  0.540790  1.0  0.4441
  C  C1882  1  0.700990  0.772050  0.607790  1.0  -0.1613
  C  C1883  1  0.513160  0.080440  0.553020  1.0  0.4223
  C  C1884  1  0.479480  0.112180  0.552820  1.0  -0.1876
  C  C1885  1  0.447120  0.109220  0.580780  1.0  0.192
  C  C1886  1  0.606750  0.082650  0.464990  1.0  0.1858
  C  C1887  1  0.617270  0.853930  0.702210  1.0  0.19
  C  C1888  1  0.667920  0.060680  0.438860  1.0  0.1749
  C  C1889  1  0.573250  0.054650  0.528390  1.0  0.2736
  C  C1890  1  0.611920  0.856600  0.733660  1.0  -0.1595
  C  C1891  1  0.611010  0.824950  0.767150  1.0  0.4022
  C  C1892  1  0.607900  0.056680  0.498680  1.0  -0.1332
  C  C1893  1  0.478660  0.144520  0.524240  1.0  -0.0236
  C  C1894  1  0.399920  0.038220  0.645240  1.0  0.2214
  C  C1895  1  0.641730  0.031450  0.502170  1.0  -0.0719
  C  C1896  1  0.570050  0.954450  0.603330  1.0  0.1897
  C  C1897  1  0.672260  0.034040  0.471460  1.0  -0.1773
  C  C1898  1  0.538850  0.985430  0.605910  1.0  -0.1783
  C  C1899  1  0.539990  0.916730  0.654110  1.0  0.157
  C  C1900  1  0.672260  0.927740  0.579920  1.0  0.2739
  C  C1901  1  0.445820  0.173000  0.524260  1.0  -0.1281
  C  C1902  1  0.507310  0.945410  0.658030  1.0  -0.133
  C  C1903  1  0.607150  0.889830  0.733130  1.0  -0.0004
  C  C1904  1  0.613380  0.913800  0.670780  1.0  0.1663
  C  C1905  1  0.415050  0.167470  0.553770  1.0  0.1841
  C  C1906  1  0.506690  0.980570  0.633090  1.0  -0.0277
  C  C1907  1  0.540790  0.020590  0.578710  1.0  0.4452
  C  C1908  1  0.607790  0.919170  0.700990  1.0  -0.1579
  C  C1909  1  0.853380  0.553020  0.080440  1.0  0.4218
  C  C1910  1  0.855520  0.552820  0.112180  1.0  -0.1892
  C  C1911  1  0.862880  0.580780  0.109220  1.0  0.1925
  C  C1912  1  0.845610  0.464990  0.082650  1.0  0.1887
  C  C1913  1  0.826590  0.702210  0.853930  1.0  0.1883
  C  C1914  1  0.832540  0.438860  0.060680  1.0  0.1741
  C  C1915  1  0.843710  0.528390  0.054650  1.0  0.2749
  C  C1916  1  0.797820  0.733660  0.856600  1.0  -0.1639
  C  C1917  1  0.796890  0.767150  0.824950  1.0  0.4025
  C  C1918  1  0.836740  0.498680  0.056680  1.0  -0.1362
  C  C1919  1  0.852580  0.524240  0.144520  1.0  -0.0238
  C  C1920  1  0.916620  0.645240  0.038220  1.0  0.2185
  C  C1921  1  0.824650  0.502170  0.031450  1.0  -0.0695
  C  C1922  1  0.872170  0.603330  0.954450  1.0  0.1926
  C  C1923  1  0.822240  0.471460  0.034040  1.0  -0.1737
  C  C1924  1  0.869810  0.605910  0.985430  1.0  -0.1751
  C  C1925  1  0.889170  0.654110  0.916730  1.0  0.1619
  C  C1926  1  0.820080  0.579920  0.927740  1.0  0.2764
  C  C1927  1  0.856920  0.524260  0.173000  1.0  -0.1334
  C  C1928  1  0.889250  0.658030  0.945410  1.0  -0.1339
  C  C1929  1  0.769890  0.733130  0.889830  1.0  0.001
  C  C1930  1  0.802040  0.670780  0.913800  1.0  0.1661
  C  C1931  1  0.863710  0.553770  0.167470  1.0  0.1845
  C  C1932  1  0.879650  0.633090  0.980570  1.0  -0.0259
  C  C1933  1  0.859910  0.578710  0.020590  1.0  0.4448
  C  C1934  1  0.772050  0.700990  0.919170  1.0  -0.1603
  C  C1935  1  0.080440  0.513160  0.853380  1.0  0.4213
  C  C1936  1  0.112180  0.479480  0.855520  1.0  -0.1887
  C  C1937  1  0.109220  0.447120  0.862880  1.0  0.1935
  C  C1938  1  0.082650  0.606750  0.845610  1.0  0.1846
  C  C1939  1  0.853930  0.617270  0.826590  1.0  0.189
  C  C1940  1  0.060680  0.667920  0.832540  1.0  0.1731
  C  C1941  1  0.054650  0.573250  0.843710  1.0  0.2734
  C  C1942  1  0.856600  0.611920  0.797820  1.0  -0.16
  C  C1943  1  0.824950  0.611010  0.796890  1.0  0.4019
  C  C1944  1  0.056680  0.607900  0.836740  1.0  -0.1356
  C  C1945  1  0.144520  0.478660  0.852580  1.0  -0.022
  C  C1946  1  0.038220  0.399920  0.916620  1.0  0.2211
  C  C1947  1  0.031450  0.641730  0.824650  1.0  -0.0723
  C  C1948  1  0.954450  0.570050  0.872170  1.0  0.1889
  C  C1949  1  0.034040  0.672260  0.822240  1.0  -0.1785
  C  C1950  1  0.985430  0.538850  0.869810  1.0  -0.1798
  C  C1951  1  0.916730  0.539990  0.889170  1.0  0.1563
  C  C1952  1  0.927740  0.672260  0.820080  1.0  0.2747
  C  C1953  1  0.173000  0.445820  0.856920  1.0  -0.126
  C  C1954  1  0.945410  0.507310  0.889250  1.0  -0.1335
  C  C1955  1  0.889830  0.607150  0.769890  1.0  -0.0046
  C  C1956  1  0.913800  0.613380  0.802040  1.0  0.169
  C  C1957  1  0.167470  0.415050  0.863710  1.0  0.1863
  C  C1958  1  0.980570  0.506690  0.879650  1.0  -0.0287
  C  C1959  1  0.020590  0.540790  0.859910  1.0  0.4445
  C  C1960  1  0.919170  0.607790  0.772050  1.0  -0.1568
  C  C1961  1  0.080440  0.553020  0.513160  1.0  0.4211
  C  C1962  1  0.112180  0.552820  0.479480  1.0  -0.1856
  C  C1963  1  0.109220  0.580780  0.447120  1.0  0.1916
  C  C1964  1  0.082650  0.464990  0.606750  1.0  0.1864
  C  C1965  1  0.853930  0.702210  0.617270  1.0  0.1896
  C  C1966  1  0.060680  0.438860  0.667920  1.0  0.175
  C  C1967  1  0.054650  0.528390  0.573250  1.0  0.2742
  C  C1968  1  0.856600  0.733660  0.611920  1.0  -0.1639
  C  C1969  1  0.824950  0.767150  0.611010  1.0  0.4021
  C  C1970  1  0.056680  0.498680  0.607900  1.0  -0.1361
  C  C1971  1  0.144520  0.524240  0.478660  1.0  -0.0252
  C  C1972  1  0.038220  0.645240  0.399920  1.0  0.2243
  C  C1973  1  0.031450  0.502170  0.641730  1.0  -0.0709
  C  C1974  1  0.954450  0.603330  0.570050  1.0  0.1902
  C  C1975  1  0.034040  0.471460  0.672260  1.0  -0.1772
  C  C1976  1  0.985430  0.605910  0.538850  1.0  -0.1795
  C  C1977  1  0.916730  0.654110  0.539990  1.0  0.1575
  C  C1978  1  0.927740  0.579920  0.672260  1.0  0.27
  C  C1979  1  0.173000  0.524260  0.445820  1.0  -0.1292
  C  C1980  1  0.945410  0.658030  0.507310  1.0  -0.1359
  C  C1981  1  0.889830  0.733130  0.607150  1.0  -0.0008
  C  C1982  1  0.913800  0.670780  0.613380  1.0  0.1656
  C  C1983  1  0.167470  0.553770  0.415050  1.0  0.186
  C  C1984  1  0.980570  0.633090  0.506690  1.0  -0.0289
  C  C1985  1  0.020590  0.578710  0.540790  1.0  0.445
  C  C1986  1  0.919170  0.700990  0.607790  1.0  -0.1559
  C  C1987  1  0.853380  0.513160  0.553020  1.0  0.4217
  C  C1988  1  0.855520  0.479480  0.552820  1.0  -0.1878
  C  C1989  1  0.862880  0.447120  0.580780  1.0  0.1948
  C  C1990  1  0.845610  0.606750  0.464990  1.0  0.1887
  C  C1991  1  0.826590  0.617270  0.702210  1.0  0.1877
  C  C1992  1  0.832540  0.667920  0.438860  1.0  0.1741
  C  C1993  1  0.843710  0.573250  0.528390  1.0  0.2738
  C  C1994  1  0.797820  0.611920  0.733660  1.0  -0.1628
  C  C1995  1  0.796890  0.611010  0.767150  1.0  0.402
  C  C1996  1  0.836740  0.607900  0.498680  1.0  -0.1341
  C  C1997  1  0.852580  0.478660  0.524240  1.0  -0.0227
  C  C1998  1  0.916620  0.399920  0.645240  1.0  0.2138
  C  C1999  1  0.824650  0.641730  0.502170  1.0  -0.0732
  C  C2000  1  0.872170  0.570050  0.603330  1.0  0.1923
  C  C2001  1  0.822240  0.672260  0.471460  1.0  -0.178
  C  C2002  1  0.869810  0.538850  0.605910  1.0  -0.1787
  C  C2003  1  0.889170  0.539990  0.654110  1.0  0.1573
  C  C2004  1  0.820080  0.672260  0.579920  1.0  0.2677
  C  C2005  1  0.856920  0.445820  0.524260  1.0  -0.1246
  C  C2006  1  0.889250  0.507310  0.658030  1.0  -0.1329
  C  C2007  1  0.769890  0.607150  0.733130  1.0  -0.001
  C  C2008  1  0.802040  0.613380  0.670780  1.0  0.1671
  C  C2009  1  0.863710  0.415050  0.553770  1.0  0.1849
  C  C2010  1  0.879650  0.506690  0.633090  1.0  -0.0272
  C  C2011  1  0.859910  0.540790  0.578710  1.0  0.4451
  C  C2012  1  0.772050  0.607790  0.700990  1.0  -0.159
  C  C2013  1  0.513160  0.853380  0.080440  1.0  0.4214
  C  C2014  1  0.479480  0.855520  0.112180  1.0  -0.1885
  C  C2015  1  0.447120  0.862880  0.109220  1.0  0.1924
  C  C2016  1  0.606750  0.845610  0.082650  1.0  0.1868
  C  C2017  1  0.617270  0.826590  0.853930  1.0  0.1888
  C  C2018  1  0.667920  0.832540  0.060680  1.0  0.1789
  C  C2019  1  0.573250  0.843710  0.054650  1.0  0.2741
  C  C2020  1  0.611920  0.797820  0.856600  1.0  -0.1598
  C  C2021  1  0.611010  0.796890  0.824950  1.0  0.4022
  C  C2022  1  0.607900  0.836740  0.056680  1.0  -0.1349
  C  C2023  1  0.478660  0.852580  0.144520  1.0  -0.0219
  C  C2024  1  0.399920  0.916620  0.038220  1.0  0.2181
  C  C2025  1  0.641730  0.824650  0.031450  1.0  -0.0735
  C  C2026  1  0.570050  0.872170  0.954450  1.0  0.1902
  C  C2027  1  0.672260  0.822240  0.034040  1.0  -0.1777
  C  C2028  1  0.538850  0.869810  0.985430  1.0  -0.1815
  C  C2029  1  0.539990  0.889170  0.916730  1.0  0.1615
  C  C2030  1  0.672260  0.820080  0.927740  1.0  0.2697
  C  C2031  1  0.445820  0.856920  0.173000  1.0  -0.1259
  C  C2032  1  0.507310  0.889250  0.945410  1.0  -0.1338
  C  C2033  1  0.607150  0.769890  0.889830  1.0  -0.0017
  C  C2034  1  0.613380  0.802040  0.913800  1.0  0.1657
  C  C2035  1  0.415050  0.863710  0.167470  1.0  0.1847
  C  C2036  1  0.506690  0.879650  0.980570  1.0  -0.028
  C  C2037  1  0.540790  0.859910  0.020590  1.0  0.4449
  C  C2038  1  0.607790  0.772050  0.919170  1.0  -0.1632
  C  C2039  1  0.553020  0.080440  0.853380  1.0  0.4215
  C  C2040  1  0.552820  0.112180  0.855520  1.0  -0.1872
  C  C2041  1  0.580780  0.109220  0.862880  1.0  0.1929
  C  C2042  1  0.464990  0.082650  0.845610  1.0  0.1869
  C  C2043  1  0.702210  0.853930  0.826590  1.0  0.1877
  C  C2044  1  0.438860  0.060680  0.832540  1.0  0.1729
  C  C2045  1  0.528390  0.054650  0.843710  1.0  0.2741
  C  C2046  1  0.733660  0.856600  0.797820  1.0  -0.1636
  C  C2047  1  0.767150  0.824950  0.796890  1.0  0.4039
  C  C2048  1  0.498680  0.056680  0.836740  1.0  -0.1352
  C  C2049  1  0.524240  0.144520  0.852580  1.0  -0.0235
  C  C2050  1  0.645240  0.038220  0.916620  1.0  0.2225
  C  C2051  1  0.502170  0.031450  0.824650  1.0  -0.0726
  C  C2052  1  0.603330  0.954450  0.872170  1.0  0.1914
  C  C2053  1  0.471460  0.034040  0.822240  1.0  -0.1764
  C  C2054  1  0.605910  0.985430  0.869810  1.0  -0.1774
  C  C2055  1  0.654110  0.916730  0.889170  1.0  0.1549
  C  C2056  1  0.579920  0.927740  0.820080  1.0  0.2676
  C  C2057  1  0.524260  0.173000  0.856920  1.0  -0.1294
  C  C2058  1  0.658030  0.945410  0.889250  1.0  -0.1314
  C  C2059  1  0.733130  0.889830  0.769890  1.0  -0.0023
  C  C2060  1  0.670780  0.913800  0.802040  1.0  0.1639
  C  C2061  1  0.553770  0.167470  0.863710  1.0  0.1832
  C  C2062  1  0.633090  0.980570  0.879650  1.0  -0.0268
  C  C2063  1  0.578710  0.020590  0.859910  1.0  0.4445
  C  C2064  1  0.700990  0.919170  0.772050  1.0  -0.1598
  S  S2065  1  0.428470  0.494750  0.166910  1.0  -0.3221
  S  S2066  1  0.287880  0.453120  0.060760  1.0  -0.2051
  S  S2067  1  0.494750  0.428470  0.909870  1.0  -0.3202
  S  S2068  1  0.453120  0.287880  0.198240  1.0  -0.2074
  S  S2069  1  0.166910  0.909870  0.428470  1.0  -0.3218
  S  S2070  1  0.060760  0.198240  0.287880  1.0  -0.207
  S  S2071  1  0.909870  0.166910  0.494750  1.0  -0.3222
  S  S2072  1  0.198240  0.060760  0.453120  1.0  -0.208
  S  S2073  1  0.166910  0.428470  0.494750  1.0  -0.3197
  S  S2074  1  0.060760  0.287880  0.453120  1.0  -0.2076
  S  S2075  1  0.909870  0.494750  0.428470  1.0  -0.3207
  S  S2076  1  0.198240  0.453120  0.287880  1.0  -0.2057
  S  S2077  1  0.428470  0.166910  0.909870  1.0  -0.3224
  S  S2078  1  0.287880  0.060760  0.198240  1.0  -0.2082
  S  S2079  1  0.494750  0.909870  0.166910  1.0  -0.3208
  S  S2080  1  0.453120  0.198240  0.060760  1.0  -0.2062
  S  S2081  1  0.494750  0.166910  0.428470  1.0  -0.3215
  S  S2082  1  0.453120  0.060760  0.287880  1.0  -0.2048
  S  S2083  1  0.428470  0.909870  0.494750  1.0  -0.3208
  S  S2084  1  0.287880  0.198240  0.453120  1.0  -0.2067
  S  S2085  1  0.909870  0.428470  0.166910  1.0  -0.3228
  S  S2086  1  0.198240  0.287880  0.060760  1.0  -0.2048
  S  S2087  1  0.166910  0.494750  0.909870  1.0  -0.3215
  S  S2088  1  0.060760  0.453120  0.198240  1.0  -0.208
  S  S2089  1  0.821530  0.755250  0.340130  1.0  -0.3241
  S  S2090  1  0.962120  0.796880  0.051760  1.0  -0.205
  S  S2091  1  0.755250  0.821530  0.083090  1.0  -0.3198
  S  S2092  1  0.796880  0.962120  0.189240  1.0  -0.2073
  S  S2093  1  0.083090  0.340130  0.755250  1.0  -0.3236
  S  S2094  1  0.189240  0.051760  0.796880  1.0  -0.2053
  S  S2095  1  0.340130  0.083090  0.821530  1.0  -0.3208
  S  S2096  1  0.051760  0.189240  0.962120  1.0  -0.2077
  S  S2097  1  0.083090  0.821530  0.340130  1.0  -0.3211
  S  S2098  1  0.189240  0.962120  0.051760  1.0  -0.2049
  S  S2099  1  0.340130  0.755250  0.083090  1.0  -0.3222
  S  S2100  1  0.051760  0.796880  0.189240  1.0  -0.2086
  S  S2101  1  0.821530  0.083090  0.755250  1.0  -0.3226
  S  S2102  1  0.962120  0.189240  0.796880  1.0  -0.2051
  S  S2103  1  0.755250  0.340130  0.821530  1.0  -0.3203
  S  S2104  1  0.796880  0.051760  0.962120  1.0  -0.2083
  S  S2105  1  0.755250  0.083090  0.340130  1.0  -0.3194
  S  S2106  1  0.796880  0.189240  0.051760  1.0  -0.2053
  S  S2107  1  0.821530  0.340130  0.083090  1.0  -0.3209
  S  S2108  1  0.962120  0.051760  0.189240  1.0  -0.2069
  S  S2109  1  0.340130  0.821530  0.755250  1.0  -0.3233
  S  S2110  1  0.051760  0.962120  0.796880  1.0  -0.205
  S  S2111  1  0.083090  0.755250  0.821530  1.0  -0.3233
  S  S2112  1  0.189240  0.796880  0.962120  1.0  -0.2084
  S  S2113  1  0.321530  0.255250  0.583090  1.0  -0.3234
  S  S2114  1  0.462120  0.296880  0.689240  1.0  -0.2072
  S  S2115  1  0.255250  0.321530  0.840130  1.0  -0.3205
  S  S2116  1  0.296880  0.462120  0.551760  1.0  -0.206
  S  S2117  1  0.583090  0.840130  0.321530  1.0  -0.3223
  S  S2118  1  0.689240  0.551760  0.462120  1.0  -0.2084
  S  S2119  1  0.840130  0.583090  0.255250  1.0  -0.3231
  S  S2120  1  0.551760  0.689240  0.296880  1.0  -0.2056
  S  S2121  1  0.583090  0.321530  0.255250  1.0  -0.323
  S  S2122  1  0.689240  0.462120  0.296880  1.0  -0.2053
  S  S2123  1  0.840130  0.255250  0.321530  1.0  -0.3228
  S  S2124  1  0.551760  0.296880  0.462120  1.0  -0.2084
  S  S2125  1  0.321530  0.583090  0.840130  1.0  -0.3198
  S  S2126  1  0.462120  0.689240  0.551760  1.0  -0.2047
  S  S2127  1  0.255250  0.840130  0.583090  1.0  -0.3199
  S  S2128  1  0.296880  0.551760  0.689240  1.0  -0.2086
  S  S2129  1  0.255250  0.583090  0.321530  1.0  -0.3192
  S  S2130  1  0.296880  0.689240  0.462120  1.0  -0.2074
  S  S2131  1  0.321530  0.840130  0.255250  1.0  -0.3227
  S  S2132  1  0.462120  0.551760  0.296880  1.0  -0.2045
  S  S2133  1  0.840130  0.321530  0.583090  1.0  -0.3212
  S  S2134  1  0.551760  0.462120  0.689240  1.0  -0.2066
  S  S2135  1  0.583090  0.255250  0.840130  1.0  -0.3235
  S  S2136  1  0.689240  0.296880  0.551760  1.0  -0.2052
  S  S2137  1  0.928470  0.994750  0.409870  1.0  -0.3215
  S  S2138  1  0.787880  0.953120  0.698240  1.0  -0.2061
  S  S2139  1  0.994750  0.928470  0.666910  1.0  -0.3208
  S  S2140  1  0.953120  0.787880  0.560760  1.0  -0.2055
  S  S2141  1  0.666910  0.409870  0.994750  1.0  -0.3208
  S  S2142  1  0.560760  0.698240  0.953120  1.0  -0.2089
  S  S2143  1  0.409870  0.666910  0.928470  1.0  -0.3229
  S  S2144  1  0.698240  0.560760  0.787880  1.0  -0.2049
  S  S2145  1  0.666910  0.928470  0.409870  1.0  -0.3215
  S  S2146  1  0.560760  0.787880  0.698240  1.0  -0.2078
  S  S2147  1  0.409870  0.994750  0.666910  1.0  -0.3213
  S  S2148  1  0.698240  0.953120  0.560760  1.0  -0.2053
  S  S2149  1  0.928470  0.666910  0.994750  1.0  -0.3212
  S  S2150  1  0.787880  0.560760  0.953120  1.0  -0.2079
  S  S2151  1  0.994750  0.409870  0.928470  1.0  -0.3202
  S  S2152  1  0.953120  0.698240  0.787880  1.0  -0.2066
  S  S2153  1  0.994750  0.666910  0.409870  1.0  -0.3212
  S  S2154  1  0.953120  0.560760  0.698240  1.0  -0.2084
  S  S2155  1  0.928470  0.409870  0.666910  1.0  -0.3224
  S  S2156  1  0.787880  0.698240  0.560760  1.0  -0.2051
  S  S2157  1  0.409870  0.928470  0.994750  1.0  -0.3209
  S  S2158  1  0.698240  0.787880  0.953120  1.0  -0.207
  S  S2159  1  0.666910  0.994750  0.928470  1.0  -0.3215
  S  S2160  1  0.560760  0.953120  0.787880  1.0  -0.2063
  N  N2161  1  0.329260  0.381780  0.170680  1.0  -0.3225
  N  N2162  1  0.362110  0.548730  0.079490  1.0  -0.4535
  N  N2163  1  0.344880  0.584720  0.026660  1.0  -0.4314
  N  N2164  1  0.380930  0.421250  0.126830  1.0  -0.3123
  N  N2165  1  0.341630  0.410870  0.093570  1.0  -0.3684
  N  N2166  1  0.350110  0.522350  0.053950  1.0  -0.449
  N  N2167  1  0.366600  0.636300  0.082080  1.0  -0.3398
  N  N2168  1  0.407470  0.569630  0.131810  1.0  -0.4597
  N  N2169  1  0.266290  0.327070  0.295350  1.0  -0.4631
  N  N2170  1  0.344510  0.584410  0.935050  1.0  -0.3177
  N  N2171  1  0.381780  0.329260  0.118280  1.0  -0.3248
  N  N2172  1  0.548730  0.362110  0.009670  1.0  -0.4547
  N  N2173  1  0.584720  0.344880  0.043740  1.0  -0.4321
  N  N2174  1  0.421250  0.380930  0.070990  1.0  -0.3104
  N  N2175  1  0.410870  0.341630  0.153930  1.0  -0.3669
  N  N2176  1  0.522350  0.350110  0.073590  1.0  -0.4485
  N  N2177  1  0.636300  0.366600  0.915020  1.0  -0.3384
  N  N2178  1  0.569630  0.407470  0.891090  1.0  -0.4611
  N  N2179  1  0.327070  0.266290  0.111290  1.0  -0.4646
  N  N2180  1  0.584410  0.344510  0.136030  1.0  -0.3155
  N  N2181  1  0.170680  0.118280  0.329260  1.0  -0.3225
  N  N2182  1  0.079490  0.009670  0.362110  1.0  -0.4515
  N  N2183  1  0.026660  0.043740  0.344880  1.0  -0.4313
  N  N2184  1  0.126830  0.070990  0.380930  1.0  -0.3122
  N  N2185  1  0.093570  0.153930  0.341630  1.0  -0.367
  N  N2186  1  0.053950  0.073590  0.350110  1.0  -0.4485
  N  N2187  1  0.082080  0.915020  0.366600  1.0  -0.3367
  N  N2188  1  0.131810  0.891090  0.407470  1.0  -0.4573
  N  N2189  1  0.295350  0.111290  0.266290  1.0  -0.4679
  N  N2190  1  0.935050  0.136030  0.344510  1.0  -0.3136
  N  N2191  1  0.118280  0.170680  0.381780  1.0  -0.3246
  N  N2192  1  0.009670  0.079490  0.548730  1.0  -0.4538
  N  N2193  1  0.043740  0.026660  0.584720  1.0  -0.4304
  N  N2194  1  0.070990  0.126830  0.421250  1.0  -0.3095
  N  N2195  1  0.153930  0.093570  0.410870  1.0  -0.3658
  N  N2196  1  0.073590  0.053950  0.522350  1.0  -0.4504
  N  N2197  1  0.915020  0.082080  0.636300  1.0  -0.335
  N  N2198  1  0.891090  0.131810  0.569630  1.0  -0.4585
  N  N2199  1  0.111290  0.295350  0.327070  1.0  -0.4677
  N  N2200  1  0.136030  0.935050  0.584410  1.0  -0.319
  N  N2201  1  0.170680  0.329260  0.381780  1.0  -0.324
  N  N2202  1  0.079490  0.362110  0.548730  1.0  -0.4552
  N  N2203  1  0.026660  0.344880  0.584720  1.0  -0.4313
  N  N2204  1  0.126830  0.380930  0.421250  1.0  -0.3124
  N  N2205  1  0.093570  0.341630  0.410870  1.0  -0.371
  N  N2206  1  0.053950  0.350110  0.522350  1.0  -0.4524
  N  N2207  1  0.082080  0.366600  0.636300  1.0  -0.3358
  N  N2208  1  0.131810  0.407470  0.569630  1.0  -0.4571
  N  N2209  1  0.295350  0.266290  0.327070  1.0  -0.4648
  N  N2210  1  0.935050  0.344510  0.584410  1.0  -0.317
  N  N2211  1  0.118280  0.381780  0.329260  1.0  -0.325
  N  N2212  1  0.009670  0.548730  0.362110  1.0  -0.4547
  N  N2213  1  0.043740  0.584720  0.344880  1.0  -0.4311
  N  N2214  1  0.070990  0.421250  0.380930  1.0  -0.3095
  N  N2215  1  0.153930  0.410870  0.341630  1.0  -0.371
  N  N2216  1  0.073590  0.522350  0.350110  1.0  -0.4466
  N  N2217  1  0.915020  0.636300  0.366600  1.0  -0.3344
  N  N2218  1  0.891090  0.569630  0.407470  1.0  -0.4594
  N  N2219  1  0.111290  0.327070  0.266290  1.0  -0.4656
  N  N2220  1  0.136030  0.584410  0.344510  1.0  -0.3218
  N  N2221  1  0.329260  0.170680  0.118280  1.0  -0.323
  N  N2222  1  0.362110  0.079490  0.009670  1.0  -0.4524
  N  N2223  1  0.344880  0.026660  0.043740  1.0  -0.4313
  N  N2224  1  0.380930  0.126830  0.070990  1.0  -0.3118
  N  N2225  1  0.341630  0.093570  0.153930  1.0  -0.3696
  N  N2226  1  0.350110  0.053950  0.073590  1.0  -0.4527
  N  N2227  1  0.366600  0.082080  0.915020  1.0  -0.3368
  N  N2228  1  0.407470  0.131810  0.891090  1.0  -0.4603
  N  N2229  1  0.266290  0.295350  0.111290  1.0  -0.4669
  N  N2230  1  0.344510  0.935050  0.136030  1.0  -0.3209
  N  N2231  1  0.381780  0.118280  0.170680  1.0  -0.3255
  N  N2232  1  0.548730  0.009670  0.079490  1.0  -0.4515
  N  N2233  1  0.584720  0.043740  0.026660  1.0  -0.4332
  N  N2234  1  0.421250  0.070990  0.126830  1.0  -0.3102
  N  N2235  1  0.410870  0.153930  0.093570  1.0  -0.3707
  N  N2236  1  0.522350  0.073590  0.053950  1.0  -0.4473
  N  N2237  1  0.636300  0.915020  0.082080  1.0  -0.3375
  N  N2238  1  0.569630  0.891090  0.131810  1.0  -0.461
  N  N2239  1  0.327070  0.111290  0.295350  1.0  -0.467
  N  N2240  1  0.584410  0.136030  0.935050  1.0  -0.3177
  N  N2241  1  0.381780  0.170680  0.329260  1.0  -0.324
  N  N2242  1  0.548730  0.079490  0.362110  1.0  -0.4534
  N  N2243  1  0.584720  0.026660  0.344880  1.0  -0.4331
  N  N2244  1  0.421250  0.126830  0.380930  1.0  -0.3111
  N  N2245  1  0.410870  0.093570  0.341630  1.0  -0.3683
  N  N2246  1  0.522350  0.053950  0.350110  1.0  -0.4491
  N  N2247  1  0.636300  0.082080  0.366600  1.0  -0.3392
  N  N2248  1  0.569630  0.131810  0.407470  1.0  -0.4584
  N  N2249  1  0.327070  0.295350  0.266290  1.0  -0.4684
  N  N2250  1  0.584410  0.935050  0.344510  1.0  -0.3189
  N  N2251  1  0.329260  0.118280  0.381780  1.0  -0.3206
  N  N2252  1  0.362110  0.009670  0.548730  1.0  -0.4531
  N  N2253  1  0.344880  0.043740  0.584720  1.0  -0.4315
  N  N2254  1  0.380930  0.070990  0.421250  1.0  -0.3106
  N  N2255  1  0.341630  0.153930  0.410870  1.0  -0.3686
  N  N2256  1  0.350110  0.073590  0.522350  1.0  -0.4491
  N  N2257  1  0.366600  0.915020  0.636300  1.0  -0.3408
  N  N2258  1  0.407470  0.891090  0.569630  1.0  -0.4603
  N  N2259  1  0.266290  0.111290  0.327070  1.0  -0.466
  N  N2260  1  0.344510  0.136030  0.584410  1.0  -0.3199
  N  N2261  1  0.118280  0.329260  0.170680  1.0  -0.3223
  N  N2262  1  0.009670  0.362110  0.079490  1.0  -0.4541
  N  N2263  1  0.043740  0.344880  0.026660  1.0  -0.4332
  N  N2264  1  0.070990  0.380930  0.126830  1.0  -0.3083
  N  N2265  1  0.153930  0.341630  0.093570  1.0  -0.3691
  N  N2266  1  0.073590  0.350110  0.053950  1.0  -0.4491
  N  N2267  1  0.915020  0.366600  0.082080  1.0  -0.336
  N  N2268  1  0.891090  0.407470  0.131810  1.0  -0.4575
  N  N2269  1  0.111290  0.266290  0.295350  1.0  -0.4671
  N  N2270  1  0.136030  0.344510  0.935050  1.0  -0.3217
  N  N2271  1  0.170680  0.381780  0.118280  1.0  -0.322
  N  N2272  1  0.079490  0.548730  0.009670  1.0  -0.4559
  N  N2273  1  0.026660  0.584720  0.043740  1.0  -0.4321
  N  N2274  1  0.126830  0.421250  0.070990  1.0  -0.3114
  N  N2275  1  0.093570  0.410870  0.153930  1.0  -0.3679
  N  N2276  1  0.053950  0.522350  0.073590  1.0  -0.4488
  N  N2277  1  0.082080  0.636300  0.915020  1.0  -0.3371
  N  N2278  1  0.131810  0.569630  0.891090  1.0  -0.4592
  N  N2279  1  0.295350  0.327070  0.111290  1.0  -0.4651
  N  N2280  1  0.935050  0.584410  0.136030  1.0  -0.3169
  N  N2281  1  0.920740  0.868220  0.131720  1.0  -0.3224
  N  N2282  1  0.887890  0.701270  0.240330  1.0  -0.4532
  N  N2283  1  0.905120  0.665280  0.206260  1.0  -0.4328
  N  N2284  1  0.869070  0.828750  0.179010  1.0  -0.3106
  N  N2285  1  0.908370  0.839130  0.096070  1.0  -0.3674
  N  N2286  1  0.899890  0.727650  0.176410  1.0  -0.4488
  N  N2287  1  0.883400  0.613700  0.334980  1.0  -0.3393
  N  N2288  1  0.842530  0.680370  0.358910  1.0  -0.4595
  N  N2289  1  0.983710  0.922930  0.138710  1.0  -0.4647
  N  N2290  1  0.905490  0.665590  0.113970  1.0  -0.3174
  N  N2291  1  0.868220  0.920740  0.079320  1.0  -0.3251
  N  N2292  1  0.701270  0.887890  0.170510  1.0  -0.4547
  N  N2293  1  0.665280  0.905120  0.223340  1.0  -0.4321
  N  N2294  1  0.828750  0.869070  0.123170  1.0  -0.3099
  N  N2295  1  0.839130  0.908370  0.156430  1.0  -0.3689
  N  N2296  1  0.727650  0.899890  0.196050  1.0  -0.4493
  N  N2297  1  0.613700  0.883400  0.167920  1.0  -0.3394
  N  N2298  1  0.680370  0.842530  0.118190  1.0  -0.4602
  N  N2299  1  0.922930  0.983710  0.954650  1.0  -0.4635
  N  N2300  1  0.665590  0.905490  0.314950  1.0  -0.3161
  N  N2301  1  0.079320  0.131720  0.868220  1.0  -0.3222
  N  N2302  1  0.170510  0.240330  0.701270  1.0  -0.4515
  N  N2303  1  0.223340  0.206260  0.665280  1.0  -0.4322
  N  N2304  1  0.123170  0.179010  0.828750  1.0  -0.3116
  N  N2305  1  0.156430  0.096070  0.839130  1.0  -0.3683
  N  N2306  1  0.196050  0.176410  0.727650  1.0  -0.4474
  N  N2307  1  0.167920  0.334980  0.613700  1.0  -0.3356
  N  N2308  1  0.118190  0.358910  0.680370  1.0  -0.4571
  N  N2309  1  0.954650  0.138710  0.922930  1.0  -0.4679
  N  N2310  1  0.314950  0.113970  0.665590  1.0  -0.3134
  N  N2311  1  0.131720  0.079320  0.920740  1.0  -0.3238
  N  N2312  1  0.240330  0.170510  0.887890  1.0  -0.4529
  N  N2313  1  0.206260  0.223340  0.905120  1.0  -0.4312
  N  N2314  1  0.179010  0.123170  0.869070  1.0  -0.3107
  N  N2315  1  0.096070  0.156430  0.908370  1.0  -0.3673
  N  N2316  1  0.176410  0.196050  0.899890  1.0  -0.4494
  N  N2317  1  0.334980  0.167920  0.883400  1.0  -0.3365
  N  N2318  1  0.358910  0.118190  0.842530  1.0  -0.4586
  N  N2319  1  0.138710  0.954650  0.983710  1.0  -0.4674
  N  N2320  1  0.113970  0.314950  0.905490  1.0  -0.3186
  N  N2321  1  0.079320  0.920740  0.131720  1.0  -0.3234
  N  N2322  1  0.170510  0.887890  0.240330  1.0  -0.4541
  N  N2323  1  0.223340  0.905120  0.206260  1.0  -0.4306
  N  N2324  1  0.123170  0.869070  0.179010  1.0  -0.3127
  N  N2325  1  0.156430  0.908370  0.096070  1.0  -0.3699
  N  N2326  1  0.196050  0.899890  0.176410  1.0  -0.4518
  N  N2327  1  0.167920  0.883400  0.334980  1.0  -0.3352
  N  N2328  1  0.118190  0.842530  0.358910  1.0  -0.4564
  N  N2329  1  0.954650  0.983710  0.138710  1.0  -0.4658
  N  N2330  1  0.314950  0.905490  0.113970  1.0  -0.3162
  N  N2331  1  0.131720  0.868220  0.079320  1.0  -0.3247
  N  N2332  1  0.240330  0.701270  0.170510  1.0  -0.4555
  N  N2333  1  0.206260  0.665280  0.223340  1.0  -0.4315
  N  N2334  1  0.179010  0.828750  0.123170  1.0  -0.3096
  N  N2335  1  0.096070  0.839130  0.156430  1.0  -0.3698
  N  N2336  1  0.176410  0.727650  0.196050  1.0  -0.4469
  N  N2337  1  0.334980  0.613700  0.167920  1.0  -0.3344
  N  N2338  1  0.358910  0.680370  0.118190  1.0  -0.4612
  N  N2339  1  0.138710  0.922930  0.954650  1.0  -0.4654
  N  N2340  1  0.113970  0.665590  0.314950  1.0  -0.3219
  N  N2341  1  0.920740  0.079320  0.868220  1.0  -0.3231
  N  N2342  1  0.887890  0.170510  0.701270  1.0  -0.453
  N  N2343  1  0.905120  0.223340  0.665280  1.0  -0.4312
  N  N2344  1  0.869070  0.123170  0.828750  1.0  -0.3122
  N  N2345  1  0.908370  0.156430  0.839130  1.0  -0.3705
  N  N2346  1  0.899890  0.196050  0.727650  1.0  -0.4518
  N  N2347  1  0.883400  0.167920  0.613700  1.0  -0.3371
  N  N2348  1  0.842530  0.118190  0.680370  1.0  -0.4613
  N  N2349  1  0.983710  0.954650  0.922930  1.0  -0.4676
  N  N2350  1  0.905490  0.314950  0.665590  1.0  -0.3206
  N  N2351  1  0.868220  0.131720  0.920740  1.0  -0.3256
  N  N2352  1  0.701270  0.240330  0.887890  1.0  -0.4509
  N  N2353  1  0.665280  0.206260  0.905120  1.0  -0.4331
  N  N2354  1  0.828750  0.179010  0.869070  1.0  -0.3105
  N  N2355  1  0.839130  0.096070  0.908370  1.0  -0.3713
  N  N2356  1  0.727650  0.176410  0.899890  1.0  -0.4475
  N  N2357  1  0.613700  0.334980  0.883400  1.0  -0.3372
  N  N2358  1  0.680370  0.358910  0.842530  1.0  -0.461
  N  N2359  1  0.922930  0.138710  0.983710  1.0  -0.4656
  N  N2360  1  0.665590  0.113970  0.905490  1.0  -0.3179
  N  N2361  1  0.868220  0.079320  0.131720  1.0  -0.3233
  N  N2362  1  0.701270  0.170510  0.240330  1.0  -0.4521
  N  N2363  1  0.665280  0.223340  0.206260  1.0  -0.4331
  N  N2364  1  0.828750  0.123170  0.179010  1.0  -0.3103
  N  N2365  1  0.839130  0.156430  0.096070  1.0  -0.3695
  N  N2366  1  0.727650  0.196050  0.176410  1.0  -0.4499
  N  N2367  1  0.613700  0.167920  0.334980  1.0  -0.34
  N  N2368  1  0.680370  0.118190  0.358910  1.0  -0.4604
  N  N2369  1  0.922930  0.954650  0.138710  1.0  -0.4667
  N  N2370  1  0.665590  0.314950  0.113970  1.0  -0.3184
  N  N2371  1  0.920740  0.131720  0.079320  1.0  -0.3212
  N  N2372  1  0.887890  0.240330  0.170510  1.0  -0.4524
  N  N2373  1  0.905120  0.206260  0.223340  1.0  -0.432
  N  N2374  1  0.869070  0.179010  0.123170  1.0  -0.3115
  N  N2375  1  0.908370  0.096070  0.156430  1.0  -0.3675
  N  N2376  1  0.899890  0.176410  0.196050  1.0  -0.4481
  N  N2377  1  0.883400  0.334980  0.167920  1.0  -0.3399
  N  N2378  1  0.842530  0.358910  0.118190  1.0  -0.4589
  N  N2379  1  0.983710  0.138710  0.954650  1.0  -0.4665
  N  N2380  1  0.905490  0.113970  0.314950  1.0  -0.3199
  N  N2381  1  0.131720  0.920740  0.868220  1.0  -0.3243
  N  N2382  1  0.240330  0.887890  0.701270  1.0  -0.4537
  N  N2383  1  0.206260  0.905120  0.665280  1.0  -0.4333
  N  N2384  1  0.179010  0.869070  0.828750  1.0  -0.3097
  N  N2385  1  0.096070  0.908370  0.839130  1.0  -0.3694
  N  N2386  1  0.176410  0.899890  0.727650  1.0  -0.4488
  N  N2387  1  0.334980  0.883400  0.613700  1.0  -0.3371
  N  N2388  1  0.358910  0.842530  0.680370  1.0  -0.4594
  N  N2389  1  0.138710  0.983710  0.922930  1.0  -0.4666
  N  N2390  1  0.113970  0.905490  0.665590  1.0  -0.3226
  N  N2391  1  0.079320  0.868220  0.920740  1.0  -0.3205
  N  N2392  1  0.170510  0.701270  0.887890  1.0  -0.4544
  N  N2393  1  0.223340  0.665280  0.905120  1.0  -0.4312
  N  N2394  1  0.123170  0.828750  0.869070  1.0  -0.3105
  N  N2395  1  0.156430  0.839130  0.908370  1.0  -0.3662
  N  N2396  1  0.196050  0.727650  0.899890  1.0  -0.4499
  N  N2397  1  0.167920  0.613700  0.883400  1.0  -0.3356
  N  N2398  1  0.118190  0.680370  0.842530  1.0  -0.4568
  N  N2399  1  0.954650  0.922930  0.983710  1.0  -0.4647
  N  N2400  1  0.314950  0.665590  0.905490  1.0  -0.3172
  N  N2401  1  0.420740  0.368220  0.579320  1.0  -0.3224
  N  N2402  1  0.387890  0.201270  0.670510  1.0  -0.4544
  N  N2403  1  0.405120  0.165280  0.723340  1.0  -0.4321
  N  N2404  1  0.369070  0.328750  0.623170  1.0  -0.3101
  N  N2405  1  0.408370  0.339130  0.656430  1.0  -0.3661
  N  N2406  1  0.399890  0.227650  0.696050  1.0  -0.4477
  N  N2407  1  0.383400  0.113700  0.667920  1.0  -0.3385
  N  N2408  1  0.342530  0.180370  0.618190  1.0  -0.4618
  N  N2409  1  0.483710  0.422930  0.454650  1.0  -0.4648
  N  N2410  1  0.405490  0.165590  0.814950  1.0  -0.3179
  N  N2411  1  0.368220  0.420740  0.631720  1.0  -0.3255
  N  N2412  1  0.201270  0.387890  0.740330  1.0  -0.4527
  N  N2413  1  0.165280  0.405120  0.706260  1.0  -0.4323
  N  N2414  1  0.328750  0.369070  0.679010  1.0  -0.3106
  N  N2415  1  0.339130  0.408370  0.596070  1.0  -0.3695
  N  N2416  1  0.227650  0.399890  0.676410  1.0  -0.4508
  N  N2417  1  0.113700  0.383400  0.834980  1.0  -0.3395
  N  N2418  1  0.180370  0.342530  0.858910  1.0  -0.4588
  N  N2419  1  0.422930  0.483710  0.638710  1.0  -0.4635
  N  N2420  1  0.165590  0.405490  0.613970  1.0  -0.3159
  N  N2421  1  0.579320  0.631720  0.420740  1.0  -0.323
  N  N2422  1  0.670510  0.740330  0.387890  1.0  -0.4519
  N  N2423  1  0.723340  0.706260  0.405120  1.0  -0.4303
  N  N2424  1  0.623170  0.679010  0.369070  1.0  -0.312
  N  N2425  1  0.656430  0.596070  0.408370  1.0  -0.366
  N  N2426  1  0.696050  0.676410  0.399890  1.0  -0.4483
  N  N2427  1  0.667920  0.834980  0.383400  1.0  -0.3351
  N  N2428  1  0.618190  0.858910  0.342530  1.0  -0.4564
  N  N2429  1  0.454650  0.638710  0.483710  1.0  -0.4679
  N  N2430  1  0.814950  0.613970  0.405490  1.0  -0.3139
  N  N2431  1  0.631720  0.579320  0.368220  1.0  -0.3235
  N  N2432  1  0.740330  0.670510  0.201270  1.0  -0.4525
  N  N2433  1  0.706260  0.723340  0.165280  1.0  -0.433
  N  N2434  1  0.679010  0.623170  0.328750  1.0  -0.3109
  N  N2435  1  0.596070  0.656430  0.339130  1.0  -0.3679
  N  N2436  1  0.676410  0.696050  0.227650  1.0  -0.449
  N  N2437  1  0.834980  0.667920  0.113700  1.0  -0.337
  N  N2438  1  0.858910  0.618190  0.180370  1.0  -0.4597
  N  N2439  1  0.638710  0.454650  0.422930  1.0  -0.4674
  N  N2440  1  0.613970  0.814950  0.165590  1.0  -0.3185
  N  N2441  1  0.579320  0.420740  0.368220  1.0  -0.3227
  N  N2442  1  0.670510  0.387890  0.201270  1.0  -0.4547
  N  N2443  1  0.723340  0.405120  0.165280  1.0  -0.431
  N  N2444  1  0.623170  0.369070  0.328750  1.0  -0.3119
  N  N2445  1  0.656430  0.408370  0.339130  1.0  -0.37
  N  N2446  1  0.696050  0.399890  0.227650  1.0  -0.4515
  N  N2447  1  0.667920  0.383400  0.113700  1.0  -0.3348
  N  N2448  1  0.618190  0.342530  0.180370  1.0  -0.4574
  N  N2449  1  0.454650  0.483710  0.422930  1.0  -0.4667
  N  N2450  1  0.814950  0.405490  0.165590  1.0  -0.3166
  N  N2451  1  0.631720  0.368220  0.420740  1.0  -0.3241
  N  N2452  1  0.740330  0.201270  0.387890  1.0  -0.4548
  N  N2453  1  0.706260  0.165280  0.405120  1.0  -0.4322
  N  N2454  1  0.679010  0.328750  0.369070  1.0  -0.3097
  N  N2455  1  0.596070  0.339130  0.408370  1.0  -0.3703
  N  N2456  1  0.676410  0.227650  0.399890  1.0  -0.4474
  N  N2457  1  0.834980  0.113700  0.383400  1.0  -0.3345
  N  N2458  1  0.858910  0.180370  0.342530  1.0  -0.4605
  N  N2459  1  0.638710  0.422930  0.483710  1.0  -0.4646
  N  N2460  1  0.613970  0.165590  0.405490  1.0  -0.322
  N  N2461  1  0.420740  0.579320  0.631720  1.0  -0.3236
  N  N2462  1  0.387890  0.670510  0.740330  1.0  -0.4523
  N  N2463  1  0.405120  0.723340  0.706260  1.0  -0.4305
  N  N2464  1  0.369070  0.623170  0.679010  1.0  -0.3123
  N  N2465  1  0.408370  0.656430  0.596070  1.0  -0.3703
  N  N2466  1  0.399890  0.696050  0.676410  1.0  -0.4524
  N  N2467  1  0.383400  0.667920  0.834980  1.0  -0.3373
  N  N2468  1  0.342530  0.618190  0.858910  1.0  -0.4603
  N  N2469  1  0.483710  0.454650  0.638710  1.0  -0.4664
  N  N2470  1  0.405490  0.814950  0.613970  1.0  -0.3202
  N  N2471  1  0.368220  0.631720  0.579320  1.0  -0.3254
  N  N2472  1  0.201270  0.740330  0.670510  1.0  -0.4515
  N  N2473  1  0.165280  0.706260  0.723340  1.0  -0.4326
  N  N2474  1  0.328750  0.679010  0.623170  1.0  -0.3104
  N  N2475  1  0.339130  0.596070  0.656430  1.0  -0.3708
  N  N2476  1  0.227650  0.676410  0.696050  1.0  -0.4473
  N  N2477  1  0.113700  0.834980  0.667920  1.0  -0.337
  N  N2478  1  0.180370  0.858910  0.618190  1.0  -0.4606
  N  N2479  1  0.422930  0.638710  0.454650  1.0  -0.4661
  N  N2480  1  0.165590  0.613970  0.814950  1.0  -0.3175
  N  N2481  1  0.368220  0.579320  0.420740  1.0  -0.323
  N  N2482  1  0.201270  0.670510  0.387890  1.0  -0.4538
  N  N2483  1  0.165280  0.723340  0.405120  1.0  -0.4324
  N  N2484  1  0.328750  0.623170  0.369070  1.0  -0.3095
  N  N2485  1  0.339130  0.656430  0.408370  1.0  -0.3692
  N  N2486  1  0.227650  0.696050  0.399890  1.0  -0.4489
  N  N2487  1  0.113700  0.667920  0.383400  1.0  -0.3406
  N  N2488  1  0.180370  0.618190  0.342530  1.0  -0.4606
  N  N2489  1  0.422930  0.454650  0.483710  1.0  -0.4657
  N  N2490  1  0.165590  0.814950  0.405490  1.0  -0.3184
  N  N2491  1  0.420740  0.631720  0.368220  1.0  -0.3217
  N  N2492  1  0.387890  0.740330  0.201270  1.0  -0.452
  N  N2493  1  0.405120  0.706260  0.165280  1.0  -0.4327
  N  N2494  1  0.369070  0.679010  0.328750  1.0  -0.3114
  N  N2495  1  0.408370  0.596070  0.339130  1.0  -0.3691
  N  N2496  1  0.399890  0.676410  0.227650  1.0  -0.4472
  N  N2497  1  0.383400  0.834980  0.113700  1.0  -0.3396
  N  N2498  1  0.342530  0.858910  0.180370  1.0  -0.4591
  N  N2499  1  0.483710  0.638710  0.422930  1.0  -0.4676
  N  N2500  1  0.405490  0.613970  0.165590  1.0  -0.3212
  N  N2501  1  0.631720  0.420740  0.579320  1.0  -0.3241
  N  N2502  1  0.740330  0.387890  0.670510  1.0  -0.4548
  N  N2503  1  0.706260  0.405120  0.723340  1.0  -0.4329
  N  N2504  1  0.679010  0.369070  0.623170  1.0  -0.3097
  N  N2505  1  0.596070  0.408370  0.656430  1.0  -0.3684
  N  N2506  1  0.676410  0.399890  0.696050  1.0  -0.4492
  N  N2507  1  0.834980  0.383400  0.667920  1.0  -0.3375
  N  N2508  1  0.858910  0.342530  0.618190  1.0  -0.4596
  N  N2509  1  0.638710  0.483710  0.454650  1.0  -0.4658
  N  N2510  1  0.613970  0.405490  0.814950  1.0  -0.3209
  N  N2511  1  0.579320  0.368220  0.631720  1.0  -0.3209
  N  N2512  1  0.670510  0.201270  0.740330  1.0  -0.4535
  N  N2513  1  0.723340  0.165280  0.706260  1.0  -0.4326
  N  N2514  1  0.623170  0.328750  0.679010  1.0  -0.3111
  N  N2515  1  0.656430  0.339130  0.596070  1.0  -0.3679
  N  N2516  1  0.696050  0.227650  0.676410  1.0  -0.4508
  N  N2517  1  0.667920  0.113700  0.834980  1.0  -0.335
  N  N2518  1  0.618190  0.180370  0.858910  1.0  -0.4568
  N  N2519  1  0.454650  0.422930  0.638710  1.0  -0.4658
  N  N2520  1  0.814950  0.165590  0.613970  1.0  -0.3178
  N  N2521  1  0.829260  0.881780  0.618280  1.0  -0.3217
  N  N2522  1  0.862110  0.048730  0.509670  1.0  -0.455
  N  N2523  1  0.844880  0.084720  0.543740  1.0  -0.4311
  N  N2524  1  0.880930  0.921250  0.570990  1.0  -0.3114
  N  N2525  1  0.841630  0.910870  0.653930  1.0  -0.3683
  N  N2526  1  0.850110  0.022350  0.573590  1.0  -0.4476
  N  N2527  1  0.866600  0.136300  0.415020  1.0  -0.3397
  N  N2528  1  0.907470  0.069630  0.391090  1.0  -0.4609
  N  N2529  1  0.766290  0.827070  0.611290  1.0  -0.4631
  N  N2530  1  0.844510  0.084410  0.636030  1.0  -0.318
  N  N2531  1  0.881780  0.829260  0.670680  1.0  -0.3244
  N  N2532  1  0.048730  0.862110  0.579490  1.0  -0.4535
  N  N2533  1  0.084720  0.844880  0.526660  1.0  -0.4328
  N  N2534  1  0.921250  0.880930  0.626830  1.0  -0.3112
  N  N2535  1  0.910870  0.841630  0.593570  1.0  -0.3689
  N  N2536  1  0.022350  0.850110  0.553950  1.0  -0.4496
  N  N2537  1  0.136300  0.866600  0.582080  1.0  -0.3391
  N  N2538  1  0.069630  0.907470  0.631810  1.0  -0.4584
  N  N2539  1  0.827070  0.766290  0.795350  1.0  -0.4645
  N  N2540  1  0.084410  0.844510  0.435050  1.0  -0.3152
  N  N2541  1  0.670680  0.618280  0.881780  1.0  -0.3234
  N  N2542  1  0.579490  0.509670  0.048730  1.0  -0.4518
  N  N2543  1  0.526660  0.543740  0.084720  1.0  -0.4302
  N  N2544  1  0.626830  0.570990  0.921250  1.0  -0.3121
  N  N2545  1  0.593570  0.653930  0.910870  1.0  -0.3659
  N  N2546  1  0.553950  0.573590  0.022350  1.0  -0.4493
  N  N2547  1  0.582080  0.415020  0.136300  1.0  -0.3361
  N  N2548  1  0.631810  0.391090  0.069630  1.0  -0.4576
  N  N2549  1  0.795350  0.611290  0.827070  1.0  -0.4677
  N  N2550  1  0.435050  0.636030  0.084410  1.0  -0.3139
  N  N2551  1  0.618280  0.670680  0.829260  1.0  -0.3238
  N  N2552  1  0.509670  0.579490  0.862110  1.0  -0.4537
  N  N2553  1  0.543740  0.526660  0.844880  1.0  -0.4322
  N  N2554  1  0.570990  0.626830  0.880930  1.0  -0.3092
  N  N2555  1  0.653930  0.593570  0.841630  1.0  -0.3675
  N  N2556  1  0.573590  0.553950  0.850110  1.0  -0.4494
  N  N2557  1  0.415020  0.582080  0.866600  1.0  -0.3356
  N  N2558  1  0.391090  0.631810  0.907470  1.0  -0.458
  N  N2559  1  0.611290  0.795350  0.766290  1.0  -0.4677
  N  N2560  1  0.636030  0.435050  0.844510  1.0  -0.3187
  N  N2561  1  0.670680  0.829260  0.618280  1.0  -0.3235
  N  N2562  1  0.579490  0.862110  0.509670  1.0  -0.4554
  N  N2563  1  0.526660  0.844880  0.543740  1.0  -0.4316
  N  N2564  1  0.626830  0.880930  0.570990  1.0  -0.3111
  N  N2565  1  0.593570  0.841630  0.653930  1.0  -0.3711
  N  N2566  1  0.553950  0.850110  0.573590  1.0  -0.4521
  N  N2567  1  0.582080  0.866600  0.415020  1.0  -0.3353
  N  N2568  1  0.631810  0.907470  0.391090  1.0  -0.4571
  N  N2569  1  0.795350  0.766290  0.611290  1.0  -0.4663
  N  N2570  1  0.435050  0.844510  0.636030  1.0  -0.3174
  N  N2571  1  0.618280  0.881780  0.670680  1.0  -0.325
  N  N2572  1  0.509670  0.048730  0.579490  1.0  -0.4541
  N  N2573  1  0.543740  0.084720  0.526660  1.0  -0.4318
  N  N2574  1  0.570990  0.921250  0.626830  1.0  -0.3098
  N  N2575  1  0.653930  0.910870  0.593570  1.0  -0.3711
  N  N2576  1  0.573590  0.022350  0.553950  1.0  -0.447
  N  N2577  1  0.415020  0.136300  0.582080  1.0  -0.3346
  N  N2578  1  0.391090  0.069630  0.631810  1.0  -0.4587
  N  N2579  1  0.611290  0.827070  0.795350  1.0  -0.4649
  N  N2580  1  0.636030  0.084410  0.435050  1.0  -0.322
  N  N2581  1  0.829260  0.670680  0.881780  1.0  -0.3238
  N  N2582  1  0.862110  0.579490  0.048730  1.0  -0.452
  N  N2583  1  0.844880  0.526660  0.084720  1.0  -0.4309
  N  N2584  1  0.880930  0.626830  0.921250  1.0  -0.3131
  N  N2585  1  0.841630  0.593570  0.910870  1.0  -0.3694
  N  N2586  1  0.850110  0.553950  0.022350  1.0  -0.4527
  N  N2587  1  0.866600  0.582080  0.136300  1.0  -0.3373
  N  N2588  1  0.907470  0.631810  0.069630  1.0  -0.4599
  N  N2589  1  0.766290  0.795350  0.827070  1.0  -0.4658
  N  N2590  1  0.844510  0.435050  0.084410  1.0  -0.3206
  N  N2591  1  0.881780  0.618280  0.829260  1.0  -0.3256
  N  N2592  1  0.048730  0.509670  0.862110  1.0  -0.4524
  N  N2593  1  0.084720  0.543740  0.844880  1.0  -0.4322
  N  N2594  1  0.921250  0.570990  0.880930  1.0  -0.3099
  N  N2595  1  0.910870  0.653930  0.841630  1.0  -0.3706
  N  N2596  1  0.022350  0.573590  0.850110  1.0  -0.4468
  N  N2597  1  0.136300  0.415020  0.866600  1.0  -0.3373
  N  N2598  1  0.069630  0.391090  0.907470  1.0  -0.4617
  N  N2599  1  0.827070  0.611290  0.766290  1.0  -0.468
  N  N2600  1  0.084410  0.636030  0.844510  1.0  -0.3171
  N  N2601  1  0.881780  0.670680  0.618280  1.0  -0.3241
  N  N2602  1  0.048730  0.579490  0.509670  1.0  -0.4545
  N  N2603  1  0.084720  0.526660  0.543740  1.0  -0.4322
  N  N2604  1  0.921250  0.626830  0.570990  1.0  -0.3099
  N  N2605  1  0.910870  0.593570  0.653930  1.0  -0.3665
  N  N2606  1  0.022350  0.553950  0.573590  1.0  -0.4484
  N  N2607  1  0.136300  0.582080  0.415020  1.0  -0.3394
  N  N2608  1  0.069630  0.631810  0.391090  1.0  -0.4577
  N  N2609  1  0.827070  0.795350  0.611290  1.0  -0.4671
  N  N2610  1  0.084410  0.435050  0.636030  1.0  -0.3188
  N  N2611  1  0.829260  0.618280  0.670680  1.0  -0.3207
  N  N2612  1  0.862110  0.509670  0.579490  1.0  -0.4521
  N  N2613  1  0.844880  0.543740  0.526660  1.0  -0.432
  N  N2614  1  0.880930  0.570990  0.626830  1.0  -0.3107
  N  N2615  1  0.841630  0.653930  0.593570  1.0  -0.3693
  N  N2616  1  0.850110  0.573590  0.553950  1.0  -0.4487
  N  N2617  1  0.866600  0.415020  0.582080  1.0  -0.3409
  N  N2618  1  0.907470  0.391090  0.631810  1.0  -0.4583
  N  N2619  1  0.766290  0.611290  0.795350  1.0  -0.4669
  N  N2620  1  0.844510  0.636030  0.435050  1.0  -0.3214
  N  N2621  1  0.618280  0.829260  0.881780  1.0  -0.3224
  N  N2622  1  0.509670  0.862110  0.048730  1.0  -0.4546
  N  N2623  1  0.543740  0.844880  0.084720  1.0  -0.4319
  N  N2624  1  0.570990  0.880930  0.921250  1.0  -0.3082
  N  N2625  1  0.653930  0.841630  0.910870  1.0  -0.3673
  N  N2626  1  0.573590  0.850110  0.022350  1.0  -0.4501
  N  N2627  1  0.415020  0.866600  0.136300  1.0  -0.3359
  N  N2628  1  0.391090  0.907470  0.069630  1.0  -0.458
  N  N2629  1  0.611290  0.766290  0.827070  1.0  -0.4656
  N  N2630  1  0.636030  0.844510  0.084410  1.0  -0.3209
  N  N2631  1  0.670680  0.881780  0.829260  1.0  -0.3221
  N  N2632  1  0.579490  0.048730  0.862110  1.0  -0.4546
  N  N2633  1  0.526660  0.084720  0.844880  1.0  -0.4327
  N  N2634  1  0.626830  0.921250  0.880930  1.0  -0.3122
  N  N2635  1  0.593570  0.910870  0.841630  1.0  -0.3683
  N  N2636  1  0.553950  0.022350  0.850110  1.0  -0.4503
  N  N2637  1  0.582080  0.136300  0.866600  1.0  -0.3366
  N  N2638  1  0.631810  0.069630  0.907470  1.0  -0.4589
  N  N2639  1  0.795350  0.827070  0.766290  1.0  -0.4661
  N  N2640  1  0.435050  0.084410  0.844510  1.0  -0.3171
