# generated using pymatgen
data_CoH16C26(SN5)2
_symmetry_space_group_name_H-M   'P 1'
_cell_length_a   45.54620000
_cell_length_b   45.54620000
_cell_length_c   45.54620000
_cell_angle_alpha   60.00000000
_cell_angle_beta   60.00000000
_cell_angle_gamma   60.00000000
_symmetry_Int_Tables_number   1
_chemical_formula_structural   CoH16C26(SN5)2
_chemical_formula_sum   'Co48 H768 C1248 S96 N480'
_cell_volume   66809.99646272
_cell_formula_units_Z   48
loop_
 _symmetry_equiv_pos_site_id
 _symmetry_equiv_pos_as_xyz
  1  'x, y, z'
loop_
 _atom_site_type_symbol
 _atom_site_label
 _atom_site_symmetry_multiplicity
 _atom_site_fract_x
 _atom_site_fract_y
 _atom_site_fract_z
 _atom_site_occupancy
 _atom_site_charge
  Co  Co1  1  0.625000  0.867140  0.125000  1.0  0.712
  Co  Co2  1  0.867140  0.625000  0.382860  1.0  0.7119
  Co  Co3  1  0.125000  0.382860  0.625000  1.0  0.7123
  Co  Co4  1  0.382860  0.125000  0.867140  1.0  0.712
  Co  Co5  1  0.125000  0.625000  0.867140  1.0  0.7123
  Co  Co6  1  0.382860  0.867140  0.625000  1.0  0.7117
  Co  Co7  1  0.625000  0.125000  0.382860  1.0  0.7124
  Co  Co8  1  0.867140  0.382860  0.125000  1.0  0.7127
  Co  Co9  1  0.867140  0.125000  0.625000  1.0  0.7119
  Co  Co10  1  0.625000  0.382860  0.867140  1.0  0.7123
  Co  Co11  1  0.382860  0.625000  0.125000  1.0  0.7119
  Co  Co12  1  0.125000  0.867140  0.382860  1.0  0.712
  Co  Co13  1  0.125000  0.882860  0.625000  1.0  0.7123
  Co  Co14  1  0.882860  0.125000  0.367140  1.0  0.712
  Co  Co15  1  0.625000  0.367140  0.125000  1.0  0.712
  Co  Co16  1  0.367140  0.625000  0.882860  1.0  0.7119
  Co  Co17  1  0.625000  0.125000  0.882860  1.0  0.7124
  Co  Co18  1  0.367140  0.882860  0.125000  1.0  0.7127
  Co  Co19  1  0.125000  0.625000  0.367140  1.0  0.7123
  Co  Co20  1  0.882860  0.367140  0.625000  1.0  0.7117
  Co  Co21  1  0.882860  0.625000  0.125000  1.0  0.7119
  Co  Co22  1  0.125000  0.367140  0.882860  1.0  0.712
  Co  Co23  1  0.367140  0.125000  0.625000  1.0  0.7119
  Co  Co24  1  0.625000  0.882860  0.367140  1.0  0.7123
  Co  Co25  1  0.873560  0.873560  0.126440  1.0  0.61
  Co  Co26  1  0.126440  0.126440  0.873560  1.0  0.6077
  Co  Co27  1  0.126440  0.873560  0.873560  1.0  0.6095
  Co  Co28  1  0.873560  0.126440  0.126440  1.0  0.6097
  Co  Co29  1  0.873560  0.126440  0.873560  1.0  0.6094
  Co  Co30  1  0.126440  0.873560  0.126440  1.0  0.6097
  Co  Co31  1  0.376440  0.376440  0.123560  1.0  0.6077
  Co  Co32  1  0.123560  0.123560  0.376440  1.0  0.61
  Co  Co33  1  0.123560  0.376440  0.123560  1.0  0.6094
  Co  Co34  1  0.376440  0.123560  0.376440  1.0  0.6097
  Co  Co35  1  0.376440  0.123560  0.123560  1.0  0.6095
  Co  Co36  1  0.123560  0.376440  0.376440  1.0  0.6097
  Co  Co37  1  0.876440  0.876440  0.623560  1.0  0.6077
  Co  Co38  1  0.623560  0.623560  0.876440  1.0  0.61
  Co  Co39  1  0.623560  0.876440  0.876440  1.0  0.6097
  Co  Co40  1  0.876440  0.623560  0.623560  1.0  0.6095
  Co  Co41  1  0.876440  0.623560  0.876440  1.0  0.6097
  Co  Co42  1  0.623560  0.876440  0.623560  1.0  0.6094
  Co  Co43  1  0.373560  0.373560  0.626440  1.0  0.61
  Co  Co44  1  0.626440  0.626440  0.373560  1.0  0.6077
  Co  Co45  1  0.626440  0.373560  0.626440  1.0  0.6097
  Co  Co46  1  0.373560  0.626440  0.373560  1.0  0.6094
  Co  Co47  1  0.373560  0.626440  0.626440  1.0  0.6097
  Co  Co48  1  0.626440  0.373560  0.373560  1.0  0.6095
  H  H49  1  0.650100  0.895700  0.286900  1.0  0.0886
  H  H50  1  0.737500  0.927100  0.228700  1.0  0.1235
  H  H51  1  0.731100  0.932300  0.280300  1.0  0.1161
  H  H52  1  0.688000  0.916000  0.333400  1.0  0.0857
  H  H53  1  0.564900  0.885300  0.195500  1.0  0.1025
  H  H54  1  0.560000  0.891600  0.244400  1.0  0.1205
  H  H55  1  0.606200  0.898000  0.245800  1.0  0.1121
  H  H56  1  0.665100  0.885900  0.148700  1.0  0.0939
  H  H57  1  0.854700  0.862700  0.076700  1.0  0.0873
  H  H58  1  0.807000  0.864600  0.069600  1.0  0.1234
  H  H59  1  0.749400  0.877600  0.113000  1.0  0.1117
  H  H60  1  0.793500  0.881900  0.168100  1.0  0.0939
  H  H61  1  0.947200  0.819600  0.132000  1.0  0.0868
  H  H62  1  0.994600  0.809600  0.147000  1.0  0.1236
  H  H63  1  0.998600  0.858600  0.147800  1.0  0.1128
  H  H64  1  0.905000  0.919600  0.127800  1.0  0.0844
  H  H65  1  0.895700  0.650100  0.167300  1.0  0.0896
  H  H66  1  0.927100  0.737500  0.106700  1.0  0.1225
  H  H67  1  0.932300  0.731100  0.056300  1.0  0.1186
  H  H68  1  0.916000  0.688000  0.062600  1.0  0.0863
  H  H69  1  0.885300  0.564900  0.354300  1.0  0.1026
  H  H70  1  0.891600  0.560000  0.304000  1.0  0.1232
  H  H71  1  0.898000  0.606200  0.250000  1.0  0.1128
  H  H72  1  0.885900  0.665100  0.300300  1.0  0.0942
  H  H73  1  0.862700  0.854700  0.205900  1.0  0.0893
  H  H74  1  0.864600  0.807000  0.258800  1.0  0.1252
  H  H75  1  0.877600  0.749400  0.260000  1.0  0.1122
  H  H76  1  0.881900  0.793500  0.156500  1.0  0.0938
  H  H77  1  0.819600  0.947200  0.101200  1.0  0.087
  H  H78  1  0.809600  0.994600  0.048800  1.0  0.1237
  H  H79  1  0.858600  0.998600  0.995000  1.0  0.1132
  H  H80  1  0.919600  0.905000  0.047600  1.0  0.0832
  H  H81  1  0.286900  0.167300  0.650100  1.0  0.089
  H  H82  1  0.228700  0.106700  0.737500  1.0  0.1243
  H  H83  1  0.280300  0.056300  0.731100  1.0  0.1183
  H  H84  1  0.333400  0.062600  0.688000  1.0  0.0875
  H  H85  1  0.195500  0.354300  0.564900  1.0  0.1008
  H  H86  1  0.244400  0.304000  0.560000  1.0  0.1202
  H  H87  1  0.245800  0.250000  0.606200  1.0  0.113
  H  H88  1  0.148700  0.300300  0.665100  1.0  0.0937
  H  H89  1  0.076700  0.205900  0.854700  1.0  0.0869
  H  H90  1  0.069600  0.258800  0.807000  1.0  0.1262
  H  H91  1  0.113000  0.260000  0.749400  1.0  0.1115
  H  H92  1  0.168100  0.156500  0.793500  1.0  0.0913
  H  H93  1  0.132000  0.101200  0.947200  1.0  0.0887
  H  H94  1  0.147000  0.048800  0.994600  1.0  0.1216
  H  H95  1  0.147800  0.995000  0.998600  1.0  0.113
  H  H96  1  0.127800  0.047600  0.905000  1.0  0.0852
  H  H97  1  0.167300  0.286900  0.895700  1.0  0.0885
  H  H98  1  0.106700  0.228700  0.927100  1.0  0.123
  H  H99  1  0.056300  0.280300  0.932300  1.0  0.117
  H  H100  1  0.062600  0.333400  0.916000  1.0  0.0866
  H  H101  1  0.354300  0.195500  0.885300  1.0  0.1013
  H  H102  1  0.304000  0.244400  0.891600  1.0  0.1202
  H  H103  1  0.250000  0.245800  0.898000  1.0  0.1135
  H  H104  1  0.300300  0.148700  0.885900  1.0  0.094
  H  H105  1  0.205900  0.076700  0.862700  1.0  0.0862
  H  H106  1  0.258800  0.069600  0.864600  1.0  0.1268
  H  H107  1  0.260000  0.113000  0.877600  1.0  0.1107
  H  H108  1  0.156500  0.168100  0.881900  1.0  0.0931
  H  H109  1  0.101200  0.132000  0.819600  1.0  0.0891
  H  H110  1  0.048800  0.147000  0.809600  1.0  0.1188
  H  H111  1  0.995000  0.147800  0.858600  1.0  0.1142
  H  H112  1  0.047600  0.127800  0.919600  1.0  0.0854
  H  H113  1  0.286900  0.650100  0.895700  1.0  0.0889
  H  H114  1  0.228700  0.737500  0.927100  1.0  0.1237
  H  H115  1  0.280300  0.731100  0.932300  1.0  0.1167
  H  H116  1  0.333400  0.688000  0.916000  1.0  0.0845
  H  H117  1  0.195500  0.564900  0.885300  1.0  0.1023
  H  H118  1  0.244400  0.560000  0.891600  1.0  0.1238
  H  H119  1  0.245800  0.606200  0.898000  1.0  0.112
  H  H120  1  0.148700  0.665100  0.885900  1.0  0.0952
  H  H121  1  0.076700  0.854700  0.862700  1.0  0.0869
  H  H122  1  0.069600  0.807000  0.864600  1.0  0.124
  H  H123  1  0.113000  0.749400  0.877600  1.0  0.111
  H  H124  1  0.168100  0.793500  0.881900  1.0  0.0913
  H  H125  1  0.132000  0.947200  0.819600  1.0  0.0893
  H  H126  1  0.147000  0.994600  0.809600  1.0  0.1231
  H  H127  1  0.147800  0.998600  0.858600  1.0  0.1134
  H  H128  1  0.127800  0.905000  0.919600  1.0  0.0844
  H  H129  1  0.167300  0.895700  0.650100  1.0  0.0879
  H  H130  1  0.106700  0.927100  0.737500  1.0  0.1237
  H  H131  1  0.056300  0.932300  0.731100  1.0  0.1146
  H  H132  1  0.062600  0.916000  0.688000  1.0  0.0869
  H  H133  1  0.354300  0.885300  0.564900  1.0  0.1026
  H  H134  1  0.304000  0.891600  0.560000  1.0  0.1178
  H  H135  1  0.250000  0.898000  0.606200  1.0  0.1133
  H  H136  1  0.300300  0.885900  0.665100  1.0  0.0958
  H  H137  1  0.205900  0.862700  0.854700  1.0  0.0849
  H  H138  1  0.258800  0.864600  0.807000  1.0  0.1259
  H  H139  1  0.260000  0.877600  0.749400  1.0  0.1111
  H  H140  1  0.156500  0.881900  0.793500  1.0  0.0915
  H  H141  1  0.101200  0.819600  0.947200  1.0  0.0883
  H  H142  1  0.048800  0.809600  0.994600  1.0  0.1252
  H  H143  1  0.995000  0.858600  0.998600  1.0  0.1144
  H  H144  1  0.047600  0.919600  0.905000  1.0  0.0844
  H  H145  1  0.650100  0.286900  0.167300  1.0  0.0886
  H  H146  1  0.737500  0.228700  0.106700  1.0  0.1239
  H  H147  1  0.731100  0.280300  0.056300  1.0  0.1164
  H  H148  1  0.688000  0.333400  0.062600  1.0  0.0849
  H  H149  1  0.564900  0.195500  0.354300  1.0  0.1019
  H  H150  1  0.560000  0.244400  0.304000  1.0  0.121
  H  H151  1  0.606200  0.245800  0.250000  1.0  0.1115
  H  H152  1  0.665100  0.148700  0.300300  1.0  0.0943
  H  H153  1  0.854700  0.076700  0.205900  1.0  0.0888
  H  H154  1  0.807000  0.069600  0.258800  1.0  0.1264
  H  H155  1  0.749400  0.113000  0.260000  1.0  0.111
  H  H156  1  0.793500  0.168100  0.156500  1.0  0.0927
  H  H157  1  0.947200  0.132000  0.101200  1.0  0.0888
  H  H158  1  0.994600  0.147000  0.048800  1.0  0.1219
  H  H159  1  0.998600  0.147800  0.995000  1.0  0.1131
  H  H160  1  0.905000  0.127800  0.047600  1.0  0.0828
  H  H161  1  0.895700  0.167300  0.286900  1.0  0.0885
  H  H162  1  0.927100  0.106700  0.228700  1.0  0.124
  H  H163  1  0.932300  0.056300  0.280300  1.0  0.1185
  H  H164  1  0.916000  0.062600  0.333400  1.0  0.0877
  H  H165  1  0.885300  0.354300  0.195500  1.0  0.102
  H  H166  1  0.891600  0.304000  0.244400  1.0  0.1191
  H  H167  1  0.898000  0.250000  0.245800  1.0  0.1126
  H  H168  1  0.885900  0.300300  0.148700  1.0  0.096
  H  H169  1  0.862700  0.205900  0.076700  1.0  0.0878
  H  H170  1  0.864600  0.258800  0.069600  1.0  0.1262
  H  H171  1  0.877600  0.260000  0.113000  1.0  0.1117
  H  H172  1  0.881900  0.156500  0.168100  1.0  0.0924
  H  H173  1  0.819600  0.101200  0.132000  1.0  0.0871
  H  H174  1  0.809600  0.048800  0.147000  1.0  0.1206
  H  H175  1  0.858600  0.995000  0.147800  1.0  0.1127
  H  H176  1  0.919600  0.047600  0.127800  1.0  0.0838
  H  H177  1  0.895700  0.286900  0.650100  1.0  0.0894
  H  H178  1  0.927100  0.228700  0.737500  1.0  0.1224
  H  H179  1  0.932300  0.280300  0.731100  1.0  0.1164
  H  H180  1  0.916000  0.333400  0.688000  1.0  0.0845
  H  H181  1  0.885300  0.195500  0.564900  1.0  0.1025
  H  H182  1  0.891600  0.244400  0.560000  1.0  0.1228
  H  H183  1  0.898000  0.245800  0.606200  1.0  0.1121
  H  H184  1  0.885900  0.148700  0.665100  1.0  0.0948
  H  H185  1  0.862700  0.076700  0.854700  1.0  0.0854
  H  H186  1  0.864600  0.069600  0.807000  1.0  0.1268
  H  H187  1  0.877600  0.113000  0.749400  1.0  0.1119
  H  H188  1  0.881900  0.168100  0.793500  1.0  0.0929
  H  H189  1  0.819600  0.132000  0.947200  1.0  0.0887
  H  H190  1  0.809600  0.147000  0.994600  1.0  0.1227
  H  H191  1  0.858600  0.147800  0.998600  1.0  0.1137
  H  H192  1  0.919600  0.127800  0.905000  1.0  0.0833
  H  H193  1  0.650100  0.167300  0.895700  1.0  0.0891
  H  H194  1  0.737500  0.106700  0.927100  1.0  0.1241
  H  H195  1  0.731100  0.056300  0.932300  1.0  0.1175
  H  H196  1  0.688000  0.062600  0.916000  1.0  0.0879
  H  H197  1  0.564900  0.354300  0.885300  1.0  0.1028
  H  H198  1  0.560000  0.304000  0.891600  1.0  0.1199
  H  H199  1  0.606200  0.250000  0.898000  1.0  0.1119
  H  H200  1  0.665100  0.300300  0.885900  1.0  0.0938
  H  H201  1  0.854700  0.205900  0.862700  1.0  0.0873
  H  H202  1  0.807000  0.258800  0.864600  1.0  0.1262
  H  H203  1  0.749400  0.260000  0.877600  1.0  0.1125
  H  H204  1  0.793500  0.156500  0.881900  1.0  0.0926
  H  H205  1  0.947200  0.101200  0.819600  1.0  0.0876
  H  H206  1  0.994600  0.048800  0.809600  1.0  0.122
  H  H207  1  0.998600  0.995000  0.858600  1.0  0.1137
  H  H208  1  0.905000  0.047600  0.919600  1.0  0.0832
  H  H209  1  0.167300  0.650100  0.286900  1.0  0.0885
  H  H210  1  0.106700  0.737500  0.228700  1.0  0.123
  H  H211  1  0.056300  0.731100  0.280300  1.0  0.1187
  H  H212  1  0.062600  0.688000  0.333400  1.0  0.0861
  H  H213  1  0.354300  0.564900  0.195500  1.0  0.1024
  H  H214  1  0.304000  0.560000  0.244400  1.0  0.1221
  H  H215  1  0.250000  0.606200  0.245800  1.0  0.1125
  H  H216  1  0.300300  0.665100  0.148700  1.0  0.0945
  H  H217  1  0.205900  0.854700  0.076700  1.0  0.0878
  H  H218  1  0.258800  0.807000  0.069600  1.0  0.1252
  H  H219  1  0.260000  0.749400  0.113000  1.0  0.1109
  H  H220  1  0.156500  0.793500  0.168100  1.0  0.0921
  H  H221  1  0.101200  0.947200  0.132000  1.0  0.088
  H  H222  1  0.048800  0.994600  0.147000  1.0  0.1232
  H  H223  1  0.995000  0.998600  0.147800  1.0  0.1147
  H  H224  1  0.047600  0.905000  0.127800  1.0  0.0845
  H  H225  1  0.286900  0.895700  0.167300  1.0  0.0894
  H  H226  1  0.228700  0.927100  0.106700  1.0  0.1236
  H  H227  1  0.280300  0.932300  0.056300  1.0  0.1143
  H  H228  1  0.333400  0.916000  0.062600  1.0  0.0847
  H  H229  1  0.195500  0.885300  0.354300  1.0  0.1017
  H  H230  1  0.244400  0.891600  0.304000  1.0  0.1202
  H  H231  1  0.245800  0.898000  0.250000  1.0  0.1121
  H  H232  1  0.148700  0.885900  0.300300  1.0  0.0945
  H  H233  1  0.076700  0.862700  0.205900  1.0  0.0847
  H  H234  1  0.069600  0.864600  0.258800  1.0  0.1259
  H  H235  1  0.113000  0.877600  0.260000  1.0  0.112
  H  H236  1  0.168100  0.881900  0.156500  1.0  0.0914
  H  H237  1  0.132000  0.819600  0.101200  1.0  0.0866
  H  H238  1  0.147000  0.809600  0.048800  1.0  0.1227
  H  H239  1  0.147800  0.858600  0.995000  1.0  0.1141
  H  H240  1  0.127800  0.919600  0.047600  1.0  0.0841
  H  H241  1  0.599900  0.354300  0.082700  1.0  0.0889
  H  H242  1  0.512500  0.322900  0.143300  1.0  0.1235
  H  H243  1  0.518900  0.317700  0.193700  1.0  0.1165
  H  H244  1  0.562000  0.334000  0.187400  1.0  0.0874
  H  H245  1  0.685100  0.364700  0.895700  1.0  0.1041
  H  H246  1  0.690000  0.358400  0.946000  1.0  0.1204
  H  H247  1  0.643800  0.352000  0.000000  1.0  0.1124
  H  H248  1  0.584900  0.364100  0.949700  1.0  0.0939
  H  H249  1  0.395300  0.387300  0.044100  1.0  0.0879
  H  H250  1  0.443000  0.385400  0.991200  1.0  0.1239
  H  H251  1  0.500600  0.372400  0.990000  1.0  0.1112
  H  H252  1  0.456500  0.368100  0.093500  1.0  0.0941
  H  H253  1  0.302800  0.430400  0.148800  1.0  0.0869
  H  H254  1  0.255400  0.440400  0.201200  1.0  0.1223
  H  H255  1  0.251400  0.391400  0.255000  1.0  0.1125
  H  H256  1  0.345000  0.330400  0.202400  1.0  0.0844
  H  H257  1  0.354300  0.599900  0.963100  1.0  0.0893
  H  H258  1  0.322900  0.512500  0.021300  1.0  0.1228
  H  H259  1  0.317700  0.518900  0.969700  1.0  0.1181
  H  H260  1  0.334000  0.562000  0.916600  1.0  0.0866
  H  H261  1  0.364700  0.685100  0.054500  1.0  0.1019
  H  H262  1  0.358400  0.690000  0.005600  1.0  0.1216
  H  H263  1  0.352000  0.643800  0.004200  1.0  0.1128
  H  H264  1  0.364100  0.584900  0.101300  1.0  0.0947
  H  H265  1  0.387300  0.395300  0.173300  1.0  0.0886
  H  H266  1  0.385400  0.443000  0.180400  1.0  0.1248
  H  H267  1  0.372400  0.500600  0.137000  1.0  0.1119
  H  H268  1  0.368100  0.456500  0.081900  1.0  0.094
  H  H269  1  0.430400  0.302800  0.118000  1.0  0.0851
  H  H270  1  0.440400  0.255400  0.103000  1.0  0.1225
  H  H271  1  0.391400  0.251400  0.102200  1.0  0.113
  H  H272  1  0.330400  0.345000  0.122200  1.0  0.0831
  H  H273  1  0.963100  0.082700  0.354300  1.0  0.089
  H  H274  1  0.021300  0.143300  0.322900  1.0  0.1234
  H  H275  1  0.969700  0.193700  0.317700  1.0  0.1153
  H  H276  1  0.916600  0.187400  0.334000  1.0  0.0869
  H  H277  1  0.054500  0.895700  0.364700  1.0  0.1006
  H  H278  1  0.005600  0.946000  0.358400  1.0  0.1214
  H  H279  1  0.004200  0.000000  0.352000  1.0  0.1129
  H  H280  1  0.101300  0.949700  0.364100  1.0  0.0933
  H  H281  1  0.173300  0.044100  0.387300  1.0  0.0865
  H  H282  1  0.180400  0.991200  0.385400  1.0  0.1261
  H  H283  1  0.137000  0.990000  0.372400  1.0  0.1114
  H  H284  1  0.081900  0.093500  0.368100  1.0  0.0911
  H  H285  1  0.118000  0.148800  0.430400  1.0  0.0899
  H  H286  1  0.103000  0.201200  0.440400  1.0  0.12
  H  H287  1  0.102200  0.255000  0.391400  1.0  0.1128
  H  H288  1  0.122200  0.202400  0.330400  1.0  0.0851
  H  H289  1  0.082700  0.963100  0.599900  1.0  0.0878
  H  H290  1  0.143300  0.021300  0.512500  1.0  0.1232
  H  H291  1  0.193700  0.969700  0.518900  1.0  0.1166
  H  H292  1  0.187400  0.916600  0.562000  1.0  0.0858
  H  H293  1  0.895700  0.054500  0.685100  1.0  0.1017
  H  H294  1  0.946000  0.005600  0.690000  1.0  0.1231
  H  H295  1  0.000000  0.004200  0.643800  1.0  0.1137
  H  H296  1  0.949700  0.101300  0.584900  1.0  0.094
  H  H297  1  0.044100  0.173300  0.395300  1.0  0.086
  H  H298  1  0.991200  0.180400  0.443000  1.0  0.1264
  H  H299  1  0.990000  0.137000  0.500600  1.0  0.1105
  H  H300  1  0.093500  0.081900  0.456500  1.0  0.0931
  H  H301  1  0.148800  0.118000  0.302800  1.0  0.0901
  H  H302  1  0.201200  0.103000  0.255400  1.0  0.1191
  H  H303  1  0.255000  0.102200  0.251400  1.0  0.1133
  H  H304  1  0.202400  0.122200  0.345000  1.0  0.0853
  H  H305  1  0.963100  0.599900  0.082700  1.0  0.0894
  H  H306  1  0.021300  0.512500  0.143300  1.0  0.1239
  H  H307  1  0.969700  0.518900  0.193700  1.0  0.1194
  H  H308  1  0.916600  0.562000  0.187400  1.0  0.0848
  H  H309  1  0.054500  0.685100  0.895700  1.0  0.1011
  H  H310  1  0.005600  0.690000  0.946000  1.0  0.1221
  H  H311  1  0.004200  0.643800  0.000000  1.0  0.1117
  H  H312  1  0.101300  0.584900  0.949700  1.0  0.0953
  H  H313  1  0.173300  0.395300  0.044100  1.0  0.0867
  H  H314  1  0.180400  0.443000  0.991200  1.0  0.1261
  H  H315  1  0.137000  0.500600  0.990000  1.0  0.1108
  H  H316  1  0.081900  0.456500  0.093500  1.0  0.0914
  H  H317  1  0.118000  0.302800  0.148800  1.0  0.0883
  H  H318  1  0.103000  0.255400  0.201200  1.0  0.121
  H  H319  1  0.102200  0.251400  0.255000  1.0  0.1135
  H  H320  1  0.122200  0.345000  0.202400  1.0  0.0839
  H  H321  1  0.082700  0.354300  0.963100  1.0  0.0875
  H  H322  1  0.143300  0.322900  0.021300  1.0  0.1234
  H  H323  1  0.193700  0.317700  0.969700  1.0  0.1164
  H  H324  1  0.187400  0.334000  0.916600  1.0  0.0877
  H  H325  1  0.895700  0.364700  0.054500  1.0  0.103
  H  H326  1  0.946000  0.358400  0.005600  1.0  0.1196
  H  H327  1  0.000000  0.352000  0.004200  1.0  0.1132
  H  H328  1  0.949700  0.364100  0.101300  1.0  0.0957
  H  H329  1  0.044100  0.387300  0.173300  1.0  0.0862
  H  H330  1  0.991200  0.385400  0.180400  1.0  0.1255
  H  H331  1  0.990000  0.372400  0.137000  1.0  0.1115
  H  H332  1  0.093500  0.368100  0.081900  1.0  0.0915
  H  H333  1  0.148800  0.430400  0.118000  1.0  0.0877
  H  H334  1  0.201200  0.440400  0.103000  1.0  0.123
  H  H335  1  0.255000  0.391400  0.102200  1.0  0.1131
  H  H336  1  0.202400  0.330400  0.122200  1.0  0.0846
  H  H337  1  0.599900  0.963100  0.354300  1.0  0.0889
  H  H338  1  0.512500  0.021300  0.322900  1.0  0.1237
  H  H339  1  0.518900  0.969700  0.317700  1.0  0.1156
  H  H340  1  0.562000  0.916600  0.334000  1.0  0.0861
  H  H341  1  0.685100  0.054500  0.364700  1.0  0.1036
  H  H342  1  0.690000  0.005600  0.358400  1.0  0.1215
  H  H343  1  0.643800  0.004200  0.352000  1.0  0.1117
  H  H344  1  0.584900  0.101300  0.364100  1.0  0.0944
  H  H345  1  0.395300  0.173300  0.387300  1.0  0.089
  H  H346  1  0.443000  0.180400  0.385400  1.0  0.1251
  H  H347  1  0.500600  0.137000  0.372400  1.0  0.1107
  H  H348  1  0.456500  0.081900  0.368100  1.0  0.0927
  H  H349  1  0.302800  0.118000  0.430400  1.0  0.0894
  H  H350  1  0.255400  0.103000  0.440400  1.0  0.1214
  H  H351  1  0.251400  0.102200  0.391400  1.0  0.1139
  H  H352  1  0.345000  0.122200  0.330400  1.0  0.0832
  H  H353  1  0.354300  0.082700  0.599900  1.0  0.0885
  H  H354  1  0.322900  0.143300  0.512500  1.0  0.1246
  H  H355  1  0.317700  0.193700  0.518900  1.0  0.1195
  H  H356  1  0.334000  0.187400  0.562000  1.0  0.0851
  H  H357  1  0.364700  0.895700  0.685100  1.0  0.1027
  H  H358  1  0.358400  0.946000  0.690000  1.0  0.1207
  H  H359  1  0.352000  0.000000  0.643800  1.0  0.1122
  H  H360  1  0.364100  0.949700  0.584900  1.0  0.096
  H  H361  1  0.387300  0.044100  0.395300  1.0  0.0881
  H  H362  1  0.385400  0.991200  0.443000  1.0  0.1258
  H  H363  1  0.372400  0.990000  0.500600  1.0  0.1116
  H  H364  1  0.368100  0.093500  0.456500  1.0  0.0918
  H  H365  1  0.430400  0.148800  0.302800  1.0  0.0879
  H  H366  1  0.440400  0.201200  0.255400  1.0  0.1211
  H  H367  1  0.391400  0.255000  0.251400  1.0  0.1127
  H  H368  1  0.330400  0.202400  0.345000  1.0  0.0832
  H  H369  1  0.354300  0.963100  0.082700  1.0  0.0896
  H  H370  1  0.322900  0.021300  0.143300  1.0  0.1221
  H  H371  1  0.317700  0.969700  0.193700  1.0  0.1182
  H  H372  1  0.334000  0.916600  0.187400  1.0  0.0866
  H  H373  1  0.364700  0.054500  0.895700  1.0  0.103
  H  H374  1  0.358400  0.005600  0.946000  1.0  0.1231
  H  H375  1  0.352000  0.004200  0.000000  1.0  0.1122
  H  H376  1  0.364100  0.101300  0.949700  1.0  0.0945
  H  H377  1  0.387300  0.173300  0.044100  1.0  0.0849
  H  H378  1  0.385400  0.180400  0.991200  1.0  0.1271
  H  H379  1  0.372400  0.137000  0.990000  1.0  0.1118
  H  H380  1  0.368100  0.081900  0.093500  1.0  0.0932
  H  H381  1  0.430400  0.118000  0.148800  1.0  0.0867
  H  H382  1  0.440400  0.103000  0.201200  1.0  0.121
  H  H383  1  0.391400  0.102200  0.255000  1.0  0.1136
  H  H384  1  0.330400  0.122200  0.202400  1.0  0.0832
  H  H385  1  0.599900  0.082700  0.963100  1.0  0.0887
  H  H386  1  0.512500  0.143300  0.021300  1.0  0.1244
  H  H387  1  0.518900  0.193700  0.969700  1.0  0.1184
  H  H388  1  0.562000  0.187400  0.916600  1.0  0.0845
  H  H389  1  0.685100  0.895700  0.054500  1.0  0.1033
  H  H390  1  0.690000  0.946000  0.005600  1.0  0.1218
  H  H391  1  0.643800  0.000000  0.004200  1.0  0.1123
  H  H392  1  0.584900  0.949700  0.101300  1.0  0.0938
  H  H393  1  0.395300  0.044100  0.173300  1.0  0.0872
  H  H394  1  0.443000  0.991200  0.180400  1.0  0.1284
  H  H395  1  0.500600  0.990000  0.137000  1.0  0.1123
  H  H396  1  0.456500  0.093500  0.081900  1.0  0.0924
  H  H397  1  0.302800  0.148800  0.118000  1.0  0.0885
  H  H398  1  0.255400  0.201200  0.103000  1.0  0.1208
  H  H399  1  0.251400  0.255000  0.102200  1.0  0.1137
  H  H400  1  0.345000  0.202400  0.122200  1.0  0.0836
  H  H401  1  0.082700  0.599900  0.354300  1.0  0.0884
  H  H402  1  0.143300  0.512500  0.322900  1.0  0.123
  H  H403  1  0.193700  0.518900  0.317700  1.0  0.1188
  H  H404  1  0.187400  0.562000  0.334000  1.0  0.0861
  H  H405  1  0.895700  0.685100  0.364700  1.0  0.1025
  H  H406  1  0.946000  0.690000  0.358400  1.0  0.1216
  H  H407  1  0.000000  0.643800  0.352000  1.0  0.1127
  H  H408  1  0.949700  0.584900  0.364100  1.0  0.0946
  H  H409  1  0.044100  0.395300  0.387300  1.0  0.0873
  H  H410  1  0.991200  0.443000  0.385400  1.0  0.1263
  H  H411  1  0.990000  0.500600  0.372400  1.0  0.1107
  H  H412  1  0.093500  0.456500  0.368100  1.0  0.0918
  H  H413  1  0.148800  0.302800  0.430400  1.0  0.0884
  H  H414  1  0.201200  0.255400  0.440400  1.0  0.1225
  H  H415  1  0.255000  0.251400  0.391400  1.0  0.1145
  H  H416  1  0.202400  0.345000  0.330400  1.0  0.0843
  H  H417  1  0.963100  0.354300  0.599900  1.0  0.0901
  H  H418  1  0.021300  0.322900  0.512500  1.0  0.1228
  H  H419  1  0.969700  0.317700  0.518900  1.0  0.1176
  H  H420  1  0.916600  0.334000  0.562000  1.0  0.0877
  H  H421  1  0.054500  0.364700  0.685100  1.0  0.1024
  H  H422  1  0.005600  0.358400  0.690000  1.0  0.1196
  H  H423  1  0.004200  0.352000  0.643800  1.0  0.112
  H  H424  1  0.101300  0.364100  0.584900  1.0  0.0942
  H  H425  1  0.173300  0.387300  0.395300  1.0  0.085
  H  H426  1  0.180400  0.385400  0.443000  1.0  0.1248
  H  H427  1  0.137000  0.372400  0.500600  1.0  0.1122
  H  H428  1  0.081900  0.368100  0.456500  1.0  0.0921
  H  H429  1  0.118000  0.430400  0.302800  1.0  0.087
  H  H430  1  0.103000  0.440400  0.255400  1.0  0.1224
  H  H431  1  0.102200  0.391400  0.251400  1.0  0.1139
  H  H432  1  0.122200  0.330400  0.345000  1.0  0.0843
  H  H433  1  0.099900  0.854300  0.463100  1.0  0.0889
  H  H434  1  0.012500  0.822900  0.521300  1.0  0.1234
  H  H435  1  0.018900  0.817700  0.469700  1.0  0.1174
  H  H436  1  0.062000  0.834000  0.416600  1.0  0.0877
  H  H437  1  0.185100  0.864700  0.554500  1.0  0.1038
  H  H438  1  0.190000  0.858400  0.505600  1.0  0.1199
  H  H439  1  0.143800  0.852000  0.504200  1.0  0.113
  H  H440  1  0.084900  0.864100  0.601300  1.0  0.0935
  H  H441  1  0.895300  0.887300  0.673300  1.0  0.0888
  H  H442  1  0.943000  0.885400  0.680400  1.0  0.1245
  H  H443  1  0.000600  0.872400  0.637000  1.0  0.1115
  H  H444  1  0.956500  0.868100  0.581900  1.0  0.0947
  H  H445  1  0.802800  0.930400  0.618000  1.0  0.0862
  H  H446  1  0.755400  0.940400  0.603000  1.0  0.1223
  H  H447  1  0.751400  0.891400  0.602200  1.0  0.1133
  H  H448  1  0.845000  0.830400  0.622200  1.0  0.0845
  H  H449  1  0.854300  0.099900  0.582700  1.0  0.0894
  H  H450  1  0.822900  0.012500  0.643300  1.0  0.1229
  H  H451  1  0.817700  0.018900  0.693700  1.0  0.1174
  H  H452  1  0.834000  0.062000  0.687400  1.0  0.0862
  H  H453  1  0.864700  0.185100  0.395700  1.0  0.102
  H  H454  1  0.858400  0.190000  0.446000  1.0  0.1214
  H  H455  1  0.852000  0.143800  0.500000  1.0  0.1121
  H  H456  1  0.864100  0.084900  0.449700  1.0  0.0949
  H  H457  1  0.887300  0.895300  0.544100  1.0  0.0878
  H  H458  1  0.885400  0.943000  0.491200  1.0  0.124
  H  H459  1  0.872400  0.000600  0.490000  1.0  0.1117
  H  H460  1  0.868100  0.956500  0.593500  1.0  0.0933
  H  H461  1  0.930400  0.802800  0.648800  1.0  0.0861
  H  H462  1  0.940400  0.755400  0.701200  1.0  0.1225
  H  H463  1  0.891400  0.751400  0.755000  1.0  0.1127
  H  H464  1  0.830400  0.845000  0.702400  1.0  0.083
  H  H465  1  0.463100  0.582700  0.099900  1.0  0.0893
  H  H466  1  0.521300  0.643300  0.012500  1.0  0.1241
  H  H467  1  0.469700  0.693700  0.018900  1.0  0.1169
  H  H468  1  0.416600  0.687400  0.062000  1.0  0.0862
  H  H469  1  0.554500  0.395700  0.185100  1.0  0.1013
  H  H470  1  0.505600  0.446000  0.190000  1.0  0.1207
  H  H471  1  0.504200  0.500000  0.143800  1.0  0.1129
  H  H472  1  0.601300  0.449700  0.084900  1.0  0.0935
  H  H473  1  0.673300  0.544100  0.895300  1.0  0.0858
  H  H474  1  0.680400  0.491200  0.943000  1.0  0.1264
  H  H475  1  0.637000  0.490000  0.000600  1.0  0.1109
  H  H476  1  0.581900  0.593500  0.956500  1.0  0.0916
  H  H477  1  0.618000  0.648800  0.802800  1.0  0.0906
  H  H478  1  0.603000  0.701200  0.755400  1.0  0.1193
  H  H479  1  0.602200  0.755000  0.751400  1.0  0.1133
  H  H480  1  0.622200  0.702400  0.845000  1.0  0.0849
  H  H481  1  0.582700  0.463100  0.854300  1.0  0.0878
  H  H482  1  0.643300  0.521300  0.822900  1.0  0.1225
  H  H483  1  0.693700  0.469700  0.817700  1.0  0.1155
  H  H484  1  0.687400  0.416600  0.834000  1.0  0.0877
  H  H485  1  0.395700  0.554500  0.864700  1.0  0.1015
  H  H486  1  0.446000  0.505600  0.858400  1.0  0.1224
  H  H487  1  0.500000  0.504200  0.852000  1.0  0.1137
  H  H488  1  0.449700  0.601300  0.864100  1.0  0.0937
  H  H489  1  0.544100  0.673300  0.887300  1.0  0.087
  H  H490  1  0.491200  0.680400  0.885400  1.0  0.1265
  H  H491  1  0.490000  0.637000  0.872400  1.0  0.1114
  H  H492  1  0.593500  0.581900  0.868100  1.0  0.0928
  H  H493  1  0.648800  0.618000  0.930400  1.0  0.0894
  H  H494  1  0.701200  0.603000  0.940400  1.0  0.1198
  H  H495  1  0.755000  0.602200  0.891400  1.0  0.1133
  H  H496  1  0.702400  0.622200  0.830400  1.0  0.0857
  H  H497  1  0.463100  0.099900  0.854300  1.0  0.0888
  H  H498  1  0.521300  0.012500  0.822900  1.0  0.1237
  H  H499  1  0.469700  0.018900  0.817700  1.0  0.1183
  H  H500  1  0.416600  0.062000  0.834000  1.0  0.085
  H  H501  1  0.554500  0.185100  0.864700  1.0  0.1015
  H  H502  1  0.505600  0.190000  0.858400  1.0  0.121
  H  H503  1  0.504200  0.143800  0.852000  1.0  0.1121
  H  H504  1  0.601300  0.084900  0.864100  1.0  0.0949
  H  H505  1  0.673300  0.895300  0.887300  1.0  0.0865
  H  H506  1  0.680400  0.943000  0.885400  1.0  0.1258
  H  H507  1  0.637000  0.000600  0.872400  1.0  0.1104
  H  H508  1  0.581900  0.956500  0.868100  1.0  0.0915
  H  H509  1  0.618000  0.802800  0.930400  1.0  0.0883
  H  H510  1  0.603000  0.755400  0.940400  1.0  0.1226
  H  H511  1  0.602200  0.751400  0.891400  1.0  0.1134
  H  H512  1  0.622200  0.845000  0.830400  1.0  0.0841
  H  H513  1  0.582700  0.854300  0.099900  1.0  0.0868
  H  H514  1  0.643300  0.822900  0.012500  1.0  0.1236
  H  H515  1  0.693700  0.817700  0.018900  1.0  0.1173
  H  H516  1  0.687400  0.834000  0.062000  1.0  0.0864
  H  H517  1  0.395700  0.864700  0.185100  1.0  0.1026
  H  H518  1  0.446000  0.858400  0.190000  1.0  0.119
  H  H519  1  0.500000  0.852000  0.143800  1.0  0.1138
  H  H520  1  0.449700  0.864100  0.084900  1.0  0.0963
  H  H521  1  0.544100  0.887300  0.895300  1.0  0.085
  H  H522  1  0.491200  0.885400  0.943000  1.0  0.1254
  H  H523  1  0.490000  0.872400  0.000600  1.0  0.1115
  H  H524  1  0.593500  0.868100  0.956500  1.0  0.0921
  H  H525  1  0.648800  0.930400  0.802800  1.0  0.0882
  H  H526  1  0.701200  0.940400  0.755400  1.0  0.1229
  H  H527  1  0.755000  0.891400  0.751400  1.0  0.1138
  H  H528  1  0.702400  0.830400  0.845000  1.0  0.0848
  H  H529  1  0.099900  0.463100  0.582700  1.0  0.089
  H  H530  1  0.012500  0.521300  0.643300  1.0  0.1237
  H  H531  1  0.018900  0.469700  0.693700  1.0  0.1165
  H  H532  1  0.062000  0.416600  0.687400  1.0  0.0862
  H  H533  1  0.185100  0.554500  0.395700  1.0  0.1029
  H  H534  1  0.190000  0.505600  0.446000  1.0  0.1226
  H  H535  1  0.143800  0.504200  0.500000  1.0  0.1115
  H  H536  1  0.084900  0.601300  0.449700  1.0  0.0949
  H  H537  1  0.895300  0.673300  0.544100  1.0  0.0889
  H  H538  1  0.943000  0.680400  0.491200  1.0  0.1266
  H  H539  1  0.000600  0.637000  0.490000  1.0  0.1109
  H  H540  1  0.956500  0.581900  0.593500  1.0  0.0928
  H  H541  1  0.802800  0.618000  0.648800  1.0  0.0891
  H  H542  1  0.755400  0.603000  0.701200  1.0  0.1209
  H  H543  1  0.751400  0.602200  0.755000  1.0  0.1139
  H  H544  1  0.845000  0.622200  0.702400  1.0  0.0835
  H  H545  1  0.854300  0.582700  0.463100  1.0  0.0888
  H  H546  1  0.822900  0.643300  0.521300  1.0  0.1242
  H  H547  1  0.817700  0.693700  0.469700  1.0  0.1179
  H  H548  1  0.834000  0.687400  0.416600  1.0  0.0855
  H  H549  1  0.864700  0.395700  0.554500  1.0  0.1029
  H  H550  1  0.858400  0.446000  0.505600  1.0  0.1193
  H  H551  1  0.852000  0.500000  0.504200  1.0  0.1122
  H  H552  1  0.864100  0.449700  0.601300  1.0  0.0954
  H  H553  1  0.887300  0.544100  0.673300  1.0  0.0885
  H  H554  1  0.885400  0.491200  0.680400  1.0  0.1266
  H  H555  1  0.872400  0.490000  0.637000  1.0  0.1117
  H  H556  1  0.868100  0.593500  0.581900  1.0  0.0917
  H  H557  1  0.930400  0.648800  0.618000  1.0  0.0873
  H  H558  1  0.940400  0.701200  0.603000  1.0  0.1207
  H  H559  1  0.891400  0.755000  0.602200  1.0  0.1119
  H  H560  1  0.830400  0.702400  0.622200  1.0  0.0832
  H  H561  1  0.854300  0.463100  0.099900  1.0  0.0895
  H  H562  1  0.822900  0.521300  0.012500  1.0  0.1225
  H  H563  1  0.817700  0.469700  0.018900  1.0  0.1164
  H  H564  1  0.834000  0.416600  0.062000  1.0  0.0878
  H  H565  1  0.864700  0.554500  0.185100  1.0  0.1023
  H  H566  1  0.858400  0.505600  0.190000  1.0  0.1234
  H  H567  1  0.852000  0.504200  0.143800  1.0  0.1121
  H  H568  1  0.864100  0.601300  0.084900  1.0  0.0947
  H  H569  1  0.887300  0.673300  0.895300  1.0  0.0849
  H  H570  1  0.885400  0.680400  0.943000  1.0  0.1266
  H  H571  1  0.872400  0.637000  0.000600  1.0  0.112
  H  H572  1  0.868100  0.581900  0.956500  1.0  0.0932
  H  H573  1  0.930400  0.618000  0.802800  1.0  0.0866
  H  H574  1  0.940400  0.603000  0.755400  1.0  0.121
  H  H575  1  0.891400  0.602200  0.751400  1.0  0.1139
  H  H576  1  0.830400  0.622200  0.845000  1.0  0.0827
  H  H577  1  0.099900  0.582700  0.854300  1.0  0.0887
  H  H578  1  0.012500  0.643300  0.822900  1.0  0.1244
  H  H579  1  0.018900  0.693700  0.817700  1.0  0.1196
  H  H580  1  0.062000  0.687400  0.834000  1.0  0.0843
  H  H581  1  0.185100  0.395700  0.864700  1.0  0.1034
  H  H582  1  0.190000  0.446000  0.858400  1.0  0.1207
  H  H583  1  0.143800  0.500000  0.852000  1.0  0.1117
  H  H584  1  0.084900  0.449700  0.864100  1.0  0.0942
  H  H585  1  0.895300  0.544100  0.887300  1.0  0.0872
  H  H586  1  0.943000  0.491200  0.885400  1.0  0.1281
  H  H587  1  0.000600  0.490000  0.872400  1.0  0.112
  H  H588  1  0.956500  0.593500  0.868100  1.0  0.0925
  H  H589  1  0.802800  0.648800  0.930400  1.0  0.0887
  H  H590  1  0.755400  0.701200  0.940400  1.0  0.1214
  H  H591  1  0.751400  0.755000  0.891400  1.0  0.1133
  H  H592  1  0.845000  0.702400  0.830400  1.0  0.0835
  H  H593  1  0.582700  0.099900  0.463100  1.0  0.0885
  H  H594  1  0.643300  0.012500  0.521300  1.0  0.123
  H  H595  1  0.693700  0.018900  0.469700  1.0  0.1172
  H  H596  1  0.687400  0.062000  0.416600  1.0  0.0866
  H  H597  1  0.395700  0.185100  0.554500  1.0  0.1022
  H  H598  1  0.446000  0.190000  0.505600  1.0  0.122
  H  H599  1  0.500000  0.143800  0.504200  1.0  0.1131
  H  H600  1  0.449700  0.084900  0.601300  1.0  0.0947
  H  H601  1  0.544100  0.895300  0.673300  1.0  0.0879
  H  H602  1  0.491200  0.943000  0.680400  1.0  0.1263
  H  H603  1  0.490000  0.000600  0.637000  1.0  0.1107
  H  H604  1  0.593500  0.956500  0.581900  1.0  0.0912
  H  H605  1  0.648800  0.802800  0.618000  1.0  0.0888
  H  H606  1  0.701200  0.755400  0.603000  1.0  0.1215
  H  H607  1  0.755000  0.751400  0.602200  1.0  0.1147
  H  H608  1  0.702400  0.845000  0.622200  1.0  0.084
  H  H609  1  0.463100  0.854300  0.582700  1.0  0.0907
  H  H610  1  0.521300  0.822900  0.643300  1.0  0.1227
  H  H611  1  0.469700  0.817700  0.693700  1.0  0.1158
  H  H612  1  0.416600  0.834000  0.687400  1.0  0.0873
  H  H613  1  0.554500  0.864700  0.395700  1.0  0.1026
  H  H614  1  0.505600  0.858400  0.446000  1.0  0.1213
  H  H615  1  0.504200  0.852000  0.500000  1.0  0.1122
  H  H616  1  0.601300  0.864100  0.449700  1.0  0.0941
  H  H617  1  0.673300  0.887300  0.544100  1.0  0.0849
  H  H618  1  0.680400  0.885400  0.491200  1.0  0.1262
  H  H619  1  0.637000  0.872400  0.490000  1.0  0.1119
  H  H620  1  0.581900  0.868100  0.593500  1.0  0.092
  H  H621  1  0.618000  0.930400  0.648800  1.0  0.0869
  H  H622  1  0.603000  0.940400  0.701200  1.0  0.122
  H  H623  1  0.602200  0.891400  0.755000  1.0  0.1139
  H  H624  1  0.622200  0.830400  0.702400  1.0  0.0842
  H  H625  1  0.150100  0.395700  0.667300  1.0  0.089
  H  H626  1  0.237500  0.427100  0.606700  1.0  0.1229
  H  H627  1  0.231100  0.432300  0.556300  1.0  0.1183
  H  H628  1  0.188000  0.416000  0.562600  1.0  0.0869
  H  H629  1  0.064900  0.385300  0.854300  1.0  0.1024
  H  H630  1  0.060000  0.391600  0.804000  1.0  0.1207
  H  H631  1  0.106200  0.398000  0.750000  1.0  0.1131
  H  H632  1  0.165100  0.385900  0.800300  1.0  0.0935
  H  H633  1  0.354700  0.362700  0.705900  1.0  0.0889
  H  H634  1  0.307000  0.364600  0.758800  1.0  0.1245
  H  H635  1  0.249400  0.377600  0.760000  1.0  0.1118
  H  H636  1  0.293500  0.381900  0.656500  1.0  0.0945
  H  H637  1  0.447200  0.319600  0.601200  1.0  0.0859
  H  H638  1  0.494600  0.309600  0.548800  1.0  0.1233
  H  H639  1  0.498600  0.358600  0.495000  1.0  0.113
  H  H640  1  0.405000  0.419600  0.547600  1.0  0.0845
  H  H641  1  0.395700  0.150100  0.786900  1.0  0.0894
  H  H642  1  0.427100  0.237500  0.728700  1.0  0.123
  H  H643  1  0.432300  0.231100  0.780300  1.0  0.1164
  H  H644  1  0.416000  0.188000  0.833400  1.0  0.0865
  H  H645  1  0.385300  0.064900  0.695500  1.0  0.1028
  H  H646  1  0.391600  0.060000  0.744400  1.0  0.1236
  H  H647  1  0.398000  0.106200  0.745800  1.0  0.1124
  H  H648  1  0.385900  0.165100  0.648700  1.0  0.0946
  H  H649  1  0.362700  0.354700  0.576700  1.0  0.0879
  H  H650  1  0.364600  0.307000  0.569600  1.0  0.1245
  H  H651  1  0.377600  0.249400  0.613000  1.0  0.1119
  H  H652  1  0.381900  0.293500  0.668100  1.0  0.0934
  H  H653  1  0.319600  0.447200  0.632000  1.0  0.0871
  H  H654  1  0.309600  0.494600  0.647000  1.0  0.1225
  H  H655  1  0.358600  0.498600  0.647800  1.0  0.1125
  H  H656  1  0.419600  0.405000  0.627800  1.0  0.0832
  H  H657  1  0.786900  0.667300  0.395700  1.0  0.0888
  H  H658  1  0.728700  0.606700  0.427100  1.0  0.1247
  H  H659  1  0.780300  0.556300  0.432300  1.0  0.1194
  H  H660  1  0.833400  0.562600  0.416000  1.0  0.087
  H  H661  1  0.695500  0.854300  0.385300  1.0  0.1003
  H  H662  1  0.744400  0.804000  0.391600  1.0  0.1196
  H  H663  1  0.745800  0.750000  0.398000  1.0  0.1131
  H  H664  1  0.648700  0.800300  0.385900  1.0  0.0934
  H  H665  1  0.576700  0.705900  0.362700  1.0  0.0854
  H  H666  1  0.569600  0.758800  0.364600  1.0  0.1265
  H  H667  1  0.613000  0.760000  0.377600  1.0  0.1108
  H  H668  1  0.668100  0.656500  0.381900  1.0  0.0914
  H  H669  1  0.632000  0.601200  0.319600  1.0  0.0893
  H  H670  1  0.647000  0.548800  0.309600  1.0  0.12
  H  H671  1  0.647800  0.495000  0.358600  1.0  0.1134
  H  H672  1  0.627800  0.547600  0.419600  1.0  0.0852
  H  H673  1  0.667300  0.786900  0.150100  1.0  0.0886
  H  H674  1  0.606700  0.728700  0.237500  1.0  0.1225
  H  H675  1  0.556300  0.780300  0.231100  1.0  0.1152
  H  H676  1  0.562600  0.833400  0.188000  1.0  0.0878
  H  H677  1  0.854300  0.695500  0.064900  1.0  0.1009
  H  H678  1  0.804000  0.744400  0.060000  1.0  0.1211
  H  H679  1  0.750000  0.745800  0.106200  1.0  0.1135
  H  H680  1  0.800300  0.648700  0.165100  1.0  0.0944
  H  H681  1  0.705900  0.576700  0.354700  1.0  0.087
  H  H682  1  0.758800  0.569600  0.307000  1.0  0.1249
  H  H683  1  0.760000  0.613000  0.249400  1.0  0.1112
  H  H684  1  0.656500  0.668100  0.293500  1.0  0.0926
  H  H685  1  0.601200  0.632000  0.447200  1.0  0.0895
  H  H686  1  0.548800  0.647000  0.494600  1.0  0.1198
  H  H687  1  0.495000  0.647800  0.498600  1.0  0.1139
  H  H688  1  0.547600  0.627800  0.405000  1.0  0.0855
  H  H689  1  0.786900  0.150100  0.667300  1.0  0.0889
  H  H690  1  0.728700  0.237500  0.606700  1.0  0.1239
  H  H691  1  0.780300  0.231100  0.556300  1.0  0.1157
  H  H692  1  0.833400  0.188000  0.562600  1.0  0.0843
  H  H693  1  0.695500  0.064900  0.854300  1.0  0.1026
  H  H694  1  0.744400  0.060000  0.804000  1.0  0.1216
  H  H695  1  0.745800  0.106200  0.750000  1.0  0.1121
  H  H696  1  0.648700  0.165100  0.800300  1.0  0.0948
  H  H697  1  0.576700  0.354700  0.705900  1.0  0.0875
  H  H698  1  0.569600  0.307000  0.758800  1.0  0.1241
  H  H699  1  0.613000  0.249400  0.760000  1.0  0.1111
  H  H700  1  0.668100  0.293500  0.656500  1.0  0.0913
  H  H701  1  0.632000  0.447200  0.601200  1.0  0.0895
  H  H702  1  0.647000  0.494600  0.548800  1.0  0.1217
  H  H703  1  0.647800  0.498600  0.495000  1.0  0.1135
  H  H704  1  0.627800  0.405000  0.547600  1.0  0.0841
  H  H705  1  0.667300  0.395700  0.786900  1.0  0.0876
  H  H706  1  0.606700  0.427100  0.728700  1.0  0.1239
  H  H707  1  0.556300  0.432300  0.780300  1.0  0.1166
  H  H708  1  0.562600  0.416000  0.833400  1.0  0.0862
  H  H709  1  0.854300  0.385300  0.695500  1.0  0.1022
  H  H710  1  0.804000  0.391600  0.744400  1.0  0.1191
  H  H711  1  0.750000  0.398000  0.745800  1.0  0.1132
  H  H712  1  0.800300  0.385900  0.648700  1.0  0.0962
  H  H713  1  0.705900  0.362700  0.576700  1.0  0.0849
  H  H714  1  0.758800  0.364600  0.569600  1.0  0.1259
  H  H715  1  0.760000  0.377600  0.613000  1.0  0.1112
  H  H716  1  0.656500  0.381900  0.668100  1.0  0.0917
  H  H717  1  0.601200  0.319600  0.632000  1.0  0.0884
  H  H718  1  0.548800  0.309600  0.647000  1.0  0.1237
  H  H719  1  0.495000  0.358600  0.647800  1.0  0.1146
  H  H720  1  0.547600  0.419600  0.627800  1.0  0.0847
  H  H721  1  0.150100  0.786900  0.395700  1.0  0.0886
  H  H722  1  0.237500  0.728700  0.427100  1.0  0.1239
  H  H723  1  0.231100  0.780300  0.432300  1.0  0.1168
  H  H724  1  0.188000  0.833400  0.416000  1.0  0.0844
  H  H725  1  0.064900  0.695500  0.385300  1.0  0.1014
  H  H726  1  0.060000  0.744400  0.391600  1.0  0.1224
  H  H727  1  0.106200  0.745800  0.398000  1.0  0.111
  H  H728  1  0.165100  0.648700  0.385900  1.0  0.0946
  H  H729  1  0.354700  0.576700  0.362700  1.0  0.0885
  H  H730  1  0.307000  0.569600  0.364600  1.0  0.1257
  H  H731  1  0.249400  0.613000  0.377600  1.0  0.1109
  H  H732  1  0.293500  0.668100  0.381900  1.0  0.0929
  H  H733  1  0.447200  0.632000  0.319600  1.0  0.089
  H  H734  1  0.494600  0.647000  0.309600  1.0  0.1209
  H  H735  1  0.498600  0.647800  0.358600  1.0  0.1132
  H  H736  1  0.405000  0.627800  0.419600  1.0  0.0829
  H  H737  1  0.395700  0.667300  0.150100  1.0  0.0891
  H  H738  1  0.427100  0.606700  0.237500  1.0  0.1239
  H  H739  1  0.432300  0.556300  0.231100  1.0  0.1174
  H  H740  1  0.416000  0.562600  0.188000  1.0  0.0884
  H  H741  1  0.385300  0.854300  0.064900  1.0  0.1029
  H  H742  1  0.391600  0.804000  0.060000  1.0  0.118
  H  H743  1  0.398000  0.750000  0.106200  1.0  0.1124
  H  H744  1  0.385900  0.800300  0.165100  1.0  0.0955
  H  H745  1  0.362700  0.705900  0.354700  1.0  0.0884
  H  H746  1  0.364600  0.758800  0.307000  1.0  0.1248
  H  H747  1  0.377600  0.760000  0.249400  1.0  0.1117
  H  H748  1  0.381900  0.656500  0.293500  1.0  0.0918
  H  H749  1  0.319600  0.601200  0.447200  1.0  0.0878
  H  H750  1  0.309600  0.548800  0.494600  1.0  0.1206
  H  H751  1  0.358600  0.495000  0.498600  1.0  0.1127
  H  H752  1  0.419600  0.547600  0.405000  1.0  0.0836
  H  H753  1  0.395700  0.786900  0.667300  1.0  0.0898
  H  H754  1  0.427100  0.728700  0.606700  1.0  0.1227
  H  H755  1  0.432300  0.780300  0.556300  1.0  0.1167
  H  H756  1  0.416000  0.833400  0.562600  1.0  0.0863
  H  H757  1  0.385300  0.695500  0.854300  1.0  0.1026
  H  H758  1  0.391600  0.744400  0.804000  1.0  0.1206
  H  H759  1  0.398000  0.745800  0.750000  1.0  0.1123
  H  H760  1  0.385900  0.648700  0.800300  1.0  0.0948
  H  H761  1  0.362700  0.576700  0.705900  1.0  0.0848
  H  H762  1  0.364600  0.569600  0.758800  1.0  0.1268
  H  H763  1  0.377600  0.613000  0.760000  1.0  0.1121
  H  H764  1  0.381900  0.668100  0.656500  1.0  0.0928
  H  H765  1  0.319600  0.632000  0.601200  1.0  0.0878
  H  H766  1  0.309600  0.647000  0.548800  1.0  0.1213
  H  H767  1  0.358600  0.647800  0.495000  1.0  0.1138
  H  H768  1  0.419600  0.627800  0.547600  1.0  0.0834
  H  H769  1  0.150100  0.667300  0.786900  1.0  0.0891
  H  H770  1  0.237500  0.606700  0.728700  1.0  0.1238
  H  H771  1  0.231100  0.556300  0.780300  1.0  0.1184
  H  H772  1  0.188000  0.562600  0.833400  1.0  0.0874
  H  H773  1  0.064900  0.854300  0.695500  1.0  0.1032
  H  H774  1  0.060000  0.804000  0.744400  1.0  0.1201
  H  H775  1  0.106200  0.750000  0.745800  1.0  0.1118
  H  H776  1  0.165100  0.800300  0.648700  1.0  0.0937
  H  H777  1  0.354700  0.705900  0.576700  1.0  0.0871
  H  H778  1  0.307000  0.758800  0.569600  1.0  0.1265
  H  H779  1  0.249400  0.760000  0.613000  1.0  0.1125
  H  H780  1  0.293500  0.656500  0.668100  1.0  0.0932
  H  H781  1  0.447200  0.601200  0.632000  1.0  0.087
  H  H782  1  0.494600  0.548800  0.647000  1.0  0.1207
  H  H783  1  0.498600  0.495000  0.647800  1.0  0.1134
  H  H784  1  0.405000  0.547600  0.627800  1.0  0.0832
  H  H785  1  0.667300  0.150100  0.395700  1.0  0.0886
  H  H786  1  0.606700  0.237500  0.427100  1.0  0.1229
  H  H787  1  0.556300  0.231100  0.432300  1.0  0.1171
  H  H788  1  0.562600  0.188000  0.416000  1.0  0.086
  H  H789  1  0.854300  0.064900  0.385300  1.0  0.1022
  H  H790  1  0.804000  0.060000  0.391600  1.0  0.1217
  H  H791  1  0.750000  0.106200  0.398000  1.0  0.1127
  H  H792  1  0.800300  0.165100  0.385900  1.0  0.0941
  H  H793  1  0.705900  0.354700  0.362700  1.0  0.0874
  H  H794  1  0.758800  0.307000  0.364600  1.0  0.1249
  H  H795  1  0.760000  0.249400  0.377600  1.0  0.1111
  H  H796  1  0.656500  0.293500  0.381900  1.0  0.0916
  H  H797  1  0.601200  0.447200  0.319600  1.0  0.0881
  H  H798  1  0.548800  0.494600  0.309600  1.0  0.1225
  H  H799  1  0.495000  0.498600  0.358600  1.0  0.1149
  H  H800  1  0.547600  0.405000  0.419600  1.0  0.0848
  H  H801  1  0.786900  0.395700  0.150100  1.0  0.0895
  H  H802  1  0.728700  0.427100  0.237500  1.0  0.1234
  H  H803  1  0.780300  0.432300  0.231100  1.0  0.1146
  H  H804  1  0.833400  0.416000  0.188000  1.0  0.0859
  H  H805  1  0.695500  0.385300  0.064900  1.0  0.1026
  H  H806  1  0.744400  0.391600  0.060000  1.0  0.1216
  H  H807  1  0.745800  0.398000  0.106200  1.0  0.112
  H  H808  1  0.648700  0.385900  0.165100  1.0  0.0942
  H  H809  1  0.576700  0.362700  0.354700  1.0  0.085
  H  H810  1  0.569600  0.364600  0.307000  1.0  0.1277
  H  H811  1  0.613000  0.377600  0.249400  1.0  0.1121
  H  H812  1  0.668100  0.381900  0.293500  1.0  0.0914
  H  H813  1  0.632000  0.319600  0.447200  1.0  0.0873
  H  H814  1  0.647000  0.309600  0.494600  1.0  0.1235
  H  H815  1  0.647800  0.358600  0.498600  1.0  0.1141
  H  H816  1  0.627800  0.419600  0.405000  1.0  0.0843
  C  C817  1  0.539220  0.901660  0.143160  1.0  0.2213
  C  C818  1  0.667460  0.902180  0.285860  1.0  0.1605
  C  C819  1  0.693620  0.910100  0.253860  1.0  -0.1241
  C  C820  1  0.718890  0.921470  0.250770  1.0  -0.0505
  C  C821  1  0.715260  0.923940  0.281200  1.0  -0.1615
  C  C822  1  0.689190  0.914530  0.312730  1.0  0.1746
  C  C823  1  0.584850  0.886690  0.195850  1.0  0.1547
  C  C824  1  0.581680  0.891020  0.224520  1.0  -0.1493
  C  C825  1  0.608900  0.894580  0.225500  1.0  -0.0807
  C  C826  1  0.640780  0.893200  0.196700  1.0  -0.1674
  C  C827  1  0.643260  0.887540  0.168380  1.0  0.1832
  C  C828  1  0.671890  0.895210  0.197290  1.0  0.4171
  C  C829  1  0.696470  0.904110  0.222630  1.0  0.2779
  C  C830  1  0.730100  0.891200  0.172200  1.0  0.3416
  C  C831  1  0.831660  0.867360  0.094520  1.0  0.1654
  C  C832  1  0.803480  0.868720  0.089800  1.0  -0.178
  C  C833  1  0.769510  0.876450  0.115470  1.0  0.0017
  C  C834  1  0.765260  0.882360  0.143720  1.0  -0.1345
  C  C835  1  0.796180  0.879120  0.147400  1.0  0.1445
  C  C836  1  0.947920  0.838760  0.134540  1.0  0.1447
  C  C837  1  0.976890  0.832710  0.142490  1.0  -0.112
  C  C838  1  0.978850  0.861450  0.143550  1.0  0.0113
  C  C839  1  0.951940  0.894240  0.138380  1.0  -0.1504
  C  C840  1  0.923590  0.896970  0.131650  1.0  0.1928
  C  C841  1  0.952850  0.925770  0.138730  1.0  0.3818
  C  C842  1  0.929250  0.823730  0.077150  1.0  0.2755
  C  C843  1  0.901660  0.539220  0.415960  1.0  0.2218
  C  C844  1  0.902180  0.667460  0.144500  1.0  0.1604
  C  C845  1  0.910100  0.693620  0.142420  1.0  -0.1242
  C  C846  1  0.921470  0.718890  0.108870  1.0  -0.0523
  C  C847  1  0.923940  0.715260  0.079600  1.0  -0.1616
  C  C848  1  0.914530  0.689190  0.083550  1.0  0.1727
  C  C849  1  0.886690  0.584850  0.332610  1.0  0.1515
  C  C850  1  0.891020  0.581680  0.302780  1.0  -0.1559
  C  C851  1  0.894580  0.608900  0.271020  1.0  -0.0824
  C  C852  1  0.893200  0.640780  0.269320  1.0  -0.1701
  C  C853  1  0.887540  0.643260  0.300820  1.0  0.1861
  C  C854  1  0.895210  0.671890  0.235610  1.0  0.4184
  C  C855  1  0.904110  0.696470  0.176790  1.0  0.2792
  C  C856  1  0.891200  0.730100  0.206500  1.0  0.3409
  C  C857  1  0.867360  0.831660  0.206460  1.0  0.1627
  C  C858  1  0.868720  0.803480  0.238000  1.0  -0.176
  C  C859  1  0.876450  0.769510  0.238570  1.0  -0.0007
  C  C860  1  0.882360  0.765260  0.208660  1.0  -0.1349
  C  C861  1  0.879120  0.796180  0.177300  1.0  0.1445
  C  C862  1  0.838760  0.947920  0.078780  1.0  0.1452
  C  C863  1  0.832710  0.976890  0.047910  1.0  -0.1177
  C  C864  1  0.861450  0.978850  0.016150  1.0  0.0108
  C  C865  1  0.894240  0.951940  0.015440  1.0  -0.1486
  C  C866  1  0.896970  0.923590  0.047790  1.0  0.198
  C  C867  1  0.925770  0.952850  0.982650  1.0  0.382
  C  C868  1  0.823730  0.929250  0.169870  1.0  0.2755
  C  C869  1  0.143160  0.415960  0.539220  1.0  0.2194
  C  C870  1  0.285860  0.144500  0.667460  1.0  0.1539
  C  C871  1  0.253860  0.142420  0.693620  1.0  -0.1233
  C  C872  1  0.250770  0.108870  0.718890  1.0  -0.0526
  C  C873  1  0.281200  0.079600  0.715260  1.0  -0.1657
  C  C874  1  0.312730  0.083550  0.689190  1.0  0.1709
  C  C875  1  0.195850  0.332610  0.584850  1.0  0.1499
  C  C876  1  0.224520  0.302780  0.581680  1.0  -0.1392
  C  C877  1  0.225500  0.271020  0.608900  1.0  -0.088
  C  C878  1  0.196700  0.269320  0.640780  1.0  -0.1689
  C  C879  1  0.168380  0.300820  0.643260  1.0  0.1802
  C  C880  1  0.197290  0.235610  0.671890  1.0  0.4178
  C  C881  1  0.222630  0.176790  0.696470  1.0  0.2797
  C  C882  1  0.172200  0.206500  0.730100  1.0  0.3411
  C  C883  1  0.094520  0.206460  0.831660  1.0  0.1675
  C  C884  1  0.089800  0.238000  0.803480  1.0  -0.1735
  C  C885  1  0.115470  0.238570  0.769510  1.0  0.0007
  C  C886  1  0.143720  0.208660  0.765260  1.0  -0.1346
  C  C887  1  0.147400  0.177300  0.796180  1.0  0.1465
  C  C888  1  0.134540  0.078780  0.947920  1.0  0.1438
  C  C889  1  0.142490  0.047910  0.976890  1.0  -0.1176
  C  C890  1  0.143550  0.016150  0.978850  1.0  0.0111
  C  C891  1  0.138380  0.015440  0.951940  1.0  -0.1485
  C  C892  1  0.131650  0.047790  0.923590  1.0  0.195
  C  C893  1  0.138730  0.982650  0.952850  1.0  0.382
  C  C894  1  0.077150  0.169870  0.929250  1.0  0.2772
  C  C895  1  0.415960  0.143160  0.901660  1.0  0.2201
  C  C896  1  0.144500  0.285860  0.902180  1.0  0.1562
  C  C897  1  0.142420  0.253860  0.910100  1.0  -0.1247
  C  C898  1  0.108870  0.250770  0.921470  1.0  -0.0521
  C  C899  1  0.079600  0.281200  0.923940  1.0  -0.1626
  C  C900  1  0.083550  0.312730  0.914530  1.0  0.1722
  C  C901  1  0.332610  0.195850  0.886690  1.0  0.1493
  C  C902  1  0.302780  0.224520  0.891020  1.0  -0.1517
  C  C903  1  0.271020  0.225500  0.894580  1.0  -0.0857
  C  C904  1  0.269320  0.196700  0.893200  1.0  -0.1698
  C  C905  1  0.300820  0.168380  0.887540  1.0  0.1799
  C  C906  1  0.235610  0.197290  0.895210  1.0  0.4175
  C  C907  1  0.176790  0.222630  0.904110  1.0  0.2793
  C  C908  1  0.206500  0.172200  0.891200  1.0  0.3414
  C  C909  1  0.206460  0.094520  0.867360  1.0  0.1693
  C  C910  1  0.238000  0.089800  0.868720  1.0  -0.1729
  C  C911  1  0.238570  0.115470  0.876450  1.0  0.0039
  C  C912  1  0.208660  0.143720  0.882360  1.0  -0.1345
  C  C913  1  0.177300  0.147400  0.879120  1.0  0.1434
  C  C914  1  0.078780  0.134540  0.838760  1.0  0.142
  C  C915  1  0.047910  0.142490  0.832710  1.0  -0.1182
  C  C916  1  0.016150  0.143550  0.861450  1.0  0.0112
  C  C917  1  0.015440  0.138380  0.894240  1.0  -0.1504
  C  C918  1  0.047790  0.131650  0.896970  1.0  0.1917
  C  C919  1  0.982650  0.138730  0.925770  1.0  0.3821
  C  C920  1  0.169870  0.077150  0.823730  1.0  0.2756
  C  C921  1  0.143160  0.539220  0.901660  1.0  0.2265
  C  C922  1  0.285860  0.667460  0.902180  1.0  0.1533
  C  C923  1  0.253860  0.693620  0.910100  1.0  -0.1242
  C  C924  1  0.250770  0.718890  0.921470  1.0  -0.0537
  C  C925  1  0.281200  0.715260  0.923940  1.0  -0.1664
  C  C926  1  0.312730  0.689190  0.914530  1.0  0.1732
  C  C927  1  0.195850  0.584850  0.886690  1.0  0.1473
  C  C928  1  0.224520  0.581680  0.891020  1.0  -0.1501
  C  C929  1  0.225500  0.608900  0.894580  1.0  -0.0846
  C  C930  1  0.196700  0.640780  0.893200  1.0  -0.1694
  C  C931  1  0.168380  0.643260  0.887540  1.0  0.1883
  C  C932  1  0.197290  0.671890  0.895210  1.0  0.4178
  C  C933  1  0.222630  0.696470  0.904110  1.0  0.2782
  C  C934  1  0.172200  0.730100  0.891200  1.0  0.341
  C  C935  1  0.094520  0.831660  0.867360  1.0  0.1649
  C  C936  1  0.089800  0.803480  0.868720  1.0  -0.1798
  C  C937  1  0.115470  0.769510  0.876450  1.0  0.0028
  C  C938  1  0.143720  0.765260  0.882360  1.0  -0.1336
  C  C939  1  0.147400  0.796180  0.879120  1.0  0.1448
  C  C940  1  0.134540  0.947920  0.838760  1.0  0.1439
  C  C941  1  0.142490  0.976890  0.832710  1.0  -0.1168
  C  C942  1  0.143550  0.978850  0.861450  1.0  0.0119
  C  C943  1  0.138380  0.951940  0.894240  1.0  -0.1496
  C  C944  1  0.131650  0.923590  0.896970  1.0  0.202
  C  C945  1  0.138730  0.952850  0.925770  1.0  0.3816
  C  C946  1  0.077150  0.929250  0.823730  1.0  0.2728
  C  C947  1  0.415960  0.901660  0.539220  1.0  0.219
  C  C948  1  0.144500  0.902180  0.667460  1.0  0.1625
  C  C949  1  0.142420  0.910100  0.693620  1.0  -0.1212
  C  C950  1  0.108870  0.921470  0.718890  1.0  -0.0524
  C  C951  1  0.079600  0.923940  0.715260  1.0  -0.1628
  C  C952  1  0.083550  0.914530  0.689190  1.0  0.1771
  C  C953  1  0.332610  0.886690  0.584850  1.0  0.1526
  C  C954  1  0.302780  0.891020  0.581680  1.0  -0.1407
  C  C955  1  0.271020  0.894580  0.608900  1.0  -0.0826
  C  C956  1  0.269320  0.893200  0.640780  1.0  -0.1696
  C  C957  1  0.300820  0.887540  0.643260  1.0  0.1824
  C  C958  1  0.235610  0.895210  0.671890  1.0  0.4173
  C  C959  1  0.176790  0.904110  0.696470  1.0  0.2791
  C  C960  1  0.206500  0.891200  0.730100  1.0  0.3413
  C  C961  1  0.206460  0.867360  0.831660  1.0  0.1694
  C  C962  1  0.238000  0.868720  0.803480  1.0  -0.177
  C  C963  1  0.238570  0.876450  0.769510  1.0  0.0038
  C  C964  1  0.208660  0.882360  0.765260  1.0  -0.1341
  C  C965  1  0.177300  0.879120  0.796180  1.0  0.1452
  C  C966  1  0.078780  0.838760  0.947920  1.0  0.1399
  C  C967  1  0.047910  0.832710  0.976890  1.0  -0.1226
  C  C968  1  0.016150  0.861450  0.978850  1.0  0.01
  C  C969  1  0.015440  0.894240  0.951940  1.0  -0.1501
  C  C970  1  0.047790  0.896970  0.923590  1.0  0.19
  C  C971  1  0.982650  0.925770  0.952850  1.0  0.3822
  C  C972  1  0.169870  0.823730  0.929250  1.0  0.2775
  C  C973  1  0.539220  0.143160  0.415960  1.0  0.2247
  C  C974  1  0.667460  0.285860  0.144500  1.0  0.1549
  C  C975  1  0.693620  0.253860  0.142420  1.0  -0.1248
  C  C976  1  0.718890  0.250770  0.108870  1.0  -0.0545
  C  C977  1  0.715260  0.281200  0.079600  1.0  -0.1573
  C  C978  1  0.689190  0.312730  0.083550  1.0  0.1743
  C  C979  1  0.584850  0.195850  0.332610  1.0  0.1497
  C  C980  1  0.581680  0.224520  0.302780  1.0  -0.1548
  C  C981  1  0.608900  0.225500  0.271020  1.0  -0.084
  C  C982  1  0.640780  0.196700  0.269320  1.0  -0.1668
  C  C983  1  0.643260  0.168380  0.300820  1.0  0.1927
  C  C984  1  0.671890  0.197290  0.235610  1.0  0.4173
  C  C985  1  0.696470  0.222630  0.176790  1.0  0.279
  C  C986  1  0.730100  0.172200  0.206500  1.0  0.3415
  C  C987  1  0.831660  0.094520  0.206460  1.0  0.1625
  C  C988  1  0.803480  0.089800  0.238000  1.0  -0.1826
  C  C989  1  0.769510  0.115470  0.238570  1.0  0.0026
  C  C990  1  0.765260  0.143720  0.208660  1.0  -0.1345
  C  C991  1  0.796180  0.147400  0.177300  1.0  0.1417
  C  C992  1  0.947920  0.134540  0.078780  1.0  0.1439
  C  C993  1  0.976890  0.142490  0.047910  1.0  -0.1167
  C  C994  1  0.978850  0.143550  0.016150  1.0  0.0135
  C  C995  1  0.951940  0.138380  0.015440  1.0  -0.1474
  C  C996  1  0.923590  0.131650  0.047790  1.0  0.1988
  C  C997  1  0.952850  0.138730  0.982650  1.0  0.382
  C  C998  1  0.929250  0.077150  0.169870  1.0  0.2765
  C  C999  1  0.901660  0.415960  0.143160  1.0  0.2189
  C  C1000  1  0.902180  0.144500  0.285860  1.0  0.164
  C  C1001  1  0.910100  0.142420  0.253860  1.0  -0.124
  C  C1002  1  0.921470  0.108870  0.250770  1.0  -0.0563
  C  C1003  1  0.923940  0.079600  0.281200  1.0  -0.1617
  C  C1004  1  0.914530  0.083550  0.312730  1.0  0.1755
  C  C1005  1  0.886690  0.332610  0.195850  1.0  0.1493
  C  C1006  1  0.891020  0.302780  0.224520  1.0  -0.1431
  C  C1007  1  0.894580  0.271020  0.225500  1.0  -0.0847
  C  C1008  1  0.893200  0.269320  0.196700  1.0  -0.1691
  C  C1009  1  0.887540  0.300820  0.168380  1.0  0.182
  C  C1010  1  0.895210  0.235610  0.197290  1.0  0.4181
  C  C1011  1  0.904110  0.176790  0.222630  1.0  0.2793
  C  C1012  1  0.891200  0.206500  0.172200  1.0  0.3414
  C  C1013  1  0.867360  0.206460  0.094520  1.0  0.1659
  C  C1014  1  0.868720  0.238000  0.089800  1.0  -0.1791
  C  C1015  1  0.876450  0.238570  0.115470  1.0  0.0008
  C  C1016  1  0.882360  0.208660  0.143720  1.0  -0.1357
  C  C1017  1  0.879120  0.177300  0.147400  1.0  0.1504
  C  C1018  1  0.838760  0.078780  0.134540  1.0  0.1431
  C  C1019  1  0.832710  0.047910  0.142490  1.0  -0.1209
  C  C1020  1  0.861450  0.016150  0.143550  1.0  0.0111
  C  C1021  1  0.894240  0.015440  0.138380  1.0  -0.1485
  C  C1022  1  0.896970  0.047790  0.131650  1.0  0.1924
  C  C1023  1  0.925770  0.982650  0.138730  1.0  0.3818
  C  C1024  1  0.823730  0.169870  0.077150  1.0  0.2739
  C  C1025  1  0.901660  0.143160  0.539220  1.0  0.221
  C  C1026  1  0.902180  0.285860  0.667460  1.0  0.1552
  C  C1027  1  0.910100  0.253860  0.693620  1.0  -0.1247
  C  C1028  1  0.921470  0.250770  0.718890  1.0  -0.0527
  C  C1029  1  0.923940  0.281200  0.715260  1.0  -0.1632
  C  C1030  1  0.914530  0.312730  0.689190  1.0  0.1737
  C  C1031  1  0.886690  0.195850  0.584850  1.0  0.1474
  C  C1032  1  0.891020  0.224520  0.581680  1.0  -0.1546
  C  C1033  1  0.894580  0.225500  0.608900  1.0  -0.0837
  C  C1034  1  0.893200  0.196700  0.640780  1.0  -0.1716
  C  C1035  1  0.887540  0.168380  0.643260  1.0  0.1905
  C  C1036  1  0.895210  0.197290  0.671890  1.0  0.4175
  C  C1037  1  0.904110  0.222630  0.696470  1.0  0.2797
  C  C1038  1  0.891200  0.172200  0.730100  1.0  0.3409
  C  C1039  1  0.867360  0.094520  0.831660  1.0  0.1698
  C  C1040  1  0.868720  0.089800  0.803480  1.0  -0.1857
  C  C1041  1  0.876450  0.115470  0.769510  1.0  0.0042
  C  C1042  1  0.882360  0.143720  0.765260  1.0  -0.131
  C  C1043  1  0.879120  0.147400  0.796180  1.0  0.1433
  C  C1044  1  0.838760  0.134540  0.947920  1.0  0.1424
  C  C1045  1  0.832710  0.142490  0.976890  1.0  -0.1175
  C  C1046  1  0.861450  0.143550  0.978850  1.0  0.0115
  C  C1047  1  0.894240  0.138380  0.951940  1.0  -0.1451
  C  C1048  1  0.896970  0.131650  0.923590  1.0  0.1914
  C  C1049  1  0.925770  0.138730  0.952850  1.0  0.3815
  C  C1050  1  0.823730  0.077150  0.929250  1.0  0.279
  C  C1051  1  0.539220  0.415960  0.901660  1.0  0.2238
  C  C1052  1  0.667460  0.144500  0.902180  1.0  0.163
  C  C1053  1  0.693620  0.142420  0.910100  1.0  -0.1228
  C  C1054  1  0.718890  0.108870  0.921470  1.0  -0.0529
  C  C1055  1  0.715260  0.079600  0.923940  1.0  -0.1625
  C  C1056  1  0.689190  0.083550  0.914530  1.0  0.1709
  C  C1057  1  0.584850  0.332610  0.886690  1.0  0.1521
  C  C1058  1  0.581680  0.302780  0.891020  1.0  -0.1457
  C  C1059  1  0.608900  0.271020  0.894580  1.0  -0.0817
  C  C1060  1  0.640780  0.269320  0.893200  1.0  -0.1703
  C  C1061  1  0.643260  0.300820  0.887540  1.0  0.1791
  C  C1062  1  0.671890  0.235610  0.895210  1.0  0.4175
  C  C1063  1  0.696470  0.176790  0.904110  1.0  0.2784
  C  C1064  1  0.730100  0.206500  0.891200  1.0  0.3415
  C  C1065  1  0.831660  0.206460  0.867360  1.0  0.1642
  C  C1066  1  0.803480  0.238000  0.868720  1.0  -0.1808
  C  C1067  1  0.769510  0.238570  0.876450  1.0  -0.0009
  C  C1068  1  0.765260  0.208660  0.882360  1.0  -0.1344
  C  C1069  1  0.796180  0.177300  0.879120  1.0  0.1451
  C  C1070  1  0.947920  0.078780  0.838760  1.0  0.1438
  C  C1071  1  0.976890  0.047910  0.832710  1.0  -0.11
  C  C1072  1  0.978850  0.016150  0.861450  1.0  0.0131
  C  C1073  1  0.951940  0.015440  0.894240  1.0  -0.1506
  C  C1074  1  0.923590  0.047790  0.896970  1.0  0.1944
  C  C1075  1  0.952850  0.982650  0.925770  1.0  0.3823
  C  C1076  1  0.929250  0.169870  0.823730  1.0  0.2808
  C  C1077  1  0.415960  0.539220  0.143160  1.0  0.2231
  C  C1078  1  0.144500  0.667460  0.285860  1.0  0.1612
  C  C1079  1  0.142420  0.693620  0.253860  1.0  -0.1232
  C  C1080  1  0.108870  0.718890  0.250770  1.0  -0.0552
  C  C1081  1  0.079600  0.715260  0.281200  1.0  -0.1614
  C  C1082  1  0.083550  0.689190  0.312730  1.0  0.1721
  C  C1083  1  0.332610  0.584850  0.195850  1.0  0.1476
  C  C1084  1  0.302780  0.581680  0.224520  1.0  -0.1539
  C  C1085  1  0.271020  0.608900  0.225500  1.0  -0.0872
  C  C1086  1  0.269320  0.640780  0.196700  1.0  -0.1702
  C  C1087  1  0.300820  0.643260  0.168380  1.0  0.1791
  C  C1088  1  0.235610  0.671890  0.197290  1.0  0.4181
  C  C1089  1  0.176790  0.696470  0.222630  1.0  0.2787
  C  C1090  1  0.206500  0.730100  0.172200  1.0  0.3412
  C  C1091  1  0.206460  0.831660  0.094520  1.0  0.1648
  C  C1092  1  0.238000  0.803480  0.089800  1.0  -0.1696
  C  C1093  1  0.238570  0.769510  0.115470  1.0  0.0027
  C  C1094  1  0.208660  0.765260  0.143720  1.0  -0.135
  C  C1095  1  0.177300  0.796180  0.147400  1.0  0.1434
  C  C1096  1  0.078780  0.947920  0.134540  1.0  0.1447
  C  C1097  1  0.047910  0.976890  0.142490  1.0  -0.12
  C  C1098  1  0.016150  0.978850  0.143550  1.0  0.0127
  C  C1099  1  0.015440  0.951940  0.138380  1.0  -0.151
  C  C1100  1  0.047790  0.923590  0.131650  1.0  0.1936
  C  C1101  1  0.982650  0.952850  0.138730  1.0  0.3819
  C  C1102  1  0.169870  0.929250  0.077150  1.0  0.2793
  C  C1103  1  0.143160  0.901660  0.415960  1.0  0.2165
  C  C1104  1  0.285860  0.902180  0.144500  1.0  0.1537
  C  C1105  1  0.253860  0.910100  0.142420  1.0  -0.1242
  C  C1106  1  0.250770  0.921470  0.108870  1.0  -0.0532
  C  C1107  1  0.281200  0.923940  0.079600  1.0  -0.1597
  C  C1108  1  0.312730  0.914530  0.083550  1.0  0.1734
  C  C1109  1  0.195850  0.886690  0.332610  1.0  0.1518
  C  C1110  1  0.224520  0.891020  0.302780  1.0  -0.1448
  C  C1111  1  0.225500  0.894580  0.271020  1.0  -0.0806
  C  C1112  1  0.196700  0.893200  0.269320  1.0  -0.169
  C  C1113  1  0.168380  0.887540  0.300820  1.0  0.1921
  C  C1114  1  0.197290  0.895210  0.235610  1.0  0.4171
  C  C1115  1  0.222630  0.904110  0.176790  1.0  0.2795
  C  C1116  1  0.172200  0.891200  0.206500  1.0  0.3408
  C  C1117  1  0.094520  0.867360  0.206460  1.0  0.1709
  C  C1118  1  0.089800  0.868720  0.238000  1.0  -0.1771
  C  C1119  1  0.115470  0.876450  0.238570  1.0  0.0026
  C  C1120  1  0.143720  0.882360  0.208660  1.0  -0.1315
  C  C1121  1  0.147400  0.879120  0.177300  1.0  0.1448
  C  C1122  1  0.134540  0.838760  0.078780  1.0  0.1423
  C  C1123  1  0.142490  0.832710  0.047910  1.0  -0.1229
  C  C1124  1  0.143550  0.861450  0.016150  1.0  0.0137
  C  C1125  1  0.138380  0.894240  0.015440  1.0  -0.1448
  C  C1126  1  0.131650  0.896970  0.047790  1.0  0.1974
  C  C1127  1  0.138730  0.925770  0.982650  1.0  0.382
  C  C1128  1  0.077150  0.823730  0.169870  1.0  0.2799
  C  C1129  1  0.710780  0.348340  0.834040  1.0  0.2268
  C  C1130  1  0.582540  0.347820  0.105500  1.0  0.1577
  C  C1131  1  0.556380  0.339900  0.107580  1.0  -0.1239
  C  C1132  1  0.531110  0.328530  0.141130  1.0  -0.0506
  C  C1133  1  0.534740  0.326060  0.170400  1.0  -0.166
  C  C1134  1  0.560810  0.335470  0.166450  1.0  0.1756
  C  C1135  1  0.665150  0.363310  0.917390  1.0  0.1563
  C  C1136  1  0.668320  0.358980  0.947220  1.0  -0.1426
  C  C1137  1  0.641100  0.355420  0.978980  1.0  -0.0853
  C  C1138  1  0.609220  0.356800  0.980680  1.0  -0.1675
  C  C1139  1  0.606740  0.362460  0.949180  1.0  0.1833
  C  C1140  1  0.578110  0.354790  0.014390  1.0  0.4171
  C  C1141  1  0.553530  0.345890  0.073210  1.0  0.2779
  C  C1142  1  0.519900  0.358800  0.043500  1.0  0.3421
  C  C1143  1  0.418340  0.382640  0.043540  1.0  0.1658
  C  C1144  1  0.446520  0.381280  0.012000  1.0  -0.1752
  C  C1145  1  0.480490  0.373550  0.011430  1.0  0.0022
  C  C1146  1  0.484740  0.367640  0.041340  1.0  -0.1352
  C  C1147  1  0.453820  0.370880  0.072700  1.0  0.148
  C  C1148  1  0.302080  0.411240  0.171220  1.0  0.1443
  C  C1149  1  0.273110  0.417290  0.202090  1.0  -0.1173
  C  C1150  1  0.271150  0.388550  0.233850  1.0  0.0104
  C  C1151  1  0.298060  0.355760  0.234560  1.0  -0.1512
  C  C1152  1  0.326410  0.353030  0.202210  1.0  0.1978
  C  C1153  1  0.297150  0.324230  0.267350  1.0  0.382
  C  C1154  1  0.320750  0.426270  0.080130  1.0  0.2736
  C  C1155  1  0.348340  0.710780  0.106840  1.0  0.2204
  C  C1156  1  0.347820  0.582540  0.964140  1.0  0.1577
  C  C1157  1  0.339900  0.556380  0.996140  1.0  -0.1232
  C  C1158  1  0.328530  0.531110  0.999230  1.0  -0.0514
  C  C1159  1  0.326060  0.534740  0.968800  1.0  -0.1656
  C  C1160  1  0.335470  0.560810  0.937270  1.0  0.1721
  C  C1161  1  0.363310  0.665150  0.054150  1.0  0.1513
  C  C1162  1  0.358980  0.668320  0.025480  1.0  -0.1502
  C  C1163  1  0.355420  0.641100  0.024500  1.0  -0.0818
  C  C1164  1  0.356800  0.609220  0.053300  1.0  -0.171
  C  C1165  1  0.362460  0.606740  0.081620  1.0  0.1854
  C  C1166  1  0.354790  0.578110  0.052710  1.0  0.418
  C  C1167  1  0.345890  0.553530  0.027370  1.0  0.2796
  C  C1168  1  0.358800  0.519900  0.077800  1.0  0.341
  C  C1169  1  0.382640  0.418340  0.155480  1.0  0.1636
  C  C1170  1  0.381280  0.446520  0.160200  1.0  -0.1735
  C  C1171  1  0.373550  0.480490  0.134530  1.0  0.0013
  C  C1172  1  0.367640  0.484740  0.106280  1.0  -0.1341
  C  C1173  1  0.370880  0.453820  0.102600  1.0  0.1518
  C  C1174  1  0.411240  0.302080  0.115460  1.0  0.146
  C  C1175  1  0.417290  0.273110  0.107510  1.0  -0.1241
  C  C1176  1  0.388550  0.271150  0.106450  1.0  0.0084
  C  C1177  1  0.355760  0.298060  0.111620  1.0  -0.1481
  C  C1178  1  0.353030  0.326410  0.118350  1.0  0.1919
  C  C1179  1  0.324230  0.297150  0.111270  1.0  0.3814
  C  C1180  1  0.426270  0.320750  0.172850  1.0  0.2751
  C  C1181  1  0.106840  0.834040  0.348340  1.0  0.2187
  C  C1182  1  0.964140  0.105500  0.347820  1.0  0.1623
  C  C1183  1  0.996140  0.107580  0.339900  1.0  -0.1239
  C  C1184  1  0.999230  0.141130  0.328530  1.0  -0.0514
  C  C1185  1  0.968800  0.170400  0.326060  1.0  -0.1611
  C  C1186  1  0.937270  0.166450  0.335470  1.0  0.1711
  C  C1187  1  0.054150  0.917390  0.363310  1.0  0.1502
  C  C1188  1  0.025480  0.947220  0.358980  1.0  -0.1502
  C  C1189  1  0.024500  0.978980  0.355420  1.0  -0.084
  C  C1190  1  0.053300  0.980680  0.356800  1.0  -0.1689
  C  C1191  1  0.081620  0.949180  0.362460  1.0  0.185
  C  C1192  1  0.052710  0.014390  0.354790  1.0  0.4174
  C  C1193  1  0.027370  0.073210  0.345890  1.0  0.2799
  C  C1194  1  0.077800  0.043500  0.358800  1.0  0.3409
  C  C1195  1  0.155480  0.043540  0.382640  1.0  0.1662
  C  C1196  1  0.160200  0.012000  0.381280  1.0  -0.1824
  C  C1197  1  0.134530  0.011430  0.373550  1.0  -0.0018
  C  C1198  1  0.106280  0.041340  0.367640  1.0  -0.1346
  C  C1199  1  0.102600  0.072700  0.370880  1.0  0.142
  C  C1200  1  0.115460  0.171220  0.411240  1.0  0.1433
  C  C1201  1  0.107510  0.202090  0.417290  1.0  -0.1148
  C  C1202  1  0.106450  0.233850  0.388550  1.0  0.0132
  C  C1203  1  0.111620  0.234560  0.355760  1.0  -0.1486
  C  C1204  1  0.118350  0.202210  0.353030  1.0  0.2025
  C  C1205  1  0.111270  0.267350  0.324230  1.0  0.3819
  C  C1206  1  0.172850  0.080130  0.426270  1.0  0.2783
  C  C1207  1  0.834040  0.106840  0.710780  1.0  0.2188
  C  C1208  1  0.105500  0.964140  0.582540  1.0  0.1627
  C  C1209  1  0.107580  0.996140  0.556380  1.0  -0.1238
  C  C1210  1  0.141130  0.999230  0.531110  1.0  -0.0509
  C  C1211  1  0.170400  0.968800  0.534740  1.0  -0.1545
  C  C1212  1  0.166450  0.937270  0.560810  1.0  0.1728
  C  C1213  1  0.917390  0.054150  0.665150  1.0  0.1487
  C  C1214  1  0.947220  0.025480  0.668320  1.0  -0.1536
  C  C1215  1  0.978980  0.024500  0.641100  1.0  -0.0828
  C  C1216  1  0.980680  0.053300  0.609220  1.0  -0.1688
  C  C1217  1  0.949180  0.081620  0.606740  1.0  0.191
  C  C1218  1  0.014390  0.052710  0.578110  1.0  0.4169
  C  C1219  1  0.073210  0.027370  0.553530  1.0  0.2794
  C  C1220  1  0.043500  0.077800  0.519900  1.0  0.3412
  C  C1221  1  0.043540  0.155480  0.418340  1.0  0.1678
  C  C1222  1  0.012000  0.160200  0.446520  1.0  -0.1813
  C  C1223  1  0.011430  0.134530  0.480490  1.0  0.002
  C  C1224  1  0.041340  0.106280  0.484740  1.0  -0.1341
  C  C1225  1  0.072700  0.102600  0.453820  1.0  0.1498
  C  C1226  1  0.171220  0.115460  0.302080  1.0  0.1425
  C  C1227  1  0.202090  0.107510  0.273110  1.0  -0.1127
  C  C1228  1  0.233850  0.106450  0.271150  1.0  0.0116
  C  C1229  1  0.234560  0.111620  0.298060  1.0  -0.15
  C  C1230  1  0.202210  0.118350  0.326410  1.0  0.1984
  C  C1231  1  0.267350  0.111270  0.297150  1.0  0.3826
  C  C1232  1  0.080130  0.172850  0.320750  1.0  0.273
  C  C1233  1  0.106840  0.710780  0.834040  1.0  0.2202
  C  C1234  1  0.964140  0.582540  0.105500  1.0  0.1618
  C  C1235  1  0.996140  0.556380  0.107580  1.0  -0.123
  C  C1236  1  0.999230  0.531110  0.141130  1.0  -0.0536
  C  C1237  1  0.968800  0.534740  0.170400  1.0  -0.1632
  C  C1238  1  0.937270  0.560810  0.166450  1.0  0.1734
  C  C1239  1  0.054150  0.665150  0.917390  1.0  0.1478
  C  C1240  1  0.025480  0.668320  0.947220  1.0  -0.1524
  C  C1241  1  0.024500  0.641100  0.978980  1.0  -0.0836
  C  C1242  1  0.053300  0.609220  0.980680  1.0  -0.1682
  C  C1243  1  0.081620  0.606740  0.949180  1.0  0.1848
  C  C1244  1  0.052710  0.578110  0.014390  1.0  0.4175
  C  C1245  1  0.027370  0.553530  0.073210  1.0  0.279
  C  C1246  1  0.077800  0.519900  0.043500  1.0  0.3413
  C  C1247  1  0.155480  0.418340  0.043540  1.0  0.164
  C  C1248  1  0.160200  0.446520  0.012000  1.0  -0.1718
  C  C1249  1  0.134530  0.480490  0.011430  1.0  0.0042
  C  C1250  1  0.106280  0.484740  0.041340  1.0  -0.1339
  C  C1251  1  0.102600  0.453820  0.072700  1.0  0.151
  C  C1252  1  0.115460  0.302080  0.171220  1.0  0.1428
  C  C1253  1  0.107510  0.273110  0.202090  1.0  -0.1225
  C  C1254  1  0.106450  0.271150  0.233850  1.0  0.0101
  C  C1255  1  0.111620  0.298060  0.234560  1.0  -0.1488
  C  C1256  1  0.118350  0.326410  0.202210  1.0  0.1921
  C  C1257  1  0.111270  0.297150  0.267350  1.0  0.3813
  C  C1258  1  0.172850  0.320750  0.080130  1.0  0.2741
  C  C1259  1  0.834040  0.348340  0.106840  1.0  0.2235
  C  C1260  1  0.105500  0.347820  0.964140  1.0  0.1597
  C  C1261  1  0.107580  0.339900  0.996140  1.0  -0.1213
  C  C1262  1  0.141130  0.328530  0.999230  1.0  -0.052
  C  C1263  1  0.170400  0.326060  0.968800  1.0  -0.1603
  C  C1264  1  0.166450  0.335470  0.937270  1.0  0.1786
  C  C1265  1  0.917390  0.363310  0.054150  1.0  0.1513
  C  C1266  1  0.947220  0.358980  0.025480  1.0  -0.1415
  C  C1267  1  0.978980  0.355420  0.024500  1.0  -0.0844
  C  C1268  1  0.980680  0.356800  0.053300  1.0  -0.1701
  C  C1269  1  0.949180  0.362460  0.081620  1.0  0.1895
  C  C1270  1  0.014390  0.354790  0.052710  1.0  0.4167
  C  C1271  1  0.073210  0.345890  0.027370  1.0  0.279
  C  C1272  1  0.043500  0.358800  0.077800  1.0  0.3406
  C  C1273  1  0.043540  0.382640  0.155480  1.0  0.1683
  C  C1274  1  0.012000  0.381280  0.160200  1.0  -0.1824
  C  C1275  1  0.011430  0.373550  0.134530  1.0  0.0024
  C  C1276  1  0.041340  0.367640  0.106280  1.0  -0.1342
  C  C1277  1  0.072700  0.370880  0.102600  1.0  0.146
  C  C1278  1  0.171220  0.411240  0.115460  1.0  0.1398
  C  C1279  1  0.202090  0.417290  0.107510  1.0  -0.1159
  C  C1280  1  0.233850  0.388550  0.106450  1.0  0.0116
  C  C1281  1  0.234560  0.355760  0.111620  1.0  -0.1491
  C  C1282  1  0.202210  0.353030  0.118350  1.0  0.2038
  C  C1283  1  0.267350  0.324230  0.111270  1.0  0.3828
  C  C1284  1  0.080130  0.426270  0.172850  1.0  0.2758
  C  C1285  1  0.710780  0.106840  0.348340  1.0  0.2296
  C  C1286  1  0.582540  0.964140  0.347820  1.0  0.1603
  C  C1287  1  0.556380  0.996140  0.339900  1.0  -0.1226
  C  C1288  1  0.531110  0.999230  0.328530  1.0  -0.0525
  C  C1289  1  0.534740  0.968800  0.326060  1.0  -0.1572
  C  C1290  1  0.560810  0.937270  0.335470  1.0  0.1732
  C  C1291  1  0.665150  0.054150  0.363310  1.0  0.151
  C  C1292  1  0.668320  0.025480  0.358980  1.0  -0.1534
  C  C1293  1  0.641100  0.024500  0.355420  1.0  -0.0833
  C  C1294  1  0.609220  0.053300  0.356800  1.0  -0.1676
  C  C1295  1  0.606740  0.081620  0.362460  1.0  0.1815
  C  C1296  1  0.578110  0.052710  0.354790  1.0  0.4173
  C  C1297  1  0.553530  0.027370  0.345890  1.0  0.2791
  C  C1298  1  0.519900  0.077800  0.358800  1.0  0.342
  C  C1299  1  0.418340  0.155480  0.382640  1.0  0.1637
  C  C1300  1  0.446520  0.160200  0.381280  1.0  -0.179
  C  C1301  1  0.480490  0.134530  0.373550  1.0  0.0049
  C  C1302  1  0.484740  0.106280  0.367640  1.0  -0.1347
  C  C1303  1  0.453820  0.102600  0.370880  1.0  0.1479
  C  C1304  1  0.302080  0.115460  0.411240  1.0  0.144
  C  C1305  1  0.273110  0.107510  0.417290  1.0  -0.1225
  C  C1306  1  0.271150  0.106450  0.388550  1.0  0.0126
  C  C1307  1  0.298060  0.111620  0.355760  1.0  -0.1489
  C  C1308  1  0.326410  0.118350  0.353030  1.0  0.1961
  C  C1309  1  0.297150  0.111270  0.324230  1.0  0.3821
  C  C1310  1  0.320750  0.172850  0.426270  1.0  0.2748
  C  C1311  1  0.348340  0.834040  0.710780  1.0  0.219
  C  C1312  1  0.347820  0.105500  0.582540  1.0  0.1632
  C  C1313  1  0.339900  0.107580  0.556380  1.0  -0.124
  C  C1314  1  0.328530  0.141130  0.531110  1.0  -0.0558
  C  C1315  1  0.326060  0.170400  0.534740  1.0  -0.1691
  C  C1316  1  0.335470  0.166450  0.560810  1.0  0.1757
  C  C1317  1  0.363310  0.917390  0.665150  1.0  0.1486
  C  C1318  1  0.358980  0.947220  0.668320  1.0  -0.1423
  C  C1319  1  0.355420  0.978980  0.641100  1.0  -0.086
  C  C1320  1  0.356800  0.980680  0.609220  1.0  -0.169
  C  C1321  1  0.362460  0.949180  0.606740  1.0  0.1927
  C  C1322  1  0.354790  0.014390  0.578110  1.0  0.4178
  C  C1323  1  0.345890  0.073210  0.553530  1.0  0.28
  C  C1324  1  0.358800  0.043500  0.519900  1.0  0.3411
  C  C1325  1  0.382640  0.043540  0.418340  1.0  0.1657
  C  C1326  1  0.381280  0.012000  0.446520  1.0  -0.1846
  C  C1327  1  0.373550  0.011430  0.480490  1.0  -0.0006
  C  C1328  1  0.367640  0.041340  0.484740  1.0  -0.1355
  C  C1329  1  0.370880  0.072700  0.453820  1.0  0.1438
  C  C1330  1  0.411240  0.171220  0.302080  1.0  0.1438
  C  C1331  1  0.417290  0.202090  0.273110  1.0  -0.1114
  C  C1332  1  0.388550  0.233850  0.271150  1.0  0.0132
  C  C1333  1  0.355760  0.234560  0.298060  1.0  -0.1484
  C  C1334  1  0.353030  0.202210  0.326410  1.0  0.2064
  C  C1335  1  0.324230  0.267350  0.297150  1.0  0.382
  C  C1336  1  0.426270  0.080130  0.320750  1.0  0.2759
  C  C1337  1  0.348340  0.106840  0.834040  1.0  0.2203
  C  C1338  1  0.347820  0.964140  0.105500  1.0  0.1643
  C  C1339  1  0.339900  0.996140  0.107580  1.0  -0.1227
  C  C1340  1  0.328530  0.999230  0.141130  1.0  -0.0522
  C  C1341  1  0.326060  0.968800  0.170400  1.0  -0.1571
  C  C1342  1  0.335470  0.937270  0.166450  1.0  0.1719
  C  C1343  1  0.363310  0.054150  0.917390  1.0  0.1469
  C  C1344  1  0.358980  0.025480  0.947220  1.0  -0.1576
  C  C1345  1  0.355420  0.024500  0.978980  1.0  -0.0817
  C  C1346  1  0.356800  0.053300  0.980680  1.0  -0.1706
  C  C1347  1  0.362460  0.081620  0.949180  1.0  0.1845
  C  C1348  1  0.354790  0.052710  0.014390  1.0  0.4174
  C  C1349  1  0.345890  0.027370  0.073210  1.0  0.2796
  C  C1350  1  0.358800  0.077800  0.043500  1.0  0.341
  C  C1351  1  0.382640  0.155480  0.043540  1.0  0.1682
  C  C1352  1  0.381280  0.160200  0.012000  1.0  -0.1817
  C  C1353  1  0.373550  0.134530  0.011430  1.0  0.0026
  C  C1354  1  0.367640  0.106280  0.041340  1.0  -0.132
  C  C1355  1  0.370880  0.102600  0.072700  1.0  0.1474
  C  C1356  1  0.411240  0.115460  0.171220  1.0  0.144
  C  C1357  1  0.417290  0.107510  0.202090  1.0  -0.1163
  C  C1358  1  0.388550  0.106450  0.233850  1.0  0.0118
  C  C1359  1  0.355760  0.111620  0.234560  1.0  -0.1449
  C  C1360  1  0.353030  0.118350  0.202210  1.0  0.2043
  C  C1361  1  0.324230  0.111270  0.267350  1.0  0.3812
  C  C1362  1  0.426270  0.172850  0.080130  1.0  0.2794
  C  C1363  1  0.710780  0.834040  0.106840  1.0  0.2282
  C  C1364  1  0.582540  0.105500  0.964140  1.0  0.1606
  C  C1365  1  0.556380  0.107580  0.996140  1.0  -0.1226
  C  C1366  1  0.531110  0.141130  0.999230  1.0  -0.0529
  C  C1367  1  0.534740  0.170400  0.968800  1.0  -0.1627
  C  C1368  1  0.560810  0.166450  0.937270  1.0  0.1712
  C  C1369  1  0.665150  0.917390  0.054150  1.0  0.1519
  C  C1370  1  0.668320  0.947220  0.025480  1.0  -0.1385
  C  C1371  1  0.641100  0.978980  0.024500  1.0  -0.0842
  C  C1372  1  0.609220  0.980680  0.053300  1.0  -0.1705
  C  C1373  1  0.606740  0.949180  0.081620  1.0  0.1924
  C  C1374  1  0.578110  0.014390  0.052710  1.0  0.4174
  C  C1375  1  0.553530  0.073210  0.027370  1.0  0.2784
  C  C1376  1  0.519900  0.043500  0.077800  1.0  0.3414
  C  C1377  1  0.418340  0.043540  0.155480  1.0  0.1643
  C  C1378  1  0.446520  0.012000  0.160200  1.0  -0.1823
  C  C1379  1  0.480490  0.011430  0.134530  1.0  -0.001
  C  C1380  1  0.484740  0.041340  0.106280  1.0  -0.1355
  C  C1381  1  0.453820  0.072700  0.102600  1.0  0.1469
  C  C1382  1  0.302080  0.171220  0.115460  1.0  0.1431
  C  C1383  1  0.273110  0.202090  0.107510  1.0  -0.1122
  C  C1384  1  0.271150  0.233850  0.106450  1.0  0.0142
  C  C1385  1  0.298060  0.234560  0.111620  1.0  -0.1514
  C  C1386  1  0.326410  0.202210  0.118350  1.0  0.1947
  C  C1387  1  0.297150  0.267350  0.111270  1.0  0.3823
  C  C1388  1  0.320750  0.080130  0.172850  1.0  0.2795
  C  C1389  1  0.834040  0.710780  0.348340  1.0  0.2256
  C  C1390  1  0.105500  0.582540  0.347820  1.0  0.1511
  C  C1391  1  0.107580  0.556380  0.339900  1.0  -0.1234
  C  C1392  1  0.141130  0.531110  0.328530  1.0  -0.0557
  C  C1393  1  0.170400  0.534740  0.326060  1.0  -0.1671
  C  C1394  1  0.166450  0.560810  0.335470  1.0  0.1732
  C  C1395  1  0.917390  0.665150  0.363310  1.0  0.1469
  C  C1396  1  0.947220  0.668320  0.358980  1.0  -0.1493
  C  C1397  1  0.978980  0.641100  0.355420  1.0  -0.0837
  C  C1398  1  0.980680  0.609220  0.356800  1.0  -0.1695
  C  C1399  1  0.949180  0.606740  0.362460  1.0  0.1901
  C  C1400  1  0.014390  0.578110  0.354790  1.0  0.4178
  C  C1401  1  0.073210  0.553530  0.345890  1.0  0.279
  C  C1402  1  0.043500  0.519900  0.358800  1.0  0.3414
  C  C1403  1  0.043540  0.418340  0.382640  1.0  0.1636
  C  C1404  1  0.012000  0.446520  0.381280  1.0  -0.1775
  C  C1405  1  0.011430  0.480490  0.373550  1.0  0.0031
  C  C1406  1  0.041340  0.484740  0.367640  1.0  -0.1337
  C  C1407  1  0.072700  0.453820  0.370880  1.0  0.1437
  C  C1408  1  0.171220  0.302080  0.411240  1.0  0.1437
  C  C1409  1  0.202090  0.273110  0.417290  1.0  -0.1205
  C  C1410  1  0.233850  0.271150  0.388550  1.0  0.0117
  C  C1411  1  0.234560  0.298060  0.355760  1.0  -0.1507
  C  C1412  1  0.202210  0.326410  0.353030  1.0  0.1988
  C  C1413  1  0.267350  0.297150  0.324230  1.0  0.3819
  C  C1414  1  0.080130  0.320750  0.426270  1.0  0.2788
  C  C1415  1  0.106840  0.348340  0.710780  1.0  0.2171
  C  C1416  1  0.964140  0.347820  0.582540  1.0  0.1619
  C  C1417  1  0.996140  0.339900  0.556380  1.0  -0.1234
  C  C1418  1  0.999230  0.328530  0.531110  1.0  -0.0534
  C  C1419  1  0.968800  0.326060  0.534740  1.0  -0.1555
  C  C1420  1  0.937270  0.335470  0.560810  1.0  0.1742
  C  C1421  1  0.054150  0.363310  0.665150  1.0  0.1524
  C  C1422  1  0.025480  0.358980  0.668320  1.0  -0.1501
  C  C1423  1  0.024500  0.355420  0.641100  1.0  -0.0841
  C  C1424  1  0.053300  0.356800  0.609220  1.0  -0.1709
  C  C1425  1  0.081620  0.362460  0.606740  1.0  0.1827
  C  C1426  1  0.052710  0.354790  0.578110  1.0  0.4169
  C  C1427  1  0.027370  0.345890  0.553530  1.0  0.2797
  C  C1428  1  0.077800  0.358800  0.519900  1.0  0.341
  C  C1429  1  0.155480  0.382640  0.418340  1.0  0.1717
  C  C1430  1  0.160200  0.381280  0.446520  1.0  -0.1758
  C  C1431  1  0.134530  0.373550  0.480490  1.0  0.0026
  C  C1432  1  0.106280  0.367640  0.484740  1.0  -0.1321
  C  C1433  1  0.102600  0.370880  0.453820  1.0  0.1505
  C  C1434  1  0.115460  0.411240  0.302080  1.0  0.1422
  C  C1435  1  0.107510  0.417290  0.273110  1.0  -0.1213
  C  C1436  1  0.106450  0.388550  0.271150  1.0  0.0133
  C  C1437  1  0.111620  0.355760  0.298060  1.0  -0.1452
  C  C1438  1  0.118350  0.353030  0.326410  1.0  0.201
  C  C1439  1  0.111270  0.324230  0.297150  1.0  0.3823
  C  C1440  1  0.172850  0.426270  0.320750  1.0  0.2808
  C  C1441  1  0.210780  0.848340  0.606840  1.0  0.2224
  C  C1442  1  0.082540  0.847820  0.464140  1.0  0.1596
  C  C1443  1  0.056380  0.839900  0.496140  1.0  -0.1233
  C  C1444  1  0.031110  0.828530  0.499230  1.0  -0.051
  C  C1445  1  0.034740  0.826060  0.468800  1.0  -0.1635
  C  C1446  1  0.060810  0.835470  0.437270  1.0  0.1751
  C  C1447  1  0.165150  0.863310  0.554150  1.0  0.1567
  C  C1448  1  0.168320  0.858980  0.525480  1.0  -0.1441
  C  C1449  1  0.141100  0.855420  0.524500  1.0  -0.0867
  C  C1450  1  0.109220  0.856800  0.553300  1.0  -0.1682
  C  C1451  1  0.106740  0.862460  0.581620  1.0  0.1849
  C  C1452  1  0.078110  0.854790  0.552710  1.0  0.4172
  C  C1453  1  0.053530  0.845890  0.527370  1.0  0.2792
  C  C1454  1  0.019900  0.858800  0.577800  1.0  0.3416
  C  C1455  1  0.918340  0.882640  0.655480  1.0  0.1651
  C  C1456  1  0.946520  0.881280  0.660200  1.0  -0.1689
  C  C1457  1  0.980490  0.873550  0.634530  1.0  0.0021
  C  C1458  1  0.984740  0.867640  0.606280  1.0  -0.1351
  C  C1459  1  0.953820  0.870880  0.602600  1.0  0.1516
  C  C1460  1  0.802080  0.911240  0.615460  1.0  0.1445
  C  C1461  1  0.773110  0.917290  0.607510  1.0  -0.1214
  C  C1462  1  0.771150  0.888550  0.606450  1.0  0.0115
  C  C1463  1  0.798060  0.855760  0.611620  1.0  -0.1503
  C  C1464  1  0.826410  0.853030  0.618350  1.0  0.1952
  C  C1465  1  0.797150  0.824230  0.611270  1.0  0.3823
  C  C1466  1  0.820750  0.926270  0.672850  1.0  0.2766
  C  C1467  1  0.848340  0.210780  0.334040  1.0  0.2245
  C  C1468  1  0.847820  0.082540  0.605500  1.0  0.1552
  C  C1469  1  0.839900  0.056380  0.607580  1.0  -0.1238
  C  C1470  1  0.828530  0.031110  0.641130  1.0  -0.0511
  C  C1471  1  0.826060  0.034740  0.670400  1.0  -0.168
  C  C1472  1  0.835470  0.060810  0.666450  1.0  0.1727
  C  C1473  1  0.863310  0.165150  0.417390  1.0  0.152
  C  C1474  1  0.858980  0.168320  0.447220  1.0  -0.1432
  C  C1475  1  0.855420  0.141100  0.478980  1.0  -0.0807
  C  C1476  1  0.856800  0.109220  0.480680  1.0  -0.1701
  C  C1477  1  0.862460  0.106740  0.449180  1.0  0.1893
  C  C1478  1  0.854790  0.078110  0.514390  1.0  0.4179
  C  C1479  1  0.845890  0.053530  0.573210  1.0  0.2786
  C  C1480  1  0.858800  0.019900  0.543500  1.0  0.3415
  C  C1481  1  0.882640  0.918340  0.543540  1.0  0.1637
  C  C1482  1  0.881280  0.946520  0.512000  1.0  -0.1677
  C  C1483  1  0.873550  0.980490  0.511430  1.0  0.0018
  C  C1484  1  0.867640  0.984740  0.541340  1.0  -0.1341
  C  C1485  1  0.870880  0.953820  0.572700  1.0  0.1515
  C  C1486  1  0.911240  0.802080  0.671220  1.0  0.1446
  C  C1487  1  0.917290  0.773110  0.702090  1.0  -0.1213
  C  C1488  1  0.888550  0.771150  0.733850  1.0  0.0078
  C  C1489  1  0.855760  0.798060  0.734560  1.0  -0.1492
  C  C1490  1  0.853030  0.826410  0.702210  1.0  0.1934
  C  C1491  1  0.824230  0.797150  0.767350  1.0  0.3811
  C  C1492  1  0.926270  0.820750  0.580130  1.0  0.2731
  C  C1493  1  0.606840  0.334040  0.210780  1.0  0.218
  C  C1494  1  0.464140  0.605500  0.082540  1.0  0.1617
  C  C1495  1  0.496140  0.607580  0.056380  1.0  -0.124
  C  C1496  1  0.499230  0.641130  0.031110  1.0  -0.0518
  C  C1497  1  0.468800  0.670400  0.034740  1.0  -0.1607
  C  C1498  1  0.437270  0.666450  0.060810  1.0  0.171
  C  C1499  1  0.554150  0.417390  0.165150  1.0  0.1492
  C  C1500  1  0.525480  0.447220  0.168320  1.0  -0.1515
  C  C1501  1  0.524500  0.478980  0.141100  1.0  -0.0852
  C  C1502  1  0.553300  0.480680  0.109220  1.0  -0.1691
  C  C1503  1  0.581620  0.449180  0.106740  1.0  0.1882
  C  C1504  1  0.552710  0.514390  0.078110  1.0  0.4174
  C  C1505  1  0.527370  0.573210  0.053530  1.0  0.2796
  C  C1506  1  0.577800  0.543500  0.019900  1.0  0.3409
  C  C1507  1  0.655480  0.543540  0.918340  1.0  0.166
  C  C1508  1  0.660200  0.512000  0.946520  1.0  -0.1819
  C  C1509  1  0.634530  0.511430  0.980490  1.0  -0.0016
  C  C1510  1  0.606280  0.541340  0.984740  1.0  -0.1347
  C  C1511  1  0.602600  0.572700  0.953820  1.0  0.1431
  C  C1512  1  0.615460  0.671220  0.802080  1.0  0.1426
  C  C1513  1  0.607510  0.702090  0.773110  1.0  -0.1177
  C  C1514  1  0.606450  0.733850  0.771150  1.0  0.0128
  C  C1515  1  0.611620  0.734560  0.798060  1.0  -0.1488
  C  C1516  1  0.618350  0.702210  0.826410  1.0  0.1938
  C  C1517  1  0.611270  0.767350  0.797150  1.0  0.382
  C  C1518  1  0.672850  0.580130  0.820750  1.0  0.2765
  C  C1519  1  0.334040  0.606840  0.848340  1.0  0.2199
  C  C1520  1  0.605500  0.464140  0.847820  1.0  0.1629
  C  C1521  1  0.607580  0.496140  0.839900  1.0  -0.1236
  C  C1522  1  0.641130  0.499230  0.828530  1.0  -0.0511
  C  C1523  1  0.670400  0.468800  0.826060  1.0  -0.1544
  C  C1524  1  0.666450  0.437270  0.835470  1.0  0.1726
  C  C1525  1  0.417390  0.554150  0.863310  1.0  0.149
  C  C1526  1  0.447220  0.525480  0.858980  1.0  -0.1522
  C  C1527  1  0.478980  0.524500  0.855420  1.0  -0.0845
  C  C1528  1  0.480680  0.553300  0.856800  1.0  -0.1687
  C  C1529  1  0.449180  0.581620  0.862460  1.0  0.1912
  C  C1530  1  0.514390  0.552710  0.854790  1.0  0.4169
  C  C1531  1  0.573210  0.527370  0.845890  1.0  0.2795
  C  C1532  1  0.543500  0.577800  0.858800  1.0  0.3413
  C  C1533  1  0.543540  0.655480  0.882640  1.0  0.1664
  C  C1534  1  0.512000  0.660200  0.881280  1.0  -0.1824
  C  C1535  1  0.511430  0.634530  0.873550  1.0  0.0025
  C  C1536  1  0.541340  0.606280  0.867640  1.0  -0.1344
  C  C1537  1  0.572700  0.602600  0.870880  1.0  0.1452
  C  C1538  1  0.671220  0.615460  0.911240  1.0  0.1429
  C  C1539  1  0.702090  0.607510  0.917290  1.0  -0.113
  C  C1540  1  0.733850  0.606450  0.888550  1.0  0.0115
  C  C1541  1  0.734560  0.611620  0.855760  1.0  -0.1493
  C  C1542  1  0.702210  0.618350  0.853030  1.0  0.2064
  C  C1543  1  0.767350  0.611270  0.824230  1.0  0.3826
  C  C1544  1  0.580130  0.672850  0.926270  1.0  0.2759
  C  C1545  1  0.606840  0.210780  0.848340  1.0  0.2205
  C  C1546  1  0.464140  0.082540  0.847820  1.0  0.1604
  C  C1547  1  0.496140  0.056380  0.839900  1.0  -0.123
  C  C1548  1  0.499230  0.031110  0.828530  1.0  -0.055
  C  C1549  1  0.468800  0.034740  0.826060  1.0  -0.1617
  C  C1550  1  0.437270  0.060810  0.835470  1.0  0.1732
  C  C1551  1  0.554150  0.165150  0.863310  1.0  0.147
  C  C1552  1  0.525480  0.168320  0.858980  1.0  -0.153
  C  C1553  1  0.524500  0.141100  0.855420  1.0  -0.0832
  C  C1554  1  0.553300  0.109220  0.856800  1.0  -0.1685
  C  C1555  1  0.581620  0.106740  0.862460  1.0  0.1827
  C  C1556  1  0.552710  0.078110  0.854790  1.0  0.4178
  C  C1557  1  0.527370  0.053530  0.845890  1.0  0.2798
  C  C1558  1  0.577800  0.019900  0.858800  1.0  0.3412
  C  C1559  1  0.655480  0.918340  0.882640  1.0  0.1639
  C  C1560  1  0.660200  0.946520  0.881280  1.0  -0.1697
  C  C1561  1  0.634530  0.980490  0.873550  1.0  0.0039
  C  C1562  1  0.606280  0.984740  0.867640  1.0  -0.134
  C  C1563  1  0.602600  0.953820  0.870880  1.0  0.151
  C  C1564  1  0.615460  0.802080  0.911240  1.0  0.1426
  C  C1565  1  0.607510  0.773110  0.917290  1.0  -0.1226
  C  C1566  1  0.606450  0.771150  0.888550  1.0  0.0099
  C  C1567  1  0.611620  0.798060  0.855760  1.0  -0.1467
  C  C1568  1  0.618350  0.826410  0.853030  1.0  0.1925
  C  C1569  1  0.611270  0.797150  0.824230  1.0  0.3817
  C  C1570  1  0.672850  0.820750  0.926270  1.0  0.2764
  C  C1571  1  0.334040  0.848340  0.210780  1.0  0.218
  C  C1572  1  0.605500  0.847820  0.082540  1.0  0.1532
  C  C1573  1  0.607580  0.839900  0.056380  1.0  -0.1234
  C  C1574  1  0.641130  0.828530  0.031110  1.0  -0.0551
  C  C1575  1  0.670400  0.826060  0.034740  1.0  -0.1602
  C  C1576  1  0.666450  0.835470  0.060810  1.0  0.1793
  C  C1577  1  0.417390  0.863310  0.165150  1.0  0.1511
  C  C1578  1  0.447220  0.858980  0.168320  1.0  -0.1468
  C  C1579  1  0.478980  0.855420  0.141100  1.0  -0.0826
  C  C1580  1  0.480680  0.856800  0.109220  1.0  -0.1699
  C  C1581  1  0.449180  0.862460  0.106740  1.0  0.1891
  C  C1582  1  0.514390  0.854790  0.078110  1.0  0.4169
  C  C1583  1  0.573210  0.845890  0.053530  1.0  0.2791
  C  C1584  1  0.543500  0.858800  0.019900  1.0  0.3412
  C  C1585  1  0.543540  0.882640  0.918340  1.0  0.1689
  C  C1586  1  0.512000  0.881280  0.946520  1.0  -0.1791
  C  C1587  1  0.511430  0.873550  0.980490  1.0  0.0019
  C  C1588  1  0.541340  0.867640  0.984740  1.0  -0.1361
  C  C1589  1  0.572700  0.870880  0.953820  1.0  0.1453
  C  C1590  1  0.671220  0.911240  0.802080  1.0  0.1405
  C  C1591  1  0.702090  0.917290  0.773110  1.0  -0.1167
  C  C1592  1  0.733850  0.888550  0.771150  1.0  0.013
  C  C1593  1  0.734560  0.855760  0.798060  1.0  -0.149
  C  C1594  1  0.702210  0.853030  0.826410  1.0  0.2036
  C  C1595  1  0.767350  0.824230  0.797150  1.0  0.3829
  C  C1596  1  0.580130  0.926270  0.820750  1.0  0.2732
  C  C1597  1  0.210780  0.606840  0.334040  1.0  0.2296
  C  C1598  1  0.082540  0.464140  0.605500  1.0  0.1625
  C  C1599  1  0.056380  0.496140  0.607580  1.0  -0.1225
  C  C1600  1  0.031110  0.499230  0.641130  1.0  -0.0521
  C  C1601  1  0.034740  0.468800  0.670400  1.0  -0.1585
  C  C1602  1  0.060810  0.437270  0.666450  1.0  0.1724
  C  C1603  1  0.165150  0.554150  0.417390  1.0  0.1511
  C  C1604  1  0.168320  0.525480  0.447220  1.0  -0.153
  C  C1605  1  0.141100  0.524500  0.478980  1.0  -0.0829
  C  C1606  1  0.109220  0.553300  0.480680  1.0  -0.1679
  C  C1607  1  0.106740  0.581620  0.449180  1.0  0.1835
  C  C1608  1  0.078110  0.552710  0.514390  1.0  0.4171
  C  C1609  1  0.053530  0.527370  0.573210  1.0  0.2784
  C  C1610  1  0.019900  0.577800  0.543500  1.0  0.3421
  C  C1611  1  0.918340  0.655480  0.543540  1.0  0.1646
  C  C1612  1  0.946520  0.660200  0.512000  1.0  -0.1743
  C  C1613  1  0.980490  0.634530  0.511430  1.0  0.0051
  C  C1614  1  0.984740  0.606280  0.541340  1.0  -0.1346
  C  C1615  1  0.953820  0.602600  0.572700  1.0  0.1485
  C  C1616  1  0.802080  0.615460  0.671220  1.0  0.1448
  C  C1617  1  0.773110  0.607510  0.702090  1.0  -0.1215
  C  C1618  1  0.771150  0.606450  0.733850  1.0  0.0124
  C  C1619  1  0.798060  0.611620  0.734560  1.0  -0.1514
  C  C1620  1  0.826410  0.618350  0.702210  1.0  0.1931
  C  C1621  1  0.797150  0.611270  0.767350  1.0  0.3817
  C  C1622  1  0.820750  0.672850  0.580130  1.0  0.2727
  C  C1623  1  0.848340  0.334040  0.606840  1.0  0.2196
  C  C1624  1  0.847820  0.605500  0.464140  1.0  0.1624
  C  C1625  1  0.839900  0.607580  0.496140  1.0  -0.1222
  C  C1626  1  0.828530  0.641130  0.499230  1.0  -0.0537
  C  C1627  1  0.826060  0.670400  0.468800  1.0  -0.1694
  C  C1628  1  0.835470  0.666450  0.437270  1.0  0.1757
  C  C1629  1  0.863310  0.417390  0.554150  1.0  0.1493
  C  C1630  1  0.858980  0.447220  0.525480  1.0  -0.1435
  C  C1631  1  0.855420  0.478980  0.524500  1.0  -0.0861
  C  C1632  1  0.856800  0.480680  0.553300  1.0  -0.1689
  C  C1633  1  0.862460  0.449180  0.581620  1.0  0.1898
  C  C1634  1  0.854790  0.514390  0.552710  1.0  0.4176
  C  C1635  1  0.845890  0.573210  0.527370  1.0  0.2798
  C  C1636  1  0.858800  0.543500  0.577800  1.0  0.3405
  C  C1637  1  0.882640  0.543540  0.655480  1.0  0.1667
  C  C1638  1  0.881280  0.512000  0.660200  1.0  -0.1861
  C  C1639  1  0.873550  0.511430  0.634530  1.0  -0.0003
  C  C1640  1  0.867640  0.541340  0.606280  1.0  -0.1335
  C  C1641  1  0.870880  0.572700  0.602600  1.0  0.1442
  C  C1642  1  0.911240  0.671220  0.615460  1.0  0.1436
  C  C1643  1  0.917290  0.702090  0.607510  1.0  -0.1076
  C  C1644  1  0.888550  0.733850  0.606450  1.0  0.0117
  C  C1645  1  0.855760  0.734560  0.611620  1.0  -0.1486
  C  C1646  1  0.853030  0.702210  0.618350  1.0  0.2065
  C  C1647  1  0.824230  0.767350  0.611270  1.0  0.3819
  C  C1648  1  0.926270  0.580130  0.672850  1.0  0.2776
  C  C1649  1  0.848340  0.606840  0.210780  1.0  0.2203
  C  C1650  1  0.847820  0.464140  0.082540  1.0  0.1647
  C  C1651  1  0.839900  0.496140  0.056380  1.0  -0.1223
  C  C1652  1  0.828530  0.499230  0.031110  1.0  -0.053
  C  C1653  1  0.826060  0.468800  0.034740  1.0  -0.156
  C  C1654  1  0.835470  0.437270  0.060810  1.0  0.172
  C  C1655  1  0.863310  0.554150  0.165150  1.0  0.1478
  C  C1656  1  0.858980  0.525480  0.168320  1.0  -0.1563
  C  C1657  1  0.855420  0.524500  0.141100  1.0  -0.0854
  C  C1658  1  0.856800  0.553300  0.109220  1.0  -0.1704
  C  C1659  1  0.862460  0.581620  0.106740  1.0  0.1821
  C  C1660  1  0.854790  0.552710  0.078110  1.0  0.4172
  C  C1661  1  0.845890  0.527370  0.053530  1.0  0.2796
  C  C1662  1  0.858800  0.577800  0.019900  1.0  0.3411
  C  C1663  1  0.882640  0.655480  0.918340  1.0  0.169
  C  C1664  1  0.881280  0.660200  0.946520  1.0  -0.1744
  C  C1665  1  0.873550  0.634530  0.980490  1.0  0.0024
  C  C1666  1  0.867640  0.606280  0.984740  1.0  -0.1317
  C  C1667  1  0.870880  0.602600  0.953820  1.0  0.1505
  C  C1668  1  0.911240  0.615460  0.802080  1.0  0.1449
  C  C1669  1  0.917290  0.607510  0.773110  1.0  -0.121
  C  C1670  1  0.888550  0.606450  0.771150  1.0  0.0118
  C  C1671  1  0.855760  0.611620  0.798060  1.0  -0.1449
  C  C1672  1  0.853030  0.618350  0.826410  1.0  0.2018
  C  C1673  1  0.824230  0.611270  0.797150  1.0  0.3816
  C  C1674  1  0.926270  0.672850  0.820750  1.0  0.2798
  C  C1675  1  0.210780  0.334040  0.848340  1.0  0.2278
  C  C1676  1  0.082540  0.605500  0.847820  1.0  0.1591
  C  C1677  1  0.056380  0.607580  0.839900  1.0  -0.1241
  C  C1678  1  0.031110  0.641130  0.828530  1.0  -0.0538
  C  C1679  1  0.034740  0.670400  0.826060  1.0  -0.1698
  C  C1680  1  0.060810  0.666450  0.835470  1.0  0.1694
  C  C1681  1  0.165150  0.417390  0.863310  1.0  0.1517
  C  C1682  1  0.168320  0.447220  0.858980  1.0  -0.1417
  C  C1683  1  0.141100  0.478980  0.855420  1.0  -0.084
  C  C1684  1  0.109220  0.480680  0.856800  1.0  -0.1703
  C  C1685  1  0.106740  0.449180  0.862460  1.0  0.1911
  C  C1686  1  0.078110  0.514390  0.854790  1.0  0.4174
  C  C1687  1  0.053530  0.573210  0.845890  1.0  0.2788
  C  C1688  1  0.019900  0.543500  0.858800  1.0  0.3416
  C  C1689  1  0.918340  0.543540  0.882640  1.0  0.1636
  C  C1690  1  0.946520  0.512000  0.881280  1.0  -0.1769
  C  C1691  1  0.980490  0.511430  0.873550  1.0  -0.0009
  C  C1692  1  0.984740  0.541340  0.867640  1.0  -0.1358
  C  C1693  1  0.953820  0.572700  0.870880  1.0  0.1444
  C  C1694  1  0.802080  0.671220  0.911240  1.0  0.1424
  C  C1695  1  0.773110  0.702090  0.917290  1.0  -0.1217
  C  C1696  1  0.771150  0.733850  0.888550  1.0  0.0143
  C  C1697  1  0.798060  0.734560  0.855760  1.0  -0.1512
  C  C1698  1  0.826410  0.702210  0.853030  1.0  0.1975
  C  C1699  1  0.797150  0.767350  0.824230  1.0  0.3823
  C  C1700  1  0.820750  0.580130  0.926270  1.0  0.2793
  C  C1701  1  0.334040  0.210780  0.606840  1.0  0.2256
  C  C1702  1  0.605500  0.082540  0.464140  1.0  0.1534
  C  C1703  1  0.607580  0.056380  0.496140  1.0  -0.1215
  C  C1704  1  0.641130  0.031110  0.499230  1.0  -0.0536
  C  C1705  1  0.670400  0.034740  0.468800  1.0  -0.1671
  C  C1706  1  0.666450  0.060810  0.437270  1.0  0.1745
  C  C1707  1  0.417390  0.165150  0.554150  1.0  0.1471
  C  C1708  1  0.447220  0.168320  0.525480  1.0  -0.1481
  C  C1709  1  0.478980  0.141100  0.524500  1.0  -0.0839
  C  C1710  1  0.480680  0.109220  0.553300  1.0  -0.1697
  C  C1711  1  0.449180  0.106740  0.581620  1.0  0.1903
  C  C1712  1  0.514390  0.078110  0.552710  1.0  0.4177
  C  C1713  1  0.573210  0.053530  0.527370  1.0  0.2786
  C  C1714  1  0.543500  0.019900  0.577800  1.0  0.3412
  C  C1715  1  0.543540  0.918340  0.655480  1.0  0.1637
  C  C1716  1  0.512000  0.946520  0.660200  1.0  -0.1794
  C  C1717  1  0.511430  0.980490  0.634530  1.0  0.0026
  C  C1718  1  0.541340  0.984740  0.606280  1.0  -0.1335
  C  C1719  1  0.572700  0.953820  0.602600  1.0  0.1461
  C  C1720  1  0.671220  0.802080  0.615460  1.0  0.1437
  C  C1721  1  0.702090  0.773110  0.607510  1.0  -0.118
  C  C1722  1  0.733850  0.771150  0.606450  1.0  0.0115
  C  C1723  1  0.734560  0.798060  0.611620  1.0  -0.1512
  C  C1724  1  0.702210  0.826410  0.618350  1.0  0.1957
  C  C1725  1  0.767350  0.797150  0.611270  1.0  0.3818
  C  C1726  1  0.580130  0.820750  0.672850  1.0  0.2791
  C  C1727  1  0.606840  0.848340  0.334040  1.0  0.2172
  C  C1728  1  0.464140  0.847820  0.605500  1.0  0.1625
  C  C1729  1  0.496140  0.839900  0.607580  1.0  -0.1237
  C  C1730  1  0.499230  0.828530  0.641130  1.0  -0.0521
  C  C1731  1  0.468800  0.826060  0.670400  1.0  -0.1567
  C  C1732  1  0.437270  0.835470  0.666450  1.0  0.1744
  C  C1733  1  0.554150  0.863310  0.417390  1.0  0.1513
  C  C1734  1  0.525480  0.858980  0.447220  1.0  -0.1482
  C  C1735  1  0.524500  0.855420  0.478980  1.0  -0.079
  C  C1736  1  0.553300  0.856800  0.480680  1.0  -0.1701
  C  C1737  1  0.581620  0.862460  0.449180  1.0  0.1847
  C  C1738  1  0.552710  0.854790  0.514390  1.0  0.4171
  C  C1739  1  0.527370  0.845890  0.573210  1.0  0.2794
  C  C1740  1  0.577800  0.858800  0.543500  1.0  0.341
  C  C1741  1  0.655480  0.882640  0.543540  1.0  0.1712
  C  C1742  1  0.660200  0.881280  0.512000  1.0  -0.177
  C  C1743  1  0.634530  0.873550  0.511430  1.0  0.0031
  C  C1744  1  0.606280  0.867640  0.541340  1.0  -0.1319
  C  C1745  1  0.602600  0.870880  0.572700  1.0  0.1474
  C  C1746  1  0.615460  0.911240  0.671220  1.0  0.1415
  C  C1747  1  0.607510  0.917290  0.702090  1.0  -0.1145
  C  C1748  1  0.606450  0.888550  0.733850  1.0  0.0133
  C  C1749  1  0.611620  0.855760  0.734560  1.0  -0.1451
  C  C1750  1  0.618350  0.853030  0.702210  1.0  0.2011
  C  C1751  1  0.611270  0.824230  0.767350  1.0  0.3819
  C  C1752  1  0.672850  0.926270  0.580130  1.0  0.2804
  C  C1753  1  0.039220  0.401660  0.915960  1.0  0.222
  C  C1754  1  0.167460  0.402180  0.644500  1.0  0.1616
  C  C1755  1  0.193620  0.410100  0.642420  1.0  -0.1241
  C  C1756  1  0.218890  0.421470  0.608870  1.0  -0.0512
  C  C1757  1  0.215260  0.423940  0.579600  1.0  -0.1592
  C  C1758  1  0.189190  0.414530  0.583550  1.0  0.1756
  C  C1759  1  0.084850  0.386690  0.832610  1.0  0.1548
  C  C1760  1  0.081680  0.391020  0.802780  1.0  -0.1477
  C  C1761  1  0.108900  0.394580  0.771020  1.0  -0.081
  C  C1762  1  0.140780  0.393200  0.769320  1.0  -0.1673
  C  C1763  1  0.143260  0.387540  0.800820  1.0  0.1849
  C  C1764  1  0.171890  0.395210  0.735610  1.0  0.4172
  C  C1765  1  0.196470  0.404110  0.676790  1.0  0.279
  C  C1766  1  0.230100  0.391200  0.706500  1.0  0.3412
  C  C1767  1  0.331660  0.367360  0.706460  1.0  0.1661
  C  C1768  1  0.303480  0.368720  0.738000  1.0  -0.175
  C  C1769  1  0.269510  0.376450  0.738570  1.0  0.0002
  C  C1770  1  0.265260  0.382360  0.708660  1.0  -0.1348
  C  C1771  1  0.296180  0.379120  0.677300  1.0  0.1434
  C  C1772  1  0.447920  0.338760  0.578780  1.0  0.1463
  C  C1773  1  0.476890  0.332710  0.547910  1.0  -0.1199
  C  C1774  1  0.478850  0.361450  0.516150  1.0  0.0125
  C  C1775  1  0.451940  0.394240  0.515440  1.0  -0.1486
  C  C1776  1  0.423590  0.396970  0.547790  1.0  0.191
  C  C1777  1  0.452850  0.425770  0.482650  1.0  0.3821
  C  C1778  1  0.429250  0.323730  0.669870  1.0  0.2777
  C  C1779  1  0.401660  0.039220  0.643160  1.0  0.2203
  C  C1780  1  0.402180  0.167460  0.785860  1.0  0.1606
  C  C1781  1  0.410100  0.193620  0.753860  1.0  -0.124
  C  C1782  1  0.421470  0.218890  0.750770  1.0  -0.0516
  C  C1783  1  0.423940  0.215260  0.781200  1.0  -0.1645
  C  C1784  1  0.414530  0.189190  0.812730  1.0  0.1715
  C  C1785  1  0.386690  0.084850  0.695850  1.0  0.1509
  C  C1786  1  0.391020  0.081680  0.724520  1.0  -0.152
  C  C1787  1  0.394580  0.108900  0.725500  1.0  -0.0808
  C  C1788  1  0.393200  0.140780  0.696700  1.0  -0.1707
  C  C1789  1  0.387540  0.143260  0.668380  1.0  0.1897
  C  C1790  1  0.395210  0.171890  0.697290  1.0  0.4183
  C  C1791  1  0.404110  0.196470  0.722630  1.0  0.2782
  C  C1792  1  0.391200  0.230100  0.672200  1.0  0.3412
  C  C1793  1  0.367360  0.331660  0.594520  1.0  0.1637
  C  C1794  1  0.368720  0.303480  0.589800  1.0  -0.1749
  C  C1795  1  0.376450  0.269510  0.615470  1.0  0.0002
  C  C1796  1  0.382360  0.265260  0.643720  1.0  -0.1346
  C  C1797  1  0.379120  0.296180  0.647400  1.0  0.1447
  C  C1798  1  0.338760  0.447920  0.634540  1.0  0.1445
  C  C1799  1  0.332710  0.476890  0.642490  1.0  -0.1163
  C  C1800  1  0.361450  0.478850  0.643550  1.0  0.0096
  C  C1801  1  0.394240  0.451940  0.638380  1.0  -0.1502
  C  C1802  1  0.396970  0.423590  0.631650  1.0  0.201
  C  C1803  1  0.425770  0.452850  0.638730  1.0  0.3817
  C  C1804  1  0.323730  0.429250  0.577150  1.0  0.2725
  C  C1805  1  0.643160  0.915960  0.401660  1.0  0.219
  C  C1806  1  0.785860  0.644500  0.402180  1.0  0.1534
  C  C1807  1  0.753860  0.642420  0.410100  1.0  -0.1234
  C  C1808  1  0.750770  0.608870  0.421470  1.0  -0.0524
  C  C1809  1  0.781200  0.579600  0.423940  1.0  -0.1652
  C  C1810  1  0.812730  0.583550  0.414530  1.0  0.1706
  C  C1811  1  0.695850  0.832610  0.386690  1.0  0.149
  C  C1812  1  0.724520  0.802780  0.391020  1.0  -0.1402
  C  C1813  1  0.725500  0.771020  0.394580  1.0  -0.0843
  C  C1814  1  0.696700  0.769320  0.393200  1.0  -0.1692
  C  C1815  1  0.668380  0.800820  0.387540  1.0  0.1811
  C  C1816  1  0.697290  0.735610  0.395210  1.0  0.4178
  C  C1817  1  0.722630  0.676790  0.404110  1.0  0.2795
  C  C1818  1  0.672200  0.706500  0.391200  1.0  0.341
  C  C1819  1  0.594520  0.706460  0.367360  1.0  0.1674
  C  C1820  1  0.589800  0.738000  0.368720  1.0  -0.1794
  C  C1821  1  0.615470  0.738570  0.376450  1.0  0.0006
  C  C1822  1  0.643720  0.708660  0.382360  1.0  -0.1349
  C  C1823  1  0.647400  0.677300  0.379120  1.0  0.1466
  C  C1824  1  0.634540  0.578780  0.338760  1.0  0.1433
  C  C1825  1  0.642490  0.547910  0.332710  1.0  -0.1206
  C  C1826  1  0.643550  0.516150  0.361450  1.0  0.0115
  C  C1827  1  0.638380  0.515440  0.394240  1.0  -0.1486
  C  C1828  1  0.631650  0.547790  0.396970  1.0  0.1921
  C  C1829  1  0.638730  0.482650  0.425770  1.0  0.3821
  C  C1830  1  0.577150  0.669870  0.323730  1.0  0.2742
  C  C1831  1  0.915960  0.643160  0.039220  1.0  0.2203
  C  C1832  1  0.644500  0.785860  0.167460  1.0  0.1551
  C  C1833  1  0.642420  0.753860  0.193620  1.0  -0.1246
  C  C1834  1  0.608870  0.750770  0.218890  1.0  -0.0521
  C  C1835  1  0.579600  0.781200  0.215260  1.0  -0.1627
  C  C1836  1  0.583550  0.812730  0.189190  1.0  0.1726
  C  C1837  1  0.832610  0.695850  0.084850  1.0  0.1497
  C  C1838  1  0.802780  0.724520  0.081680  1.0  -0.1481
  C  C1839  1  0.771020  0.725500  0.108900  1.0  -0.0847
  C  C1840  1  0.769320  0.696700  0.140780  1.0  -0.1694
  C  C1841  1  0.800820  0.668380  0.143260  1.0  0.1801
  C  C1842  1  0.735610  0.697290  0.171890  1.0  0.4175
  C  C1843  1  0.676790  0.722630  0.196470  1.0  0.2795
  C  C1844  1  0.706500  0.672200  0.230100  1.0  0.3415
  C  C1845  1  0.706460  0.594520  0.331660  1.0  0.1699
  C  C1846  1  0.738000  0.589800  0.303480  1.0  -0.1794
  C  C1847  1  0.738570  0.615470  0.269510  1.0  0.0041
  C  C1848  1  0.708660  0.643720  0.265260  1.0  -0.1341
  C  C1849  1  0.677300  0.647400  0.296180  1.0  0.1405
  C  C1850  1  0.578780  0.634540  0.447920  1.0  0.1434
  C  C1851  1  0.547910  0.642490  0.476890  1.0  -0.1181
  C  C1852  1  0.516150  0.643550  0.478850  1.0  0.0095
  C  C1853  1  0.515440  0.638380  0.451940  1.0  -0.1507
  C  C1854  1  0.547790  0.631650  0.423590  1.0  0.1946
  C  C1855  1  0.482650  0.638730  0.452850  1.0  0.3821
  C  C1856  1  0.669870  0.577150  0.429250  1.0  0.2776
  C  C1857  1  0.643160  0.039220  0.915960  1.0  0.2265
  C  C1858  1  0.785860  0.167460  0.644500  1.0  0.1516
  C  C1859  1  0.753860  0.193620  0.642420  1.0  -0.1241
  C  C1860  1  0.750770  0.218890  0.608870  1.0  -0.0539
  C  C1861  1  0.781200  0.215260  0.579600  1.0  -0.1657
  C  C1862  1  0.812730  0.189190  0.583550  1.0  0.1738
  C  C1863  1  0.695850  0.084850  0.832610  1.0  0.1474
  C  C1864  1  0.724520  0.081680  0.802780  1.0  -0.1477
  C  C1865  1  0.725500  0.108900  0.771020  1.0  -0.084
  C  C1866  1  0.696700  0.140780  0.769320  1.0  -0.1683
  C  C1867  1  0.668380  0.143260  0.800820  1.0  0.1847
  C  C1868  1  0.697290  0.171890  0.735610  1.0  0.418
  C  C1869  1  0.722630  0.196470  0.676790  1.0  0.279
  C  C1870  1  0.672200  0.230100  0.706500  1.0  0.3408
  C  C1871  1  0.594520  0.331660  0.706460  1.0  0.1629
  C  C1872  1  0.589800  0.303480  0.738000  1.0  -0.1836
  C  C1873  1  0.615470  0.269510  0.738570  1.0  0.002
  C  C1874  1  0.643720  0.265260  0.708660  1.0  -0.1341
  C  C1875  1  0.647400  0.296180  0.677300  1.0  0.1438
  C  C1876  1  0.634540  0.447920  0.578780  1.0  0.1427
  C  C1877  1  0.642490  0.476890  0.547910  1.0  -0.1172
  C  C1878  1  0.643550  0.478850  0.516150  1.0  0.0117
  C  C1879  1  0.638380  0.451940  0.515440  1.0  -0.1469
  C  C1880  1  0.631650  0.423590  0.547790  1.0  0.2026
  C  C1881  1  0.638730  0.452850  0.482650  1.0  0.3821
  C  C1882  1  0.577150  0.429250  0.669870  1.0  0.2752
  C  C1883  1  0.915960  0.401660  0.643160  1.0  0.2181
  C  C1884  1  0.644500  0.402180  0.785860  1.0  0.1607
  C  C1885  1  0.642420  0.410100  0.753860  1.0  -0.1225
  C  C1886  1  0.608870  0.421470  0.750770  1.0  -0.0546
  C  C1887  1  0.579600  0.423940  0.781200  1.0  -0.1656
  C  C1888  1  0.583550  0.414530  0.812730  1.0  0.1782
  C  C1889  1  0.832610  0.386690  0.695850  1.0  0.1518
  C  C1890  1  0.802780  0.391020  0.724520  1.0  -0.1436
  C  C1891  1  0.771020  0.394580  0.725500  1.0  -0.087
  C  C1892  1  0.769320  0.393200  0.696700  1.0  -0.1699
  C  C1893  1  0.800820  0.387540  0.668380  1.0  0.184
  C  C1894  1  0.735610  0.395210  0.697290  1.0  0.4175
  C  C1895  1  0.676790  0.404110  0.722630  1.0  0.2792
  C  C1896  1  0.706500  0.391200  0.672200  1.0  0.3419
  C  C1897  1  0.706460  0.367360  0.594520  1.0  0.1698
  C  C1898  1  0.738000  0.368720  0.589800  1.0  -0.1774
  C  C1899  1  0.738570  0.376450  0.615470  1.0  0.0037
  C  C1900  1  0.708660  0.382360  0.643720  1.0  -0.1366
  C  C1901  1  0.677300  0.379120  0.647400  1.0  0.1446
  C  C1902  1  0.578780  0.338760  0.634540  1.0  0.1396
  C  C1903  1  0.547910  0.332710  0.642490  1.0  -0.1228
  C  C1904  1  0.516150  0.361450  0.643550  1.0  0.0112
  C  C1905  1  0.515440  0.394240  0.638380  1.0  -0.1497
  C  C1906  1  0.547790  0.396970  0.631650  1.0  0.1896
  C  C1907  1  0.482650  0.425770  0.638730  1.0  0.3823
  C  C1908  1  0.669870  0.323730  0.577150  1.0  0.2758
  C  C1909  1  0.039220  0.643160  0.401660  1.0  0.224
  C  C1910  1  0.167460  0.785860  0.402180  1.0  0.1598
  C  C1911  1  0.193620  0.753860  0.410100  1.0  -0.1247
  C  C1912  1  0.218890  0.750770  0.421470  1.0  -0.0529
  C  C1913  1  0.215260  0.781200  0.423940  1.0  -0.1584
  C  C1914  1  0.189190  0.812730  0.414530  1.0  0.1739
  C  C1915  1  0.084850  0.695850  0.386690  1.0  0.1502
  C  C1916  1  0.081680  0.724520  0.391020  1.0  -0.1542
  C  C1917  1  0.108900  0.725500  0.394580  1.0  -0.0851
  C  C1918  1  0.140780  0.696700  0.393200  1.0  -0.1676
  C  C1919  1  0.143260  0.668380  0.387540  1.0  0.1925
  C  C1920  1  0.171890  0.697290  0.395210  1.0  0.4171
  C  C1921  1  0.196470  0.722630  0.404110  1.0  0.2782
  C  C1922  1  0.230100  0.672200  0.391200  1.0  0.3416
  C  C1923  1  0.331660  0.594520  0.367360  1.0  0.1638
  C  C1924  1  0.303480  0.589800  0.368720  1.0  -0.1823
  C  C1925  1  0.269510  0.615470  0.376450  1.0  0.0029
  C  C1926  1  0.265260  0.643720  0.382360  1.0  -0.1341
  C  C1927  1  0.296180  0.647400  0.379120  1.0  0.1418
  C  C1928  1  0.447920  0.634540  0.338760  1.0  0.1443
  C  C1929  1  0.476890  0.642490  0.332710  1.0  -0.1166
  C  C1930  1  0.478850  0.643550  0.361450  1.0  0.0142
  C  C1931  1  0.451940  0.638380  0.394240  1.0  -0.1508
  C  C1932  1  0.423590  0.631650  0.396970  1.0  0.198
  C  C1933  1  0.452850  0.638730  0.425770  1.0  0.3816
  C  C1934  1  0.429250  0.577150  0.323730  1.0  0.2746
  C  C1935  1  0.401660  0.915960  0.039220  1.0  0.2205
  C  C1936  1  0.402180  0.644500  0.167460  1.0  0.1637
  C  C1937  1  0.410100  0.642420  0.193620  1.0  -0.1224
  C  C1938  1  0.421470  0.608870  0.218890  1.0  -0.0533
  C  C1939  1  0.423940  0.579600  0.215260  1.0  -0.1625
  C  C1940  1  0.414530  0.583550  0.189190  1.0  0.1744
  C  C1941  1  0.386690  0.832610  0.084850  1.0  0.1504
  C  C1942  1  0.391020  0.802780  0.081680  1.0  -0.1446
  C  C1943  1  0.394580  0.771020  0.108900  1.0  -0.0845
  C  C1944  1  0.393200  0.769320  0.140780  1.0  -0.169
  C  C1945  1  0.387540  0.800820  0.143260  1.0  0.182
  C  C1946  1  0.395210  0.735610  0.171890  1.0  0.4179
  C  C1947  1  0.404110  0.676790  0.196470  1.0  0.2791
  C  C1948  1  0.391200  0.706500  0.230100  1.0  0.3408
  C  C1949  1  0.367360  0.706460  0.331660  1.0  0.1656
  C  C1950  1  0.368720  0.738000  0.303480  1.0  -0.1787
  C  C1951  1  0.376450  0.738570  0.269510  1.0  0.0011
  C  C1952  1  0.382360  0.708660  0.265260  1.0  -0.1334
  C  C1953  1  0.379120  0.677300  0.296180  1.0  0.1513
  C  C1954  1  0.338760  0.578780  0.447920  1.0  0.1427
  C  C1955  1  0.332710  0.547910  0.476890  1.0  -0.125
  C  C1956  1  0.361450  0.516150  0.478850  1.0  0.0099
  C  C1957  1  0.394240  0.515440  0.451940  1.0  -0.1486
  C  C1958  1  0.396970  0.547790  0.423590  1.0  0.1927
  C  C1959  1  0.425770  0.482650  0.452850  1.0  0.3817
  C  C1960  1  0.323730  0.669870  0.429250  1.0  0.2763
  C  C1961  1  0.401660  0.643160  0.915960  1.0  0.2208
  C  C1962  1  0.402180  0.785860  0.644500  1.0  0.1531
  C  C1963  1  0.410100  0.753860  0.642420  1.0  -0.1243
  C  C1964  1  0.421470  0.750770  0.608870  1.0  -0.054
  C  C1965  1  0.423940  0.781200  0.579600  1.0  -0.1625
  C  C1966  1  0.414530  0.812730  0.583550  1.0  0.1733
  C  C1967  1  0.386690  0.695850  0.832610  1.0  0.1475
  C  C1968  1  0.391020  0.724520  0.802780  1.0  -0.1457
  C  C1969  1  0.394580  0.725500  0.771020  1.0  -0.0821
  C  C1970  1  0.393200  0.696700  0.769320  1.0  -0.1694
  C  C1971  1  0.387540  0.668380  0.800820  1.0  0.1865
  C  C1972  1  0.395210  0.697290  0.735610  1.0  0.4173
  C  C1973  1  0.404110  0.722630  0.676790  1.0  0.2798
  C  C1974  1  0.391200  0.672200  0.706500  1.0  0.341
  C  C1975  1  0.367360  0.594520  0.706460  1.0  0.1689
  C  C1976  1  0.368720  0.589800  0.738000  1.0  -0.182
  C  C1977  1  0.376450  0.615470  0.738570  1.0  0.0031
  C  C1978  1  0.382360  0.643720  0.708660  1.0  -0.1317
  C  C1979  1  0.379120  0.647400  0.677300  1.0  0.145
  C  C1980  1  0.338760  0.634540  0.578780  1.0  0.1436
  C  C1981  1  0.332710  0.642490  0.547910  1.0  -0.1224
  C  C1982  1  0.361450  0.643550  0.516150  1.0  0.013
  C  C1983  1  0.394240  0.638380  0.515440  1.0  -0.1447
  C  C1984  1  0.396970  0.631650  0.547790  1.0  0.1919
  C  C1985  1  0.425770  0.638730  0.482650  1.0  0.3818
  C  C1986  1  0.323730  0.577150  0.669870  1.0  0.2789
  C  C1987  1  0.039220  0.915960  0.643160  1.0  0.2233
  C  C1988  1  0.167460  0.644500  0.785860  1.0  0.1606
  C  C1989  1  0.193620  0.642420  0.753860  1.0  -0.1238
  C  C1990  1  0.218890  0.608870  0.750770  1.0  -0.0551
  C  C1991  1  0.215260  0.579600  0.781200  1.0  -0.1643
  C  C1992  1  0.189190  0.583550  0.812730  1.0  0.17
  C  C1993  1  0.084850  0.832610  0.695850  1.0  0.1519
  C  C1994  1  0.081680  0.802780  0.724520  1.0  -0.1495
  C  C1995  1  0.108900  0.771020  0.725500  1.0  -0.0812
  C  C1996  1  0.140780  0.769320  0.696700  1.0  -0.1703
  C  C1997  1  0.143260  0.800820  0.668380  1.0  0.1784
  C  C1998  1  0.171890  0.735610  0.697290  1.0  0.4176
  C  C1999  1  0.196470  0.676790  0.722630  1.0  0.2786
  C  C2000  1  0.230100  0.706500  0.672200  1.0  0.3417
  C  C2001  1  0.331660  0.706460  0.594520  1.0  0.1646
  C  C2002  1  0.303480  0.738000  0.589800  1.0  -0.1804
  C  C2003  1  0.269510  0.738570  0.615470  1.0  -0.0003
  C  C2004  1  0.265260  0.708660  0.643720  1.0  -0.1346
  C  C2005  1  0.296180  0.677300  0.647400  1.0  0.1428
  C  C2006  1  0.447920  0.578780  0.634540  1.0  0.1433
  C  C2007  1  0.476890  0.547910  0.642490  1.0  -0.1161
  C  C2008  1  0.478850  0.516150  0.643550  1.0  0.0131
  C  C2009  1  0.451940  0.515440  0.638380  1.0  -0.1502
  C  C2010  1  0.423590  0.547790  0.631650  1.0  0.1967
  C  C2011  1  0.452850  0.482650  0.638730  1.0  0.3823
  C  C2012  1  0.429250  0.669870  0.577150  1.0  0.2807
  C  C2013  1  0.915960  0.039220  0.401660  1.0  0.2251
  C  C2014  1  0.644500  0.167460  0.402180  1.0  0.1621
  C  C2015  1  0.642420  0.193620  0.410100  1.0  -0.1221
  C  C2016  1  0.608870  0.218890  0.421470  1.0  -0.0536
  C  C2017  1  0.579600  0.215260  0.423940  1.0  -0.1623
  C  C2018  1  0.583550  0.189190  0.414530  1.0  0.1729
  C  C2019  1  0.832610  0.084850  0.386690  1.0  0.1478
  C  C2020  1  0.802780  0.081680  0.391020  1.0  -0.151
  C  C2021  1  0.771020  0.108900  0.394580  1.0  -0.0874
  C  C2022  1  0.769320  0.140780  0.393200  1.0  -0.1701
  C  C2023  1  0.800820  0.143260  0.387540  1.0  0.1789
  C  C2024  1  0.735610  0.171890  0.395210  1.0  0.4181
  C  C2025  1  0.676790  0.196470  0.404110  1.0  0.2784
  C  C2026  1  0.706500  0.230100  0.391200  1.0  0.341
  C  C2027  1  0.706460  0.331660  0.367360  1.0  0.1644
  C  C2028  1  0.738000  0.303480  0.368720  1.0  -0.1767
  C  C2029  1  0.738570  0.269510  0.376450  1.0  0.0026
  C  C2030  1  0.708660  0.265260  0.382360  1.0  -0.1347
  C  C2031  1  0.677300  0.296180  0.379120  1.0  0.1454
  C  C2032  1  0.578780  0.447920  0.338760  1.0  0.1452
  C  C2033  1  0.547910  0.476890  0.332710  1.0  -0.118
  C  C2034  1  0.516150  0.478850  0.361450  1.0  0.0126
  C  C2035  1  0.515440  0.451940  0.394240  1.0  -0.1512
  C  C2036  1  0.547790  0.423590  0.396970  1.0  0.1933
  C  C2037  1  0.482650  0.452850  0.425770  1.0  0.3819
  C  C2038  1  0.669870  0.429250  0.323730  1.0  0.2794
  C  C2039  1  0.643160  0.401660  0.039220  1.0  0.2167
  C  C2040  1  0.785860  0.402180  0.167460  1.0  0.155
  C  C2041  1  0.753860  0.410100  0.193620  1.0  -0.1246
  C  C2042  1  0.750770  0.421470  0.218890  1.0  -0.053
  C  C2043  1  0.781200  0.423940  0.215260  1.0  -0.1613
  C  C2044  1  0.812730  0.414530  0.189190  1.0  0.1727
  C  C2045  1  0.695850  0.386690  0.084850  1.0  0.1518
  C  C2046  1  0.724520  0.391020  0.081680  1.0  -0.1476
  C  C2047  1  0.725500  0.394580  0.108900  1.0  -0.082
  C  C2048  1  0.696700  0.393200  0.140780  1.0  -0.1709
  C  C2049  1  0.668380  0.387540  0.143260  1.0  0.1926
  C  C2050  1  0.697290  0.395210  0.171890  1.0  0.4172
  C  C2051  1  0.722630  0.404110  0.196470  1.0  0.2794
  C  C2052  1  0.672200  0.391200  0.230100  1.0  0.3406
  C  C2053  1  0.594520  0.367360  0.331660  1.0  0.1719
  C  C2054  1  0.589800  0.368720  0.303480  1.0  -0.1783
  C  C2055  1  0.615470  0.376450  0.269510  1.0  0.0037
  C  C2056  1  0.643720  0.382360  0.265260  1.0  -0.1311
  C  C2057  1  0.647400  0.379120  0.296180  1.0  0.1444
  C  C2058  1  0.634540  0.338760  0.447920  1.0  0.1412
  C  C2059  1  0.642490  0.332710  0.476890  1.0  -0.1137
  C  C2060  1  0.643550  0.361450  0.478850  1.0  0.0131
  C  C2061  1  0.638380  0.394240  0.451940  1.0  -0.1452
  C  C2062  1  0.631650  0.396970  0.423590  1.0  0.1978
  C  C2063  1  0.638730  0.425770  0.452850  1.0  0.3816
  C  C2064  1  0.577150  0.323730  0.429250  1.0  0.28
  S  S2065  1  0.496060  0.914340  0.159980  1.0  -0.3
  S  S2066  1  0.960240  0.798580  0.052640  1.0  -0.1794
  S  S2067  1  0.914340  0.496060  0.429620  1.0  -0.2984
  S  S2068  1  0.798580  0.960240  0.188540  1.0  -0.1804
  S  S2069  1  0.159980  0.429620  0.496060  1.0  -0.2977
  S  S2070  1  0.052640  0.188540  0.960240  1.0  -0.1795
  S  S2071  1  0.429620  0.159980  0.914340  1.0  -0.2988
  S  S2072  1  0.188540  0.052640  0.798580  1.0  -0.1802
  S  S2073  1  0.159980  0.496060  0.914340  1.0  -0.2993
  S  S2074  1  0.052640  0.960240  0.798580  1.0  -0.1794
  S  S2075  1  0.429620  0.914340  0.496060  1.0  -0.2983
  S  S2076  1  0.188540  0.798580  0.960240  1.0  -0.1817
  S  S2077  1  0.496060  0.159980  0.429620  1.0  -0.3
  S  S2078  1  0.960240  0.052640  0.188540  1.0  -0.1812
  S  S2079  1  0.914340  0.429620  0.159980  1.0  -0.3002
  S  S2080  1  0.798580  0.188540  0.052640  1.0  -0.1791
  S  S2081  1  0.914340  0.159980  0.496060  1.0  -0.2985
  S  S2082  1  0.798580  0.052640  0.960240  1.0  -0.1778
  S  S2083  1  0.496060  0.429620  0.914340  1.0  -0.2997
  S  S2084  1  0.960240  0.188540  0.798580  1.0  -0.177
  S  S2085  1  0.429620  0.496060  0.159980  1.0  -0.2994
  S  S2086  1  0.188540  0.960240  0.052640  1.0  -0.1792
  S  S2087  1  0.159980  0.914340  0.429620  1.0  -0.3001
  S  S2088  1  0.052640  0.798580  0.188540  1.0  -0.1783
  S  S2089  1  0.753940  0.335660  0.820380  1.0  -0.2993
  S  S2090  1  0.289760  0.451420  0.061460  1.0  -0.1785
  S  S2091  1  0.335660  0.753940  0.090020  1.0  -0.2986
  S  S2092  1  0.451420  0.289760  0.197360  1.0  -0.181
  S  S2093  1  0.090020  0.820380  0.335660  1.0  -0.2979
  S  S2094  1  0.197360  0.061460  0.451420  1.0  -0.1815
  S  S2095  1  0.820380  0.090020  0.753940  1.0  -0.2995
  S  S2096  1  0.061460  0.197360  0.289760  1.0  -0.1811
  S  S2097  1  0.090020  0.753940  0.820380  1.0  -0.2995
  S  S2098  1  0.197360  0.289760  0.061460  1.0  -0.1792
  S  S2099  1  0.820380  0.335660  0.090020  1.0  -0.2979
  S  S2100  1  0.061460  0.451420  0.197360  1.0  -0.1814
  S  S2101  1  0.753940  0.090020  0.335660  1.0  -0.2987
  S  S2102  1  0.289760  0.197360  0.451420  1.0  -0.1793
  S  S2103  1  0.335660  0.820380  0.753940  1.0  -0.3012
  S  S2104  1  0.451420  0.061460  0.289760  1.0  -0.1798
  S  S2105  1  0.335660  0.090020  0.820380  1.0  -0.2981
  S  S2106  1  0.451420  0.197360  0.061460  1.0  -0.1784
  S  S2107  1  0.753940  0.820380  0.090020  1.0  -0.2994
  S  S2108  1  0.289760  0.061460  0.197360  1.0  -0.1778
  S  S2109  1  0.820380  0.753940  0.335660  1.0  -0.2993
  S  S2110  1  0.061460  0.289760  0.451420  1.0  -0.1786
  S  S2111  1  0.090020  0.335660  0.753940  1.0  -0.2995
  S  S2112  1  0.197360  0.451420  0.289760  1.0  -0.1793
  S  S2113  1  0.253940  0.835660  0.590020  1.0  -0.299
  S  S2114  1  0.789760  0.951420  0.697360  1.0  -0.1793
  S  S2115  1  0.835660  0.253940  0.320380  1.0  -0.2987
  S  S2116  1  0.951420  0.789760  0.561460  1.0  -0.1793
  S  S2117  1  0.590020  0.320380  0.253940  1.0  -0.3001
  S  S2118  1  0.697360  0.561460  0.789760  1.0  -0.1803
  S  S2119  1  0.320380  0.590020  0.835660  1.0  -0.2974
  S  S2120  1  0.561460  0.697360  0.951420  1.0  -0.1814
  S  S2121  1  0.590020  0.253940  0.835660  1.0  -0.2994
  S  S2122  1  0.697360  0.789760  0.951420  1.0  -0.181
  S  S2123  1  0.320380  0.835660  0.253940  1.0  -0.3006
  S  S2124  1  0.561460  0.951420  0.789760  1.0  -0.1807
  S  S2125  1  0.253940  0.590020  0.320380  1.0  -0.2988
  S  S2126  1  0.789760  0.697360  0.561460  1.0  -0.1785
  S  S2127  1  0.835660  0.320380  0.590020  1.0  -0.2986
  S  S2128  1  0.951420  0.561460  0.697360  1.0  -0.1815
  S  S2129  1  0.835660  0.590020  0.253940  1.0  -0.2998
  S  S2130  1  0.951420  0.697360  0.789760  1.0  -0.1789
  S  S2131  1  0.253940  0.320380  0.835660  1.0  -0.2998
  S  S2132  1  0.789760  0.561460  0.951420  1.0  -0.1781
  S  S2133  1  0.320380  0.253940  0.590020  1.0  -0.2991
  S  S2134  1  0.561460  0.789760  0.697360  1.0  -0.1782
  S  S2135  1  0.590020  0.835660  0.320380  1.0  -0.298
  S  S2136  1  0.697360  0.951420  0.561460  1.0  -0.1789
  S  S2137  1  0.996060  0.414340  0.929620  1.0  -0.2998
  S  S2138  1  0.460240  0.298580  0.688540  1.0  -0.1813
  S  S2139  1  0.414340  0.996060  0.659980  1.0  -0.2984
  S  S2140  1  0.298580  0.460240  0.552640  1.0  -0.1793
  S  S2141  1  0.659980  0.929620  0.414340  1.0  -0.2996
  S  S2142  1  0.552640  0.688540  0.298580  1.0  -0.1792
  S  S2143  1  0.929620  0.659980  0.996060  1.0  -0.2973
  S  S2144  1  0.688540  0.552640  0.460240  1.0  -0.182
  S  S2145  1  0.659980  0.996060  0.929620  1.0  -0.2992
  S  S2146  1  0.552640  0.460240  0.688540  1.0  -0.1807
  S  S2147  1  0.929620  0.414340  0.659980  1.0  -0.2998
  S  S2148  1  0.688540  0.298580  0.552640  1.0  -0.1794
  S  S2149  1  0.996060  0.659980  0.414340  1.0  -0.3
  S  S2150  1  0.460240  0.552640  0.298580  1.0  -0.1792
  S  S2151  1  0.414340  0.929620  0.996060  1.0  -0.2984
  S  S2152  1  0.298580  0.688540  0.460240  1.0  -0.1792
  S  S2153  1  0.414340  0.659980  0.929620  1.0  -0.2996
  S  S2154  1  0.298580  0.552640  0.688540  1.0  -0.1782
  S  S2155  1  0.996060  0.929620  0.659980  1.0  -0.2997
  S  S2156  1  0.460240  0.688540  0.552640  1.0  -0.1773
  S  S2157  1  0.929620  0.996060  0.414340  1.0  -0.2993
  S  S2158  1  0.688540  0.460240  0.298580  1.0  -0.179
  S  S2159  1  0.659980  0.414340  0.996060  1.0  -0.2988
  S  S2160  1  0.552640  0.298580  0.460240  1.0  -0.1779
  N  N2161  1  0.570780  0.891340  0.132820  1.0  -0.3535
  N  N2162  1  0.908200  0.840640  0.095220  1.0  -0.4139
  N  N2163  1  0.664900  0.903080  0.316400  1.0  -0.3044
  N  N2164  1  0.615830  0.884150  0.167290  1.0  -0.3511
  N  N2165  1  0.702320  0.888740  0.170720  1.0  -0.477
  N  N2166  1  0.667320  0.902740  0.224300  1.0  -0.4048
  N  N2167  1  0.728430  0.899190  0.197090  1.0  -0.4194
  N  N2168  1  0.828730  0.872210  0.122750  1.0  -0.3215
  N  N2169  1  0.921410  0.870030  0.130290  1.0  -0.2978
  N  N2170  1  0.922950  0.954850  0.138870  1.0  -0.4522
  N  N2171  1  0.891340  0.570780  0.405060  1.0  -0.3562
  N  N2172  1  0.840640  0.908200  0.155940  1.0  -0.4168
  N  N2173  1  0.903080  0.664900  0.115620  1.0  -0.3035
  N  N2174  1  0.884150  0.615830  0.332730  1.0  -0.3505
  N  N2175  1  0.888740  0.702320  0.238220  1.0  -0.4763
  N  N2176  1  0.902740  0.667320  0.205640  1.0  -0.407
  N  N2177  1  0.899190  0.728430  0.175290  1.0  -0.4199
  N  N2178  1  0.872210  0.828730  0.176310  1.0  -0.3232
  N  N2179  1  0.870030  0.921410  0.078270  1.0  -0.2987
  N  N2180  1  0.954850  0.922950  0.983330  1.0  -0.4492
  N  N2181  1  0.132820  0.405060  0.570780  1.0  -0.3536
  N  N2182  1  0.095220  0.155940  0.908200  1.0  -0.4153
  N  N2183  1  0.316400  0.115620  0.664900  1.0  -0.3017
  N  N2184  1  0.167290  0.332730  0.615830  1.0  -0.3493
  N  N2185  1  0.170720  0.238220  0.702320  1.0  -0.4747
  N  N2186  1  0.224300  0.205640  0.667320  1.0  -0.3945
  N  N2187  1  0.197090  0.175290  0.728430  1.0  -0.4184
  N  N2188  1  0.122750  0.176310  0.828730  1.0  -0.3245
  N  N2189  1  0.130290  0.078270  0.921410  1.0  -0.2981
  N  N2190  1  0.138870  0.983330  0.922950  1.0  -0.448
  N  N2191  1  0.405060  0.132820  0.891340  1.0  -0.356
  N  N2192  1  0.155940  0.095220  0.840640  1.0  -0.412
  N  N2193  1  0.115620  0.316400  0.903080  1.0  -0.3037
  N  N2194  1  0.332730  0.167290  0.884150  1.0  -0.3484
  N  N2195  1  0.238220  0.170720  0.888740  1.0  -0.474
  N  N2196  1  0.205640  0.224300  0.902740  1.0  -0.3916
  N  N2197  1  0.175290  0.197090  0.899190  1.0  -0.4199
  N  N2198  1  0.176310  0.122750  0.872210  1.0  -0.3226
  N  N2199  1  0.078270  0.130290  0.870030  1.0  -0.2956
  N  N2200  1  0.983330  0.138870  0.954850  1.0  -0.4503
  N  N2201  1  0.132820  0.570780  0.891340  1.0  -0.357
  N  N2202  1  0.095220  0.908200  0.840640  1.0  -0.4136
  N  N2203  1  0.316400  0.664900  0.903080  1.0  -0.3027
  N  N2204  1  0.167290  0.615830  0.884150  1.0  -0.3478
  N  N2205  1  0.170720  0.702320  0.888740  1.0  -0.475
  N  N2206  1  0.224300  0.667320  0.902740  1.0  -0.3944
  N  N2207  1  0.197090  0.728430  0.899190  1.0  -0.4201
  N  N2208  1  0.122750  0.828730  0.872210  1.0  -0.3225
  N  N2209  1  0.130290  0.921410  0.870030  1.0  -0.2978
  N  N2210  1  0.138870  0.922950  0.954850  1.0  -0.4503
  N  N2211  1  0.405060  0.891340  0.570780  1.0  -0.3536
  N  N2212  1  0.155940  0.840640  0.908200  1.0  -0.4137
  N  N2213  1  0.115620  0.903080  0.664900  1.0  -0.3072
  N  N2214  1  0.332730  0.884150  0.615830  1.0  -0.348
  N  N2215  1  0.238220  0.888740  0.702320  1.0  -0.4655
  N  N2216  1  0.205640  0.902740  0.667320  1.0  -0.4085
  N  N2217  1  0.175290  0.899190  0.728430  1.0  -0.4191
  N  N2218  1  0.176310  0.872210  0.828730  1.0  -0.3212
  N  N2219  1  0.078270  0.870030  0.921410  1.0  -0.2958
  N  N2220  1  0.983330  0.954850  0.922950  1.0  -0.4503
  N  N2221  1  0.570780  0.132820  0.405060  1.0  -0.3512
  N  N2222  1  0.908200  0.095220  0.155940  1.0  -0.4146
  N  N2223  1  0.664900  0.316400  0.115620  1.0  -0.3045
  N  N2224  1  0.615830  0.167290  0.332730  1.0  -0.35
  N  N2225  1  0.702320  0.170720  0.238220  1.0  -0.4748
  N  N2226  1  0.667320  0.224300  0.205640  1.0  -0.4053
  N  N2227  1  0.728430  0.197090  0.175290  1.0  -0.4205
  N  N2228  1  0.828730  0.122750  0.176310  1.0  -0.3226
  N  N2229  1  0.921410  0.130290  0.078270  1.0  -0.2961
  N  N2230  1  0.922950  0.138870  0.983330  1.0  -0.4491
  N  N2231  1  0.891340  0.405060  0.132820  1.0  -0.3512
  N  N2232  1  0.840640  0.155940  0.095220  1.0  -0.4133
  N  N2233  1  0.903080  0.115620  0.316400  1.0  -0.3046
  N  N2234  1  0.884150  0.332730  0.167290  1.0  -0.3511
  N  N2235  1  0.888740  0.238220  0.170720  1.0  -0.4739
  N  N2236  1  0.902740  0.205640  0.224300  1.0  -0.3924
  N  N2237  1  0.899190  0.175290  0.197090  1.0  -0.4194
  N  N2238  1  0.872210  0.176310  0.122750  1.0  -0.3231
  N  N2239  1  0.870030  0.078270  0.130290  1.0  -0.2978
  N  N2240  1  0.954850  0.983330  0.138870  1.0  -0.4423
  N  N2241  1  0.891340  0.132820  0.570780  1.0  -0.3532
  N  N2242  1  0.840640  0.095220  0.908200  1.0  -0.4176
  N  N2243  1  0.903080  0.316400  0.664900  1.0  -0.3046
  N  N2244  1  0.884150  0.167290  0.615830  1.0  -0.3496
  N  N2245  1  0.888740  0.170720  0.702320  1.0  -0.4749
  N  N2246  1  0.902740  0.224300  0.667320  1.0  -0.3947
  N  N2247  1  0.899190  0.197090  0.728430  1.0  -0.4221
  N  N2248  1  0.872210  0.122750  0.828730  1.0  -0.3243
  N  N2249  1  0.870030  0.130290  0.921410  1.0  -0.3003
  N  N2250  1  0.954850  0.138870  0.922950  1.0  -0.4527
  N  N2251  1  0.570780  0.405060  0.891340  1.0  -0.3519
  N  N2252  1  0.908200  0.155940  0.840640  1.0  -0.4144
  N  N2253  1  0.664900  0.115620  0.903080  1.0  -0.3028
  N  N2254  1  0.615830  0.332730  0.884150  1.0  -0.3534
  N  N2255  1  0.702320  0.238220  0.888740  1.0  -0.4733
  N  N2256  1  0.667320  0.205640  0.902740  1.0  -0.4054
  N  N2257  1  0.728430  0.175290  0.899190  1.0  -0.4171
  N  N2258  1  0.828730  0.176310  0.872210  1.0  -0.3227
  N  N2259  1  0.921410  0.078270  0.870030  1.0  -0.2982
  N  N2260  1  0.922950  0.983330  0.954850  1.0  -0.4491
  N  N2261  1  0.405060  0.570780  0.132820  1.0  -0.3565
  N  N2262  1  0.155940  0.908200  0.095220  1.0  -0.4145
  N  N2263  1  0.115620  0.664900  0.316400  1.0  -0.3054
  N  N2264  1  0.332730  0.615830  0.167290  1.0  -0.3485
  N  N2265  1  0.238220  0.702320  0.170720  1.0  -0.4753
  N  N2266  1  0.205640  0.667320  0.224300  1.0  -0.4045
  N  N2267  1  0.175290  0.728430  0.197090  1.0  -0.4198
  N  N2268  1  0.176310  0.828730  0.122750  1.0  -0.3228
  N  N2269  1  0.078270  0.921410  0.130290  1.0  -0.2975
  N  N2270  1  0.983330  0.922950  0.138870  1.0  -0.4477
  N  N2271  1  0.132820  0.891340  0.405060  1.0  -0.3528
  N  N2272  1  0.095220  0.840640  0.155940  1.0  -0.4177
  N  N2273  1  0.316400  0.903080  0.115620  1.0  -0.3027
  N  N2274  1  0.167290  0.884150  0.332730  1.0  -0.347
  N  N2275  1  0.170720  0.888740  0.238220  1.0  -0.4766
  N  N2276  1  0.224300  0.902740  0.205640  1.0  -0.3916
  N  N2277  1  0.197090  0.899190  0.175290  1.0  -0.4208
  N  N2278  1  0.122750  0.872210  0.176310  1.0  -0.3249
  N  N2279  1  0.130290  0.870030  0.078270  1.0  -0.2997
  N  N2280  1  0.138870  0.954850  0.983330  1.0  -0.4488
  N  N2281  1  0.679220  0.358660  0.844940  1.0  -0.355
  N  N2282  1  0.341800  0.409360  0.094060  1.0  -0.4143
  N  N2283  1  0.585100  0.346920  0.134380  1.0  -0.3022
  N  N2284  1  0.634170  0.365850  0.917270  1.0  -0.3512
  N  N2285  1  0.547680  0.361260  0.011780  1.0  -0.4763
  N  N2286  1  0.582680  0.347260  0.044360  1.0  -0.3996
  N  N2287  1  0.521570  0.350810  0.074710  1.0  -0.4195
  N  N2288  1  0.421270  0.377790  0.073690  1.0  -0.3235
  N  N2289  1  0.328590  0.379970  0.171730  1.0  -0.2963
  N  N2290  1  0.327050  0.295150  0.266670  1.0  -0.45
  N  N2291  1  0.358660  0.679220  0.117180  1.0  -0.3562
  N  N2292  1  0.409360  0.341800  0.154780  1.0  -0.4145
  N  N2293  1  0.346920  0.585100  0.933600  1.0  -0.303
  N  N2294  1  0.365850  0.634170  0.082710  1.0  -0.3511
  N  N2295  1  0.361260  0.547680  0.079280  1.0  -0.4756
  N  N2296  1  0.347260  0.582680  0.025700  1.0  -0.3918
  N  N2297  1  0.350810  0.521570  0.052910  1.0  -0.419
  N  N2298  1  0.377790  0.421270  0.127250  1.0  -0.3245
  N  N2299  1  0.379970  0.328590  0.119710  1.0  -0.2987
  N  N2300  1  0.295150  0.327050  0.111130  1.0  -0.4422
  N  N2301  1  0.117180  0.844940  0.358660  1.0  -0.3524
  N  N2302  1  0.154780  0.094060  0.409360  1.0  -0.4135
  N  N2303  1  0.933600  0.134380  0.346920  1.0  -0.3012
  N  N2304  1  0.082710  0.917270  0.365850  1.0  -0.3489
  N  N2305  1  0.079280  0.011780  0.361260  1.0  -0.4742
  N  N2306  1  0.025700  0.044360  0.347260  1.0  -0.4048
  N  N2307  1  0.052910  0.074710  0.350810  1.0  -0.4187
  N  N2308  1  0.127250  0.073690  0.377790  1.0  -0.3244
  N  N2309  1  0.119710  0.171730  0.379970  1.0  -0.2989
  N  N2310  1  0.111130  0.266670  0.295150  1.0  -0.451
  N  N2311  1  0.844940  0.117180  0.679220  1.0  -0.3555
  N  N2312  1  0.094060  0.154780  0.341800  1.0  -0.4123
  N  N2313  1  0.134380  0.933600  0.585100  1.0  -0.3053
  N  N2314  1  0.917270  0.082710  0.634170  1.0  -0.3487
  N  N2315  1  0.011780  0.079280  0.547680  1.0  -0.4749
  N  N2316  1  0.044360  0.025700  0.582680  1.0  -0.4048
  N  N2317  1  0.074710  0.052910  0.521570  1.0  -0.4199
  N  N2318  1  0.073690  0.127250  0.421270  1.0  -0.3242
  N  N2319  1  0.171730  0.119710  0.328590  1.0  -0.2982
  N  N2320  1  0.266670  0.111130  0.327050  1.0  -0.4504
  N  N2321  1  0.117180  0.679220  0.844940  1.0  -0.3553
  N  N2322  1  0.154780  0.341800  0.094060  1.0  -0.4132
  N  N2323  1  0.933600  0.585100  0.134380  1.0  -0.3049
  N  N2324  1  0.082710  0.634170  0.917270  1.0  -0.3495
  N  N2325  1  0.079280  0.547680  0.011780  1.0  -0.4749
  N  N2326  1  0.025700  0.582680  0.044360  1.0  -0.4037
  N  N2327  1  0.052910  0.521570  0.074710  1.0  -0.4198
  N  N2328  1  0.127250  0.421270  0.073690  1.0  -0.3236
  N  N2329  1  0.119710  0.328590  0.171730  1.0  -0.2956
  N  N2330  1  0.111130  0.327050  0.266670  1.0  -0.443
  N  N2331  1  0.844940  0.358660  0.117180  1.0  -0.354
  N  N2332  1  0.094060  0.409360  0.154780  1.0  -0.4143
  N  N2333  1  0.134380  0.346920  0.933600  1.0  -0.3066
  N  N2334  1  0.917270  0.365850  0.082710  1.0  -0.3471
  N  N2335  1  0.011780  0.361260  0.079280  1.0  -0.4762
  N  N2336  1  0.044360  0.347260  0.025700  1.0  -0.4084
  N  N2337  1  0.074710  0.350810  0.052910  1.0  -0.4196
  N  N2338  1  0.073690  0.377790  0.127250  1.0  -0.3215
  N  N2339  1  0.171730  0.379970  0.119710  1.0  -0.2966
  N  N2340  1  0.266670  0.295150  0.111130  1.0  -0.4518
  N  N2341  1  0.679220  0.117180  0.358660  1.0  -0.3554
  N  N2342  1  0.341800  0.154780  0.409360  1.0  -0.4162
  N  N2343  1  0.585100  0.933600  0.346920  1.0  -0.3043
  N  N2344  1  0.634170  0.082710  0.365850  1.0  -0.3515
  N  N2345  1  0.547680  0.079280  0.361260  1.0  -0.4729
  N  N2346  1  0.582680  0.025700  0.347260  1.0  -0.4047
  N  N2347  1  0.521570  0.052910  0.350810  1.0  -0.4197
  N  N2348  1  0.421270  0.127250  0.377790  1.0  -0.323
  N  N2349  1  0.328590  0.119710  0.379970  1.0  -0.2945
  N  N2350  1  0.327050  0.111130  0.295150  1.0  -0.4488
  N  N2351  1  0.358660  0.844940  0.679220  1.0  -0.3533
  N  N2352  1  0.409360  0.094060  0.341800  1.0  -0.4117
  N  N2353  1  0.346920  0.134380  0.585100  1.0  -0.3051
  N  N2354  1  0.365850  0.917270  0.634170  1.0  -0.3519
  N  N2355  1  0.361260  0.011780  0.547680  1.0  -0.4745
  N  N2356  1  0.347260  0.044360  0.582680  1.0  -0.3951
  N  N2357  1  0.350810  0.074710  0.521570  1.0  -0.4196
  N  N2358  1  0.377790  0.073690  0.421270  1.0  -0.3234
  N  N2359  1  0.379970  0.171730  0.328590  1.0  -0.2986
  N  N2360  1  0.295150  0.266670  0.327050  1.0  -0.449
  N  N2361  1  0.358660  0.117180  0.844940  1.0  -0.3524
  N  N2362  1  0.409360  0.154780  0.094060  1.0  -0.4154
  N  N2363  1  0.346920  0.933600  0.134380  1.0  -0.3062
  N  N2364  1  0.365850  0.082710  0.917270  1.0  -0.3521
  N  N2365  1  0.361260  0.079280  0.011780  1.0  -0.4721
  N  N2366  1  0.347260  0.025700  0.044360  1.0  -0.4058
  N  N2367  1  0.350810  0.052910  0.074710  1.0  -0.4228
  N  N2368  1  0.377790  0.127250  0.073690  1.0  -0.3242
  N  N2369  1  0.379970  0.119710  0.171730  1.0  -0.2989
  N  N2370  1  0.295150  0.111130  0.266670  1.0  -0.4532
  N  N2371  1  0.679220  0.844940  0.117180  1.0  -0.3539
  N  N2372  1  0.341800  0.094060  0.154780  1.0  -0.4167
  N  N2373  1  0.585100  0.134380  0.933600  1.0  -0.3037
  N  N2374  1  0.634170  0.917270  0.082710  1.0  -0.3509
  N  N2375  1  0.547680  0.011780  0.079280  1.0  -0.4737
  N  N2376  1  0.582680  0.044360  0.025700  1.0  -0.3918
  N  N2377  1  0.521570  0.074710  0.052910  1.0  -0.4184
  N  N2378  1  0.421270  0.073690  0.127250  1.0  -0.3242
  N  N2379  1  0.328590  0.171730  0.119710  1.0  -0.2972
  N  N2380  1  0.327050  0.266670  0.111130  1.0  -0.4486
  N  N2381  1  0.844940  0.679220  0.358660  1.0  -0.3559
  N  N2382  1  0.094060  0.341800  0.409360  1.0  -0.4171
  N  N2383  1  0.134380  0.585100  0.346920  1.0  -0.3048
  N  N2384  1  0.917270  0.634170  0.365850  1.0  -0.3475
  N  N2385  1  0.011780  0.547680  0.361260  1.0  -0.4752
  N  N2386  1  0.044360  0.582680  0.347260  1.0  -0.3905
  N  N2387  1  0.074710  0.521570  0.350810  1.0  -0.4188
  N  N2388  1  0.073690  0.421270  0.377790  1.0  -0.323
  N  N2389  1  0.171730  0.328590  0.379970  1.0  -0.2979
  N  N2390  1  0.266670  0.327050  0.295150  1.0  -0.4478
  N  N2391  1  0.117180  0.358660  0.679220  1.0  -0.3537
  N  N2392  1  0.154780  0.409360  0.341800  1.0  -0.4156
  N  N2393  1  0.933600  0.346920  0.585100  1.0  -0.3019
  N  N2394  1  0.082710  0.365850  0.634170  1.0  -0.3486
  N  N2395  1  0.079280  0.361260  0.547680  1.0  -0.4745
  N  N2396  1  0.025700  0.347260  0.582680  1.0  -0.4058
  N  N2397  1  0.052910  0.350810  0.521570  1.0  -0.4217
  N  N2398  1  0.127250  0.377790  0.421270  1.0  -0.326
  N  N2399  1  0.119710  0.379970  0.328590  1.0  -0.2992
  N  N2400  1  0.111130  0.295150  0.327050  1.0  -0.4436
  N  N2401  1  0.179220  0.858660  0.617180  1.0  -0.3546
  N  N2402  1  0.841800  0.909360  0.654780  1.0  -0.4169
  N  N2403  1  0.085100  0.846920  0.433600  1.0  -0.3027
  N  N2404  1  0.134170  0.865850  0.582710  1.0  -0.3508
  N  N2405  1  0.047680  0.861260  0.579280  1.0  -0.4754
  N  N2406  1  0.082680  0.847260  0.525700  1.0  -0.3963
  N  N2407  1  0.021570  0.850810  0.552910  1.0  -0.42
  N  N2408  1  0.921270  0.877790  0.627250  1.0  -0.3234
  N  N2409  1  0.828590  0.879970  0.619710  1.0  -0.295
  N  N2410  1  0.827050  0.795150  0.611130  1.0  -0.4488
  N  N2411  1  0.858660  0.179220  0.344940  1.0  -0.3557
  N  N2412  1  0.909360  0.841800  0.594060  1.0  -0.4135
  N  N2413  1  0.846920  0.085100  0.634380  1.0  -0.3028
  N  N2414  1  0.865850  0.134170  0.417270  1.0  -0.3514
  N  N2415  1  0.861260  0.047680  0.511780  1.0  -0.4777
  N  N2416  1  0.847260  0.082680  0.544360  1.0  -0.3919
  N  N2417  1  0.850810  0.021570  0.574710  1.0  -0.4186
  N  N2418  1  0.877790  0.921270  0.573690  1.0  -0.3247
  N  N2419  1  0.879970  0.828590  0.671730  1.0  -0.2986
  N  N2420  1  0.795150  0.827050  0.766670  1.0  -0.4481
  N  N2421  1  0.617180  0.344940  0.179220  1.0  -0.3538
  N  N2422  1  0.654780  0.594060  0.841800  1.0  -0.4121
  N  N2423  1  0.433600  0.634380  0.085100  1.0  -0.3019
  N  N2424  1  0.582710  0.417270  0.134170  1.0  -0.3474
  N  N2425  1  0.579280  0.511780  0.047680  1.0  -0.4733
  N  N2426  1  0.525700  0.544360  0.082680  1.0  -0.4051
  N  N2427  1  0.552910  0.574710  0.021570  1.0  -0.419
  N  N2428  1  0.627250  0.573690  0.921270  1.0  -0.324
  N  N2429  1  0.619710  0.671730  0.828590  1.0  -0.2987
  N  N2430  1  0.611130  0.766670  0.827050  1.0  -0.4489
  N  N2431  1  0.344940  0.617180  0.858660  1.0  -0.3539
  N  N2432  1  0.594060  0.654780  0.909360  1.0  -0.4142
  N  N2433  1  0.634380  0.433600  0.846920  1.0  -0.3053
  N  N2434  1  0.417270  0.582710  0.865850  1.0  -0.3478
  N  N2435  1  0.511780  0.579280  0.861260  1.0  -0.4744
  N  N2436  1  0.544360  0.525700  0.847260  1.0  -0.4068
  N  N2437  1  0.574710  0.552910  0.850810  1.0  -0.4191
  N  N2438  1  0.573690  0.627250  0.877790  1.0  -0.3227
  N  N2439  1  0.671730  0.619710  0.879970  1.0  -0.2981
  N  N2440  1  0.766670  0.611130  0.795150  1.0  -0.4522
  N  N2441  1  0.617180  0.179220  0.858660  1.0  -0.3552
  N  N2442  1  0.654780  0.841800  0.909360  1.0  -0.4145
  N  N2443  1  0.433600  0.085100  0.846920  1.0  -0.3029
  N  N2444  1  0.582710  0.134170  0.865850  1.0  -0.3488
  N  N2445  1  0.579280  0.047680  0.861260  1.0  -0.4738
  N  N2446  1  0.525700  0.082680  0.847260  1.0  -0.4042
  N  N2447  1  0.552910  0.021570  0.850810  1.0  -0.4202
  N  N2448  1  0.627250  0.921270  0.877790  1.0  -0.3243
  N  N2449  1  0.619710  0.828590  0.879970  1.0  -0.2961
  N  N2450  1  0.611130  0.827050  0.795150  1.0  -0.4472
  N  N2451  1  0.344940  0.858660  0.179220  1.0  -0.3541
  N  N2452  1  0.594060  0.909360  0.841800  1.0  -0.4122
  N  N2453  1  0.634380  0.846920  0.085100  1.0  -0.3049
  N  N2454  1  0.417270  0.865850  0.134170  1.0  -0.3484
  N  N2455  1  0.511780  0.861260  0.047680  1.0  -0.4759
  N  N2456  1  0.544360  0.847260  0.082680  1.0  -0.3929
  N  N2457  1  0.574710  0.850810  0.021570  1.0  -0.4201
  N  N2458  1  0.573690  0.877790  0.921270  1.0  -0.3211
  N  N2459  1  0.671730  0.879970  0.828590  1.0  -0.2965
  N  N2460  1  0.766670  0.795150  0.827050  1.0  -0.4507
  N  N2461  1  0.179220  0.617180  0.344940  1.0  -0.3559
  N  N2462  1  0.841800  0.654780  0.594060  1.0  -0.4144
  N  N2463  1  0.085100  0.433600  0.634380  1.0  -0.3044
  N  N2464  1  0.134170  0.582710  0.417270  1.0  -0.3519
  N  N2465  1  0.047680  0.579280  0.511780  1.0  -0.4738
  N  N2466  1  0.082680  0.525700  0.544360  1.0  -0.3949
  N  N2467  1  0.021570  0.552910  0.574710  1.0  -0.4192
  N  N2468  1  0.921270  0.627250  0.573690  1.0  -0.322
  N  N2469  1  0.828590  0.619710  0.671730  1.0  -0.2943
  N  N2470  1  0.827050  0.611130  0.766670  1.0  -0.4447
  N  N2471  1  0.858660  0.344940  0.617180  1.0  -0.3534
  N  N2472  1  0.909360  0.594060  0.654780  1.0  -0.4134
  N  N2473  1  0.846920  0.634380  0.433600  1.0  -0.3061
  N  N2474  1  0.865850  0.417270  0.582710  1.0  -0.3518
  N  N2475  1  0.861260  0.511780  0.579280  1.0  -0.4739
  N  N2476  1  0.847260  0.544360  0.525700  1.0  -0.4068
  N  N2477  1  0.850810  0.574710  0.552910  1.0  -0.4193
  N  N2478  1  0.877790  0.573690  0.627250  1.0  -0.3238
  N  N2479  1  0.879970  0.671730  0.619710  1.0  -0.2984
  N  N2480  1  0.795150  0.766670  0.611130  1.0  -0.4503
  N  N2481  1  0.858660  0.617180  0.179220  1.0  -0.3531
  N  N2482  1  0.909360  0.654780  0.841800  1.0  -0.4157
  N  N2483  1  0.846920  0.433600  0.085100  1.0  -0.3051
  N  N2484  1  0.865850  0.582710  0.134170  1.0  -0.3504
  N  N2485  1  0.861260  0.579280  0.047680  1.0  -0.4727
  N  N2486  1  0.847260  0.525700  0.082680  1.0  -0.4047
  N  N2487  1  0.850810  0.552910  0.021570  1.0  -0.4217
  N  N2488  1  0.877790  0.627250  0.921270  1.0  -0.3264
  N  N2489  1  0.879970  0.619710  0.828590  1.0  -0.2985
  N  N2490  1  0.795150  0.611130  0.827050  1.0  -0.4493
  N  N2491  1  0.179220  0.344940  0.858660  1.0  -0.3538
  N  N2492  1  0.841800  0.594060  0.909360  1.0  -0.4165
  N  N2493  1  0.085100  0.634380  0.846920  1.0  -0.3031
  N  N2494  1  0.134170  0.417270  0.865850  1.0  -0.3512
  N  N2495  1  0.047680  0.511780  0.861260  1.0  -0.4746
  N  N2496  1  0.082680  0.544360  0.847260  1.0  -0.3919
  N  N2497  1  0.021570  0.574710  0.850810  1.0  -0.4181
  N  N2498  1  0.921270  0.573690  0.877790  1.0  -0.3248
  N  N2499  1  0.828590  0.671730  0.879970  1.0  -0.2978
  N  N2500  1  0.827050  0.766670  0.795150  1.0  -0.447
  N  N2501  1  0.344940  0.179220  0.617180  1.0  -0.3568
  N  N2502  1  0.594060  0.841800  0.654780  1.0  -0.4173
  N  N2503  1  0.634380  0.085100  0.433600  1.0  -0.3053
  N  N2504  1  0.417270  0.134170  0.582710  1.0  -0.3475
  N  N2505  1  0.511780  0.047680  0.579280  1.0  -0.4756
  N  N2506  1  0.544360  0.082680  0.525700  1.0  -0.3902
  N  N2507  1  0.574710  0.021570  0.552910  1.0  -0.4191
  N  N2508  1  0.573690  0.921270  0.627250  1.0  -0.3229
  N  N2509  1  0.671730  0.828590  0.619710  1.0  -0.2984
  N  N2510  1  0.766670  0.827050  0.611130  1.0  -0.4466
  N  N2511  1  0.617180  0.858660  0.344940  1.0  -0.3529
  N  N2512  1  0.654780  0.909360  0.594060  1.0  -0.415
  N  N2513  1  0.433600  0.846920  0.634380  1.0  -0.3027
  N  N2514  1  0.582710  0.865850  0.417270  1.0  -0.3485
  N  N2515  1  0.579280  0.861260  0.511780  1.0  -0.474
  N  N2516  1  0.525700  0.847260  0.544360  1.0  -0.4076
  N  N2517  1  0.552910  0.850810  0.574710  1.0  -0.4224
  N  N2518  1  0.627250  0.877790  0.573690  1.0  -0.3243
  N  N2519  1  0.619710  0.879970  0.671730  1.0  -0.2999
  N  N2520  1  0.611130  0.795150  0.766670  1.0  -0.4529
  N  N2521  1  0.070780  0.391340  0.905060  1.0  -0.3537
  N  N2522  1  0.408200  0.340640  0.655940  1.0  -0.415
  N  N2523  1  0.164900  0.403080  0.615620  1.0  -0.3025
  N  N2524  1  0.115830  0.384150  0.832730  1.0  -0.351
  N  N2525  1  0.202320  0.388740  0.738220  1.0  -0.477
  N  N2526  1  0.167320  0.402740  0.705640  1.0  -0.405
  N  N2527  1  0.228430  0.399190  0.675290  1.0  -0.4198
  N  N2528  1  0.328730  0.372210  0.676310  1.0  -0.323
  N  N2529  1  0.421410  0.370030  0.578270  1.0  -0.2985
  N  N2530  1  0.422950  0.454850  0.483330  1.0  -0.451
  N  N2531  1  0.391340  0.070780  0.632820  1.0  -0.3558
  N  N2532  1  0.340640  0.408200  0.595220  1.0  -0.4142
  N  N2533  1  0.403080  0.164900  0.816400  1.0  -0.3057
  N  N2534  1  0.384150  0.115830  0.667290  1.0  -0.3507
  N  N2535  1  0.388740  0.202320  0.670720  1.0  -0.4766
  N  N2536  1  0.402740  0.167320  0.724300  1.0  -0.4062
  N  N2537  1  0.399190  0.228430  0.697090  1.0  -0.4194
  N  N2538  1  0.372210  0.328730  0.622750  1.0  -0.3226
  N  N2539  1  0.370030  0.421410  0.630290  1.0  -0.2992
  N  N2540  1  0.454850  0.422950  0.638870  1.0  -0.4502
  N  N2541  1  0.632820  0.905060  0.391340  1.0  -0.3538
  N  N2542  1  0.595220  0.655940  0.340640  1.0  -0.4128
  N  N2543  1  0.816400  0.615620  0.403080  1.0  -0.3019
  N  N2544  1  0.667290  0.832730  0.384150  1.0  -0.3475
  N  N2545  1  0.670720  0.738220  0.388740  1.0  -0.475
  N  N2546  1  0.724300  0.705640  0.402740  1.0  -0.3901
  N  N2547  1  0.697090  0.675290  0.399190  1.0  -0.4189
  N  N2548  1  0.622750  0.676310  0.372210  1.0  -0.3247
  N  N2549  1  0.630290  0.578270  0.370030  1.0  -0.2983
  N  N2550  1  0.638870  0.483330  0.454850  1.0  -0.438
  N  N2551  1  0.905060  0.632820  0.070780  1.0  -0.3558
  N  N2552  1  0.655940  0.595220  0.408200  1.0  -0.4134
  N  N2553  1  0.615620  0.816400  0.164900  1.0  -0.3036
  N  N2554  1  0.832730  0.667290  0.115830  1.0  -0.3472
  N  N2555  1  0.738220  0.670720  0.202320  1.0  -0.4739
  N  N2556  1  0.705640  0.724300  0.167320  1.0  -0.3955
  N  N2557  1  0.675290  0.697090  0.228430  1.0  -0.4196
  N  N2558  1  0.676310  0.622750  0.328730  1.0  -0.3244
  N  N2559  1  0.578270  0.630290  0.421410  1.0  -0.2958
  N  N2560  1  0.483330  0.638870  0.422950  1.0  -0.4511
  N  N2561  1  0.632820  0.070780  0.905060  1.0  -0.357
  N  N2562  1  0.595220  0.408200  0.655940  1.0  -0.4153
  N  N2563  1  0.816400  0.164900  0.615620  1.0  -0.3032
  N  N2564  1  0.667290  0.115830  0.832730  1.0  -0.347
  N  N2565  1  0.670720  0.202320  0.738220  1.0  -0.4761
  N  N2566  1  0.724300  0.167320  0.705640  1.0  -0.3949
  N  N2567  1  0.697090  0.228430  0.675290  1.0  -0.4202
  N  N2568  1  0.622750  0.328730  0.676310  1.0  -0.3237
  N  N2569  1  0.630290  0.421410  0.578270  1.0  -0.2984
  N  N2570  1  0.638870  0.422950  0.483330  1.0  -0.449
  N  N2571  1  0.905060  0.391340  0.632820  1.0  -0.3528
  N  N2572  1  0.655940  0.340640  0.595220  1.0  -0.412
  N  N2573  1  0.615620  0.403080  0.816400  1.0  -0.3054
  N  N2574  1  0.832730  0.384150  0.667290  1.0  -0.3477
  N  N2575  1  0.738220  0.388740  0.670720  1.0  -0.4752
  N  N2576  1  0.705640  0.402740  0.724300  1.0  -0.3971
  N  N2577  1  0.675290  0.399190  0.697090  1.0  -0.4192
  N  N2578  1  0.676310  0.372210  0.622750  1.0  -0.3214
  N  N2579  1  0.578270  0.370030  0.630290  1.0  -0.2952
  N  N2580  1  0.483330  0.454850  0.638870  1.0  -0.4488
  N  N2581  1  0.070780  0.632820  0.391340  1.0  -0.3512
  N  N2582  1  0.408200  0.595220  0.340640  1.0  -0.4134
  N  N2583  1  0.164900  0.816400  0.403080  1.0  -0.3037
  N  N2584  1  0.115830  0.667290  0.384150  1.0  -0.3524
  N  N2585  1  0.202320  0.670720  0.388740  1.0  -0.4751
  N  N2586  1  0.167320  0.724300  0.402740  1.0  -0.3948
  N  N2587  1  0.228430  0.697090  0.399190  1.0  -0.4202
  N  N2588  1  0.328730  0.622750  0.372210  1.0  -0.322
  N  N2589  1  0.421410  0.630290  0.370030  1.0  -0.2959
  N  N2590  1  0.422950  0.638870  0.454850  1.0  -0.4517
  N  N2591  1  0.391340  0.905060  0.070780  1.0  -0.3519
  N  N2592  1  0.340640  0.655940  0.408200  1.0  -0.4155
  N  N2593  1  0.403080  0.615620  0.164900  1.0  -0.3055
  N  N2594  1  0.384150  0.832730  0.115830  1.0  -0.3515
  N  N2595  1  0.388740  0.738220  0.202320  1.0  -0.4737
  N  N2596  1  0.402740  0.705640  0.167320  1.0  -0.4076
  N  N2597  1  0.399190  0.675290  0.228430  1.0  -0.4191
  N  N2598  1  0.372210  0.676310  0.328730  1.0  -0.3236
  N  N2599  1  0.370030  0.578270  0.421410  1.0  -0.2977
  N  N2600  1  0.454850  0.483330  0.422950  1.0  -0.4481
  N  N2601  1  0.391340  0.632820  0.905060  1.0  -0.3532
  N  N2602  1  0.340640  0.595220  0.655940  1.0  -0.4175
  N  N2603  1  0.403080  0.816400  0.615620  1.0  -0.3045
  N  N2604  1  0.384150  0.667290  0.832730  1.0  -0.352
  N  N2605  1  0.388740  0.670720  0.738220  1.0  -0.4751
  N  N2606  1  0.402740  0.724300  0.705640  1.0  -0.3902
  N  N2607  1  0.399190  0.697090  0.675290  1.0  -0.4213
  N  N2608  1  0.372210  0.622750  0.676310  1.0  -0.3241
  N  N2609  1  0.370030  0.630290  0.578270  1.0  -0.2992
  N  N2610  1  0.454850  0.638870  0.483330  1.0  -0.4494
  N  N2611  1  0.070780  0.905060  0.632820  1.0  -0.3519
  N  N2612  1  0.408200  0.655940  0.595220  1.0  -0.4144
  N  N2613  1  0.164900  0.615620  0.816400  1.0  -0.3045
  N  N2614  1  0.115830  0.832730  0.667290  1.0  -0.3502
  N  N2615  1  0.202320  0.738220  0.670720  1.0  -0.4736
  N  N2616  1  0.167320  0.705640  0.724300  1.0  -0.4054
  N  N2617  1  0.228430  0.675290  0.697090  1.0  -0.4169
  N  N2618  1  0.328730  0.676310  0.622750  1.0  -0.323
  N  N2619  1  0.421410  0.578270  0.630290  1.0  -0.2975
  N  N2620  1  0.422950  0.483330  0.638870  1.0  -0.4474
  N  N2621  1  0.905060  0.070780  0.391340  1.0  -0.357
  N  N2622  1  0.655940  0.408200  0.340640  1.0  -0.4144
  N  N2623  1  0.615620  0.164900  0.403080  1.0  -0.3061
  N  N2624  1  0.832730  0.115830  0.384150  1.0  -0.3487
  N  N2625  1  0.738220  0.202320  0.388740  1.0  -0.4753
  N  N2626  1  0.705640  0.167320  0.402740  1.0  -0.4053
  N  N2627  1  0.675290  0.228430  0.399190  1.0  -0.4202
  N  N2628  1  0.676310  0.328730  0.372210  1.0  -0.3222
  N  N2629  1  0.578270  0.421410  0.370030  1.0  -0.2973
  N  N2630  1  0.483330  0.422950  0.454850  1.0  -0.4469
  N  N2631  1  0.632820  0.391340  0.070780  1.0  -0.3527
  N  N2632  1  0.595220  0.340640  0.408200  1.0  -0.4178
  N  N2633  1  0.816400  0.403080  0.164900  1.0  -0.3033
  N  N2634  1  0.667290  0.384150  0.115830  1.0  -0.3471
  N  N2635  1  0.670720  0.388740  0.202320  1.0  -0.476
  N  N2636  1  0.724300  0.402740  0.167320  1.0  -0.3923
  N  N2637  1  0.697090  0.399190  0.228430  1.0  -0.4218
  N  N2638  1  0.622750  0.372210  0.328730  1.0  -0.3239
  N  N2639  1  0.630290  0.370030  0.421410  1.0  -0.2998
  N  N2640  1  0.638870  0.454850  0.422950  1.0  -0.4529
