# generated using pymatgen
data_CoH16C26(SN5)2
_symmetry_space_group_name_H-M   'P 1'
_cell_length_a   63.89530000
_cell_length_b   63.89530000
_cell_length_c   63.89530000
_cell_angle_alpha   90.00000000
_cell_angle_beta   90.00000000
_cell_angle_gamma   90.00000000
_symmetry_Int_Tables_number   1
_chemical_formula_structural   CoH16C26(SN5)2
_chemical_formula_sum   'Co192 H3072 C4992 S384 N1920'
_cell_volume   260859.54997355
_cell_formula_units_Z   192
loop_
 _symmetry_equiv_pos_site_id
 _symmetry_equiv_pos_as_xyz
  1  'x, y, z'
loop_
 _atom_site_type_symbol
 _atom_site_label
 _atom_site_symmetry_multiplicity
 _atom_site_fract_x
 _atom_site_fract_y
 _atom_site_fract_z
 _atom_site_occupancy
 _atom_site_charge
  Co  Co1  1  0.371820  0.500000  0.121820  1.0  0.7259
  Co  Co2  1  0.371820  0.000000  0.621820  1.0  0.7259
  Co  Co3  1  0.871820  0.500000  0.621820  1.0  0.7259
  Co  Co4  1  0.871820  0.000000  0.121820  1.0  0.7259
  Co  Co5  1  0.878180  0.250000  0.621820  1.0  0.7262
  Co  Co6  1  0.878180  0.750000  0.121820  1.0  0.7262
  Co  Co7  1  0.378180  0.250000  0.121820  1.0  0.7262
  Co  Co8  1  0.378180  0.750000  0.621820  1.0  0.7262
  Co  Co9  1  0.378180  0.000000  0.128180  1.0  0.7264
  Co  Co10  1  0.378180  0.500000  0.628180  1.0  0.7264
  Co  Co11  1  0.878180  0.000000  0.628180  1.0  0.7264
  Co  Co12  1  0.878180  0.500000  0.128180  1.0  0.7264
  Co  Co13  1  0.871820  0.750000  0.628180  1.0  0.7261
  Co  Co14  1  0.871820  0.250000  0.128180  1.0  0.7261
  Co  Co15  1  0.371820  0.750000  0.128180  1.0  0.7261
  Co  Co16  1  0.371820  0.250000  0.628180  1.0  0.7261
  Co  Co17  1  0.121820  0.371820  0.500000  1.0  0.7264
  Co  Co18  1  0.121820  0.871820  0.000000  1.0  0.7264
  Co  Co19  1  0.621820  0.371820  0.000000  1.0  0.7264
  Co  Co20  1  0.621820  0.871820  0.500000  1.0  0.7264
  Co  Co21  1  0.621820  0.878180  0.250000  1.0  0.7259
  Co  Co22  1  0.621820  0.378180  0.750000  1.0  0.7259
  Co  Co23  1  0.121820  0.878180  0.750000  1.0  0.7259
  Co  Co24  1  0.121820  0.378180  0.250000  1.0  0.7259
  Co  Co25  1  0.128180  0.378180  0.000000  1.0  0.7262
  Co  Co26  1  0.128180  0.878180  0.500000  1.0  0.7262
  Co  Co27  1  0.628180  0.378180  0.500000  1.0  0.7262
  Co  Co28  1  0.628180  0.878180  0.000000  1.0  0.7262
  Co  Co29  1  0.628180  0.871820  0.750000  1.0  0.7266
  Co  Co30  1  0.628180  0.371820  0.250000  1.0  0.7266
  Co  Co31  1  0.128180  0.871820  0.250000  1.0  0.7266
  Co  Co32  1  0.128180  0.371820  0.750000  1.0  0.7266
  Co  Co33  1  0.500000  0.121820  0.371820  1.0  0.7269
  Co  Co34  1  0.500000  0.621820  0.871820  1.0  0.7269
  Co  Co35  1  0.000000  0.121820  0.871820  1.0  0.7269
  Co  Co36  1  0.000000  0.621820  0.371820  1.0  0.7269
  Co  Co37  1  0.250000  0.621820  0.878180  1.0  0.727
  Co  Co38  1  0.250000  0.121820  0.378180  1.0  0.727
  Co  Co39  1  0.750000  0.621820  0.378180  1.0  0.727
  Co  Co40  1  0.750000  0.121820  0.878180  1.0  0.727
  Co  Co41  1  0.000000  0.128180  0.378180  1.0  0.7266
  Co  Co42  1  0.000000  0.628180  0.878180  1.0  0.7266
  Co  Co43  1  0.500000  0.128180  0.878180  1.0  0.7266
  Co  Co44  1  0.500000  0.628180  0.378180  1.0  0.7266
  Co  Co45  1  0.750000  0.628180  0.871820  1.0  0.7264
  Co  Co46  1  0.750000  0.128180  0.371820  1.0  0.7264
  Co  Co47  1  0.250000  0.628180  0.371820  1.0  0.7264
  Co  Co48  1  0.250000  0.128180  0.871820  1.0  0.7264
  Co  Co49  1  0.628180  0.500000  0.878180  1.0  0.7264
  Co  Co50  1  0.628180  0.000000  0.378180  1.0  0.7264
  Co  Co51  1  0.128180  0.500000  0.378180  1.0  0.7264
  Co  Co52  1  0.128180  0.000000  0.878180  1.0  0.7264
  Co  Co53  1  0.121820  0.750000  0.378180  1.0  0.7261
  Co  Co54  1  0.121820  0.250000  0.878180  1.0  0.7261
  Co  Co55  1  0.621820  0.750000  0.878180  1.0  0.7261
  Co  Co56  1  0.621820  0.250000  0.378180  1.0  0.7261
  Co  Co57  1  0.621820  0.000000  0.871820  1.0  0.7259
  Co  Co58  1  0.621820  0.500000  0.371820  1.0  0.7259
  Co  Co59  1  0.121820  0.000000  0.371820  1.0  0.7259
  Co  Co60  1  0.121820  0.500000  0.871820  1.0  0.7259
  Co  Co61  1  0.128180  0.250000  0.371820  1.0  0.7262
  Co  Co62  1  0.128180  0.750000  0.871820  1.0  0.7262
  Co  Co63  1  0.628180  0.250000  0.871820  1.0  0.7262
  Co  Co64  1  0.628180  0.750000  0.371820  1.0  0.7262
  Co  Co65  1  0.878180  0.628180  0.500000  1.0  0.7262
  Co  Co66  1  0.878180  0.128180  0.000000  1.0  0.7262
  Co  Co67  1  0.378180  0.628180  0.000000  1.0  0.7262
  Co  Co68  1  0.378180  0.128180  0.500000  1.0  0.7262
  Co  Co69  1  0.378180  0.121820  0.750000  1.0  0.7266
  Co  Co70  1  0.378180  0.621820  0.250000  1.0  0.7266
  Co  Co71  1  0.878180  0.121820  0.250000  1.0  0.7266
  Co  Co72  1  0.878180  0.621820  0.750000  1.0  0.7266
  Co  Co73  1  0.871820  0.621820  0.000000  1.0  0.7264
  Co  Co74  1  0.871820  0.121820  0.500000  1.0  0.7264
  Co  Co75  1  0.371820  0.621820  0.500000  1.0  0.7264
  Co  Co76  1  0.371820  0.121820  0.000000  1.0  0.7264
  Co  Co77  1  0.371820  0.128180  0.250000  1.0  0.7259
  Co  Co78  1  0.371820  0.628180  0.750000  1.0  0.7259
  Co  Co79  1  0.871820  0.128180  0.750000  1.0  0.7259
  Co  Co80  1  0.871820  0.628180  0.250000  1.0  0.7259
  Co  Co81  1  0.500000  0.878180  0.628180  1.0  0.7266
  Co  Co82  1  0.500000  0.378180  0.128180  1.0  0.7266
  Co  Co83  1  0.000000  0.878180  0.128180  1.0  0.7266
  Co  Co84  1  0.000000  0.378180  0.628180  1.0  0.7266
  Co  Co85  1  0.750000  0.378180  0.121820  1.0  0.7264
  Co  Co86  1  0.750000  0.878180  0.621820  1.0  0.7264
  Co  Co87  1  0.250000  0.378180  0.621820  1.0  0.7264
  Co  Co88  1  0.250000  0.878180  0.121820  1.0  0.7264
  Co  Co89  1  0.000000  0.871820  0.621820  1.0  0.7269
  Co  Co90  1  0.000000  0.371820  0.121820  1.0  0.7269
  Co  Co91  1  0.500000  0.871820  0.121820  1.0  0.7269
  Co  Co92  1  0.500000  0.371820  0.621820  1.0  0.7269
  Co  Co93  1  0.250000  0.371820  0.128180  1.0  0.727
  Co  Co94  1  0.250000  0.871820  0.628180  1.0  0.727
  Co  Co95  1  0.750000  0.371820  0.628180  1.0  0.727
  Co  Co96  1  0.750000  0.871820  0.128180  1.0  0.727
  Co  Co97  1  0.497910  0.625000  0.125000  1.0  0.5979
  Co  Co98  1  0.497910  0.125000  0.625000  1.0  0.5979
  Co  Co99  1  0.752090  0.125000  0.625000  1.0  0.5958
  Co  Co100  1  0.752090  0.625000  0.125000  1.0  0.5958
  Co  Co101  1  0.252090  0.125000  0.125000  1.0  0.5958
  Co  Co102  1  0.252090  0.625000  0.625000  1.0  0.5958
  Co  Co103  1  0.997910  0.625000  0.625000  1.0  0.5979
  Co  Co104  1  0.997910  0.125000  0.125000  1.0  0.5979
  Co  Co105  1  0.125000  0.497910  0.625000  1.0  0.598
  Co  Co106  1  0.125000  0.997910  0.125000  1.0  0.598
  Co  Co107  1  0.625000  0.752090  0.125000  1.0  0.5981
  Co  Co108  1  0.625000  0.252090  0.625000  1.0  0.5981
  Co  Co109  1  0.125000  0.252090  0.125000  1.0  0.5981
  Co  Co110  1  0.125000  0.752090  0.625000  1.0  0.5981
  Co  Co111  1  0.625000  0.997910  0.625000  1.0  0.598
  Co  Co112  1  0.625000  0.497910  0.125000  1.0  0.598
  Co  Co113  1  0.625000  0.125000  0.497910  1.0  0.5983
  Co  Co114  1  0.125000  0.125000  0.997910  1.0  0.5983
  Co  Co115  1  0.125000  0.625000  0.752090  1.0  0.5984
  Co  Co116  1  0.625000  0.625000  0.252090  1.0  0.5984
  Co  Co117  1  0.125000  0.125000  0.252090  1.0  0.5984
  Co  Co118  1  0.625000  0.125000  0.752090  1.0  0.5984
  Co  Co119  1  0.625000  0.625000  0.997910  1.0  0.5983
  Co  Co120  1  0.125000  0.625000  0.497910  1.0  0.5983
  Co  Co121  1  0.375000  0.747910  0.875000  1.0  0.598
  Co  Co122  1  0.875000  0.747910  0.375000  1.0  0.598
  Co  Co123  1  0.875000  0.002090  0.375000  1.0  0.5981
  Co  Co124  1  0.375000  0.002090  0.875000  1.0  0.5981
  Co  Co125  1  0.875000  0.502090  0.875000  1.0  0.5981
  Co  Co126  1  0.375000  0.502090  0.375000  1.0  0.5981
  Co  Co127  1  0.375000  0.247910  0.375000  1.0  0.598
  Co  Co128  1  0.875000  0.247910  0.875000  1.0  0.598
  Co  Co129  1  0.247910  0.375000  0.375000  1.0  0.5979
  Co  Co130  1  0.247910  0.875000  0.875000  1.0  0.5979
  Co  Co131  1  0.502090  0.875000  0.875000  1.0  0.5958
  Co  Co132  1  0.502090  0.375000  0.375000  1.0  0.5958
  Co  Co133  1  0.002090  0.375000  0.875000  1.0  0.5958
  Co  Co134  1  0.002090  0.875000  0.375000  1.0  0.5958
  Co  Co135  1  0.747910  0.875000  0.375000  1.0  0.5979
  Co  Co136  1  0.747910  0.375000  0.875000  1.0  0.5979
  Co  Co137  1  0.875000  0.875000  0.502090  1.0  0.5984
  Co  Co138  1  0.875000  0.375000  0.002090  1.0  0.5984
  Co  Co139  1  0.375000  0.375000  0.247910  1.0  0.5983
  Co  Co140  1  0.375000  0.875000  0.747910  1.0  0.5983
  Co  Co141  1  0.875000  0.375000  0.747910  1.0  0.5983
  Co  Co142  1  0.875000  0.875000  0.247910  1.0  0.5983
  Co  Co143  1  0.375000  0.875000  0.002090  1.0  0.5984
  Co  Co144  1  0.375000  0.375000  0.502090  1.0  0.5984
  Co  Co145  1  0.502090  0.375000  0.875000  1.0  0.5958
  Co  Co146  1  0.502090  0.875000  0.375000  1.0  0.5958
  Co  Co147  1  0.247910  0.875000  0.375000  1.0  0.5979
  Co  Co148  1  0.247910  0.375000  0.875000  1.0  0.5979
  Co  Co149  1  0.747910  0.875000  0.875000  1.0  0.5979
  Co  Co150  1  0.747910  0.375000  0.375000  1.0  0.5979
  Co  Co151  1  0.002090  0.375000  0.375000  1.0  0.5958
  Co  Co152  1  0.002090  0.875000  0.875000  1.0  0.5958
  Co  Co153  1  0.875000  0.502090  0.375000  1.0  0.5981
  Co  Co154  1  0.875000  0.002090  0.875000  1.0  0.5981
  Co  Co155  1  0.375000  0.247910  0.875000  1.0  0.598
  Co  Co156  1  0.375000  0.747910  0.375000  1.0  0.598
  Co  Co157  1  0.875000  0.747910  0.875000  1.0  0.598
  Co  Co158  1  0.875000  0.247910  0.375000  1.0  0.598
  Co  Co159  1  0.375000  0.002090  0.375000  1.0  0.5981
  Co  Co160  1  0.375000  0.502090  0.875000  1.0  0.5981
  Co  Co161  1  0.375000  0.875000  0.502090  1.0  0.5984
  Co  Co162  1  0.875000  0.875000  0.002090  1.0  0.5984
  Co  Co163  1  0.875000  0.375000  0.247910  1.0  0.5983
  Co  Co164  1  0.375000  0.375000  0.747910  1.0  0.5983
  Co  Co165  1  0.875000  0.875000  0.747910  1.0  0.5983
  Co  Co166  1  0.375000  0.875000  0.247910  1.0  0.5983
  Co  Co167  1  0.375000  0.375000  0.002090  1.0  0.5984
  Co  Co168  1  0.875000  0.375000  0.502090  1.0  0.5984
  Co  Co169  1  0.625000  0.252090  0.125000  1.0  0.5981
  Co  Co170  1  0.125000  0.252090  0.625000  1.0  0.5981
  Co  Co171  1  0.125000  0.997910  0.625000  1.0  0.598
  Co  Co172  1  0.625000  0.997910  0.125000  1.0  0.598
  Co  Co173  1  0.125000  0.497910  0.125000  1.0  0.598
  Co  Co174  1  0.625000  0.497910  0.625000  1.0  0.598
  Co  Co175  1  0.625000  0.752090  0.625000  1.0  0.5981
  Co  Co176  1  0.125000  0.752090  0.125000  1.0  0.5981
  Co  Co177  1  0.752090  0.625000  0.625000  1.0  0.5958
  Co  Co178  1  0.752090  0.125000  0.125000  1.0  0.5958
  Co  Co179  1  0.497910  0.125000  0.125000  1.0  0.5979
  Co  Co180  1  0.497910  0.625000  0.625000  1.0  0.5979
  Co  Co181  1  0.997910  0.625000  0.125000  1.0  0.5979
  Co  Co182  1  0.997910  0.125000  0.625000  1.0  0.5979
  Co  Co183  1  0.252090  0.125000  0.625000  1.0  0.5958
  Co  Co184  1  0.252090  0.625000  0.125000  1.0  0.5958
  Co  Co185  1  0.125000  0.125000  0.497910  1.0  0.5983
  Co  Co186  1  0.125000  0.625000  0.997910  1.0  0.5983
  Co  Co187  1  0.625000  0.625000  0.752090  1.0  0.5984
  Co  Co188  1  0.625000  0.125000  0.252090  1.0  0.5984
  Co  Co189  1  0.125000  0.625000  0.252090  1.0  0.5984
  Co  Co190  1  0.125000  0.125000  0.752090  1.0  0.5984
  Co  Co191  1  0.625000  0.125000  0.997910  1.0  0.5983
  Co  Co192  1  0.625000  0.625000  0.497910  1.0  0.5983
  H  H193  1  0.397600  0.594400  0.217300  1.0  0.087
  H  H194  1  0.457400  0.609200  0.203000  1.0  0.1246
  H  H195  1  0.457100  0.632400  0.231800  1.0  0.1264
  H  H196  1  0.426800  0.637600  0.250100  1.0  0.0845
  H  H197  1  0.350600  0.503200  0.167100  1.0  0.0871
  H  H198  1  0.353100  0.522000  0.197800  1.0  0.1244
  H  H199  1  0.378400  0.548700  0.200700  1.0  0.1206
  H  H200  1  0.400200  0.531700  0.143800  1.0  0.1001
  H  H201  1  0.463700  0.604200  0.150600  1.0  0.0911
  H  H202  1  0.436000  0.556200  0.119700  1.0  0.1179
  H  H203  1  0.458400  0.563600  0.091300  1.0  0.1229
  H  H204  1  0.481100  0.591600  0.093100  1.0  0.0921
  H  H205  1  0.507000  0.584100  0.148900  1.0  0.0881
  H  H206  1  0.526900  0.554500  0.148100  1.0  0.1268
  H  H207  1  0.554100  0.551600  0.122900  1.0  0.1181
  H  H208  1  0.537000  0.608500  0.101300  1.0  0.0865
  H  H209  1  0.397600  0.094400  0.717300  1.0  0.087
  H  H210  1  0.457400  0.109200  0.703000  1.0  0.1246
  H  H211  1  0.457100  0.132400  0.731800  1.0  0.1264
  H  H212  1  0.426800  0.137600  0.750100  1.0  0.0845
  H  H213  1  0.350600  0.003200  0.667100  1.0  0.0871
  H  H214  1  0.353100  0.022000  0.697800  1.0  0.1244
  H  H215  1  0.378400  0.048700  0.700700  1.0  0.1206
  H  H216  1  0.400200  0.031700  0.643800  1.0  0.1001
  H  H217  1  0.463700  0.104200  0.650600  1.0  0.0911
  H  H218  1  0.436000  0.056200  0.619700  1.0  0.1179
  H  H219  1  0.458400  0.063600  0.591300  1.0  0.1229
  H  H220  1  0.481100  0.091600  0.593100  1.0  0.0921
  H  H221  1  0.507000  0.084100  0.648900  1.0  0.0881
  H  H222  1  0.526900  0.054500  0.648100  1.0  0.1276
  H  H223  1  0.554100  0.051600  0.622900  1.0  0.1181
  H  H224  1  0.537000  0.108500  0.601300  1.0  0.0865
  H  H225  1  0.897600  0.594400  0.717300  1.0  0.087
  H  H226  1  0.957400  0.609200  0.703000  1.0  0.1246
  H  H227  1  0.957100  0.632400  0.731800  1.0  0.1264
  H  H228  1  0.926800  0.637600  0.750100  1.0  0.0845
  H  H229  1  0.850600  0.503200  0.667100  1.0  0.0871
  H  H230  1  0.853100  0.522000  0.697800  1.0  0.1244
  H  H231  1  0.878400  0.548700  0.700700  1.0  0.1206
  H  H232  1  0.900200  0.531700  0.643800  1.0  0.1001
  H  H233  1  0.963700  0.604200  0.650600  1.0  0.0911
  H  H234  1  0.936000  0.556200  0.619700  1.0  0.1179
  H  H235  1  0.958400  0.563600  0.591300  1.0  0.1229
  H  H236  1  0.981100  0.591600  0.593100  1.0  0.0921
  H  H237  1  0.007000  0.584100  0.648900  1.0  0.0881
  H  H238  1  0.026900  0.554500  0.648100  1.0  0.1268
  H  H239  1  0.054100  0.551600  0.622900  1.0  0.1181
  H  H240  1  0.037000  0.608500  0.601300  1.0  0.0865
  H  H241  1  0.897600  0.094400  0.217300  1.0  0.087
  H  H242  1  0.957400  0.109200  0.203000  1.0  0.1246
  H  H243  1  0.957100  0.132400  0.231800  1.0  0.1264
  H  H244  1  0.926800  0.137600  0.250100  1.0  0.0845
  H  H245  1  0.850600  0.003200  0.167100  1.0  0.0871
  H  H246  1  0.853100  0.022000  0.197800  1.0  0.1244
  H  H247  1  0.878400  0.048700  0.200700  1.0  0.1206
  H  H248  1  0.900200  0.031700  0.143800  1.0  0.1001
  H  H249  1  0.963700  0.104200  0.150600  1.0  0.0911
  H  H250  1  0.936000  0.056200  0.119700  1.0  0.1179
  H  H251  1  0.958400  0.063600  0.091300  1.0  0.1225
  H  H252  1  0.981100  0.091600  0.093100  1.0  0.0921
  H  H253  1  0.007000  0.084100  0.148900  1.0  0.0881
  H  H254  1  0.026900  0.054500  0.148100  1.0  0.1265
  H  H255  1  0.054100  0.051600  0.122900  1.0  0.1181
  H  H256  1  0.037000  0.108500  0.101300  1.0  0.0865
  H  H257  1  0.852400  0.155600  0.717300  1.0  0.0867
  H  H258  1  0.792600  0.140800  0.703000  1.0  0.1247
  H  H259  1  0.792900  0.117600  0.731800  1.0  0.1259
  H  H260  1  0.823200  0.112400  0.750100  1.0  0.0855
  H  H261  1  0.899400  0.246800  0.667100  1.0  0.087
  H  H262  1  0.896900  0.228000  0.697800  1.0  0.1241
  H  H263  1  0.871600  0.201300  0.700700  1.0  0.1207
  H  H264  1  0.849800  0.218300  0.643800  1.0  0.1001
  H  H265  1  0.786300  0.145800  0.650600  1.0  0.0912
  H  H266  1  0.814000  0.193800  0.619700  1.0  0.1175
  H  H267  1  0.791600  0.186400  0.591300  1.0  0.1231
  H  H268  1  0.768900  0.158400  0.593100  1.0  0.0914
  H  H269  1  0.743000  0.165900  0.648900  1.0  0.0885
  H  H270  1  0.723100  0.195500  0.648100  1.0  0.1265
  H  H271  1  0.695900  0.198400  0.622900  1.0  0.1182
  H  H272  1  0.713000  0.141500  0.601300  1.0  0.0861
  H  H273  1  0.852400  0.655600  0.217300  1.0  0.0867
  H  H274  1  0.792600  0.640800  0.203000  1.0  0.1247
  H  H275  1  0.792900  0.617600  0.231800  1.0  0.1259
  H  H276  1  0.823200  0.612400  0.250100  1.0  0.0855
  H  H277  1  0.899400  0.746800  0.167100  1.0  0.087
  H  H278  1  0.896900  0.728000  0.197800  1.0  0.1241
  H  H279  1  0.871600  0.701300  0.200700  1.0  0.1207
  H  H280  1  0.849800  0.718300  0.143800  1.0  0.1001
  H  H281  1  0.786300  0.645800  0.150600  1.0  0.0912
  H  H282  1  0.814000  0.693800  0.119700  1.0  0.1175
  H  H283  1  0.791600  0.686400  0.091300  1.0  0.1231
  H  H284  1  0.768900  0.658400  0.093100  1.0  0.0914
  H  H285  1  0.743000  0.665900  0.148900  1.0  0.0885
  H  H286  1  0.723100  0.695500  0.148100  1.0  0.1265
  H  H287  1  0.695900  0.698400  0.122900  1.0  0.1182
  H  H288  1  0.713000  0.641500  0.101300  1.0  0.0861
  H  H289  1  0.352400  0.155600  0.217300  1.0  0.0867
  H  H290  1  0.292600  0.140800  0.203000  1.0  0.1247
  H  H291  1  0.292900  0.117600  0.231800  1.0  0.1259
  H  H292  1  0.323200  0.112400  0.250100  1.0  0.0855
  H  H293  1  0.399400  0.246800  0.167100  1.0  0.087
  H  H294  1  0.396900  0.228000  0.197800  1.0  0.1241
  H  H295  1  0.371600  0.201300  0.200700  1.0  0.1207
  H  H296  1  0.349800  0.218300  0.143800  1.0  0.1001
  H  H297  1  0.286300  0.145800  0.150600  1.0  0.0912
  H  H298  1  0.314000  0.193800  0.119700  1.0  0.1175
  H  H299  1  0.291600  0.186400  0.091300  1.0  0.1231
  H  H300  1  0.268900  0.158400  0.093100  1.0  0.0914
  H  H301  1  0.243000  0.165900  0.148900  1.0  0.0885
  H  H302  1  0.223100  0.195500  0.148100  1.0  0.1265
  H  H303  1  0.195900  0.198400  0.122900  1.0  0.1182
  H  H304  1  0.213000  0.141500  0.101300  1.0  0.0861
  H  H305  1  0.352400  0.655600  0.717300  1.0  0.0867
  H  H306  1  0.292600  0.640800  0.703000  1.0  0.1247
  H  H307  1  0.292900  0.617600  0.731800  1.0  0.1259
  H  H308  1  0.323200  0.612400  0.750100  1.0  0.0855
  H  H309  1  0.399400  0.746800  0.667100  1.0  0.087
  H  H310  1  0.396900  0.728000  0.697800  1.0  0.1241
  H  H311  1  0.371600  0.701300  0.700700  1.0  0.1207
  H  H312  1  0.349800  0.718300  0.643800  1.0  0.1001
  H  H313  1  0.286300  0.645800  0.650600  1.0  0.0912
  H  H314  1  0.314000  0.693800  0.619700  1.0  0.1175
  H  H315  1  0.291600  0.686400  0.591300  1.0  0.1231
  H  H316  1  0.268900  0.658400  0.593100  1.0  0.0914
  H  H317  1  0.243000  0.665900  0.648900  1.0  0.0885
  H  H318  1  0.223100  0.695500  0.648100  1.0  0.1265
  H  H319  1  0.195900  0.698400  0.622900  1.0  0.1182
  H  H320  1  0.213000  0.641500  0.601300  1.0  0.0861
  H  H321  1  0.352400  0.094400  0.032700  1.0  0.0865
  H  H322  1  0.292600  0.109200  0.047000  1.0  0.1243
  H  H323  1  0.292900  0.132400  0.018200  1.0  0.1265
  H  H324  1  0.323200  0.137600  0.999900  1.0  0.0856
  H  H325  1  0.399400  0.003200  0.082900  1.0  0.0867
  H  H326  1  0.396900  0.022000  0.052200  1.0  0.1241
  H  H327  1  0.371600  0.048700  0.049300  1.0  0.1204
  H  H328  1  0.349800  0.031700  0.106200  1.0  0.0996
  H  H329  1  0.286300  0.104200  0.099400  1.0  0.0908
  H  H330  1  0.314000  0.056200  0.130300  1.0  0.1179
  H  H331  1  0.291600  0.063600  0.158700  1.0  0.1237
  H  H332  1  0.268900  0.091600  0.156900  1.0  0.0917
  H  H333  1  0.243000  0.084100  0.101100  1.0  0.088
  H  H334  1  0.223100  0.054500  0.101900  1.0  0.1257
  H  H335  1  0.195900  0.051600  0.127100  1.0  0.1176
  H  H336  1  0.213000  0.108500  0.148700  1.0  0.0863
  H  H337  1  0.352400  0.594400  0.532700  1.0  0.0865
  H  H338  1  0.292600  0.609200  0.547000  1.0  0.1243
  H  H339  1  0.292900  0.632400  0.518200  1.0  0.1265
  H  H340  1  0.323200  0.637600  0.499900  1.0  0.0856
  H  H341  1  0.399400  0.503200  0.582900  1.0  0.0867
  H  H342  1  0.396900  0.522000  0.552200  1.0  0.1241
  H  H343  1  0.371600  0.548700  0.549300  1.0  0.1204
  H  H344  1  0.349800  0.531700  0.606200  1.0  0.0996
  H  H345  1  0.286300  0.604200  0.599400  1.0  0.0908
  H  H346  1  0.314000  0.556200  0.630300  1.0  0.1179
  H  H347  1  0.291600  0.563600  0.658700  1.0  0.1237
  H  H348  1  0.268900  0.591600  0.656900  1.0  0.0917
  H  H349  1  0.243000  0.584100  0.601100  1.0  0.088
  H  H350  1  0.223100  0.554500  0.601900  1.0  0.126
  H  H351  1  0.195900  0.551600  0.627100  1.0  0.1176
  H  H352  1  0.213000  0.608500  0.648700  1.0  0.0863
  H  H353  1  0.852400  0.094400  0.532700  1.0  0.0865
  H  H354  1  0.792600  0.109200  0.547000  1.0  0.1243
  H  H355  1  0.792900  0.132400  0.518200  1.0  0.1265
  H  H356  1  0.823200  0.137600  0.499900  1.0  0.0856
  H  H357  1  0.899400  0.003200  0.582900  1.0  0.0867
  H  H358  1  0.896900  0.022000  0.552200  1.0  0.1246
  H  H359  1  0.871600  0.048700  0.549300  1.0  0.1204
  H  H360  1  0.849800  0.031700  0.606200  1.0  0.0996
  H  H361  1  0.786300  0.104200  0.599400  1.0  0.0908
  H  H362  1  0.814000  0.056200  0.630300  1.0  0.1179
  H  H363  1  0.791600  0.063600  0.658700  1.0  0.1237
  H  H364  1  0.768900  0.091600  0.656900  1.0  0.0917
  H  H365  1  0.743000  0.084100  0.601100  1.0  0.088
  H  H366  1  0.723100  0.054500  0.601900  1.0  0.1266
  H  H367  1  0.695900  0.051600  0.627100  1.0  0.1176
  H  H368  1  0.713000  0.108500  0.648700  1.0  0.0863
  H  H369  1  0.852400  0.594400  0.032700  1.0  0.0865
  H  H370  1  0.792600  0.609200  0.047000  1.0  0.1243
  H  H371  1  0.792900  0.632400  0.018200  1.0  0.1265
  H  H372  1  0.823200  0.637600  0.999900  1.0  0.0856
  H  H373  1  0.899400  0.503200  0.082900  1.0  0.0867
  H  H374  1  0.896900  0.522000  0.052200  1.0  0.1246
  H  H375  1  0.871600  0.548700  0.049300  1.0  0.1204
  H  H376  1  0.849800  0.531700  0.106200  1.0  0.0996
  H  H377  1  0.786300  0.604200  0.099400  1.0  0.0908
  H  H378  1  0.814000  0.556200  0.130300  1.0  0.1179
  H  H379  1  0.791600  0.563600  0.158700  1.0  0.1237
  H  H380  1  0.768900  0.591600  0.156900  1.0  0.0917
  H  H381  1  0.743000  0.584100  0.101100  1.0  0.088
  H  H382  1  0.723100  0.554500  0.101900  1.0  0.126
  H  H383  1  0.695900  0.551600  0.127100  1.0  0.1176
  H  H384  1  0.713000  0.608500  0.148700  1.0  0.0863
  H  H385  1  0.897600  0.655600  0.532700  1.0  0.0872
  H  H386  1  0.957400  0.640800  0.547000  1.0  0.1242
  H  H387  1  0.957100  0.617600  0.518200  1.0  0.1268
  H  H388  1  0.926800  0.612400  0.499900  1.0  0.0863
  H  H389  1  0.850600  0.746800  0.582900  1.0  0.0869
  H  H390  1  0.853100  0.728000  0.552200  1.0  0.1237
  H  H391  1  0.878400  0.701300  0.549300  1.0  0.1204
  H  H392  1  0.900200  0.718300  0.606200  1.0  0.0995
  H  H393  1  0.963700  0.645800  0.599400  1.0  0.0906
  H  H394  1  0.936000  0.693800  0.630300  1.0  0.1182
  H  H395  1  0.958400  0.686400  0.658700  1.0  0.1238
  H  H396  1  0.981100  0.658400  0.656900  1.0  0.0918
  H  H397  1  0.007000  0.665900  0.601100  1.0  0.0875
  H  H398  1  0.026900  0.695500  0.601900  1.0  0.1264
  H  H399  1  0.054100  0.698400  0.627100  1.0  0.1183
  H  H400  1  0.037000  0.641500  0.648700  1.0  0.0867
  H  H401  1  0.897600  0.155600  0.032700  1.0  0.0872
  H  H402  1  0.957400  0.140800  0.047000  1.0  0.1242
  H  H403  1  0.957100  0.117600  0.018200  1.0  0.1268
  H  H404  1  0.926800  0.112400  0.999900  1.0  0.0863
  H  H405  1  0.850600  0.246800  0.082900  1.0  0.0869
  H  H406  1  0.853100  0.228000  0.052200  1.0  0.1237
  H  H407  1  0.878400  0.201300  0.049300  1.0  0.1204
  H  H408  1  0.900200  0.218300  0.106200  1.0  0.0995
  H  H409  1  0.963700  0.145800  0.099400  1.0  0.0906
  H  H410  1  0.936000  0.193800  0.130300  1.0  0.1182
  H  H411  1  0.958400  0.186400  0.158700  1.0  0.1238
  H  H412  1  0.981100  0.158400  0.156900  1.0  0.0918
  H  H413  1  0.007000  0.165900  0.101100  1.0  0.0875
  H  H414  1  0.026900  0.195500  0.101900  1.0  0.1248
  H  H415  1  0.054100  0.198400  0.127100  1.0  0.1183
  H  H416  1  0.037000  0.141500  0.148700  1.0  0.0867
  H  H417  1  0.397600  0.655600  0.032700  1.0  0.0872
  H  H418  1  0.457400  0.640800  0.047000  1.0  0.1242
  H  H419  1  0.457100  0.617600  0.018200  1.0  0.1268
  H  H420  1  0.426800  0.612400  0.999900  1.0  0.0863
  H  H421  1  0.350600  0.746800  0.082900  1.0  0.0869
  H  H422  1  0.353100  0.728000  0.052200  1.0  0.1237
  H  H423  1  0.378400  0.701300  0.049300  1.0  0.1204
  H  H424  1  0.400200  0.718300  0.106200  1.0  0.0995
  H  H425  1  0.463700  0.645800  0.099400  1.0  0.0906
  H  H426  1  0.436000  0.693800  0.130300  1.0  0.1182
  H  H427  1  0.458400  0.686400  0.158700  1.0  0.1238
  H  H428  1  0.481100  0.658400  0.156900  1.0  0.0918
  H  H429  1  0.507000  0.665900  0.101100  1.0  0.0875
  H  H430  1  0.526900  0.695500  0.101900  1.0  0.1264
  H  H431  1  0.554100  0.698400  0.127100  1.0  0.1183
  H  H432  1  0.537000  0.641500  0.148700  1.0  0.0867
  H  H433  1  0.397600  0.155600  0.532700  1.0  0.0872
  H  H434  1  0.457400  0.140800  0.547000  1.0  0.1242
  H  H435  1  0.457100  0.117600  0.518200  1.0  0.1268
  H  H436  1  0.426800  0.112400  0.499900  1.0  0.0863
  H  H437  1  0.350600  0.246800  0.582900  1.0  0.0869
  H  H438  1  0.353100  0.228000  0.552200  1.0  0.1237
  H  H439  1  0.378400  0.201300  0.549300  1.0  0.1204
  H  H440  1  0.400200  0.218300  0.606200  1.0  0.0995
  H  H441  1  0.463700  0.145800  0.599400  1.0  0.0906
  H  H442  1  0.436000  0.193800  0.630300  1.0  0.1182
  H  H443  1  0.458400  0.186400  0.658700  1.0  0.1238
  H  H444  1  0.481100  0.158400  0.656900  1.0  0.0918
  H  H445  1  0.507000  0.165900  0.601100  1.0  0.0875
  H  H446  1  0.526900  0.195500  0.601900  1.0  0.1264
  H  H447  1  0.554100  0.198400  0.627100  1.0  0.1183
  H  H448  1  0.537000  0.141500  0.648700  1.0  0.0867
  H  H449  1  0.217300  0.397600  0.594400  1.0  0.0871
  H  H450  1  0.203000  0.457400  0.609200  1.0  0.1257
  H  H451  1  0.231800  0.457100  0.632400  1.0  0.1279
  H  H452  1  0.250100  0.426800  0.637600  1.0  0.086
  H  H453  1  0.167100  0.350600  0.503200  1.0  0.0858
  H  H454  1  0.197800  0.353100  0.522000  1.0  0.1245
  H  H455  1  0.200700  0.378400  0.548700  1.0  0.1192
  H  H456  1  0.143800  0.400200  0.531700  1.0  0.1007
  H  H457  1  0.150600  0.463700  0.604200  1.0  0.0882
  H  H458  1  0.119700  0.436000  0.556200  1.0  0.1181
  H  H459  1  0.091300  0.458400  0.563600  1.0  0.1237
  H  H460  1  0.093100  0.481100  0.591600  1.0  0.0919
  H  H461  1  0.148900  0.507000  0.584100  1.0  0.0884
  H  H462  1  0.148100  0.526900  0.554500  1.0  0.1264
  H  H463  1  0.122900  0.554100  0.551600  1.0  0.1178
  H  H464  1  0.101300  0.537000  0.608500  1.0  0.0865
  H  H465  1  0.217300  0.897600  0.094400  1.0  0.0871
  H  H466  1  0.203000  0.957400  0.109200  1.0  0.1257
  H  H467  1  0.231800  0.957100  0.132400  1.0  0.1279
  H  H468  1  0.250100  0.926800  0.137600  1.0  0.086
  H  H469  1  0.167100  0.850600  0.003200  1.0  0.0858
  H  H470  1  0.197800  0.853100  0.022000  1.0  0.1245
  H  H471  1  0.200700  0.878400  0.048700  1.0  0.1192
  H  H472  1  0.143800  0.900200  0.031700  1.0  0.1007
  H  H473  1  0.150600  0.963700  0.104200  1.0  0.0882
  H  H474  1  0.119700  0.936000  0.056200  1.0  0.1181
  H  H475  1  0.091300  0.958400  0.063600  1.0  0.1233
  H  H476  1  0.093100  0.981100  0.091600  1.0  0.0919
  H  H477  1  0.148900  0.007000  0.084100  1.0  0.0884
  H  H478  1  0.148100  0.026900  0.054500  1.0  0.1262
  H  H479  1  0.122900  0.054100  0.051600  1.0  0.1178
  H  H480  1  0.101300  0.037000  0.108500  1.0  0.0865
  H  H481  1  0.717300  0.397600  0.094400  1.0  0.0871
  H  H482  1  0.703000  0.457400  0.109200  1.0  0.1257
  H  H483  1  0.731800  0.457100  0.132400  1.0  0.1279
  H  H484  1  0.750100  0.426800  0.137600  1.0  0.086
  H  H485  1  0.667100  0.350600  0.003200  1.0  0.0858
  H  H486  1  0.697800  0.353100  0.022000  1.0  0.1245
  H  H487  1  0.700700  0.378400  0.048700  1.0  0.1192
  H  H488  1  0.643800  0.400200  0.031700  1.0  0.1007
  H  H489  1  0.650600  0.463700  0.104200  1.0  0.0882
  H  H490  1  0.619700  0.436000  0.056200  1.0  0.1181
  H  H491  1  0.591300  0.458400  0.063600  1.0  0.1237
  H  H492  1  0.593100  0.481100  0.091600  1.0  0.0919
  H  H493  1  0.648900  0.507000  0.084100  1.0  0.0884
  H  H494  1  0.648100  0.526900  0.054500  1.0  0.1269
  H  H495  1  0.622900  0.554100  0.051600  1.0  0.1178
  H  H496  1  0.601300  0.537000  0.108500  1.0  0.0865
  H  H497  1  0.717300  0.897600  0.594400  1.0  0.0871
  H  H498  1  0.703000  0.957400  0.609200  1.0  0.1257
  H  H499  1  0.731800  0.957100  0.632400  1.0  0.1279
  H  H500  1  0.750100  0.926800  0.637600  1.0  0.086
  H  H501  1  0.667100  0.850600  0.503200  1.0  0.0858
  H  H502  1  0.697800  0.853100  0.522000  1.0  0.1245
  H  H503  1  0.700700  0.878400  0.548700  1.0  0.1192
  H  H504  1  0.643800  0.900200  0.531700  1.0  0.1007
  H  H505  1  0.650600  0.963700  0.604200  1.0  0.0882
  H  H506  1  0.619700  0.936000  0.556200  1.0  0.1181
  H  H507  1  0.591300  0.958400  0.563600  1.0  0.1237
  H  H508  1  0.593100  0.981100  0.591600  1.0  0.0919
  H  H509  1  0.648900  0.007000  0.584100  1.0  0.0884
  H  H510  1  0.648100  0.026900  0.554500  1.0  0.1264
  H  H511  1  0.622900  0.054100  0.551600  1.0  0.1178
  H  H512  1  0.601300  0.037000  0.608500  1.0  0.0865
  H  H513  1  0.717300  0.852400  0.155600  1.0  0.0872
  H  H514  1  0.703000  0.792600  0.140800  1.0  0.1249
  H  H515  1  0.731800  0.792900  0.117600  1.0  0.1277
  H  H516  1  0.750100  0.823200  0.112400  1.0  0.0868
  H  H517  1  0.667100  0.899400  0.246800  1.0  0.0852
  H  H518  1  0.697800  0.896900  0.228000  1.0  0.1251
  H  H519  1  0.700700  0.871600  0.201300  1.0  0.1191
  H  H520  1  0.643800  0.849800  0.218300  1.0  0.1003
  H  H521  1  0.650600  0.786300  0.145800  1.0  0.0887
  H  H522  1  0.619700  0.814000  0.193800  1.0  0.1182
  H  H523  1  0.591300  0.791600  0.186400  1.0  0.1245
  H  H524  1  0.593100  0.768900  0.158400  1.0  0.0903
  H  H525  1  0.648900  0.743000  0.165900  1.0  0.0881
  H  H526  1  0.648100  0.723100  0.195500  1.0  0.1255
  H  H527  1  0.622900  0.695900  0.198400  1.0  0.118
  H  H528  1  0.601300  0.713000  0.141500  1.0  0.0865
  H  H529  1  0.717300  0.352400  0.655600  1.0  0.0872
  H  H530  1  0.703000  0.292600  0.640800  1.0  0.1249
  H  H531  1  0.731800  0.292900  0.617600  1.0  0.1277
  H  H532  1  0.750100  0.323200  0.612400  1.0  0.0868
  H  H533  1  0.667100  0.399400  0.746800  1.0  0.0852
  H  H534  1  0.697800  0.396900  0.728000  1.0  0.1251
  H  H535  1  0.700700  0.371600  0.701300  1.0  0.1191
  H  H536  1  0.643800  0.349800  0.718300  1.0  0.1003
  H  H537  1  0.650600  0.286300  0.645800  1.0  0.0887
  H  H538  1  0.619700  0.314000  0.693800  1.0  0.1182
  H  H539  1  0.591300  0.291600  0.686400  1.0  0.1245
  H  H540  1  0.593100  0.268900  0.658400  1.0  0.0903
  H  H541  1  0.648900  0.243000  0.665900  1.0  0.0881
  H  H542  1  0.648100  0.223100  0.695500  1.0  0.1255
  H  H543  1  0.622900  0.195900  0.698400  1.0  0.118
  H  H544  1  0.601300  0.213000  0.641500  1.0  0.0865
  H  H545  1  0.217300  0.852400  0.655600  1.0  0.0872
  H  H546  1  0.203000  0.792600  0.640800  1.0  0.1249
  H  H547  1  0.231800  0.792900  0.617600  1.0  0.1277
  H  H548  1  0.250100  0.823200  0.612400  1.0  0.0868
  H  H549  1  0.167100  0.899400  0.746800  1.0  0.0852
  H  H550  1  0.197800  0.896900  0.728000  1.0  0.1251
  H  H551  1  0.200700  0.871600  0.701300  1.0  0.1191
  H  H552  1  0.143800  0.849800  0.718300  1.0  0.1003
  H  H553  1  0.150600  0.786300  0.645800  1.0  0.0887
  H  H554  1  0.119700  0.814000  0.693800  1.0  0.1182
  H  H555  1  0.091300  0.791600  0.686400  1.0  0.1245
  H  H556  1  0.093100  0.768900  0.658400  1.0  0.0903
  H  H557  1  0.148900  0.743000  0.665900  1.0  0.0881
  H  H558  1  0.148100  0.723100  0.695500  1.0  0.1255
  H  H559  1  0.122900  0.695900  0.698400  1.0  0.118
  H  H560  1  0.101300  0.713000  0.641500  1.0  0.0865
  H  H561  1  0.217300  0.352400  0.155600  1.0  0.0872
  H  H562  1  0.203000  0.292600  0.140800  1.0  0.1249
  H  H563  1  0.231800  0.292900  0.117600  1.0  0.1277
  H  H564  1  0.250100  0.323200  0.112400  1.0  0.0868
  H  H565  1  0.167100  0.399400  0.246800  1.0  0.0852
  H  H566  1  0.197800  0.396900  0.228000  1.0  0.1251
  H  H567  1  0.200700  0.371600  0.201300  1.0  0.1191
  H  H568  1  0.143800  0.349800  0.218300  1.0  0.1003
  H  H569  1  0.150600  0.286300  0.145800  1.0  0.0887
  H  H570  1  0.119700  0.314000  0.193800  1.0  0.1182
  H  H571  1  0.091300  0.291600  0.186400  1.0  0.1245
  H  H572  1  0.093100  0.268900  0.158400  1.0  0.0903
  H  H573  1  0.148900  0.243000  0.165900  1.0  0.0881
  H  H574  1  0.148100  0.223100  0.195500  1.0  0.1255
  H  H575  1  0.122900  0.195900  0.198400  1.0  0.118
  H  H576  1  0.101300  0.213000  0.141500  1.0  0.0865
  H  H577  1  0.032700  0.352400  0.094400  1.0  0.087
  H  H578  1  0.047000  0.292600  0.109200  1.0  0.1248
  H  H579  1  0.018200  0.292900  0.132400  1.0  0.1282
  H  H580  1  0.999900  0.323200  0.137600  1.0  0.0871
  H  H581  1  0.082900  0.399400  0.003200  1.0  0.086
  H  H582  1  0.052200  0.396900  0.022000  1.0  0.1247
  H  H583  1  0.049300  0.371600  0.048700  1.0  0.1193
  H  H584  1  0.106200  0.349800  0.031700  1.0  0.1007
  H  H585  1  0.099400  0.286300  0.104200  1.0  0.088
  H  H586  1  0.130300  0.314000  0.056200  1.0  0.1177
  H  H587  1  0.158700  0.291600  0.063600  1.0  0.1241
  H  H588  1  0.156900  0.268900  0.091600  1.0  0.0906
  H  H589  1  0.101100  0.243000  0.084100  1.0  0.0882
  H  H590  1  0.101900  0.223100  0.054500  1.0  0.1247
  H  H591  1  0.127100  0.195900  0.051600  1.0  0.118
  H  H592  1  0.148700  0.213000  0.108500  1.0  0.0866
  H  H593  1  0.032700  0.852400  0.594400  1.0  0.087
  H  H594  1  0.047000  0.792600  0.609200  1.0  0.1248
  H  H595  1  0.018200  0.792900  0.632400  1.0  0.1282
  H  H596  1  0.999900  0.823200  0.637600  1.0  0.0871
  H  H597  1  0.082900  0.899400  0.503200  1.0  0.086
  H  H598  1  0.052200  0.896900  0.522000  1.0  0.1253
  H  H599  1  0.049300  0.871600  0.548700  1.0  0.1193
  H  H600  1  0.106200  0.849800  0.531700  1.0  0.1007
  H  H601  1  0.099400  0.786300  0.604200  1.0  0.088
  H  H602  1  0.130300  0.814000  0.556200  1.0  0.1177
  H  H603  1  0.158700  0.791600  0.563600  1.0  0.1241
  H  H604  1  0.156900  0.768900  0.591600  1.0  0.0906
  H  H605  1  0.101100  0.743000  0.584100  1.0  0.0882
  H  H606  1  0.101900  0.723100  0.554500  1.0  0.1252
  H  H607  1  0.127100  0.695900  0.551600  1.0  0.118
  H  H608  1  0.148700  0.713000  0.608500  1.0  0.0866
  H  H609  1  0.532700  0.352400  0.594400  1.0  0.087
  H  H610  1  0.547000  0.292600  0.609200  1.0  0.1248
  H  H611  1  0.518200  0.292900  0.632400  1.0  0.1282
  H  H612  1  0.499900  0.323200  0.637600  1.0  0.0871
  H  H613  1  0.582900  0.399400  0.503200  1.0  0.086
  H  H614  1  0.552200  0.396900  0.522000  1.0  0.1247
  H  H615  1  0.549300  0.371600  0.548700  1.0  0.1193
  H  H616  1  0.606200  0.349800  0.531700  1.0  0.1007
  H  H617  1  0.599400  0.286300  0.604200  1.0  0.088
  H  H618  1  0.630300  0.314000  0.556200  1.0  0.1177
  H  H619  1  0.658700  0.291600  0.563600  1.0  0.1241
  H  H620  1  0.656900  0.268900  0.591600  1.0  0.0906
  H  H621  1  0.601100  0.243000  0.584100  1.0  0.0882
  H  H622  1  0.601900  0.223100  0.554500  1.0  0.1252
  H  H623  1  0.627100  0.195900  0.551600  1.0  0.118
  H  H624  1  0.648700  0.213000  0.608500  1.0  0.0866
  H  H625  1  0.532700  0.852400  0.094400  1.0  0.087
  H  H626  1  0.547000  0.792600  0.109200  1.0  0.1248
  H  H627  1  0.518200  0.792900  0.132400  1.0  0.1282
  H  H628  1  0.499900  0.823200  0.137600  1.0  0.0871
  H  H629  1  0.582900  0.899400  0.003200  1.0  0.086
  H  H630  1  0.552200  0.896900  0.022000  1.0  0.1253
  H  H631  1  0.549300  0.871600  0.048700  1.0  0.1193
  H  H632  1  0.606200  0.849800  0.031700  1.0  0.1007
  H  H633  1  0.599400  0.786300  0.104200  1.0  0.088
  H  H634  1  0.630300  0.814000  0.056200  1.0  0.1177
  H  H635  1  0.658700  0.791600  0.063600  1.0  0.1241
  H  H636  1  0.656900  0.768900  0.091600  1.0  0.0906
  H  H637  1  0.601100  0.743000  0.084100  1.0  0.0882
  H  H638  1  0.601900  0.723100  0.054500  1.0  0.1258
  H  H639  1  0.627100  0.695900  0.051600  1.0  0.118
  H  H640  1  0.648700  0.713000  0.108500  1.0  0.0866
  H  H641  1  0.532700  0.897600  0.655600  1.0  0.0872
  H  H642  1  0.547000  0.957400  0.640800  1.0  0.1249
  H  H643  1  0.518200  0.957100  0.617600  1.0  0.1285
  H  H644  1  0.499900  0.926800  0.612400  1.0  0.086
  H  H645  1  0.582900  0.850600  0.746800  1.0  0.0859
  H  H646  1  0.552200  0.853100  0.728000  1.0  0.1239
  H  H647  1  0.549300  0.878400  0.701300  1.0  0.119
  H  H648  1  0.606200  0.900200  0.718300  1.0  0.1003
  H  H649  1  0.599400  0.963700  0.645800  1.0  0.0884
  H  H650  1  0.630300  0.936000  0.693800  1.0  0.1184
  H  H651  1  0.658700  0.958400  0.686400  1.0  0.1239
  H  H652  1  0.656900  0.981100  0.658400  1.0  0.0904
  H  H653  1  0.601100  0.007000  0.665900  1.0  0.0879
  H  H654  1  0.601900  0.026900  0.695500  1.0  0.1262
  H  H655  1  0.627100  0.054100  0.698400  1.0  0.1182
  H  H656  1  0.648700  0.037000  0.641500  1.0  0.0864
  H  H657  1  0.532700  0.397600  0.155600  1.0  0.0872
  H  H658  1  0.547000  0.457400  0.140800  1.0  0.1249
  H  H659  1  0.518200  0.457100  0.117600  1.0  0.1285
  H  H660  1  0.499900  0.426800  0.112400  1.0  0.086
  H  H661  1  0.582900  0.350600  0.246800  1.0  0.0859
  H  H662  1  0.552200  0.353100  0.228000  1.0  0.1239
  H  H663  1  0.549300  0.378400  0.201300  1.0  0.119
  H  H664  1  0.606200  0.400200  0.218300  1.0  0.1003
  H  H665  1  0.599400  0.463700  0.145800  1.0  0.0884
  H  H666  1  0.630300  0.436000  0.193800  1.0  0.1184
  H  H667  1  0.658700  0.458400  0.186400  1.0  0.1239
  H  H668  1  0.656900  0.481100  0.158400  1.0  0.0904
  H  H669  1  0.601100  0.507000  0.165900  1.0  0.0879
  H  H670  1  0.601900  0.526900  0.195500  1.0  0.1262
  H  H671  1  0.627100  0.554100  0.198400  1.0  0.1182
  H  H672  1  0.648700  0.537000  0.141500  1.0  0.0864
  H  H673  1  0.032700  0.897600  0.155600  1.0  0.0872
  H  H674  1  0.047000  0.957400  0.140800  1.0  0.1249
  H  H675  1  0.018200  0.957100  0.117600  1.0  0.1285
  H  H676  1  0.999900  0.926800  0.112400  1.0  0.086
  H  H677  1  0.082900  0.850600  0.246800  1.0  0.0859
  H  H678  1  0.052200  0.853100  0.228000  1.0  0.1239
  H  H679  1  0.049300  0.878400  0.201300  1.0  0.119
  H  H680  1  0.106200  0.900200  0.218300  1.0  0.1003
  H  H681  1  0.099400  0.963700  0.145800  1.0  0.0884
  H  H682  1  0.130300  0.936000  0.193800  1.0  0.1184
  H  H683  1  0.158700  0.958400  0.186400  1.0  0.1239
  H  H684  1  0.156900  0.981100  0.158400  1.0  0.0904
  H  H685  1  0.101100  0.007000  0.165900  1.0  0.0879
  H  H686  1  0.101900  0.026900  0.195500  1.0  0.1243
  H  H687  1  0.127100  0.054100  0.198400  1.0  0.1182
  H  H688  1  0.148700  0.037000  0.141500  1.0  0.0864
  H  H689  1  0.032700  0.397600  0.655600  1.0  0.0872
  H  H690  1  0.047000  0.457400  0.640800  1.0  0.1249
  H  H691  1  0.018200  0.457100  0.617600  1.0  0.1285
  H  H692  1  0.999900  0.426800  0.612400  1.0  0.086
  H  H693  1  0.082900  0.350600  0.746800  1.0  0.0859
  H  H694  1  0.052200  0.353100  0.728000  1.0  0.1239
  H  H695  1  0.049300  0.378400  0.701300  1.0  0.119
  H  H696  1  0.106200  0.400200  0.718300  1.0  0.1003
  H  H697  1  0.099400  0.463700  0.645800  1.0  0.0884
  H  H698  1  0.130300  0.436000  0.693800  1.0  0.1184
  H  H699  1  0.158700  0.458400  0.686400  1.0  0.1239
  H  H700  1  0.156900  0.481100  0.658400  1.0  0.0904
  H  H701  1  0.101100  0.507000  0.665900  1.0  0.0879
  H  H702  1  0.101900  0.526900  0.695500  1.0  0.1262
  H  H703  1  0.127100  0.554100  0.698400  1.0  0.1182
  H  H704  1  0.148700  0.537000  0.641500  1.0  0.0864
  H  H705  1  0.594400  0.217300  0.397600  1.0  0.0873
  H  H706  1  0.609200  0.203000  0.457400  1.0  0.1245
  H  H707  1  0.632400  0.231800  0.457100  1.0  0.1253
  H  H708  1  0.637600  0.250100  0.426800  1.0  0.0855
  H  H709  1  0.503200  0.167100  0.350600  1.0  0.0867
  H  H710  1  0.522000  0.197800  0.353100  1.0  0.1257
  H  H711  1  0.548700  0.200700  0.378400  1.0  0.1192
  H  H712  1  0.531700  0.143800  0.400200  1.0  0.1001
  H  H713  1  0.604200  0.150600  0.463700  1.0  0.0899
  H  H714  1  0.556200  0.119700  0.436000  1.0  0.1172
  H  H715  1  0.563600  0.091300  0.458400  1.0  0.1248
  H  H716  1  0.591600  0.093100  0.481100  1.0  0.0893
  H  H717  1  0.584100  0.148900  0.507000  1.0  0.0874
  H  H718  1  0.554500  0.148100  0.526900  1.0  0.1266
  H  H719  1  0.551600  0.122900  0.554100  1.0  0.1165
  H  H720  1  0.608500  0.101300  0.537000  1.0  0.0867
  H  H721  1  0.594400  0.717300  0.897600  1.0  0.0873
  H  H722  1  0.609200  0.703000  0.957400  1.0  0.1245
  H  H723  1  0.632400  0.731800  0.957100  1.0  0.1253
  H  H724  1  0.637600  0.750100  0.926800  1.0  0.0855
  H  H725  1  0.503200  0.667100  0.850600  1.0  0.0867
  H  H726  1  0.522000  0.697800  0.853100  1.0  0.1257
  H  H727  1  0.548700  0.700700  0.878400  1.0  0.1192
  H  H728  1  0.531700  0.643800  0.900200  1.0  0.1001
  H  H729  1  0.604200  0.650600  0.963700  1.0  0.0899
  H  H730  1  0.556200  0.619700  0.936000  1.0  0.1172
  H  H731  1  0.563600  0.591300  0.958400  1.0  0.1248
  H  H732  1  0.591600  0.593100  0.981100  1.0  0.0893
  H  H733  1  0.584100  0.648900  0.007000  1.0  0.0874
  H  H734  1  0.554500  0.648100  0.026900  1.0  0.1266
  H  H735  1  0.551600  0.622900  0.054100  1.0  0.1165
  H  H736  1  0.608500  0.601300  0.037000  1.0  0.0867
  H  H737  1  0.094400  0.217300  0.897600  1.0  0.0873
  H  H738  1  0.109200  0.203000  0.957400  1.0  0.1245
  H  H739  1  0.132400  0.231800  0.957100  1.0  0.1253
  H  H740  1  0.137600  0.250100  0.926800  1.0  0.0855
  H  H741  1  0.003200  0.167100  0.850600  1.0  0.0867
  H  H742  1  0.022000  0.197800  0.853100  1.0  0.1257
  H  H743  1  0.048700  0.200700  0.878400  1.0  0.1192
  H  H744  1  0.031700  0.143800  0.900200  1.0  0.1001
  H  H745  1  0.104200  0.150600  0.963700  1.0  0.0899
  H  H746  1  0.056200  0.119700  0.936000  1.0  0.1172
  H  H747  1  0.063600  0.091300  0.958400  1.0  0.1244
  H  H748  1  0.091600  0.093100  0.981100  1.0  0.0893
  H  H749  1  0.084100  0.148900  0.007000  1.0  0.0874
  H  H750  1  0.054500  0.148100  0.026900  1.0  0.1267
  H  H751  1  0.051600  0.122900  0.054100  1.0  0.1165
  H  H752  1  0.108500  0.101300  0.037000  1.0  0.0867
  H  H753  1  0.094400  0.717300  0.397600  1.0  0.0873
  H  H754  1  0.109200  0.703000  0.457400  1.0  0.1245
  H  H755  1  0.132400  0.731800  0.457100  1.0  0.1253
  H  H756  1  0.137600  0.750100  0.426800  1.0  0.0855
  H  H757  1  0.003200  0.667100  0.350600  1.0  0.0867
  H  H758  1  0.022000  0.697800  0.353100  1.0  0.1257
  H  H759  1  0.048700  0.700700  0.378400  1.0  0.1192
  H  H760  1  0.031700  0.643800  0.400200  1.0  0.1001
  H  H761  1  0.104200  0.650600  0.463700  1.0  0.0899
  H  H762  1  0.056200  0.619700  0.436000  1.0  0.1172
  H  H763  1  0.063600  0.591300  0.458400  1.0  0.1248
  H  H764  1  0.091600  0.593100  0.481100  1.0  0.0893
  H  H765  1  0.084100  0.648900  0.507000  1.0  0.0874
  H  H766  1  0.054500  0.648100  0.526900  1.0  0.1274
  H  H767  1  0.051600  0.622900  0.554100  1.0  0.1165
  H  H768  1  0.108500  0.601300  0.537000  1.0  0.0867
  H  H769  1  0.155600  0.717300  0.852400  1.0  0.0872
  H  H770  1  0.140800  0.703000  0.792600  1.0  0.1237
  H  H771  1  0.117600  0.731800  0.792900  1.0  0.1266
  H  H772  1  0.112400  0.750100  0.823200  1.0  0.0859
  H  H773  1  0.246800  0.667100  0.899400  1.0  0.0874
  H  H774  1  0.228000  0.697800  0.896900  1.0  0.1262
  H  H775  1  0.201300  0.700700  0.871600  1.0  0.1197
  H  H776  1  0.218300  0.643800  0.849800  1.0  0.1001
  H  H777  1  0.145800  0.650600  0.786300  1.0  0.0903
  H  H778  1  0.193800  0.619700  0.814000  1.0  0.1166
  H  H779  1  0.186400  0.591300  0.791600  1.0  0.125
  H  H780  1  0.158400  0.593100  0.768900  1.0  0.0899
  H  H781  1  0.165900  0.648900  0.743000  1.0  0.0869
  H  H782  1  0.195500  0.648100  0.723100  1.0  0.1266
  H  H783  1  0.198400  0.622900  0.695900  1.0  0.1165
  H  H784  1  0.141500  0.601300  0.713000  1.0  0.0856
  H  H785  1  0.155600  0.217300  0.352400  1.0  0.0872
  H  H786  1  0.140800  0.203000  0.292600  1.0  0.1237
  H  H787  1  0.117600  0.231800  0.292900  1.0  0.1266
  H  H788  1  0.112400  0.250100  0.323200  1.0  0.0859
  H  H789  1  0.246800  0.167100  0.399400  1.0  0.0874
  H  H790  1  0.228000  0.197800  0.396900  1.0  0.1262
  H  H791  1  0.201300  0.200700  0.371600  1.0  0.1197
  H  H792  1  0.218300  0.143800  0.349800  1.0  0.1001
  H  H793  1  0.145800  0.150600  0.286300  1.0  0.0903
  H  H794  1  0.193800  0.119700  0.314000  1.0  0.1166
  H  H795  1  0.186400  0.091300  0.291600  1.0  0.125
  H  H796  1  0.158400  0.093100  0.268900  1.0  0.0899
  H  H797  1  0.165900  0.148900  0.243000  1.0  0.0869
  H  H798  1  0.195500  0.148100  0.223100  1.0  0.1266
  H  H799  1  0.198400  0.122900  0.195900  1.0  0.1165
  H  H800  1  0.141500  0.101300  0.213000  1.0  0.0856
  H  H801  1  0.655600  0.717300  0.352400  1.0  0.0872
  H  H802  1  0.640800  0.703000  0.292600  1.0  0.1237
  H  H803  1  0.617600  0.731800  0.292900  1.0  0.1266
  H  H804  1  0.612400  0.750100  0.323200  1.0  0.0859
  H  H805  1  0.746800  0.667100  0.399400  1.0  0.0874
  H  H806  1  0.728000  0.697800  0.396900  1.0  0.1262
  H  H807  1  0.701300  0.700700  0.371600  1.0  0.1197
  H  H808  1  0.718300  0.643800  0.349800  1.0  0.1001
  H  H809  1  0.645800  0.650600  0.286300  1.0  0.0903
  H  H810  1  0.693800  0.619700  0.314000  1.0  0.1166
  H  H811  1  0.686400  0.591300  0.291600  1.0  0.125
  H  H812  1  0.658400  0.593100  0.268900  1.0  0.0899
  H  H813  1  0.665900  0.648900  0.243000  1.0  0.0869
  H  H814  1  0.695500  0.648100  0.223100  1.0  0.1266
  H  H815  1  0.698400  0.622900  0.195900  1.0  0.1165
  H  H816  1  0.641500  0.601300  0.213000  1.0  0.0856
  H  H817  1  0.655600  0.217300  0.852400  1.0  0.0872
  H  H818  1  0.640800  0.203000  0.792600  1.0  0.1237
  H  H819  1  0.617600  0.231800  0.792900  1.0  0.1266
  H  H820  1  0.612400  0.250100  0.823200  1.0  0.0859
  H  H821  1  0.746800  0.167100  0.899400  1.0  0.0874
  H  H822  1  0.728000  0.197800  0.896900  1.0  0.1262
  H  H823  1  0.701300  0.200700  0.871600  1.0  0.1197
  H  H824  1  0.718300  0.143800  0.849800  1.0  0.1001
  H  H825  1  0.645800  0.150600  0.786300  1.0  0.0903
  H  H826  1  0.693800  0.119700  0.814000  1.0  0.1166
  H  H827  1  0.686400  0.091300  0.791600  1.0  0.125
  H  H828  1  0.658400  0.093100  0.768900  1.0  0.0899
  H  H829  1  0.665900  0.148900  0.743000  1.0  0.0869
  H  H830  1  0.695500  0.148100  0.723100  1.0  0.1266
  H  H831  1  0.698400  0.122900  0.695900  1.0  0.1165
  H  H832  1  0.641500  0.101300  0.713000  1.0  0.0856
  H  H833  1  0.094400  0.032700  0.352400  1.0  0.0869
  H  H834  1  0.109200  0.047000  0.292600  1.0  0.1242
  H  H835  1  0.132400  0.018200  0.292900  1.0  0.1266
  H  H836  1  0.137600  0.999900  0.323200  1.0  0.0861
  H  H837  1  0.003200  0.082900  0.399400  1.0  0.088
  H  H838  1  0.022000  0.052200  0.396900  1.0  0.1261
  H  H839  1  0.048700  0.049300  0.371600  1.0  0.1194
  H  H840  1  0.031700  0.106200  0.349800  1.0  0.1
  H  H841  1  0.104200  0.099400  0.286300  1.0  0.0904
  H  H842  1  0.056200  0.130300  0.314000  1.0  0.1165
  H  H843  1  0.063600  0.158700  0.291600  1.0  0.1254
  H  H844  1  0.091600  0.156900  0.268900  1.0  0.0896
  H  H845  1  0.084100  0.101100  0.243000  1.0  0.0873
  H  H846  1  0.054500  0.101900  0.223100  1.0  0.1261
  H  H847  1  0.051600  0.127100  0.195900  1.0  0.1166
  H  H848  1  0.108500  0.148700  0.213000  1.0  0.0864
  H  H849  1  0.094400  0.532700  0.852400  1.0  0.0869
  H  H850  1  0.109200  0.547000  0.792600  1.0  0.1242
  H  H851  1  0.132400  0.518200  0.792900  1.0  0.1266
  H  H852  1  0.137600  0.499900  0.823200  1.0  0.0861
  H  H853  1  0.003200  0.582900  0.899400  1.0  0.088
  H  H854  1  0.022000  0.552200  0.896900  1.0  0.127
  H  H855  1  0.048700  0.549300  0.871600  1.0  0.1194
  H  H856  1  0.031700  0.606200  0.849800  1.0  0.1
  H  H857  1  0.104200  0.599400  0.786300  1.0  0.0904
  H  H858  1  0.056200  0.630300  0.814000  1.0  0.1165
  H  H859  1  0.063600  0.658700  0.791600  1.0  0.1254
  H  H860  1  0.091600  0.656900  0.768900  1.0  0.0896
  H  H861  1  0.084100  0.601100  0.743000  1.0  0.0873
  H  H862  1  0.054500  0.601900  0.723100  1.0  0.1272
  H  H863  1  0.051600  0.627100  0.695900  1.0  0.1166
  H  H864  1  0.108500  0.648700  0.713000  1.0  0.0864
  H  H865  1  0.594400  0.032700  0.852400  1.0  0.0869
  H  H866  1  0.609200  0.047000  0.792600  1.0  0.1242
  H  H867  1  0.632400  0.018200  0.792900  1.0  0.1266
  H  H868  1  0.637600  0.999900  0.823200  1.0  0.0861
  H  H869  1  0.503200  0.082900  0.899400  1.0  0.088
  H  H870  1  0.522000  0.052200  0.896900  1.0  0.127
  H  H871  1  0.548700  0.049300  0.871600  1.0  0.1194
  H  H872  1  0.531700  0.106200  0.849800  1.0  0.1
  H  H873  1  0.604200  0.099400  0.786300  1.0  0.0904
  H  H874  1  0.556200  0.130300  0.814000  1.0  0.1165
  H  H875  1  0.563600  0.158700  0.791600  1.0  0.1254
  H  H876  1  0.591600  0.156900  0.768900  1.0  0.0896
  H  H877  1  0.584100  0.101100  0.743000  1.0  0.0873
  H  H878  1  0.554500  0.101900  0.723100  1.0  0.1264
  H  H879  1  0.551600  0.127100  0.695900  1.0  0.1166
  H  H880  1  0.608500  0.148700  0.713000  1.0  0.0864
  H  H881  1  0.594400  0.532700  0.352400  1.0  0.0869
  H  H882  1  0.609200  0.547000  0.292600  1.0  0.1242
  H  H883  1  0.632400  0.518200  0.292900  1.0  0.1266
  H  H884  1  0.637600  0.499900  0.323200  1.0  0.0861
  H  H885  1  0.503200  0.582900  0.399400  1.0  0.088
  H  H886  1  0.522000  0.552200  0.396900  1.0  0.1261
  H  H887  1  0.548700  0.549300  0.371600  1.0  0.1194
  H  H888  1  0.531700  0.606200  0.349800  1.0  0.1
  H  H889  1  0.604200  0.599400  0.286300  1.0  0.0904
  H  H890  1  0.556200  0.630300  0.314000  1.0  0.1165
  H  H891  1  0.563600  0.658700  0.291600  1.0  0.1254
  H  H892  1  0.591600  0.656900  0.268900  1.0  0.0896
  H  H893  1  0.584100  0.601100  0.243000  1.0  0.0873
  H  H894  1  0.554500  0.601900  0.223100  1.0  0.1264
  H  H895  1  0.551600  0.627100  0.195900  1.0  0.1166
  H  H896  1  0.608500  0.648700  0.213000  1.0  0.0864
  H  H897  1  0.655600  0.532700  0.897600  1.0  0.0876
  H  H898  1  0.640800  0.547000  0.957400  1.0  0.1242
  H  H899  1  0.617600  0.518200  0.957100  1.0  0.1261
  H  H900  1  0.612400  0.499900  0.926800  1.0  0.0859
  H  H901  1  0.746800  0.582900  0.850600  1.0  0.0875
  H  H902  1  0.728000  0.552200  0.853100  1.0  0.1252
  H  H903  1  0.701300  0.549300  0.878400  1.0  0.1192
  H  H904  1  0.718300  0.606200  0.900200  1.0  0.0999
  H  H905  1  0.645800  0.599400  0.963700  1.0  0.0899
  H  H906  1  0.693800  0.630300  0.936000  1.0  0.117
  H  H907  1  0.686400  0.658700  0.958400  1.0  0.1252
  H  H908  1  0.658400  0.656900  0.981100  1.0  0.0899
  H  H909  1  0.665900  0.601100  0.007000  1.0  0.087
  H  H910  1  0.695500  0.601900  0.026900  1.0  0.1261
  H  H911  1  0.698400  0.627100  0.054100  1.0  0.1162
  H  H912  1  0.641500  0.648700  0.037000  1.0  0.0859
  H  H913  1  0.655600  0.032700  0.397600  1.0  0.0876
  H  H914  1  0.640800  0.047000  0.457400  1.0  0.1242
  H  H915  1  0.617600  0.018200  0.457100  1.0  0.1261
  H  H916  1  0.612400  0.999900  0.426800  1.0  0.0859
  H  H917  1  0.746800  0.082900  0.350600  1.0  0.0875
  H  H918  1  0.728000  0.052200  0.353100  1.0  0.1252
  H  H919  1  0.701300  0.049300  0.378400  1.0  0.1192
  H  H920  1  0.718300  0.106200  0.400200  1.0  0.0999
  H  H921  1  0.645800  0.099400  0.463700  1.0  0.0899
  H  H922  1  0.693800  0.130300  0.436000  1.0  0.117
  H  H923  1  0.686400  0.158700  0.458400  1.0  0.1252
  H  H924  1  0.658400  0.156900  0.481100  1.0  0.0899
  H  H925  1  0.665900  0.101100  0.507000  1.0  0.087
  H  H926  1  0.695500  0.101900  0.526900  1.0  0.1261
  H  H927  1  0.698400  0.127100  0.554100  1.0  0.1162
  H  H928  1  0.641500  0.148700  0.537000  1.0  0.0859
  H  H929  1  0.155600  0.532700  0.397600  1.0  0.0876
  H  H930  1  0.140800  0.547000  0.457400  1.0  0.1242
  H  H931  1  0.117600  0.518200  0.457100  1.0  0.1261
  H  H932  1  0.112400  0.499900  0.426800  1.0  0.0859
  H  H933  1  0.246800  0.582900  0.350600  1.0  0.0875
  H  H934  1  0.228000  0.552200  0.353100  1.0  0.1252
  H  H935  1  0.201300  0.549300  0.378400  1.0  0.1192
  H  H936  1  0.218300  0.606200  0.400200  1.0  0.0999
  H  H937  1  0.145800  0.599400  0.463700  1.0  0.0899
  H  H938  1  0.193800  0.630300  0.436000  1.0  0.117
  H  H939  1  0.186400  0.658700  0.458400  1.0  0.1252
  H  H940  1  0.158400  0.656900  0.481100  1.0  0.0899
  H  H941  1  0.165900  0.601100  0.507000  1.0  0.087
  H  H942  1  0.195500  0.601900  0.526900  1.0  0.1261
  H  H943  1  0.198400  0.627100  0.554100  1.0  0.1162
  H  H944  1  0.141500  0.648700  0.537000  1.0  0.0859
  H  H945  1  0.155600  0.032700  0.897600  1.0  0.0876
  H  H946  1  0.140800  0.047000  0.957400  1.0  0.1242
  H  H947  1  0.117600  0.018200  0.957100  1.0  0.1261
  H  H948  1  0.112400  0.999900  0.926800  1.0  0.0859
  H  H949  1  0.246800  0.082900  0.850600  1.0  0.0875
  H  H950  1  0.228000  0.052200  0.853100  1.0  0.1252
  H  H951  1  0.201300  0.049300  0.878400  1.0  0.1192
  H  H952  1  0.218300  0.106200  0.900200  1.0  0.0999
  H  H953  1  0.145800  0.099400  0.963700  1.0  0.0899
  H  H954  1  0.193800  0.130300  0.936000  1.0  0.117
  H  H955  1  0.186400  0.158700  0.958400  1.0  0.1252
  H  H956  1  0.158400  0.156900  0.981100  1.0  0.0899
  H  H957  1  0.165900  0.101100  0.007000  1.0  0.087
  H  H958  1  0.195500  0.101900  0.026900  1.0  0.1244
  H  H959  1  0.198400  0.127100  0.054100  1.0  0.1162
  H  H960  1  0.141500  0.148700  0.037000  1.0  0.0859
  H  H961  1  0.344400  0.647600  0.782700  1.0  0.0879
  H  H962  1  0.359200  0.707400  0.797000  1.0  0.124
  H  H963  1  0.382400  0.707100  0.768200  1.0  0.1276
  H  H964  1  0.387600  0.676800  0.749900  1.0  0.0848
  H  H965  1  0.253200  0.600600  0.832900  1.0  0.0876
  H  H966  1  0.272000  0.603100  0.802200  1.0  0.1242
  H  H967  1  0.298700  0.628400  0.799300  1.0  0.12
  H  H968  1  0.281700  0.650200  0.856200  1.0  0.0993
  H  H969  1  0.354200  0.713700  0.849400  1.0  0.0906
  H  H970  1  0.306200  0.686000  0.880300  1.0  0.1178
  H  H971  1  0.313600  0.708400  0.908700  1.0  0.1238
  H  H972  1  0.341600  0.731100  0.906900  1.0  0.0919
  H  H973  1  0.334100  0.757000  0.851100  1.0  0.0865
  H  H974  1  0.304500  0.776900  0.851900  1.0  0.1251
  H  H975  1  0.301600  0.804100  0.877100  1.0  0.1174
  H  H976  1  0.358500  0.787000  0.898700  1.0  0.0864
  H  H977  1  0.344400  0.147600  0.282700  1.0  0.0879
  H  H978  1  0.359200  0.207400  0.297000  1.0  0.124
  H  H979  1  0.382400  0.207100  0.268200  1.0  0.1276
  H  H980  1  0.387600  0.176800  0.249900  1.0  0.0848
  H  H981  1  0.253200  0.100600  0.332900  1.0  0.0876
  H  H982  1  0.272000  0.103100  0.302200  1.0  0.1242
  H  H983  1  0.298700  0.128400  0.299300  1.0  0.12
  H  H984  1  0.281700  0.150200  0.356200  1.0  0.0993
  H  H985  1  0.354200  0.213700  0.349400  1.0  0.0906
  H  H986  1  0.306200  0.186000  0.380300  1.0  0.1178
  H  H987  1  0.313600  0.208400  0.408700  1.0  0.1238
  H  H988  1  0.341600  0.231100  0.406900  1.0  0.0919
  H  H989  1  0.334100  0.257000  0.351100  1.0  0.0865
  H  H990  1  0.304500  0.276900  0.351900  1.0  0.1251
  H  H991  1  0.301600  0.304100  0.377100  1.0  0.1174
  H  H992  1  0.358500  0.287000  0.398700  1.0  0.0864
  H  H993  1  0.844400  0.647600  0.282700  1.0  0.0879
  H  H994  1  0.859200  0.707400  0.297000  1.0  0.124
  H  H995  1  0.882400  0.707100  0.268200  1.0  0.1276
  H  H996  1  0.887600  0.676800  0.249900  1.0  0.0848
  H  H997  1  0.753200  0.600600  0.332900  1.0  0.0876
  H  H998  1  0.772000  0.603100  0.302200  1.0  0.1242
  H  H999  1  0.798700  0.628400  0.299300  1.0  0.12
  H  H1000  1  0.781700  0.650200  0.356200  1.0  0.0993
  H  H1001  1  0.854200  0.713700  0.349400  1.0  0.0906
  H  H1002  1  0.806200  0.686000  0.380300  1.0  0.1178
  H  H1003  1  0.813600  0.708400  0.408700  1.0  0.1238
  H  H1004  1  0.841600  0.731100  0.406900  1.0  0.0919
  H  H1005  1  0.834100  0.757000  0.351100  1.0  0.0865
  H  H1006  1  0.804500  0.776900  0.351900  1.0  0.1251
  H  H1007  1  0.801600  0.804100  0.377100  1.0  0.1174
  H  H1008  1  0.858500  0.787000  0.398700  1.0  0.0864
  H  H1009  1  0.844400  0.147600  0.782700  1.0  0.0879
  H  H1010  1  0.859200  0.207400  0.797000  1.0  0.124
  H  H1011  1  0.882400  0.207100  0.768200  1.0  0.1276
  H  H1012  1  0.887600  0.176800  0.749900  1.0  0.0848
  H  H1013  1  0.753200  0.100600  0.832900  1.0  0.0876
  H  H1014  1  0.772000  0.103100  0.802200  1.0  0.1242
  H  H1015  1  0.798700  0.128400  0.799300  1.0  0.12
  H  H1016  1  0.781700  0.150200  0.856200  1.0  0.0993
  H  H1017  1  0.854200  0.213700  0.849400  1.0  0.0906
  H  H1018  1  0.806200  0.186000  0.880300  1.0  0.1178
  H  H1019  1  0.813600  0.208400  0.908700  1.0  0.1238
  H  H1020  1  0.841600  0.231100  0.906900  1.0  0.0919
  H  H1021  1  0.834100  0.257000  0.851100  1.0  0.0865
  H  H1022  1  0.804500  0.276900  0.851900  1.0  0.1251
  H  H1023  1  0.801600  0.304100  0.877100  1.0  0.1174
  H  H1024  1  0.858500  0.287000  0.898700  1.0  0.0864
  H  H1025  1  0.905600  0.102400  0.282700  1.0  0.0876
  H  H1026  1  0.890800  0.042600  0.297000  1.0  0.1235
  H  H1027  1  0.867600  0.042900  0.268200  1.0  0.1269
  H  H1028  1  0.862400  0.073200  0.249900  1.0  0.0858
  H  H1029  1  0.996800  0.149400  0.332900  1.0  0.0878
  H  H1030  1  0.978000  0.146900  0.302200  1.0  0.1254
  H  H1031  1  0.951300  0.121600  0.299300  1.0  0.1204
  H  H1032  1  0.968300  0.099800  0.356200  1.0  0.0998
  H  H1033  1  0.895800  0.036300  0.349400  1.0  0.0906
  H  H1034  1  0.943800  0.064000  0.380300  1.0  0.1172
  H  H1035  1  0.936400  0.041600  0.408700  1.0  0.1232
  H  H1036  1  0.908400  0.018900  0.406900  1.0  0.0907
  H  H1037  1  0.915900  0.993000  0.351100  1.0  0.0875
  H  H1038  1  0.945500  0.973100  0.351900  1.0  0.1258
  H  H1039  1  0.948400  0.945900  0.377100  1.0  0.1171
  H  H1040  1  0.891500  0.963000  0.398700  1.0  0.0857
  H  H1041  1  0.905600  0.602400  0.782700  1.0  0.0876
  H  H1042  1  0.890800  0.542600  0.797000  1.0  0.1235
  H  H1043  1  0.867600  0.542900  0.768200  1.0  0.1269
  H  H1044  1  0.862400  0.573200  0.749900  1.0  0.0858
  H  H1045  1  0.996800  0.649400  0.832900  1.0  0.0878
  H  H1046  1  0.978000  0.646900  0.802200  1.0  0.1254
  H  H1047  1  0.951300  0.621600  0.799300  1.0  0.1204
  H  H1048  1  0.968300  0.599800  0.856200  1.0  0.0998
  H  H1049  1  0.895800  0.536300  0.849400  1.0  0.0906
  H  H1050  1  0.943800  0.564000  0.880300  1.0  0.1172
  H  H1051  1  0.936400  0.541600  0.908700  1.0  0.1234
  H  H1052  1  0.908400  0.518900  0.906900  1.0  0.0907
  H  H1053  1  0.915900  0.493000  0.851100  1.0  0.0875
  H  H1054  1  0.945500  0.473100  0.851900  1.0  0.1264
  H  H1055  1  0.948400  0.445900  0.877100  1.0  0.1171
  H  H1056  1  0.891500  0.463000  0.898700  1.0  0.0857
  H  H1057  1  0.405600  0.102400  0.782700  1.0  0.0876
  H  H1058  1  0.390800  0.042600  0.797000  1.0  0.1235
  H  H1059  1  0.367600  0.042900  0.768200  1.0  0.1269
  H  H1060  1  0.362400  0.073200  0.749900  1.0  0.0858
  H  H1061  1  0.496800  0.149400  0.832900  1.0  0.0878
  H  H1062  1  0.478000  0.146900  0.802200  1.0  0.1254
  H  H1063  1  0.451300  0.121600  0.799300  1.0  0.1204
  H  H1064  1  0.468300  0.099800  0.856200  1.0  0.0998
  H  H1065  1  0.395800  0.036300  0.849400  1.0  0.0906
  H  H1066  1  0.443800  0.064000  0.880300  1.0  0.1172
  H  H1067  1  0.436400  0.041600  0.908700  1.0  0.1234
  H  H1068  1  0.408400  0.018900  0.906900  1.0  0.0907
  H  H1069  1  0.415900  0.993000  0.851100  1.0  0.0875
  H  H1070  1  0.445500  0.973100  0.851900  1.0  0.1257
  H  H1071  1  0.448400  0.945900  0.877100  1.0  0.1171
  H  H1072  1  0.391500  0.963000  0.898700  1.0  0.0857
  H  H1073  1  0.405600  0.602400  0.282700  1.0  0.0876
  H  H1074  1  0.390800  0.542600  0.297000  1.0  0.1235
  H  H1075  1  0.367600  0.542900  0.268200  1.0  0.1269
  H  H1076  1  0.362400  0.573200  0.249900  1.0  0.0858
  H  H1077  1  0.496800  0.649400  0.332900  1.0  0.0878
  H  H1078  1  0.478000  0.646900  0.302200  1.0  0.1254
  H  H1079  1  0.451300  0.621600  0.299300  1.0  0.1204
  H  H1080  1  0.468300  0.599800  0.356200  1.0  0.0998
  H  H1081  1  0.395800  0.536300  0.349400  1.0  0.0906
  H  H1082  1  0.443800  0.564000  0.380300  1.0  0.1172
  H  H1083  1  0.436400  0.541600  0.408700  1.0  0.1234
  H  H1084  1  0.408400  0.518900  0.406900  1.0  0.0907
  H  H1085  1  0.415900  0.493000  0.351100  1.0  0.0875
  H  H1086  1  0.445500  0.473100  0.351900  1.0  0.1257
  H  H1087  1  0.448400  0.445900  0.377100  1.0  0.1171
  H  H1088  1  0.391500  0.463000  0.398700  1.0  0.0857
  H  H1089  1  0.844400  0.602400  0.967300  1.0  0.0879
  H  H1090  1  0.859200  0.542600  0.953000  1.0  0.1241
  H  H1091  1  0.882400  0.542900  0.981800  1.0  0.1271
  H  H1092  1  0.887600  0.573200  0.000100  1.0  0.0852
  H  H1093  1  0.753200  0.649400  0.917100  1.0  0.0884
  H  H1094  1  0.772000  0.646900  0.947800  1.0  0.1251
  H  H1095  1  0.798700  0.621600  0.950700  1.0  0.1206
  H  H1096  1  0.781700  0.599800  0.893800  1.0  0.1001
  H  H1097  1  0.854200  0.536300  0.900600  1.0  0.0908
  H  H1098  1  0.806200  0.564000  0.869700  1.0  0.1175
  H  H1099  1  0.813600  0.541600  0.841300  1.0  0.1231
  H  H1100  1  0.841600  0.518900  0.843100  1.0  0.0909
  H  H1101  1  0.834100  0.493000  0.898900  1.0  0.0879
  H  H1102  1  0.804500  0.473100  0.898100  1.0  0.1255
  H  H1103  1  0.801600  0.445900  0.872900  1.0  0.1174
  H  H1104  1  0.858500  0.463000  0.851300  1.0  0.0864
  H  H1105  1  0.844400  0.102400  0.467300  1.0  0.0879
  H  H1106  1  0.859200  0.042600  0.453000  1.0  0.1241
  H  H1107  1  0.882400  0.042900  0.481800  1.0  0.1271
  H  H1108  1  0.887600  0.073200  0.500100  1.0  0.0852
  H  H1109  1  0.753200  0.149400  0.417100  1.0  0.0884
  H  H1110  1  0.772000  0.146900  0.447800  1.0  0.1251
  H  H1111  1  0.798700  0.121600  0.450700  1.0  0.1206
  H  H1112  1  0.781700  0.099800  0.393800  1.0  0.1001
  H  H1113  1  0.854200  0.036300  0.400600  1.0  0.0908
  H  H1114  1  0.806200  0.064000  0.369700  1.0  0.1175
  H  H1115  1  0.813600  0.041600  0.341300  1.0  0.1231
  H  H1116  1  0.841600  0.018900  0.343100  1.0  0.0909
  H  H1117  1  0.834100  0.993000  0.398900  1.0  0.0879
  H  H1118  1  0.804500  0.973100  0.398100  1.0  0.1255
  H  H1119  1  0.801600  0.945900  0.372900  1.0  0.1174
  H  H1120  1  0.858500  0.963000  0.351300  1.0  0.0864
  H  H1121  1  0.344400  0.602400  0.467300  1.0  0.0879
  H  H1122  1  0.359200  0.542600  0.453000  1.0  0.1241
  H  H1123  1  0.382400  0.542900  0.481800  1.0  0.1271
  H  H1124  1  0.387600  0.573200  0.500100  1.0  0.0852
  H  H1125  1  0.253200  0.649400  0.417100  1.0  0.0884
  H  H1126  1  0.272000  0.646900  0.447800  1.0  0.1251
  H  H1127  1  0.298700  0.621600  0.450700  1.0  0.1206
  H  H1128  1  0.281700  0.599800  0.393800  1.0  0.1001
  H  H1129  1  0.354200  0.536300  0.400600  1.0  0.0908
  H  H1130  1  0.306200  0.564000  0.369700  1.0  0.1175
  H  H1131  1  0.313600  0.541600  0.341300  1.0  0.1231
  H  H1132  1  0.341600  0.518900  0.343100  1.0  0.0909
  H  H1133  1  0.334100  0.493000  0.398900  1.0  0.0879
  H  H1134  1  0.304500  0.473100  0.398100  1.0  0.1255
  H  H1135  1  0.301600  0.445900  0.372900  1.0  0.1174
  H  H1136  1  0.358500  0.463000  0.351300  1.0  0.0864
  H  H1137  1  0.344400  0.102400  0.967300  1.0  0.0879
  H  H1138  1  0.359200  0.042600  0.953000  1.0  0.1241
  H  H1139  1  0.382400  0.042900  0.981800  1.0  0.1271
  H  H1140  1  0.387600  0.073200  0.000100  1.0  0.0852
  H  H1141  1  0.253200  0.149400  0.917100  1.0  0.0884
  H  H1142  1  0.272000  0.146900  0.947800  1.0  0.1251
  H  H1143  1  0.298700  0.121600  0.950700  1.0  0.1206
  H  H1144  1  0.281700  0.099800  0.893800  1.0  0.1001
  H  H1145  1  0.354200  0.036300  0.900600  1.0  0.0908
  H  H1146  1  0.306200  0.064000  0.869700  1.0  0.1175
  H  H1147  1  0.313600  0.041600  0.841300  1.0  0.1231
  H  H1148  1  0.341600  0.018900  0.843100  1.0  0.0909
  H  H1149  1  0.334100  0.993000  0.898900  1.0  0.0879
  H  H1150  1  0.304500  0.973100  0.898100  1.0  0.1237
  H  H1151  1  0.301600  0.945900  0.872900  1.0  0.1174
  H  H1152  1  0.358500  0.963000  0.851300  1.0  0.0864
  H  H1153  1  0.405600  0.147600  0.467300  1.0  0.088
  H  H1154  1  0.390800  0.207400  0.453000  1.0  0.124
  H  H1155  1  0.367600  0.207100  0.481800  1.0  0.127
  H  H1156  1  0.362400  0.176800  0.500100  1.0  0.0849
  H  H1157  1  0.496800  0.100600  0.417100  1.0  0.0884
  H  H1158  1  0.478000  0.103100  0.447800  1.0  0.1255
  H  H1159  1  0.451300  0.128400  0.450700  1.0  0.1204
  H  H1160  1  0.468300  0.150200  0.393800  1.0  0.1002
  H  H1161  1  0.395800  0.213700  0.400600  1.0  0.0912
  H  H1162  1  0.443800  0.186000  0.369700  1.0  0.1175
  H  H1163  1  0.436400  0.208400  0.341300  1.0  0.1236
  H  H1164  1  0.408400  0.231100  0.343100  1.0  0.0917
  H  H1165  1  0.415900  0.257000  0.398900  1.0  0.0874
  H  H1166  1  0.445500  0.276900  0.398100  1.0  0.1255
  H  H1167  1  0.448400  0.304100  0.372900  1.0  0.1171
  H  H1168  1  0.391500  0.287000  0.351300  1.0  0.0856
  H  H1169  1  0.405600  0.647600  0.967300  1.0  0.088
  H  H1170  1  0.390800  0.707400  0.953000  1.0  0.124
  H  H1171  1  0.367600  0.707100  0.981800  1.0  0.127
  H  H1172  1  0.362400  0.676800  0.000100  1.0  0.0849
  H  H1173  1  0.496800  0.600600  0.917100  1.0  0.0884
  H  H1174  1  0.478000  0.603100  0.947800  1.0  0.1255
  H  H1175  1  0.451300  0.628400  0.950700  1.0  0.1204
  H  H1176  1  0.468300  0.650200  0.893800  1.0  0.1002
  H  H1177  1  0.395800  0.713700  0.900600  1.0  0.0912
  H  H1178  1  0.443800  0.686000  0.869700  1.0  0.1175
  H  H1179  1  0.436400  0.708400  0.841300  1.0  0.1236
  H  H1180  1  0.408400  0.731100  0.843100  1.0  0.0917
  H  H1181  1  0.415900  0.757000  0.898900  1.0  0.0874
  H  H1182  1  0.445500  0.776900  0.898100  1.0  0.1255
  H  H1183  1  0.448400  0.804100  0.872900  1.0  0.1171
  H  H1184  1  0.391500  0.787000  0.851300  1.0  0.0856
  H  H1185  1  0.905600  0.147600  0.967300  1.0  0.088
  H  H1186  1  0.890800  0.207400  0.953000  1.0  0.124
  H  H1187  1  0.867600  0.207100  0.981800  1.0  0.127
  H  H1188  1  0.862400  0.176800  0.000100  1.0  0.0849
  H  H1189  1  0.996800  0.100600  0.917100  1.0  0.0884
  H  H1190  1  0.978000  0.103100  0.947800  1.0  0.1276
  H  H1191  1  0.951300  0.128400  0.950700  1.0  0.1204
  H  H1192  1  0.968300  0.150200  0.893800  1.0  0.1002
  H  H1193  1  0.895800  0.213700  0.900600  1.0  0.0912
  H  H1194  1  0.943800  0.186000  0.869700  1.0  0.1175
  H  H1195  1  0.936400  0.208400  0.841300  1.0  0.1236
  H  H1196  1  0.908400  0.231100  0.843100  1.0  0.0917
  H  H1197  1  0.915900  0.257000  0.898900  1.0  0.0874
  H  H1198  1  0.945500  0.276900  0.898100  1.0  0.1252
  H  H1199  1  0.948400  0.304100  0.872900  1.0  0.1171
  H  H1200  1  0.891500  0.287000  0.851300  1.0  0.0856
  H  H1201  1  0.905600  0.647600  0.467300  1.0  0.088
  H  H1202  1  0.890800  0.707400  0.453000  1.0  0.124
  H  H1203  1  0.867600  0.707100  0.481800  1.0  0.127
  H  H1204  1  0.862400  0.676800  0.500100  1.0  0.0849
  H  H1205  1  0.996800  0.600600  0.417100  1.0  0.0884
  H  H1206  1  0.978000  0.603100  0.447800  1.0  0.1255
  H  H1207  1  0.951300  0.628400  0.450700  1.0  0.1204
  H  H1208  1  0.968300  0.650200  0.393800  1.0  0.1002
  H  H1209  1  0.895800  0.713700  0.400600  1.0  0.0912
  H  H1210  1  0.943800  0.686000  0.369700  1.0  0.1175
  H  H1211  1  0.936400  0.708400  0.341300  1.0  0.1236
  H  H1212  1  0.908400  0.731100  0.343100  1.0  0.0917
  H  H1213  1  0.915900  0.757000  0.398900  1.0  0.0874
  H  H1214  1  0.945500  0.776900  0.398100  1.0  0.1262
  H  H1215  1  0.948400  0.804100  0.372900  1.0  0.1171
  H  H1216  1  0.891500  0.787000  0.351300  1.0  0.0856
  H  H1217  1  0.147600  0.467300  0.405600  1.0  0.0864
  H  H1218  1  0.207400  0.453000  0.390800  1.0  0.1249
  H  H1219  1  0.207100  0.481800  0.367600  1.0  0.127
  H  H1220  1  0.176800  0.500100  0.362400  1.0  0.086
  H  H1221  1  0.100600  0.417100  0.496800  1.0  0.0855
  H  H1222  1  0.103100  0.447800  0.478000  1.0  0.1252
  H  H1223  1  0.128400  0.450700  0.451300  1.0  0.1191
  H  H1224  1  0.150200  0.393800  0.468300  1.0  0.0998
  H  H1225  1  0.213700  0.400600  0.395800  1.0  0.0894
  H  H1226  1  0.186000  0.369700  0.443800  1.0  0.1186
  H  H1227  1  0.208400  0.341300  0.436400  1.0  0.125
  H  H1228  1  0.231100  0.343100  0.408400  1.0  0.0929
  H  H1229  1  0.257000  0.398900  0.415900  1.0  0.0897
  H  H1230  1  0.276900  0.398100  0.445500  1.0  0.1267
  H  H1231  1  0.304100  0.372900  0.448400  1.0  0.1186
  H  H1232  1  0.287000  0.351300  0.391500  1.0  0.0866
  H  H1233  1  0.147600  0.967300  0.905600  1.0  0.0864
  H  H1234  1  0.207400  0.953000  0.890800  1.0  0.1249
  H  H1235  1  0.207100  0.981800  0.867600  1.0  0.127
  H  H1236  1  0.176800  0.000100  0.862400  1.0  0.086
  H  H1237  1  0.100600  0.917100  0.996800  1.0  0.0855
  H  H1238  1  0.103100  0.947800  0.978000  1.0  0.1269
  H  H1239  1  0.128400  0.950700  0.951300  1.0  0.1191
  H  H1240  1  0.150200  0.893800  0.968300  1.0  0.0998
  H  H1241  1  0.213700  0.900600  0.895800  1.0  0.0894
  H  H1242  1  0.186000  0.869700  0.943800  1.0  0.1186
  H  H1243  1  0.208400  0.841300  0.936400  1.0  0.125
  H  H1244  1  0.231100  0.843100  0.908400  1.0  0.0929
  H  H1245  1  0.257000  0.898900  0.915900  1.0  0.0897
  H  H1246  1  0.276900  0.898100  0.945500  1.0  0.1265
  H  H1247  1  0.304100  0.872900  0.948400  1.0  0.1186
  H  H1248  1  0.287000  0.851300  0.891500  1.0  0.0866
  H  H1249  1  0.647600  0.467300  0.905600  1.0  0.0864
  H  H1250  1  0.707400  0.453000  0.890800  1.0  0.1249
  H  H1251  1  0.707100  0.481800  0.867600  1.0  0.127
  H  H1252  1  0.676800  0.500100  0.862400  1.0  0.086
  H  H1253  1  0.600600  0.417100  0.996800  1.0  0.0855
  H  H1254  1  0.603100  0.447800  0.978000  1.0  0.1252
  H  H1255  1  0.628400  0.450700  0.951300  1.0  0.1191
  H  H1256  1  0.650200  0.393800  0.968300  1.0  0.0998
  H  H1257  1  0.713700  0.400600  0.895800  1.0  0.0894
  H  H1258  1  0.686000  0.369700  0.943800  1.0  0.1186
  H  H1259  1  0.708400  0.341300  0.936400  1.0  0.125
  H  H1260  1  0.731100  0.343100  0.908400  1.0  0.0929
  H  H1261  1  0.757000  0.398900  0.915900  1.0  0.0897
  H  H1262  1  0.776900  0.398100  0.945500  1.0  0.1274
  H  H1263  1  0.804100  0.372900  0.948400  1.0  0.1186
  H  H1264  1  0.787000  0.351300  0.891500  1.0  0.0866
  H  H1265  1  0.647600  0.967300  0.405600  1.0  0.0864
  H  H1266  1  0.707400  0.953000  0.390800  1.0  0.1249
  H  H1267  1  0.707100  0.981800  0.367600  1.0  0.127
  H  H1268  1  0.676800  0.000100  0.362400  1.0  0.086
  H  H1269  1  0.600600  0.917100  0.496800  1.0  0.0855
  H  H1270  1  0.603100  0.947800  0.478000  1.0  0.1252
  H  H1271  1  0.628400  0.950700  0.451300  1.0  0.1191
  H  H1272  1  0.650200  0.893800  0.468300  1.0  0.0998
  H  H1273  1  0.713700  0.900600  0.395800  1.0  0.0894
  H  H1274  1  0.686000  0.869700  0.443800  1.0  0.1186
  H  H1275  1  0.708400  0.841300  0.436400  1.0  0.125
  H  H1276  1  0.731100  0.843100  0.408400  1.0  0.0929
  H  H1277  1  0.757000  0.898900  0.415900  1.0  0.0897
  H  H1278  1  0.776900  0.898100  0.445500  1.0  0.1267
  H  H1279  1  0.804100  0.872900  0.448400  1.0  0.1186
  H  H1280  1  0.787000  0.851300  0.391500  1.0  0.0866
  H  H1281  1  0.602400  0.967300  0.844400  1.0  0.0855
  H  H1282  1  0.542600  0.953000  0.859200  1.0  0.125
  H  H1283  1  0.542900  0.981800  0.882400  1.0  0.126
  H  H1284  1  0.573200  0.000100  0.887600  1.0  0.0858
  H  H1285  1  0.649400  0.917100  0.753200  1.0  0.0861
  H  H1286  1  0.646900  0.947800  0.772000  1.0  0.1253
  H  H1287  1  0.621600  0.950700  0.798700  1.0  0.1191
  H  H1288  1  0.599800  0.893800  0.781700  1.0  0.1
  H  H1289  1  0.536300  0.900600  0.854200  1.0  0.0884
  H  H1290  1  0.564000  0.869700  0.806200  1.0  0.118
  H  H1291  1  0.541600  0.841300  0.813600  1.0  0.1237
  H  H1292  1  0.518900  0.843100  0.841600  1.0  0.0927
  H  H1293  1  0.493000  0.898900  0.834100  1.0  0.0895
  H  H1294  1  0.473100  0.898100  0.804500  1.0  0.1265
  H  H1295  1  0.445900  0.872900  0.801600  1.0  0.1182
  H  H1296  1  0.463000  0.851300  0.858500  1.0  0.0868
  H  H1297  1  0.602400  0.467300  0.344400  1.0  0.0855
  H  H1298  1  0.542600  0.453000  0.359200  1.0  0.125
  H  H1299  1  0.542900  0.481800  0.382400  1.0  0.126
  H  H1300  1  0.573200  0.500100  0.387600  1.0  0.0858
  H  H1301  1  0.649400  0.417100  0.253200  1.0  0.0861
  H  H1302  1  0.646900  0.447800  0.272000  1.0  0.1253
  H  H1303  1  0.621600  0.450700  0.298700  1.0  0.1191
  H  H1304  1  0.599800  0.393800  0.281700  1.0  0.1
  H  H1305  1  0.536300  0.400600  0.354200  1.0  0.0884
  H  H1306  1  0.564000  0.369700  0.306200  1.0  0.118
  H  H1307  1  0.541600  0.341300  0.313600  1.0  0.1237
  H  H1308  1  0.518900  0.343100  0.341600  1.0  0.0927
  H  H1309  1  0.493000  0.398900  0.334100  1.0  0.0895
  H  H1310  1  0.473100  0.398100  0.304500  1.0  0.1265
  H  H1311  1  0.445900  0.372900  0.301600  1.0  0.1182
  H  H1312  1  0.463000  0.351300  0.358500  1.0  0.0868
  H  H1313  1  0.102400  0.967300  0.344400  1.0  0.0855
  H  H1314  1  0.042600  0.953000  0.359200  1.0  0.125
  H  H1315  1  0.042900  0.981800  0.382400  1.0  0.126
  H  H1316  1  0.073200  0.000100  0.387600  1.0  0.0858
  H  H1317  1  0.149400  0.917100  0.253200  1.0  0.0861
  H  H1318  1  0.146900  0.947800  0.272000  1.0  0.1253
  H  H1319  1  0.121600  0.950700  0.298700  1.0  0.1191
  H  H1320  1  0.099800  0.893800  0.281700  1.0  0.1
  H  H1321  1  0.036300  0.900600  0.354200  1.0  0.0884
  H  H1322  1  0.064000  0.869700  0.306200  1.0  0.118
  H  H1323  1  0.041600  0.841300  0.313600  1.0  0.1237
  H  H1324  1  0.018900  0.843100  0.341600  1.0  0.0927
  H  H1325  1  0.993000  0.898900  0.334100  1.0  0.0895
  H  H1326  1  0.973100  0.898100  0.304500  1.0  0.1248
  H  H1327  1  0.945900  0.872900  0.301600  1.0  0.1182
  H  H1328  1  0.963000  0.851300  0.358500  1.0  0.0868
  H  H1329  1  0.102400  0.467300  0.844400  1.0  0.0855
  H  H1330  1  0.042600  0.453000  0.859200  1.0  0.125
  H  H1331  1  0.042900  0.481800  0.882400  1.0  0.126
  H  H1332  1  0.073200  0.500100  0.887600  1.0  0.0858
  H  H1333  1  0.149400  0.417100  0.753200  1.0  0.0861
  H  H1334  1  0.146900  0.447800  0.772000  1.0  0.1253
  H  H1335  1  0.121600  0.450700  0.798700  1.0  0.1191
  H  H1336  1  0.099800  0.393800  0.781700  1.0  0.1
  H  H1337  1  0.036300  0.400600  0.854200  1.0  0.0884
  H  H1338  1  0.064000  0.369700  0.806200  1.0  0.118
  H  H1339  1  0.041600  0.341300  0.813600  1.0  0.1237
  H  H1340  1  0.018900  0.343100  0.841600  1.0  0.0927
  H  H1341  1  0.993000  0.398900  0.834100  1.0  0.0895
  H  H1342  1  0.973100  0.398100  0.804500  1.0  0.1265
  H  H1343  1  0.945900  0.372900  0.801600  1.0  0.1182
  H  H1344  1  0.963000  0.351300  0.858500  1.0  0.0868
  H  H1345  1  0.102400  0.282700  0.905600  1.0  0.0858
  H  H1346  1  0.042600  0.297000  0.890800  1.0  0.1249
  H  H1347  1  0.042900  0.268200  0.867600  1.0  0.1262
  H  H1348  1  0.073200  0.249900  0.862400  1.0  0.0854
  H  H1349  1  0.149400  0.332900  0.996800  1.0  0.0862
  H  H1350  1  0.146900  0.302200  0.978000  1.0  0.1248
  H  H1351  1  0.121600  0.299300  0.951300  1.0  0.119
  H  H1352  1  0.099800  0.356200  0.968300  1.0  0.0998
  H  H1353  1  0.036300  0.349400  0.895800  1.0  0.0891
  H  H1354  1  0.064000  0.380300  0.943800  1.0  0.1181
  H  H1355  1  0.041600  0.408700  0.936400  1.0  0.1245
  H  H1356  1  0.018900  0.406900  0.908400  1.0  0.0923
  H  H1357  1  0.993000  0.351100  0.915900  1.0  0.0898
  H  H1358  1  0.973100  0.351900  0.945500  1.0  0.1265
  H  H1359  1  0.945900  0.377100  0.948400  1.0  0.1183
  H  H1360  1  0.963000  0.398700  0.891500  1.0  0.0867
  H  H1361  1  0.102400  0.782700  0.405600  1.0  0.0858
  H  H1362  1  0.042600  0.797000  0.390800  1.0  0.1249
  H  H1363  1  0.042900  0.768200  0.367600  1.0  0.1262
  H  H1364  1  0.073200  0.749900  0.362400  1.0  0.0854
  H  H1365  1  0.149400  0.832900  0.496800  1.0  0.0862
  H  H1366  1  0.146900  0.802200  0.478000  1.0  0.1248
  H  H1367  1  0.121600  0.799300  0.451300  1.0  0.119
  H  H1368  1  0.099800  0.856200  0.468300  1.0  0.0998
  H  H1369  1  0.036300  0.849400  0.395800  1.0  0.0891
  H  H1370  1  0.064000  0.880300  0.443800  1.0  0.1181
  H  H1371  1  0.041600  0.908700  0.436400  1.0  0.1248
  H  H1372  1  0.018900  0.906900  0.408400  1.0  0.0923
  H  H1373  1  0.993000  0.851100  0.415900  1.0  0.0898
  H  H1374  1  0.973100  0.851900  0.445500  1.0  0.1266
  H  H1375  1  0.945900  0.877100  0.448400  1.0  0.1183
  H  H1376  1  0.963000  0.898700  0.391500  1.0  0.0867
  H  H1377  1  0.602400  0.282700  0.405600  1.0  0.0858
  H  H1378  1  0.542600  0.297000  0.390800  1.0  0.1249
  H  H1379  1  0.542900  0.268200  0.367600  1.0  0.1262
  H  H1380  1  0.573200  0.249900  0.362400  1.0  0.0854
  H  H1381  1  0.649400  0.332900  0.496800  1.0  0.0862
  H  H1382  1  0.646900  0.302200  0.478000  1.0  0.1248
  H  H1383  1  0.621600  0.299300  0.451300  1.0  0.119
  H  H1384  1  0.599800  0.356200  0.468300  1.0  0.0998
  H  H1385  1  0.536300  0.349400  0.395800  1.0  0.0891
  H  H1386  1  0.564000  0.380300  0.443800  1.0  0.1181
  H  H1387  1  0.541600  0.408700  0.436400  1.0  0.1248
  H  H1388  1  0.518900  0.406900  0.408400  1.0  0.0923
  H  H1389  1  0.493000  0.351100  0.415900  1.0  0.0898
  H  H1390  1  0.473100  0.351900  0.445500  1.0  0.1266
  H  H1391  1  0.445900  0.377100  0.448400  1.0  0.1183
  H  H1392  1  0.463000  0.398700  0.391500  1.0  0.0867
  H  H1393  1  0.602400  0.782700  0.905600  1.0  0.0858
  H  H1394  1  0.542600  0.797000  0.890800  1.0  0.1249
  H  H1395  1  0.542900  0.768200  0.867600  1.0  0.1262
  H  H1396  1  0.573200  0.749900  0.862400  1.0  0.0854
  H  H1397  1  0.649400  0.832900  0.996800  1.0  0.0862
  H  H1398  1  0.646900  0.802200  0.978000  1.0  0.1248
  H  H1399  1  0.621600  0.799300  0.951300  1.0  0.119
  H  H1400  1  0.599800  0.856200  0.968300  1.0  0.0998
  H  H1401  1  0.536300  0.849400  0.895800  1.0  0.0891
  H  H1402  1  0.564000  0.880300  0.943800  1.0  0.1181
  H  H1403  1  0.541600  0.908700  0.936400  1.0  0.1248
  H  H1404  1  0.518900  0.906900  0.908400  1.0  0.0923
  H  H1405  1  0.493000  0.851100  0.915900  1.0  0.0898
  H  H1406  1  0.473100  0.851900  0.945500  1.0  0.1272
  H  H1407  1  0.445900  0.877100  0.948400  1.0  0.1183
  H  H1408  1  0.463000  0.898700  0.891500  1.0  0.0867
  H  H1409  1  0.647600  0.782700  0.344400  1.0  0.0865
  H  H1410  1  0.707400  0.797000  0.359200  1.0  0.1252
  H  H1411  1  0.707100  0.768200  0.382400  1.0  0.1264
  H  H1412  1  0.676800  0.749900  0.387600  1.0  0.0861
  H  H1413  1  0.600600  0.832900  0.253200  1.0  0.0865
  H  H1414  1  0.603100  0.802200  0.272000  1.0  0.1243
  H  H1415  1  0.628400  0.799300  0.298700  1.0  0.1189
  H  H1416  1  0.650200  0.856200  0.281700  1.0  0.0996
  H  H1417  1  0.713700  0.849400  0.354200  1.0  0.0888
  H  H1418  1  0.686000  0.880300  0.306200  1.0  0.1183
  H  H1419  1  0.708400  0.908700  0.313600  1.0  0.1249
  H  H1420  1  0.731100  0.906900  0.341600  1.0  0.0938
  H  H1421  1  0.757000  0.851100  0.334100  1.0  0.0887
  H  H1422  1  0.776900  0.851900  0.304500  1.0  0.1256
  H  H1423  1  0.804100  0.877100  0.301600  1.0  0.1183
  H  H1424  1  0.787000  0.898700  0.358500  1.0  0.0867
  H  H1425  1  0.647600  0.282700  0.844400  1.0  0.0865
  H  H1426  1  0.707400  0.297000  0.859200  1.0  0.1252
  H  H1427  1  0.707100  0.268200  0.882400  1.0  0.1264
  H  H1428  1  0.676800  0.249900  0.887600  1.0  0.0861
  H  H1429  1  0.600600  0.332900  0.753200  1.0  0.0865
  H  H1430  1  0.603100  0.302200  0.772000  1.0  0.1243
  H  H1431  1  0.628400  0.299300  0.798700  1.0  0.1189
  H  H1432  1  0.650200  0.356200  0.781700  1.0  0.0996
  H  H1433  1  0.713700  0.349400  0.854200  1.0  0.0888
  H  H1434  1  0.686000  0.380300  0.806200  1.0  0.1183
  H  H1435  1  0.708400  0.408700  0.813600  1.0  0.1249
  H  H1436  1  0.731100  0.406900  0.841600  1.0  0.0938
  H  H1437  1  0.757000  0.351100  0.834100  1.0  0.0887
  H  H1438  1  0.776900  0.351900  0.804500  1.0  0.1256
  H  H1439  1  0.804100  0.377100  0.801600  1.0  0.1183
  H  H1440  1  0.787000  0.398700  0.858500  1.0  0.0867
  H  H1441  1  0.147600  0.782700  0.844400  1.0  0.0865
  H  H1442  1  0.207400  0.797000  0.859200  1.0  0.1252
  H  H1443  1  0.207100  0.768200  0.882400  1.0  0.1264
  H  H1444  1  0.176800  0.749900  0.887600  1.0  0.0861
  H  H1445  1  0.100600  0.832900  0.753200  1.0  0.0865
  H  H1446  1  0.103100  0.802200  0.772000  1.0  0.1243
  H  H1447  1  0.128400  0.799300  0.798700  1.0  0.1189
  H  H1448  1  0.150200  0.856200  0.781700  1.0  0.0996
  H  H1449  1  0.213700  0.849400  0.854200  1.0  0.0888
  H  H1450  1  0.186000  0.880300  0.806200  1.0  0.1183
  H  H1451  1  0.208400  0.908700  0.813600  1.0  0.1249
  H  H1452  1  0.231100  0.906900  0.841600  1.0  0.0938
  H  H1453  1  0.257000  0.851100  0.834100  1.0  0.0887
  H  H1454  1  0.276900  0.851900  0.804500  1.0  0.1256
  H  H1455  1  0.304100  0.877100  0.801600  1.0  0.1183
  H  H1456  1  0.287000  0.898700  0.858500  1.0  0.0867
  H  H1457  1  0.147600  0.282700  0.344400  1.0  0.0865
  H  H1458  1  0.207400  0.297000  0.359200  1.0  0.1252
  H  H1459  1  0.207100  0.268200  0.382400  1.0  0.1264
  H  H1460  1  0.176800  0.249900  0.387600  1.0  0.0861
  H  H1461  1  0.100600  0.332900  0.253200  1.0  0.0865
  H  H1462  1  0.103100  0.302200  0.272000  1.0  0.1243
  H  H1463  1  0.128400  0.299300  0.298700  1.0  0.1189
  H  H1464  1  0.150200  0.356200  0.281700  1.0  0.0996
  H  H1465  1  0.213700  0.349400  0.354200  1.0  0.0888
  H  H1466  1  0.186000  0.380300  0.306200  1.0  0.1183
  H  H1467  1  0.208400  0.408700  0.313600  1.0  0.1249
  H  H1468  1  0.231100  0.406900  0.341600  1.0  0.0938
  H  H1469  1  0.257000  0.351100  0.334100  1.0  0.0887
  H  H1470  1  0.276900  0.351900  0.304500  1.0  0.1256
  H  H1471  1  0.304100  0.377100  0.301600  1.0  0.1183
  H  H1472  1  0.287000  0.398700  0.358500  1.0  0.0867
  H  H1473  1  0.967300  0.844400  0.602400  1.0  0.0877
  H  H1474  1  0.953000  0.859200  0.542600  1.0  0.1246
  H  H1475  1  0.981800  0.882400  0.542900  1.0  0.1268
  H  H1476  1  0.000100  0.887600  0.573200  1.0  0.0866
  H  H1477  1  0.917100  0.753200  0.649400  1.0  0.0863
  H  H1478  1  0.947800  0.772000  0.646900  1.0  0.1245
  H  H1479  1  0.950700  0.798700  0.621600  1.0  0.1195
  H  H1480  1  0.893800  0.781700  0.599800  1.0  0.1008
  H  H1481  1  0.900600  0.854200  0.536300  1.0  0.0894
  H  H1482  1  0.869700  0.806200  0.564000  1.0  0.1169
  H  H1483  1  0.841300  0.813600  0.541600  1.0  0.1245
  H  H1484  1  0.843100  0.841600  0.518900  1.0  0.0887
  H  H1485  1  0.898900  0.834100  0.493000  1.0  0.0869
  H  H1486  1  0.898100  0.804500  0.473100  1.0  0.1268
  H  H1487  1  0.872900  0.801600  0.445900  1.0  0.1165
  H  H1488  1  0.851300  0.858500  0.463000  1.0  0.0863
  H  H1489  1  0.967300  0.344400  0.102400  1.0  0.0877
  H  H1490  1  0.953000  0.359200  0.042600  1.0  0.1246
  H  H1491  1  0.981800  0.382400  0.042900  1.0  0.1268
  H  H1492  1  0.000100  0.387600  0.073200  1.0  0.0866
  H  H1493  1  0.917100  0.253200  0.149400  1.0  0.0863
  H  H1494  1  0.947800  0.272000  0.146900  1.0  0.1245
  H  H1495  1  0.950700  0.298700  0.121600  1.0  0.1195
  H  H1496  1  0.893800  0.281700  0.099800  1.0  0.1008
  H  H1497  1  0.900600  0.354200  0.036300  1.0  0.0894
  H  H1498  1  0.869700  0.306200  0.064000  1.0  0.1169
  H  H1499  1  0.841300  0.313600  0.041600  1.0  0.1245
  H  H1500  1  0.843100  0.341600  0.018900  1.0  0.0887
  H  H1501  1  0.898900  0.334100  0.993000  1.0  0.0869
  H  H1502  1  0.898100  0.304500  0.973100  1.0  0.1248
  H  H1503  1  0.872900  0.301600  0.945900  1.0  0.1165
  H  H1504  1  0.851300  0.358500  0.963000  1.0  0.0863
  H  H1505  1  0.467300  0.844400  0.102400  1.0  0.0877
  H  H1506  1  0.453000  0.859200  0.042600  1.0  0.1246
  H  H1507  1  0.481800  0.882400  0.042900  1.0  0.1268
  H  H1508  1  0.500100  0.887600  0.073200  1.0  0.0866
  H  H1509  1  0.417100  0.753200  0.149400  1.0  0.0863
  H  H1510  1  0.447800  0.772000  0.146900  1.0  0.1245
  H  H1511  1  0.450700  0.798700  0.121600  1.0  0.1195
  H  H1512  1  0.393800  0.781700  0.099800  1.0  0.1008
  H  H1513  1  0.400600  0.854200  0.036300  1.0  0.0894
  H  H1514  1  0.369700  0.806200  0.064000  1.0  0.1169
  H  H1515  1  0.341300  0.813600  0.041600  1.0  0.1245
  H  H1516  1  0.343100  0.841600  0.018900  1.0  0.0887
  H  H1517  1  0.398900  0.834100  0.993000  1.0  0.0869
  H  H1518  1  0.398100  0.804500  0.973100  1.0  0.1268
  H  H1519  1  0.372900  0.801600  0.945900  1.0  0.1165
  H  H1520  1  0.351300  0.858500  0.963000  1.0  0.0863
  H  H1521  1  0.467300  0.344400  0.602400  1.0  0.0877
  H  H1522  1  0.453000  0.359200  0.542600  1.0  0.1246
  H  H1523  1  0.481800  0.382400  0.542900  1.0  0.1268
  H  H1524  1  0.500100  0.387600  0.573200  1.0  0.0866
  H  H1525  1  0.417100  0.253200  0.649400  1.0  0.0863
  H  H1526  1  0.447800  0.272000  0.646900  1.0  0.1245
  H  H1527  1  0.450700  0.298700  0.621600  1.0  0.1195
  H  H1528  1  0.393800  0.281700  0.599800  1.0  0.1008
  H  H1529  1  0.400600  0.354200  0.536300  1.0  0.0894
  H  H1530  1  0.369700  0.306200  0.564000  1.0  0.1169
  H  H1531  1  0.341300  0.313600  0.541600  1.0  0.1245
  H  H1532  1  0.343100  0.341600  0.518900  1.0  0.0887
  H  H1533  1  0.398900  0.334100  0.493000  1.0  0.0869
  H  H1534  1  0.398100  0.304500  0.473100  1.0  0.1268
  H  H1535  1  0.372900  0.301600  0.445900  1.0  0.1165
  H  H1536  1  0.351300  0.358500  0.463000  1.0  0.0863
  H  H1537  1  0.467300  0.405600  0.147600  1.0  0.0876
  H  H1538  1  0.453000  0.390800  0.207400  1.0  0.1249
  H  H1539  1  0.481800  0.367600  0.207100  1.0  0.1263
  H  H1540  1  0.500100  0.362400  0.176800  1.0  0.0872
  H  H1541  1  0.417100  0.496800  0.100600  1.0  0.0863
  H  H1542  1  0.447800  0.478000  0.103100  1.0  0.1248
  H  H1543  1  0.450700  0.451300  0.128400  1.0  0.1197
  H  H1544  1  0.393800  0.468300  0.150200  1.0  0.1006
  H  H1545  1  0.400600  0.395800  0.213700  1.0  0.0891
  H  H1546  1  0.369700  0.443800  0.186000  1.0  0.1171
  H  H1547  1  0.341300  0.436400  0.208400  1.0  0.1248
  H  H1548  1  0.343100  0.408400  0.231100  1.0  0.0891
  H  H1549  1  0.398900  0.415900  0.257000  1.0  0.0871
  H  H1550  1  0.398100  0.445500  0.276900  1.0  0.1265
  H  H1551  1  0.372900  0.448400  0.304100  1.0  0.1167
  H  H1552  1  0.351300  0.391500  0.287000  1.0  0.0865
  H  H1553  1  0.467300  0.905600  0.647600  1.0  0.0876
  H  H1554  1  0.453000  0.890800  0.707400  1.0  0.1249
  H  H1555  1  0.481800  0.867600  0.707100  1.0  0.1263
  H  H1556  1  0.500100  0.862400  0.676800  1.0  0.0872
  H  H1557  1  0.417100  0.996800  0.600600  1.0  0.0863
  H  H1558  1  0.447800  0.978000  0.603100  1.0  0.1248
  H  H1559  1  0.450700  0.951300  0.628400  1.0  0.1197
  H  H1560  1  0.393800  0.968300  0.650200  1.0  0.1006
  H  H1561  1  0.400600  0.895800  0.713700  1.0  0.0891
  H  H1562  1  0.369700  0.943800  0.686000  1.0  0.1171
  H  H1563  1  0.341300  0.936400  0.708400  1.0  0.1248
  H  H1564  1  0.343100  0.908400  0.731100  1.0  0.0891
  H  H1565  1  0.398900  0.915900  0.757000  1.0  0.0871
  H  H1566  1  0.398100  0.945500  0.776900  1.0  0.1272
  H  H1567  1  0.372900  0.948400  0.804100  1.0  0.1167
  H  H1568  1  0.351300  0.891500  0.787000  1.0  0.0865
  H  H1569  1  0.967300  0.405600  0.647600  1.0  0.0876
  H  H1570  1  0.953000  0.390800  0.707400  1.0  0.1249
  H  H1571  1  0.981800  0.367600  0.707100  1.0  0.1263
  H  H1572  1  0.000100  0.362400  0.676800  1.0  0.0872
  H  H1573  1  0.917100  0.496800  0.600600  1.0  0.0863
  H  H1574  1  0.947800  0.478000  0.603100  1.0  0.1248
  H  H1575  1  0.950700  0.451300  0.628400  1.0  0.1197
  H  H1576  1  0.893800  0.468300  0.650200  1.0  0.1006
  H  H1577  1  0.900600  0.395800  0.713700  1.0  0.0891
  H  H1578  1  0.869700  0.443800  0.686000  1.0  0.1171
  H  H1579  1  0.841300  0.436400  0.708400  1.0  0.1248
  H  H1580  1  0.843100  0.408400  0.731100  1.0  0.0891
  H  H1581  1  0.898900  0.415900  0.757000  1.0  0.0871
  H  H1582  1  0.898100  0.445500  0.776900  1.0  0.1265
  H  H1583  1  0.872900  0.448400  0.804100  1.0  0.1167
  H  H1584  1  0.851300  0.391500  0.787000  1.0  0.0865
  H  H1585  1  0.967300  0.905600  0.147600  1.0  0.0876
  H  H1586  1  0.953000  0.890800  0.207400  1.0  0.1249
  H  H1587  1  0.981800  0.867600  0.207100  1.0  0.1263
  H  H1588  1  0.000100  0.862400  0.176800  1.0  0.0872
  H  H1589  1  0.917100  0.996800  0.100600  1.0  0.0863
  H  H1590  1  0.947800  0.978000  0.103100  1.0  0.1269
  H  H1591  1  0.950700  0.951300  0.128400  1.0  0.1197
  H  H1592  1  0.893800  0.968300  0.150200  1.0  0.1006
  H  H1593  1  0.900600  0.895800  0.213700  1.0  0.0891
  H  H1594  1  0.869700  0.943800  0.186000  1.0  0.1171
  H  H1595  1  0.841300  0.936400  0.208400  1.0  0.1248
  H  H1596  1  0.843100  0.908400  0.231100  1.0  0.0891
  H  H1597  1  0.898900  0.915900  0.257000  1.0  0.0871
  H  H1598  1  0.898100  0.945500  0.276900  1.0  0.1262
  H  H1599  1  0.872900  0.948400  0.304100  1.0  0.1167
  H  H1600  1  0.851300  0.891500  0.287000  1.0  0.0865
  H  H1601  1  0.782700  0.344400  0.647600  1.0  0.0874
  H  H1602  1  0.797000  0.359200  0.707400  1.0  0.1251
  H  H1603  1  0.768200  0.382400  0.707100  1.0  0.1265
  H  H1604  1  0.749900  0.387600  0.676800  1.0  0.0869
  H  H1605  1  0.832900  0.253200  0.600600  1.0  0.0858
  H  H1606  1  0.802200  0.272000  0.603100  1.0  0.1234
  H  H1607  1  0.799300  0.298700  0.628400  1.0  0.1195
  H  H1608  1  0.856200  0.281700  0.650200  1.0  0.1007
  H  H1609  1  0.849400  0.354200  0.713700  1.0  0.0893
  H  H1610  1  0.880300  0.306200  0.686000  1.0  0.1174
  H  H1611  1  0.908700  0.313600  0.708400  1.0  0.1248
  H  H1612  1  0.906900  0.341600  0.731100  1.0  0.0887
  H  H1613  1  0.851100  0.334100  0.757000  1.0  0.0872
  H  H1614  1  0.851900  0.304500  0.776900  1.0  0.1262
  H  H1615  1  0.877100  0.301600  0.804100  1.0  0.1164
  H  H1616  1  0.898700  0.358500  0.787000  1.0  0.0864
  H  H1617  1  0.782700  0.844400  0.147600  1.0  0.0874
  H  H1618  1  0.797000  0.859200  0.207400  1.0  0.1251
  H  H1619  1  0.768200  0.882400  0.207100  1.0  0.1265
  H  H1620  1  0.749900  0.887600  0.176800  1.0  0.0869
  H  H1621  1  0.832900  0.753200  0.100600  1.0  0.0858
  H  H1622  1  0.802200  0.772000  0.103100  1.0  0.1234
  H  H1623  1  0.799300  0.798700  0.128400  1.0  0.1195
  H  H1624  1  0.856200  0.781700  0.150200  1.0  0.1007
  H  H1625  1  0.849400  0.854200  0.213700  1.0  0.0893
  H  H1626  1  0.880300  0.806200  0.186000  1.0  0.1174
  H  H1627  1  0.908700  0.813600  0.208400  1.0  0.1248
  H  H1628  1  0.906900  0.841600  0.231100  1.0  0.0887
  H  H1629  1  0.851100  0.834100  0.257000  1.0  0.0872
  H  H1630  1  0.851900  0.804500  0.276900  1.0  0.1262
  H  H1631  1  0.877100  0.801600  0.304100  1.0  0.1164
  H  H1632  1  0.898700  0.858500  0.287000  1.0  0.0864
  H  H1633  1  0.282700  0.344400  0.147600  1.0  0.0874
  H  H1634  1  0.297000  0.359200  0.207400  1.0  0.1251
  H  H1635  1  0.268200  0.382400  0.207100  1.0  0.1265
  H  H1636  1  0.249900  0.387600  0.176800  1.0  0.0869
  H  H1637  1  0.332900  0.253200  0.100600  1.0  0.0858
  H  H1638  1  0.302200  0.272000  0.103100  1.0  0.1234
  H  H1639  1  0.299300  0.298700  0.128400  1.0  0.1195
  H  H1640  1  0.356200  0.281700  0.150200  1.0  0.1007
  H  H1641  1  0.349400  0.354200  0.213700  1.0  0.0893
  H  H1642  1  0.380300  0.306200  0.186000  1.0  0.1174
  H  H1643  1  0.408700  0.313600  0.208400  1.0  0.1248
  H  H1644  1  0.406900  0.341600  0.231100  1.0  0.0887
  H  H1645  1  0.351100  0.334100  0.257000  1.0  0.0872
  H  H1646  1  0.351900  0.304500  0.276900  1.0  0.1262
  H  H1647  1  0.377100  0.301600  0.304100  1.0  0.1164
  H  H1648  1  0.398700  0.358500  0.287000  1.0  0.0864
  H  H1649  1  0.282700  0.844400  0.647600  1.0  0.0874
  H  H1650  1  0.297000  0.859200  0.707400  1.0  0.1251
  H  H1651  1  0.268200  0.882400  0.707100  1.0  0.1265
  H  H1652  1  0.249900  0.887600  0.676800  1.0  0.0869
  H  H1653  1  0.332900  0.753200  0.600600  1.0  0.0858
  H  H1654  1  0.302200  0.772000  0.603100  1.0  0.1234
  H  H1655  1  0.299300  0.798700  0.628400  1.0  0.1195
  H  H1656  1  0.356200  0.781700  0.650200  1.0  0.1007
  H  H1657  1  0.349400  0.854200  0.713700  1.0  0.0893
  H  H1658  1  0.380300  0.806200  0.686000  1.0  0.1174
  H  H1659  1  0.408700  0.813600  0.708400  1.0  0.1248
  H  H1660  1  0.406900  0.841600  0.731100  1.0  0.0887
  H  H1661  1  0.351100  0.834100  0.757000  1.0  0.0872
  H  H1662  1  0.351900  0.804500  0.776900  1.0  0.1262
  H  H1663  1  0.377100  0.801600  0.804100  1.0  0.1164
  H  H1664  1  0.398700  0.858500  0.787000  1.0  0.0864
  H  H1665  1  0.282700  0.905600  0.102400  1.0  0.0867
  H  H1666  1  0.297000  0.890800  0.042600  1.0  0.1245
  H  H1667  1  0.268200  0.867600  0.042900  1.0  0.1269
  H  H1668  1  0.249900  0.862400  0.073200  1.0  0.0871
  H  H1669  1  0.332900  0.996800  0.149400  1.0  0.0867
  H  H1670  1  0.302200  0.978000  0.146900  1.0  0.1241
  H  H1671  1  0.299300  0.951300  0.121600  1.0  0.1198
  H  H1672  1  0.356200  0.968300  0.099800  1.0  0.1006
  H  H1673  1  0.349400  0.895800  0.036300  1.0  0.0895
  H  H1674  1  0.380300  0.943800  0.064000  1.0  0.1167
  H  H1675  1  0.408700  0.936400  0.041600  1.0  0.1245
  H  H1676  1  0.406900  0.908400  0.018900  1.0  0.0884
  H  H1677  1  0.351100  0.915900  0.993000  1.0  0.0868
  H  H1678  1  0.351900  0.945500  0.973100  1.0  0.1267
  H  H1679  1  0.377100  0.948400  0.945900  1.0  0.117
  H  H1680  1  0.398700  0.891500  0.963000  1.0  0.0863
  H  H1681  1  0.282700  0.405600  0.602400  1.0  0.0867
  H  H1682  1  0.297000  0.390800  0.542600  1.0  0.1245
  H  H1683  1  0.268200  0.367600  0.542900  1.0  0.1269
  H  H1684  1  0.249900  0.362400  0.573200  1.0  0.0871
  H  H1685  1  0.332900  0.496800  0.649400  1.0  0.0867
  H  H1686  1  0.302200  0.478000  0.646900  1.0  0.1241
  H  H1687  1  0.299300  0.451300  0.621600  1.0  0.1198
  H  H1688  1  0.356200  0.468300  0.599800  1.0  0.1006
  H  H1689  1  0.349400  0.395800  0.536300  1.0  0.0895
  H  H1690  1  0.380300  0.443800  0.564000  1.0  0.1167
  H  H1691  1  0.408700  0.436400  0.541600  1.0  0.1251
  H  H1692  1  0.406900  0.408400  0.518900  1.0  0.0884
  H  H1693  1  0.351100  0.415900  0.493000  1.0  0.0868
  H  H1694  1  0.351900  0.445500  0.473100  1.0  0.1265
  H  H1695  1  0.377100  0.448400  0.445900  1.0  0.117
  H  H1696  1  0.398700  0.391500  0.463000  1.0  0.0863
  H  H1697  1  0.782700  0.905600  0.602400  1.0  0.0867
  H  H1698  1  0.797000  0.890800  0.542600  1.0  0.1245
  H  H1699  1  0.768200  0.867600  0.542900  1.0  0.1269
  H  H1700  1  0.749900  0.862400  0.573200  1.0  0.0871
  H  H1701  1  0.832900  0.996800  0.649400  1.0  0.0867
  H  H1702  1  0.802200  0.978000  0.646900  1.0  0.1241
  H  H1703  1  0.799300  0.951300  0.621600  1.0  0.1198
  H  H1704  1  0.856200  0.968300  0.599800  1.0  0.1006
  H  H1705  1  0.849400  0.895800  0.536300  1.0  0.0895
  H  H1706  1  0.880300  0.943800  0.564000  1.0  0.1167
  H  H1707  1  0.908700  0.936400  0.541600  1.0  0.1251
  H  H1708  1  0.906900  0.908400  0.518900  1.0  0.0884
  H  H1709  1  0.851100  0.915900  0.493000  1.0  0.0868
  H  H1710  1  0.851900  0.945500  0.473100  1.0  0.1275
  H  H1711  1  0.877100  0.948400  0.445900  1.0  0.117
  H  H1712  1  0.898700  0.891500  0.463000  1.0  0.0863
  H  H1713  1  0.782700  0.405600  0.102400  1.0  0.0867
  H  H1714  1  0.797000  0.390800  0.042600  1.0  0.1245
  H  H1715  1  0.768200  0.367600  0.042900  1.0  0.1269
  H  H1716  1  0.749900  0.362400  0.073200  1.0  0.0871
  H  H1717  1  0.832900  0.496800  0.149400  1.0  0.0867
  H  H1718  1  0.802200  0.478000  0.146900  1.0  0.1241
  H  H1719  1  0.799300  0.451300  0.121600  1.0  0.1198
  H  H1720  1  0.856200  0.468300  0.099800  1.0  0.1006
  H  H1721  1  0.849400  0.395800  0.036300  1.0  0.0895
  H  H1722  1  0.880300  0.443800  0.064000  1.0  0.1167
  H  H1723  1  0.908700  0.436400  0.041600  1.0  0.1251
  H  H1724  1  0.906900  0.408400  0.018900  1.0  0.0884
  H  H1725  1  0.851100  0.415900  0.993000  1.0  0.0868
  H  H1726  1  0.851900  0.445500  0.973100  1.0  0.1265
  H  H1727  1  0.877100  0.448400  0.945900  1.0  0.117
  H  H1728  1  0.898700  0.391500  0.963000  1.0  0.0863
  H  H1729  1  0.602400  0.405600  0.782700  1.0  0.0864
  H  H1730  1  0.542600  0.390800  0.797000  1.0  0.1241
  H  H1731  1  0.542900  0.367600  0.768200  1.0  0.1262
  H  H1732  1  0.573200  0.362400  0.749900  1.0  0.0843
  H  H1733  1  0.649400  0.496800  0.832900  1.0  0.0869
  H  H1734  1  0.646900  0.478000  0.802200  1.0  0.1244
  H  H1735  1  0.621600  0.451300  0.799300  1.0  0.1204
  H  H1736  1  0.599800  0.468300  0.856200  1.0  0.0998
  H  H1737  1  0.536300  0.395800  0.849400  1.0  0.0908
  H  H1738  1  0.564000  0.443800  0.880300  1.0  0.1176
  H  H1739  1  0.541600  0.436400  0.908700  1.0  0.1238
  H  H1740  1  0.518900  0.408400  0.906900  1.0  0.0912
  H  H1741  1  0.493000  0.415900  0.851100  1.0  0.0877
  H  H1742  1  0.473100  0.445500  0.851900  1.0  0.1268
  H  H1743  1  0.445900  0.448400  0.877100  1.0  0.1183
  H  H1744  1  0.463000  0.391500  0.898700  1.0  0.0865
  H  H1745  1  0.602400  0.905600  0.282700  1.0  0.0864
  H  H1746  1  0.542600  0.890800  0.297000  1.0  0.1241
  H  H1747  1  0.542900  0.867600  0.268200  1.0  0.1262
  H  H1748  1  0.573200  0.862400  0.249900  1.0  0.0843
  H  H1749  1  0.649400  0.996800  0.332900  1.0  0.0869
  H  H1750  1  0.646900  0.978000  0.302200  1.0  0.1244
  H  H1751  1  0.621600  0.951300  0.299300  1.0  0.1204
  H  H1752  1  0.599800  0.968300  0.356200  1.0  0.0998
  H  H1753  1  0.536300  0.895800  0.349400  1.0  0.0908
  H  H1754  1  0.564000  0.943800  0.380300  1.0  0.1176
  H  H1755  1  0.541600  0.936400  0.408700  1.0  0.1238
  H  H1756  1  0.518900  0.908400  0.406900  1.0  0.0912
  H  H1757  1  0.493000  0.915900  0.351100  1.0  0.0877
  H  H1758  1  0.473100  0.945500  0.351900  1.0  0.1274
  H  H1759  1  0.445900  0.948400  0.377100  1.0  0.1183
  H  H1760  1  0.463000  0.891500  0.398700  1.0  0.0865
  H  H1761  1  0.102400  0.405600  0.282700  1.0  0.0864
  H  H1762  1  0.042600  0.390800  0.297000  1.0  0.1241
  H  H1763  1  0.042900  0.367600  0.268200  1.0  0.1262
  H  H1764  1  0.073200  0.362400  0.249900  1.0  0.0843
  H  H1765  1  0.149400  0.496800  0.332900  1.0  0.0869
  H  H1766  1  0.146900  0.478000  0.302200  1.0  0.1244
  H  H1767  1  0.121600  0.451300  0.299300  1.0  0.1204
  H  H1768  1  0.099800  0.468300  0.356200  1.0  0.0998
  H  H1769  1  0.036300  0.395800  0.349400  1.0  0.0908
  H  H1770  1  0.064000  0.443800  0.380300  1.0  0.1176
  H  H1771  1  0.041600  0.436400  0.408700  1.0  0.1238
  H  H1772  1  0.018900  0.408400  0.406900  1.0  0.0912
  H  H1773  1  0.993000  0.415900  0.351100  1.0  0.0877
  H  H1774  1  0.973100  0.445500  0.351900  1.0  0.1268
  H  H1775  1  0.945900  0.448400  0.377100  1.0  0.1183
  H  H1776  1  0.963000  0.391500  0.398700  1.0  0.0865
  H  H1777  1  0.102400  0.905600  0.782700  1.0  0.0864
  H  H1778  1  0.042600  0.890800  0.797000  1.0  0.1241
  H  H1779  1  0.042900  0.867600  0.768200  1.0  0.1262
  H  H1780  1  0.073200  0.862400  0.749900  1.0  0.0843
  H  H1781  1  0.149400  0.996800  0.832900  1.0  0.0869
  H  H1782  1  0.146900  0.978000  0.802200  1.0  0.1244
  H  H1783  1  0.121600  0.951300  0.799300  1.0  0.1204
  H  H1784  1  0.099800  0.968300  0.856200  1.0  0.0998
  H  H1785  1  0.036300  0.895800  0.849400  1.0  0.0908
  H  H1786  1  0.064000  0.943800  0.880300  1.0  0.1176
  H  H1787  1  0.041600  0.936400  0.908700  1.0  0.1233
  H  H1788  1  0.018900  0.908400  0.906900  1.0  0.0912
  H  H1789  1  0.993000  0.915900  0.851100  1.0  0.0877
  H  H1790  1  0.973100  0.945500  0.851900  1.0  0.1266
  H  H1791  1  0.945900  0.948400  0.877100  1.0  0.1183
  H  H1792  1  0.963000  0.891500  0.898700  1.0  0.0865
  H  H1793  1  0.147600  0.844400  0.282700  1.0  0.0871
  H  H1794  1  0.207400  0.859200  0.297000  1.0  0.1245
  H  H1795  1  0.207100  0.882400  0.268200  1.0  0.1271
  H  H1796  1  0.176800  0.887600  0.249900  1.0  0.0848
  H  H1797  1  0.100600  0.753200  0.332900  1.0  0.0863
  H  H1798  1  0.103100  0.772000  0.302200  1.0  0.1234
  H  H1799  1  0.128400  0.798700  0.299300  1.0  0.1203
  H  H1800  1  0.150200  0.781700  0.356200  1.0  0.0994
  H  H1801  1  0.213700  0.854200  0.349400  1.0  0.0909
  H  H1802  1  0.186000  0.806200  0.380300  1.0  0.1182
  H  H1803  1  0.208400  0.813600  0.408700  1.0  0.1238
  H  H1804  1  0.231100  0.841600  0.406900  1.0  0.0926
  H  H1805  1  0.257000  0.834100  0.351100  1.0  0.0876
  H  H1806  1  0.276900  0.804500  0.351900  1.0  0.126
  H  H1807  1  0.304100  0.801600  0.377100  1.0  0.118
  H  H1808  1  0.287000  0.858500  0.398700  1.0  0.0865
  H  H1809  1  0.147600  0.344400  0.782700  1.0  0.0871
  H  H1810  1  0.207400  0.359200  0.797000  1.0  0.1245
  H  H1811  1  0.207100  0.382400  0.768200  1.0  0.1271
  H  H1812  1  0.176800  0.387600  0.749900  1.0  0.0848
  H  H1813  1  0.100600  0.253200  0.832900  1.0  0.0863
  H  H1814  1  0.103100  0.272000  0.802200  1.0  0.1234
  H  H1815  1  0.128400  0.298700  0.799300  1.0  0.1203
  H  H1816  1  0.150200  0.281700  0.856200  1.0  0.0994
  H  H1817  1  0.213700  0.354200  0.849400  1.0  0.0909
  H  H1818  1  0.186000  0.306200  0.880300  1.0  0.1182
  H  H1819  1  0.208400  0.313600  0.908700  1.0  0.1238
  H  H1820  1  0.231100  0.341600  0.906900  1.0  0.0926
  H  H1821  1  0.257000  0.334100  0.851100  1.0  0.0876
  H  H1822  1  0.276900  0.304500  0.851900  1.0  0.126
  H  H1823  1  0.304100  0.301600  0.877100  1.0  0.118
  H  H1824  1  0.287000  0.358500  0.898700  1.0  0.0865
  H  H1825  1  0.647600  0.844400  0.782700  1.0  0.0871
  H  H1826  1  0.707400  0.859200  0.797000  1.0  0.1245
  H  H1827  1  0.707100  0.882400  0.768200  1.0  0.1271
  H  H1828  1  0.676800  0.887600  0.749900  1.0  0.0848
  H  H1829  1  0.600600  0.753200  0.832900  1.0  0.0863
  H  H1830  1  0.603100  0.772000  0.802200  1.0  0.1234
  H  H1831  1  0.628400  0.798700  0.799300  1.0  0.1203
  H  H1832  1  0.650200  0.781700  0.856200  1.0  0.0994
  H  H1833  1  0.713700  0.854200  0.849400  1.0  0.0909
  H  H1834  1  0.686000  0.806200  0.880300  1.0  0.1182
  H  H1835  1  0.708400  0.813600  0.908700  1.0  0.1238
  H  H1836  1  0.731100  0.841600  0.906900  1.0  0.0926
  H  H1837  1  0.757000  0.834100  0.851100  1.0  0.0876
  H  H1838  1  0.776900  0.804500  0.851900  1.0  0.126
  H  H1839  1  0.804100  0.801600  0.877100  1.0  0.118
  H  H1840  1  0.787000  0.858500  0.898700  1.0  0.0865
  H  H1841  1  0.647600  0.344400  0.282700  1.0  0.0871
  H  H1842  1  0.707400  0.359200  0.297000  1.0  0.1245
  H  H1843  1  0.707100  0.382400  0.268200  1.0  0.1271
  H  H1844  1  0.676800  0.387600  0.249900  1.0  0.0848
  H  H1845  1  0.600600  0.253200  0.332900  1.0  0.0863
  H  H1846  1  0.603100  0.272000  0.302200  1.0  0.1234
  H  H1847  1  0.628400  0.298700  0.299300  1.0  0.1203
  H  H1848  1  0.650200  0.281700  0.356200  1.0  0.0994
  H  H1849  1  0.713700  0.354200  0.349400  1.0  0.0909
  H  H1850  1  0.686000  0.306200  0.380300  1.0  0.1182
  H  H1851  1  0.708400  0.313600  0.408700  1.0  0.1238
  H  H1852  1  0.731100  0.341600  0.406900  1.0  0.0926
  H  H1853  1  0.757000  0.334100  0.351100  1.0  0.0876
  H  H1854  1  0.776900  0.304500  0.351900  1.0  0.126
  H  H1855  1  0.804100  0.301600  0.377100  1.0  0.118
  H  H1856  1  0.787000  0.358500  0.398700  1.0  0.0865
  H  H1857  1  0.647600  0.905600  0.967300  1.0  0.0871
  H  H1858  1  0.707400  0.890800  0.953000  1.0  0.1245
  H  H1859  1  0.707100  0.867600  0.981800  1.0  0.1265
  H  H1860  1  0.676800  0.862400  0.000100  1.0  0.0842
  H  H1861  1  0.600600  0.996800  0.917100  1.0  0.0873
  H  H1862  1  0.603100  0.978000  0.947800  1.0  0.1243
  H  H1863  1  0.628400  0.951300  0.950700  1.0  0.1207
  H  H1864  1  0.650200  0.968300  0.893800  1.0  0.0999
  H  H1865  1  0.713700  0.895800  0.900600  1.0  0.0913
  H  H1866  1  0.686000  0.943800  0.869700  1.0  0.1179
  H  H1867  1  0.708400  0.936400  0.841300  1.0  0.1233
  H  H1868  1  0.731100  0.908400  0.843100  1.0  0.0917
  H  H1869  1  0.757000  0.915900  0.898900  1.0  0.0882
  H  H1870  1  0.776900  0.945500  0.898100  1.0  0.1261
  H  H1871  1  0.804100  0.948400  0.872900  1.0  0.1183
  H  H1872  1  0.787000  0.891500  0.851300  1.0  0.0864
  H  H1873  1  0.647600  0.405600  0.467300  1.0  0.0871
  H  H1874  1  0.707400  0.390800  0.453000  1.0  0.1245
  H  H1875  1  0.707100  0.367600  0.481800  1.0  0.1265
  H  H1876  1  0.676800  0.362400  0.500100  1.0  0.0842
  H  H1877  1  0.600600  0.496800  0.417100  1.0  0.0873
  H  H1878  1  0.603100  0.478000  0.447800  1.0  0.1243
  H  H1879  1  0.628400  0.451300  0.450700  1.0  0.1207
  H  H1880  1  0.650200  0.468300  0.393800  1.0  0.0999
  H  H1881  1  0.713700  0.395800  0.400600  1.0  0.0913
  H  H1882  1  0.686000  0.443800  0.369700  1.0  0.1179
  H  H1883  1  0.708400  0.436400  0.341300  1.0  0.1233
  H  H1884  1  0.731100  0.408400  0.343100  1.0  0.0917
  H  H1885  1  0.757000  0.415900  0.398900  1.0  0.0882
  H  H1886  1  0.776900  0.445500  0.398100  1.0  0.1262
  H  H1887  1  0.804100  0.448400  0.372900  1.0  0.1183
  H  H1888  1  0.787000  0.391500  0.351300  1.0  0.0864
  H  H1889  1  0.147600  0.905600  0.467300  1.0  0.0871
  H  H1890  1  0.207400  0.890800  0.453000  1.0  0.1245
  H  H1891  1  0.207100  0.867600  0.481800  1.0  0.1265
  H  H1892  1  0.176800  0.862400  0.500100  1.0  0.0842
  H  H1893  1  0.100600  0.996800  0.417100  1.0  0.0873
  H  H1894  1  0.103100  0.978000  0.447800  1.0  0.1252
  H  H1895  1  0.128400  0.951300  0.450700  1.0  0.1207
  H  H1896  1  0.150200  0.968300  0.393800  1.0  0.0999
  H  H1897  1  0.213700  0.895800  0.400600  1.0  0.0913
  H  H1898  1  0.186000  0.943800  0.369700  1.0  0.1179
  H  H1899  1  0.208400  0.936400  0.341300  1.0  0.1233
  H  H1900  1  0.231100  0.908400  0.343100  1.0  0.0917
  H  H1901  1  0.257000  0.915900  0.398900  1.0  0.0882
  H  H1902  1  0.276900  0.945500  0.398100  1.0  0.127
  H  H1903  1  0.304100  0.948400  0.372900  1.0  0.1183
  H  H1904  1  0.287000  0.891500  0.351300  1.0  0.0864
  H  H1905  1  0.147600  0.405600  0.967300  1.0  0.0871
  H  H1906  1  0.207400  0.390800  0.953000  1.0  0.1245
  H  H1907  1  0.207100  0.367600  0.981800  1.0  0.1265
  H  H1908  1  0.176800  0.362400  0.000100  1.0  0.0842
  H  H1909  1  0.100600  0.496800  0.917100  1.0  0.0873
  H  H1910  1  0.103100  0.478000  0.947800  1.0  0.1252
  H  H1911  1  0.128400  0.451300  0.950700  1.0  0.1207
  H  H1912  1  0.150200  0.468300  0.893800  1.0  0.0999
  H  H1913  1  0.213700  0.395800  0.900600  1.0  0.0913
  H  H1914  1  0.186000  0.443800  0.869700  1.0  0.1179
  H  H1915  1  0.208400  0.436400  0.841300  1.0  0.1233
  H  H1916  1  0.231100  0.408400  0.843100  1.0  0.0917
  H  H1917  1  0.257000  0.415900  0.898900  1.0  0.0882
  H  H1918  1  0.276900  0.445500  0.898100  1.0  0.1262
  H  H1919  1  0.304100  0.448400  0.872900  1.0  0.1183
  H  H1920  1  0.287000  0.391500  0.851300  1.0  0.0864
  H  H1921  1  0.102400  0.344400  0.467300  1.0  0.0862
  H  H1922  1  0.042600  0.359200  0.453000  1.0  0.1246
  H  H1923  1  0.042900  0.382400  0.481800  1.0  0.1256
  H  H1924  1  0.073200  0.387600  0.500100  1.0  0.084
  H  H1925  1  0.149400  0.253200  0.417100  1.0  0.0872
  H  H1926  1  0.146900  0.272000  0.447800  1.0  0.1241
  H  H1927  1  0.121600  0.298700  0.450700  1.0  0.1206
  H  H1928  1  0.099800  0.281700  0.393800  1.0  0.1004
  H  H1929  1  0.036300  0.354200  0.400600  1.0  0.0908
  H  H1930  1  0.064000  0.306200  0.369700  1.0  0.1177
  H  H1931  1  0.041600  0.313600  0.341300  1.0  0.1227
  H  H1932  1  0.018900  0.341600  0.343100  1.0  0.0915
  H  H1933  1  0.993000  0.334100  0.398900  1.0  0.0889
  H  H1934  1  0.973100  0.304500  0.398100  1.0  0.1266
  H  H1935  1  0.945900  0.301600  0.372900  1.0  0.1177
  H  H1936  1  0.963000  0.358500  0.351300  1.0  0.0863
  H  H1937  1  0.102400  0.844400  0.967300  1.0  0.0862
  H  H1938  1  0.042600  0.859200  0.953000  1.0  0.1246
  H  H1939  1  0.042900  0.882400  0.981800  1.0  0.1256
  H  H1940  1  0.073200  0.887600  0.000100  1.0  0.084
  H  H1941  1  0.149400  0.753200  0.917100  1.0  0.0872
  H  H1942  1  0.146900  0.772000  0.947800  1.0  0.1241
  H  H1943  1  0.121600  0.798700  0.950700  1.0  0.1206
  H  H1944  1  0.099800  0.781700  0.893800  1.0  0.1004
  H  H1945  1  0.036300  0.854200  0.900600  1.0  0.0908
  H  H1946  1  0.064000  0.806200  0.869700  1.0  0.1177
  H  H1947  1  0.041600  0.813600  0.841300  1.0  0.1227
  H  H1948  1  0.018900  0.841600  0.843100  1.0  0.0915
  H  H1949  1  0.993000  0.834100  0.898900  1.0  0.0889
  H  H1950  1  0.973100  0.804500  0.898100  1.0  0.1248
  H  H1951  1  0.945900  0.801600  0.872900  1.0  0.1177
  H  H1952  1  0.963000  0.858500  0.851300  1.0  0.0863
  H  H1953  1  0.602400  0.344400  0.967300  1.0  0.0862
  H  H1954  1  0.542600  0.359200  0.953000  1.0  0.1246
  H  H1955  1  0.542900  0.382400  0.981800  1.0  0.1256
  H  H1956  1  0.573200  0.387600  0.000100  1.0  0.084
  H  H1957  1  0.649400  0.253200  0.917100  1.0  0.0872
  H  H1958  1  0.646900  0.272000  0.947800  1.0  0.1241
  H  H1959  1  0.621600  0.298700  0.950700  1.0  0.1206
  H  H1960  1  0.599800  0.281700  0.893800  1.0  0.1004
  H  H1961  1  0.536300  0.354200  0.900600  1.0  0.0908
  H  H1962  1  0.564000  0.306200  0.869700  1.0  0.1177
  H  H1963  1  0.541600  0.313600  0.841300  1.0  0.1227
  H  H1964  1  0.518900  0.341600  0.843100  1.0  0.0915
  H  H1965  1  0.493000  0.334100  0.898900  1.0  0.0889
  H  H1966  1  0.473100  0.304500  0.898100  1.0  0.1266
  H  H1967  1  0.445900  0.301600  0.872900  1.0  0.1177
  H  H1968  1  0.463000  0.358500  0.851300  1.0  0.0863
  H  H1969  1  0.602400  0.844400  0.467300  1.0  0.0862
  H  H1970  1  0.542600  0.859200  0.453000  1.0  0.1246
  H  H1971  1  0.542900  0.882400  0.481800  1.0  0.1256
  H  H1972  1  0.573200  0.887600  0.500100  1.0  0.084
  H  H1973  1  0.649400  0.753200  0.417100  1.0  0.0872
  H  H1974  1  0.646900  0.772000  0.447800  1.0  0.1241
  H  H1975  1  0.621600  0.798700  0.450700  1.0  0.1206
  H  H1976  1  0.599800  0.781700  0.393800  1.0  0.1004
  H  H1977  1  0.536300  0.854200  0.400600  1.0  0.0908
  H  H1978  1  0.564000  0.806200  0.369700  1.0  0.1177
  H  H1979  1  0.541600  0.813600  0.341300  1.0  0.1227
  H  H1980  1  0.518900  0.841600  0.343100  1.0  0.0915
  H  H1981  1  0.493000  0.834100  0.398900  1.0  0.0889
  H  H1982  1  0.473100  0.804500  0.398100  1.0  0.1266
  H  H1983  1  0.445900  0.801600  0.372900  1.0  0.1177
  H  H1984  1  0.463000  0.858500  0.351300  1.0  0.0863
  H  H1985  1  0.782700  0.602400  0.405600  1.0  0.0865
  H  H1986  1  0.797000  0.542600  0.390800  1.0  0.1248
  H  H1987  1  0.768200  0.542900  0.367600  1.0  0.1277
  H  H1988  1  0.749900  0.573200  0.362400  1.0  0.0857
  H  H1989  1  0.832900  0.649400  0.496800  1.0  0.0858
  H  H1990  1  0.802200  0.646900  0.478000  1.0  0.1244
  H  H1991  1  0.799300  0.621600  0.451300  1.0  0.1193
  H  H1992  1  0.856200  0.599800  0.468300  1.0  0.1006
  H  H1993  1  0.849400  0.536300  0.395800  1.0  0.0886
  H  H1994  1  0.880300  0.564000  0.443800  1.0  0.118
  H  H1995  1  0.908700  0.541600  0.436400  1.0  0.1242
  H  H1996  1  0.906900  0.518900  0.408400  1.0  0.0898
  H  H1997  1  0.851100  0.493000  0.415900  1.0  0.0883
  H  H1998  1  0.851900  0.473100  0.445500  1.0  0.1261
  H  H1999  1  0.877100  0.445900  0.448400  1.0  0.1184
  H  H2000  1  0.898700  0.463000  0.391500  1.0  0.0865
  H  H2001  1  0.782700  0.102400  0.905600  1.0  0.0865
  H  H2002  1  0.797000  0.042600  0.890800  1.0  0.1248
  H  H2003  1  0.768200  0.042900  0.867600  1.0  0.1277
  H  H2004  1  0.749900  0.073200  0.862400  1.0  0.0857
  H  H2005  1  0.832900  0.149400  0.996800  1.0  0.0858
  H  H2006  1  0.802200  0.146900  0.978000  1.0  0.1244
  H  H2007  1  0.799300  0.121600  0.951300  1.0  0.1193
  H  H2008  1  0.856200  0.099800  0.968300  1.0  0.1006
  H  H2009  1  0.849400  0.036300  0.895800  1.0  0.0886
  H  H2010  1  0.880300  0.064000  0.943800  1.0  0.118
  H  H2011  1  0.908700  0.041600  0.936400  1.0  0.1237
  H  H2012  1  0.906900  0.018900  0.908400  1.0  0.0898
  H  H2013  1  0.851100  0.993000  0.915900  1.0  0.0883
  H  H2014  1  0.851900  0.973100  0.945500  1.0  0.1262
  H  H2015  1  0.877100  0.945900  0.948400  1.0  0.1184
  H  H2016  1  0.898700  0.963000  0.891500  1.0  0.0865
  H  H2017  1  0.282700  0.602400  0.905600  1.0  0.0865
  H  H2018  1  0.297000  0.542600  0.890800  1.0  0.1248
  H  H2019  1  0.268200  0.542900  0.867600  1.0  0.1277
  H  H2020  1  0.249900  0.573200  0.862400  1.0  0.0857
  H  H2021  1  0.332900  0.649400  0.996800  1.0  0.0858
  H  H2022  1  0.302200  0.646900  0.978000  1.0  0.1244
  H  H2023  1  0.299300  0.621600  0.951300  1.0  0.1193
  H  H2024  1  0.356200  0.599800  0.968300  1.0  0.1006
  H  H2025  1  0.349400  0.536300  0.895800  1.0  0.0886
  H  H2026  1  0.380300  0.564000  0.943800  1.0  0.118
  H  H2027  1  0.408700  0.541600  0.936400  1.0  0.1242
  H  H2028  1  0.406900  0.518900  0.908400  1.0  0.0898
  H  H2029  1  0.351100  0.493000  0.915900  1.0  0.0883
  H  H2030  1  0.351900  0.473100  0.945500  1.0  0.1269
  H  H2031  1  0.377100  0.445900  0.948400  1.0  0.1184
  H  H2032  1  0.398700  0.463000  0.891500  1.0  0.0865
  H  H2033  1  0.282700  0.102400  0.405600  1.0  0.0865
  H  H2034  1  0.297000  0.042600  0.390800  1.0  0.1248
  H  H2035  1  0.268200  0.042900  0.367600  1.0  0.1277
  H  H2036  1  0.249900  0.073200  0.362400  1.0  0.0857
  H  H2037  1  0.332900  0.149400  0.496800  1.0  0.0858
  H  H2038  1  0.302200  0.146900  0.478000  1.0  0.1244
  H  H2039  1  0.299300  0.121600  0.451300  1.0  0.1193
  H  H2040  1  0.356200  0.099800  0.468300  1.0  0.1006
  H  H2041  1  0.349400  0.036300  0.395800  1.0  0.0886
  H  H2042  1  0.380300  0.064000  0.443800  1.0  0.118
  H  H2043  1  0.408700  0.041600  0.436400  1.0  0.1242
  H  H2044  1  0.406900  0.018900  0.408400  1.0  0.0898
  H  H2045  1  0.351100  0.993000  0.415900  1.0  0.0883
  H  H2046  1  0.351900  0.973100  0.445500  1.0  0.1261
  H  H2047  1  0.377100  0.945900  0.448400  1.0  0.1184
  H  H2048  1  0.398700  0.963000  0.391500  1.0  0.0865
  H  H2049  1  0.282700  0.147600  0.844400  1.0  0.0869
  H  H2050  1  0.297000  0.207400  0.859200  1.0  0.125
  H  H2051  1  0.268200  0.207100  0.882400  1.0  0.1279
  H  H2052  1  0.249900  0.176800  0.887600  1.0  0.0851
  H  H2053  1  0.332900  0.100600  0.753200  1.0  0.0854
  H  H2054  1  0.302200  0.103100  0.772000  1.0  0.1235
  H  H2055  1  0.299300  0.128400  0.798700  1.0  0.1191
  H  H2056  1  0.356200  0.150200  0.781700  1.0  0.1005
  H  H2057  1  0.349400  0.213700  0.854200  1.0  0.0882
  H  H2058  1  0.380300  0.186000  0.806200  1.0  0.1182
  H  H2059  1  0.408700  0.208400  0.813600  1.0  0.1239
  H  H2060  1  0.406900  0.231100  0.841600  1.0  0.0912
  H  H2061  1  0.351100  0.257000  0.834100  1.0  0.0875
  H  H2062  1  0.351900  0.276900  0.804500  1.0  0.1251
  H  H2063  1  0.377100  0.304100  0.801600  1.0  0.1179
  H  H2064  1  0.398700  0.287000  0.858500  1.0  0.0864
  H  H2065  1  0.282700  0.647600  0.344400  1.0  0.0869
  H  H2066  1  0.297000  0.707400  0.359200  1.0  0.125
  H  H2067  1  0.268200  0.707100  0.382400  1.0  0.1279
  H  H2068  1  0.249900  0.676800  0.387600  1.0  0.0851
  H  H2069  1  0.332900  0.600600  0.253200  1.0  0.0854
  H  H2070  1  0.302200  0.603100  0.272000  1.0  0.1235
  H  H2071  1  0.299300  0.628400  0.298700  1.0  0.1191
  H  H2072  1  0.356200  0.650200  0.281700  1.0  0.1005
  H  H2073  1  0.349400  0.713700  0.354200  1.0  0.0882
  H  H2074  1  0.380300  0.686000  0.306200  1.0  0.1182
  H  H2075  1  0.408700  0.708400  0.313600  1.0  0.1239
  H  H2076  1  0.406900  0.731100  0.341600  1.0  0.0912
  H  H2077  1  0.351100  0.757000  0.334100  1.0  0.0875
  H  H2078  1  0.351900  0.776900  0.304500  1.0  0.1251
  H  H2079  1  0.377100  0.804100  0.301600  1.0  0.1179
  H  H2080  1  0.398700  0.787000  0.358500  1.0  0.0864
  H  H2081  1  0.782700  0.147600  0.344400  1.0  0.0869
  H  H2082  1  0.797000  0.207400  0.359200  1.0  0.125
  H  H2083  1  0.768200  0.207100  0.382400  1.0  0.1279
  H  H2084  1  0.749900  0.176800  0.387600  1.0  0.0851
  H  H2085  1  0.832900  0.100600  0.253200  1.0  0.0854
  H  H2086  1  0.802200  0.103100  0.272000  1.0  0.1235
  H  H2087  1  0.799300  0.128400  0.298700  1.0  0.1191
  H  H2088  1  0.856200  0.150200  0.281700  1.0  0.1005
  H  H2089  1  0.849400  0.213700  0.354200  1.0  0.0882
  H  H2090  1  0.880300  0.186000  0.306200  1.0  0.1182
  H  H2091  1  0.908700  0.208400  0.313600  1.0  0.1239
  H  H2092  1  0.906900  0.231100  0.341600  1.0  0.0912
  H  H2093  1  0.851100  0.257000  0.334100  1.0  0.0875
  H  H2094  1  0.851900  0.276900  0.304500  1.0  0.1251
  H  H2095  1  0.877100  0.304100  0.301600  1.0  0.1179
  H  H2096  1  0.898700  0.287000  0.358500  1.0  0.0864
  H  H2097  1  0.782700  0.647600  0.844400  1.0  0.0869
  H  H2098  1  0.797000  0.707400  0.859200  1.0  0.125
  H  H2099  1  0.768200  0.707100  0.882400  1.0  0.1279
  H  H2100  1  0.749900  0.676800  0.887600  1.0  0.0851
  H  H2101  1  0.832900  0.600600  0.753200  1.0  0.0854
  H  H2102  1  0.802200  0.603100  0.772000  1.0  0.1235
  H  H2103  1  0.799300  0.628400  0.798700  1.0  0.1191
  H  H2104  1  0.856200  0.650200  0.781700  1.0  0.1005
  H  H2105  1  0.849400  0.713700  0.854200  1.0  0.0882
  H  H2106  1  0.880300  0.686000  0.806200  1.0  0.1182
  H  H2107  1  0.908700  0.708400  0.813600  1.0  0.1239
  H  H2108  1  0.906900  0.731100  0.841600  1.0  0.0912
  H  H2109  1  0.851100  0.757000  0.834100  1.0  0.0875
  H  H2110  1  0.851900  0.776900  0.804500  1.0  0.1251
  H  H2111  1  0.877100  0.804100  0.801600  1.0  0.1179
  H  H2112  1  0.898700  0.787000  0.858500  1.0  0.0864
  H  H2113  1  0.967300  0.647600  0.905600  1.0  0.0873
  H  H2114  1  0.953000  0.707400  0.890800  1.0  0.1255
  H  H2115  1  0.981800  0.707100  0.867600  1.0  0.1285
  H  H2116  1  0.000100  0.676800  0.862400  1.0  0.0847
  H  H2117  1  0.917100  0.600600  0.996800  1.0  0.0853
  H  H2118  1  0.947800  0.603100  0.978000  1.0  0.1246
  H  H2119  1  0.950700  0.628400  0.951300  1.0  0.119
  H  H2120  1  0.893800  0.650200  0.968300  1.0  0.1004
  H  H2121  1  0.900600  0.713700  0.895800  1.0  0.0885
  H  H2122  1  0.869700  0.686000  0.943800  1.0  0.1185
  H  H2123  1  0.841300  0.708400  0.936400  1.0  0.1244
  H  H2124  1  0.843100  0.731100  0.908400  1.0  0.0909
  H  H2125  1  0.898900  0.757000  0.915900  1.0  0.0884
  H  H2126  1  0.898100  0.776900  0.945500  1.0  0.1252
  H  H2127  1  0.872900  0.804100  0.948400  1.0  0.1178
  H  H2128  1  0.851300  0.787000  0.891500  1.0  0.0866
  H  H2129  1  0.967300  0.147600  0.405600  1.0  0.0873
  H  H2130  1  0.953000  0.207400  0.390800  1.0  0.1255
  H  H2131  1  0.981800  0.207100  0.367600  1.0  0.1285
  H  H2132  1  0.000100  0.176800  0.362400  1.0  0.0847
  H  H2133  1  0.917100  0.100600  0.496800  1.0  0.0853
  H  H2134  1  0.947800  0.103100  0.478000  1.0  0.125
  H  H2135  1  0.950700  0.128400  0.451300  1.0  0.119
  H  H2136  1  0.893800  0.150200  0.468300  1.0  0.1004
  H  H2137  1  0.900600  0.213700  0.395800  1.0  0.0885
  H  H2138  1  0.869700  0.186000  0.443800  1.0  0.1185
  H  H2139  1  0.841300  0.208400  0.436400  1.0  0.1244
  H  H2140  1  0.843100  0.231100  0.408400  1.0  0.0909
  H  H2141  1  0.898900  0.257000  0.415900  1.0  0.0884
  H  H2142  1  0.898100  0.276900  0.445500  1.0  0.1256
  H  H2143  1  0.872900  0.304100  0.448400  1.0  0.1178
  H  H2144  1  0.851300  0.287000  0.391500  1.0  0.0866
  H  H2145  1  0.467300  0.647600  0.405600  1.0  0.0873
  H  H2146  1  0.453000  0.707400  0.390800  1.0  0.1255
  H  H2147  1  0.481800  0.707100  0.367600  1.0  0.1285
  H  H2148  1  0.500100  0.676800  0.362400  1.0  0.0847
  H  H2149  1  0.417100  0.600600  0.496800  1.0  0.0853
  H  H2150  1  0.447800  0.603100  0.478000  1.0  0.1246
  H  H2151  1  0.450700  0.628400  0.451300  1.0  0.119
  H  H2152  1  0.393800  0.650200  0.468300  1.0  0.1004
  H  H2153  1  0.400600  0.713700  0.395800  1.0  0.0885
  H  H2154  1  0.369700  0.686000  0.443800  1.0  0.1185
  H  H2155  1  0.341300  0.708400  0.436400  1.0  0.1244
  H  H2156  1  0.343100  0.731100  0.408400  1.0  0.0909
  H  H2157  1  0.398900  0.757000  0.415900  1.0  0.0884
  H  H2158  1  0.398100  0.776900  0.445500  1.0  0.1256
  H  H2159  1  0.372900  0.804100  0.448400  1.0  0.1178
  H  H2160  1  0.351300  0.787000  0.391500  1.0  0.0866
  H  H2161  1  0.467300  0.147600  0.905600  1.0  0.0873
  H  H2162  1  0.453000  0.207400  0.890800  1.0  0.1255
  H  H2163  1  0.481800  0.207100  0.867600  1.0  0.1285
  H  H2164  1  0.500100  0.176800  0.862400  1.0  0.0847
  H  H2165  1  0.417100  0.100600  0.996800  1.0  0.0853
  H  H2166  1  0.447800  0.103100  0.978000  1.0  0.125
  H  H2167  1  0.450700  0.128400  0.951300  1.0  0.119
  H  H2168  1  0.393800  0.150200  0.968300  1.0  0.1004
  H  H2169  1  0.400600  0.213700  0.895800  1.0  0.0885
  H  H2170  1  0.369700  0.186000  0.943800  1.0  0.1185
  H  H2171  1  0.341300  0.208400  0.936400  1.0  0.1244
  H  H2172  1  0.343100  0.231100  0.908400  1.0  0.0909
  H  H2173  1  0.398900  0.257000  0.915900  1.0  0.0884
  H  H2174  1  0.398100  0.276900  0.945500  1.0  0.1263
  H  H2175  1  0.372900  0.304100  0.948400  1.0  0.1178
  H  H2176  1  0.351300  0.287000  0.891500  1.0  0.0866
  H  H2177  1  0.467300  0.102400  0.344400  1.0  0.0869
  H  H2178  1  0.453000  0.042600  0.359200  1.0  0.125
  H  H2179  1  0.481800  0.042900  0.382400  1.0  0.128
  H  H2180  1  0.500100  0.073200  0.387600  1.0  0.0859
  H  H2181  1  0.417100  0.149400  0.253200  1.0  0.0862
  H  H2182  1  0.447800  0.146900  0.272000  1.0  0.1256
  H  H2183  1  0.450700  0.121600  0.298700  1.0  0.1192
  H  H2184  1  0.393800  0.099800  0.281700  1.0  0.1006
  H  H2185  1  0.400600  0.036300  0.354200  1.0  0.0878
  H  H2186  1  0.369700  0.064000  0.306200  1.0  0.1176
  H  H2187  1  0.341300  0.041600  0.313600  1.0  0.1239
  H  H2188  1  0.343100  0.018900  0.341600  1.0  0.0911
  H  H2189  1  0.398900  0.993000  0.334100  1.0  0.0882
  H  H2190  1  0.398100  0.973100  0.304500  1.0  0.126
  H  H2191  1  0.372900  0.945900  0.301600  1.0  0.1178
  H  H2192  1  0.351300  0.963000  0.358500  1.0  0.0867
  H  H2193  1  0.467300  0.602400  0.844400  1.0  0.0869
  H  H2194  1  0.453000  0.542600  0.859200  1.0  0.125
  H  H2195  1  0.481800  0.542900  0.882400  1.0  0.128
  H  H2196  1  0.500100  0.573200  0.887600  1.0  0.0859
  H  H2197  1  0.417100  0.649400  0.753200  1.0  0.0862
  H  H2198  1  0.447800  0.646900  0.772000  1.0  0.1256
  H  H2199  1  0.450700  0.621600  0.798700  1.0  0.1192
  H  H2200  1  0.393800  0.599800  0.781700  1.0  0.1006
  H  H2201  1  0.400600  0.536300  0.854200  1.0  0.0878
  H  H2202  1  0.369700  0.564000  0.806200  1.0  0.1176
  H  H2203  1  0.341300  0.541600  0.813600  1.0  0.1239
  H  H2204  1  0.343100  0.518900  0.841600  1.0  0.0911
  H  H2205  1  0.398900  0.493000  0.834100  1.0  0.0882
  H  H2206  1  0.398100  0.473100  0.804500  1.0  0.126
  H  H2207  1  0.372900  0.445900  0.801600  1.0  0.1178
  H  H2208  1  0.351300  0.463000  0.858500  1.0  0.0867
  H  H2209  1  0.967300  0.102400  0.844400  1.0  0.0869
  H  H2210  1  0.953000  0.042600  0.859200  1.0  0.125
  H  H2211  1  0.981800  0.042900  0.882400  1.0  0.128
  H  H2212  1  0.000100  0.073200  0.887600  1.0  0.0859
  H  H2213  1  0.917100  0.149400  0.753200  1.0  0.0862
  H  H2214  1  0.947800  0.146900  0.772000  1.0  0.1256
  H  H2215  1  0.950700  0.121600  0.798700  1.0  0.1192
  H  H2216  1  0.893800  0.099800  0.781700  1.0  0.1006
  H  H2217  1  0.900600  0.036300  0.854200  1.0  0.0878
  H  H2218  1  0.869700  0.064000  0.806200  1.0  0.1176
  H  H2219  1  0.841300  0.041600  0.813600  1.0  0.1239
  H  H2220  1  0.843100  0.018900  0.841600  1.0  0.0911
  H  H2221  1  0.898900  0.993000  0.834100  1.0  0.0882
  H  H2222  1  0.898100  0.973100  0.804500  1.0  0.1244
  H  H2223  1  0.872900  0.945900  0.801600  1.0  0.1178
  H  H2224  1  0.851300  0.963000  0.858500  1.0  0.0867
  H  H2225  1  0.967300  0.602400  0.344400  1.0  0.0869
  H  H2226  1  0.953000  0.542600  0.359200  1.0  0.125
  H  H2227  1  0.981800  0.542900  0.382400  1.0  0.128
  H  H2228  1  0.000100  0.573200  0.387600  1.0  0.0859
  H  H2229  1  0.917100  0.649400  0.253200  1.0  0.0862
  H  H2230  1  0.947800  0.646900  0.272000  1.0  0.1256
  H  H2231  1  0.950700  0.621600  0.298700  1.0  0.1192
  H  H2232  1  0.893800  0.599800  0.281700  1.0  0.1006
  H  H2233  1  0.900600  0.536300  0.354200  1.0  0.0878
  H  H2234  1  0.869700  0.564000  0.306200  1.0  0.1176
  H  H2235  1  0.841300  0.541600  0.313600  1.0  0.1239
  H  H2236  1  0.843100  0.518900  0.341600  1.0  0.0911
  H  H2237  1  0.898900  0.493000  0.334100  1.0  0.0882
  H  H2238  1  0.898100  0.473100  0.304500  1.0  0.126
  H  H2239  1  0.872900  0.445900  0.301600  1.0  0.1178
  H  H2240  1  0.851300  0.463000  0.358500  1.0  0.0867
  H  H2241  1  0.405600  0.782700  0.602400  1.0  0.0866
  H  H2242  1  0.390800  0.797000  0.542600  1.0  0.1239
  H  H2243  1  0.367600  0.768200  0.542900  1.0  0.1263
  H  H2244  1  0.362400  0.749900  0.573200  1.0  0.0844
  H  H2245  1  0.496800  0.832900  0.649400  1.0  0.0879
  H  H2246  1  0.478000  0.802200  0.646900  1.0  0.1262
  H  H2247  1  0.451300  0.799300  0.621600  1.0  0.1194
  H  H2248  1  0.468300  0.856200  0.599800  1.0  0.1001
  H  H2249  1  0.395800  0.849400  0.536300  1.0  0.0905
  H  H2250  1  0.443800  0.880300  0.564000  1.0  0.1163
  H  H2251  1  0.436400  0.908700  0.541600  1.0  0.1252
  H  H2252  1  0.408400  0.906900  0.518900  1.0  0.09
  H  H2253  1  0.415900  0.851100  0.493000  1.0  0.0867
  H  H2254  1  0.445500  0.851900  0.473100  1.0  0.1264
  H  H2255  1  0.448400  0.877100  0.445900  1.0  0.1163
  H  H2256  1  0.391500  0.898700  0.463000  1.0  0.0857
  H  H2257  1  0.405600  0.282700  0.102400  1.0  0.0866
  H  H2258  1  0.390800  0.297000  0.042600  1.0  0.1239
  H  H2259  1  0.367600  0.268200  0.042900  1.0  0.1263
  H  H2260  1  0.362400  0.249900  0.073200  1.0  0.0844
  H  H2261  1  0.496800  0.332900  0.149400  1.0  0.0879
  H  H2262  1  0.478000  0.302200  0.146900  1.0  0.1262
  H  H2263  1  0.451300  0.299300  0.121600  1.0  0.1194
  H  H2264  1  0.468300  0.356200  0.099800  1.0  0.1001
  H  H2265  1  0.395800  0.349400  0.036300  1.0  0.0905
  H  H2266  1  0.443800  0.380300  0.064000  1.0  0.1163
  H  H2267  1  0.436400  0.408700  0.041600  1.0  0.1252
  H  H2268  1  0.408400  0.406900  0.018900  1.0  0.09
  H  H2269  1  0.415900  0.351100  0.993000  1.0  0.0867
  H  H2270  1  0.445500  0.351900  0.973100  1.0  0.1264
  H  H2271  1  0.448400  0.377100  0.945900  1.0  0.1163
  H  H2272  1  0.391500  0.398700  0.963000  1.0  0.0857
  H  H2273  1  0.905600  0.782700  0.102400  1.0  0.0866
  H  H2274  1  0.890800  0.797000  0.042600  1.0  0.1239
  H  H2275  1  0.867600  0.768200  0.042900  1.0  0.1263
  H  H2276  1  0.862400  0.749900  0.073200  1.0  0.0844
  H  H2277  1  0.996800  0.832900  0.149400  1.0  0.0879
  H  H2278  1  0.978000  0.802200  0.146900  1.0  0.1262
  H  H2279  1  0.951300  0.799300  0.121600  1.0  0.1194
  H  H2280  1  0.968300  0.856200  0.099800  1.0  0.1001
  H  H2281  1  0.895800  0.849400  0.036300  1.0  0.0905
  H  H2282  1  0.943800  0.880300  0.064000  1.0  0.1163
  H  H2283  1  0.936400  0.908700  0.041600  1.0  0.1248
  H  H2284  1  0.908400  0.906900  0.018900  1.0  0.09
  H  H2285  1  0.915900  0.851100  0.993000  1.0  0.0867
  H  H2286  1  0.945500  0.851900  0.973100  1.0  0.1265
  H  H2287  1  0.948400  0.877100  0.945900  1.0  0.1163
  H  H2288  1  0.891500  0.898700  0.963000  1.0  0.0857
  H  H2289  1  0.905600  0.282700  0.602400  1.0  0.0866
  H  H2290  1  0.890800  0.297000  0.542600  1.0  0.1239
  H  H2291  1  0.867600  0.268200  0.542900  1.0  0.1263
  H  H2292  1  0.862400  0.249900  0.573200  1.0  0.0844
  H  H2293  1  0.996800  0.332900  0.649400  1.0  0.0879
  H  H2294  1  0.978000  0.302200  0.646900  1.0  0.1262
  H  H2295  1  0.951300  0.299300  0.621600  1.0  0.1194
  H  H2296  1  0.968300  0.356200  0.599800  1.0  0.1001
  H  H2297  1  0.895800  0.349400  0.536300  1.0  0.0905
  H  H2298  1  0.943800  0.380300  0.564000  1.0  0.1163
  H  H2299  1  0.936400  0.408700  0.541600  1.0  0.1252
  H  H2300  1  0.908400  0.406900  0.518900  1.0  0.09
  H  H2301  1  0.915900  0.351100  0.493000  1.0  0.0867
  H  H2302  1  0.945500  0.351900  0.473100  1.0  0.1271
  H  H2303  1  0.948400  0.377100  0.445900  1.0  0.1163
  H  H2304  1  0.891500  0.398700  0.463000  1.0  0.0857
  H  H2305  1  0.844400  0.282700  0.147600  1.0  0.0875
  H  H2306  1  0.859200  0.297000  0.207400  1.0  0.1244
  H  H2307  1  0.882400  0.268200  0.207100  1.0  0.1254
  H  H2308  1  0.887600  0.249900  0.176800  1.0  0.0852
  H  H2309  1  0.753200  0.332900  0.100600  1.0  0.0877
  H  H2310  1  0.772000  0.302200  0.103100  1.0  0.1249
  H  H2311  1  0.798700  0.299300  0.128400  1.0  0.1193
  H  H2312  1  0.781700  0.356200  0.150200  1.0  0.0998
  H  H2313  1  0.854200  0.349400  0.213700  1.0  0.0899
  H  H2314  1  0.806200  0.380300  0.186000  1.0  0.1172
  H  H2315  1  0.813600  0.408700  0.208400  1.0  0.1253
  H  H2316  1  0.841600  0.406900  0.231100  1.0  0.0901
  H  H2317  1  0.834100  0.351100  0.257000  1.0  0.087
  H  H2318  1  0.804500  0.351900  0.276900  1.0  0.126
  H  H2319  1  0.801600  0.377100  0.304100  1.0  0.1164
  H  H2320  1  0.858500  0.398700  0.287000  1.0  0.0865
  H  H2321  1  0.844400  0.782700  0.647600  1.0  0.0875
  H  H2322  1  0.859200  0.797000  0.707400  1.0  0.1244
  H  H2323  1  0.882400  0.768200  0.707100  1.0  0.1254
  H  H2324  1  0.887600  0.749900  0.676800  1.0  0.0852
  H  H2325  1  0.753200  0.832900  0.600600  1.0  0.0877
  H  H2326  1  0.772000  0.802200  0.603100  1.0  0.1249
  H  H2327  1  0.798700  0.799300  0.628400  1.0  0.1193
  H  H2328  1  0.781700  0.856200  0.650200  1.0  0.0998
  H  H2329  1  0.854200  0.849400  0.713700  1.0  0.0899
  H  H2330  1  0.806200  0.880300  0.686000  1.0  0.1172
  H  H2331  1  0.813600  0.908700  0.708400  1.0  0.1253
  H  H2332  1  0.841600  0.906900  0.731100  1.0  0.0901
  H  H2333  1  0.834100  0.851100  0.757000  1.0  0.087
  H  H2334  1  0.804500  0.851900  0.776900  1.0  0.126
  H  H2335  1  0.801600  0.877100  0.804100  1.0  0.1164
  H  H2336  1  0.858500  0.898700  0.787000  1.0  0.0865
  H  H2337  1  0.344400  0.282700  0.647600  1.0  0.0875
  H  H2338  1  0.359200  0.297000  0.707400  1.0  0.1244
  H  H2339  1  0.382400  0.268200  0.707100  1.0  0.1254
  H  H2340  1  0.387600  0.249900  0.676800  1.0  0.0852
  H  H2341  1  0.253200  0.332900  0.600600  1.0  0.0877
  H  H2342  1  0.272000  0.302200  0.603100  1.0  0.1249
  H  H2343  1  0.298700  0.299300  0.628400  1.0  0.1193
  H  H2344  1  0.281700  0.356200  0.650200  1.0  0.0998
  H  H2345  1  0.354200  0.349400  0.713700  1.0  0.0899
  H  H2346  1  0.306200  0.380300  0.686000  1.0  0.1172
  H  H2347  1  0.313600  0.408700  0.708400  1.0  0.1253
  H  H2348  1  0.341600  0.406900  0.731100  1.0  0.0901
  H  H2349  1  0.334100  0.351100  0.757000  1.0  0.087
  H  H2350  1  0.304500  0.351900  0.776900  1.0  0.126
  H  H2351  1  0.301600  0.377100  0.804100  1.0  0.1164
  H  H2352  1  0.358500  0.398700  0.787000  1.0  0.0865
  H  H2353  1  0.344400  0.782700  0.147600  1.0  0.0875
  H  H2354  1  0.359200  0.797000  0.207400  1.0  0.1244
  H  H2355  1  0.382400  0.768200  0.207100  1.0  0.1254
  H  H2356  1  0.387600  0.749900  0.176800  1.0  0.0852
  H  H2357  1  0.253200  0.832900  0.100600  1.0  0.0877
  H  H2358  1  0.272000  0.802200  0.103100  1.0  0.1249
  H  H2359  1  0.298700  0.799300  0.128400  1.0  0.1193
  H  H2360  1  0.281700  0.856200  0.150200  1.0  0.0998
  H  H2361  1  0.354200  0.849400  0.213700  1.0  0.0899
  H  H2362  1  0.306200  0.880300  0.186000  1.0  0.1172
  H  H2363  1  0.313600  0.908700  0.208400  1.0  0.1253
  H  H2364  1  0.341600  0.906900  0.231100  1.0  0.0901
  H  H2365  1  0.334100  0.851100  0.257000  1.0  0.087
  H  H2366  1  0.304500  0.851900  0.276900  1.0  0.126
  H  H2367  1  0.301600  0.877100  0.304100  1.0  0.1164
  H  H2368  1  0.358500  0.898700  0.287000  1.0  0.0865
  H  H2369  1  0.905600  0.967300  0.647600  1.0  0.0873
  H  H2370  1  0.890800  0.953000  0.707400  1.0  0.1242
  H  H2371  1  0.867600  0.981800  0.707100  1.0  0.1261
  H  H2372  1  0.862400  0.000100  0.676800  1.0  0.0849
  H  H2373  1  0.996800  0.917100  0.600600  1.0  0.0869
  H  H2374  1  0.978000  0.947800  0.603100  1.0  0.1265
  H  H2375  1  0.951300  0.950700  0.628400  1.0  0.1197
  H  H2376  1  0.968300  0.893800  0.650200  1.0  0.1002
  H  H2377  1  0.895800  0.900600  0.713700  1.0  0.0901
  H  H2378  1  0.943800  0.869700  0.686000  1.0  0.1171
  H  H2379  1  0.936400  0.841300  0.708400  1.0  0.1252
  H  H2380  1  0.908400  0.843100  0.731100  1.0  0.0894
  H  H2381  1  0.915900  0.898900  0.757000  1.0  0.0874
  H  H2382  1  0.945500  0.898100  0.776900  1.0  0.1263
  H  H2383  1  0.948400  0.872900  0.804100  1.0  0.1162
  H  H2384  1  0.891500  0.851300  0.787000  1.0  0.0861
  H  H2385  1  0.905600  0.467300  0.147600  1.0  0.0873
  H  H2386  1  0.890800  0.453000  0.207400  1.0  0.1242
  H  H2387  1  0.867600  0.481800  0.207100  1.0  0.1261
  H  H2388  1  0.862400  0.500100  0.176800  1.0  0.0849
  H  H2389  1  0.996800  0.417100  0.100600  1.0  0.0869
  H  H2390  1  0.978000  0.447800  0.103100  1.0  0.1272
  H  H2391  1  0.951300  0.450700  0.128400  1.0  0.1197
  H  H2392  1  0.968300  0.393800  0.150200  1.0  0.1002
  H  H2393  1  0.895800  0.400600  0.213700  1.0  0.0901
  H  H2394  1  0.943800  0.369700  0.186000  1.0  0.1171
  H  H2395  1  0.936400  0.341300  0.208400  1.0  0.1252
  H  H2396  1  0.908400  0.343100  0.231100  1.0  0.0894
  H  H2397  1  0.915900  0.398900  0.257000  1.0  0.0874
  H  H2398  1  0.945500  0.398100  0.276900  1.0  0.1273
  H  H2399  1  0.948400  0.372900  0.304100  1.0  0.1162
  H  H2400  1  0.891500  0.351300  0.287000  1.0  0.0861
  H  H2401  1  0.405600  0.967300  0.147600  1.0  0.0873
  H  H2402  1  0.390800  0.953000  0.207400  1.0  0.1242
  H  H2403  1  0.367600  0.981800  0.207100  1.0  0.1261
  H  H2404  1  0.362400  0.000100  0.176800  1.0  0.0849
  H  H2405  1  0.496800  0.917100  0.100600  1.0  0.0869
  H  H2406  1  0.478000  0.947800  0.103100  1.0  0.1272
  H  H2407  1  0.451300  0.950700  0.128400  1.0  0.1197
  H  H2408  1  0.468300  0.893800  0.150200  1.0  0.1002
  H  H2409  1  0.395800  0.900600  0.213700  1.0  0.0901
  H  H2410  1  0.443800  0.869700  0.186000  1.0  0.1171
  H  H2411  1  0.436400  0.841300  0.208400  1.0  0.1252
  H  H2412  1  0.408400  0.843100  0.231100  1.0  0.0894
  H  H2413  1  0.415900  0.898900  0.257000  1.0  0.0874
  H  H2414  1  0.445500  0.898100  0.276900  1.0  0.1266
  H  H2415  1  0.448400  0.872900  0.304100  1.0  0.1162
  H  H2416  1  0.391500  0.851300  0.287000  1.0  0.0861
  H  H2417  1  0.405600  0.467300  0.647600  1.0  0.0873
  H  H2418  1  0.390800  0.453000  0.707400  1.0  0.1242
  H  H2419  1  0.367600  0.481800  0.707100  1.0  0.1261
  H  H2420  1  0.362400  0.500100  0.676800  1.0  0.0849
  H  H2421  1  0.496800  0.417100  0.600600  1.0  0.0869
  H  H2422  1  0.478000  0.447800  0.603100  1.0  0.1265
  H  H2423  1  0.451300  0.450700  0.628400  1.0  0.1197
  H  H2424  1  0.468300  0.393800  0.650200  1.0  0.1002
  H  H2425  1  0.395800  0.400600  0.713700  1.0  0.0901
  H  H2426  1  0.443800  0.369700  0.686000  1.0  0.1171
  H  H2427  1  0.436400  0.341300  0.708400  1.0  0.1252
  H  H2428  1  0.408400  0.343100  0.731100  1.0  0.0894
  H  H2429  1  0.415900  0.398900  0.757000  1.0  0.0874
  H  H2430  1  0.445500  0.398100  0.776900  1.0  0.1266
  H  H2431  1  0.448400  0.372900  0.804100  1.0  0.1162
  H  H2432  1  0.391500  0.351300  0.787000  1.0  0.0861
  H  H2433  1  0.344400  0.467300  0.102400  1.0  0.087
  H  H2434  1  0.359200  0.453000  0.042600  1.0  0.1241
  H  H2435  1  0.382400  0.481800  0.042900  1.0  0.1267
  H  H2436  1  0.387600  0.500100  0.073200  1.0  0.0842
  H  H2437  1  0.253200  0.417100  0.149400  1.0  0.0873
  H  H2438  1  0.272000  0.447800  0.146900  1.0  0.1255
  H  H2439  1  0.298700  0.450700  0.121600  1.0  0.1193
  H  H2440  1  0.281700  0.393800  0.099800  1.0  0.1003
  H  H2441  1  0.354200  0.400600  0.036300  1.0  0.09
  H  H2442  1  0.306200  0.369700  0.064000  1.0  0.1167
  H  H2443  1  0.313600  0.341300  0.041600  1.0  0.1247
  H  H2444  1  0.341600  0.343100  0.018900  1.0  0.0892
  H  H2445  1  0.334100  0.398900  0.993000  1.0  0.0874
  H  H2446  1  0.304500  0.398100  0.973100  1.0  0.1267
  H  H2447  1  0.301600  0.372900  0.945900  1.0  0.1169
  H  H2448  1  0.358500  0.351300  0.963000  1.0  0.0863
  H  H2449  1  0.344400  0.967300  0.602400  1.0  0.087
  H  H2450  1  0.359200  0.953000  0.542600  1.0  0.1241
  H  H2451  1  0.382400  0.981800  0.542900  1.0  0.1267
  H  H2452  1  0.387600  0.000100  0.573200  1.0  0.0842
  H  H2453  1  0.253200  0.917100  0.649400  1.0  0.0873
  H  H2454  1  0.272000  0.947800  0.646900  1.0  0.1255
  H  H2455  1  0.298700  0.950700  0.621600  1.0  0.1193
  H  H2456  1  0.281700  0.893800  0.599800  1.0  0.1003
  H  H2457  1  0.354200  0.900600  0.536300  1.0  0.09
  H  H2458  1  0.306200  0.869700  0.564000  1.0  0.1167
  H  H2459  1  0.313600  0.841300  0.541600  1.0  0.1247
  H  H2460  1  0.341600  0.843100  0.518900  1.0  0.0892
  H  H2461  1  0.334100  0.898900  0.493000  1.0  0.0874
  H  H2462  1  0.304500  0.898100  0.473100  1.0  0.1267
  H  H2463  1  0.301600  0.872900  0.445900  1.0  0.1169
  H  H2464  1  0.358500  0.851300  0.463000  1.0  0.0863
  H  H2465  1  0.844400  0.467300  0.602400  1.0  0.087
  H  H2466  1  0.859200  0.453000  0.542600  1.0  0.1241
  H  H2467  1  0.882400  0.481800  0.542900  1.0  0.1267
  H  H2468  1  0.887600  0.500100  0.573200  1.0  0.0842
  H  H2469  1  0.753200  0.417100  0.649400  1.0  0.0873
  H  H2470  1  0.772000  0.447800  0.646900  1.0  0.1255
  H  H2471  1  0.798700  0.450700  0.621600  1.0  0.1193
  H  H2472  1  0.781700  0.393800  0.599800  1.0  0.1003
  H  H2473  1  0.854200  0.400600  0.536300  1.0  0.09
  H  H2474  1  0.806200  0.369700  0.564000  1.0  0.1167
  H  H2475  1  0.813600  0.341300  0.541600  1.0  0.1247
  H  H2476  1  0.841600  0.343100  0.518900  1.0  0.0892
  H  H2477  1  0.834100  0.398900  0.493000  1.0  0.0874
  H  H2478  1  0.804500  0.398100  0.473100  1.0  0.1267
  H  H2479  1  0.801600  0.372900  0.445900  1.0  0.1169
  H  H2480  1  0.858500  0.351300  0.463000  1.0  0.0863
  H  H2481  1  0.844400  0.967300  0.102400  1.0  0.087
  H  H2482  1  0.859200  0.953000  0.042600  1.0  0.1241
  H  H2483  1  0.882400  0.981800  0.042900  1.0  0.1267
  H  H2484  1  0.887600  0.000100  0.073200  1.0  0.0842
  H  H2485  1  0.753200  0.917100  0.149400  1.0  0.0873
  H  H2486  1  0.772000  0.947800  0.146900  1.0  0.1255
  H  H2487  1  0.798700  0.950700  0.121600  1.0  0.1193
  H  H2488  1  0.781700  0.893800  0.099800  1.0  0.1003
  H  H2489  1  0.854200  0.900600  0.036300  1.0  0.09
  H  H2490  1  0.806200  0.869700  0.064000  1.0  0.1167
  H  H2491  1  0.813600  0.841300  0.041600  1.0  0.1247
  H  H2492  1  0.841600  0.843100  0.018900  1.0  0.0892
  H  H2493  1  0.834100  0.898900  0.993000  1.0  0.0874
  H  H2494  1  0.804500  0.898100  0.973100  1.0  0.1251
  H  H2495  1  0.801600  0.872900  0.945900  1.0  0.1169
  H  H2496  1  0.858500  0.851300  0.963000  1.0  0.0863
  H  H2497  1  0.655600  0.352400  0.217300  1.0  0.0876
  H  H2498  1  0.640800  0.292600  0.203000  1.0  0.1238
  H  H2499  1  0.617600  0.292900  0.231800  1.0  0.1265
  H  H2500  1  0.612400  0.323200  0.250100  1.0  0.0847
  H  H2501  1  0.746800  0.399400  0.167100  1.0  0.0883
  H  H2502  1  0.728000  0.396900  0.197800  1.0  0.1258
  H  H2503  1  0.701300  0.371600  0.200700  1.0  0.1205
  H  H2504  1  0.718300  0.349800  0.143800  1.0  0.1001
  H  H2505  1  0.645800  0.286300  0.150600  1.0  0.091
  H  H2506  1  0.693800  0.314000  0.119700  1.0  0.117
  H  H2507  1  0.686400  0.291600  0.091300  1.0  0.1238
  H  H2508  1  0.658400  0.268900  0.093100  1.0  0.0915
  H  H2509  1  0.665900  0.243000  0.148900  1.0  0.087
  H  H2510  1  0.695500  0.223100  0.148100  1.0  0.1253
  H  H2511  1  0.698400  0.195900  0.122900  1.0  0.1172
  H  H2512  1  0.641500  0.213000  0.101300  1.0  0.0857
  H  H2513  1  0.655600  0.852400  0.717300  1.0  0.0876
  H  H2514  1  0.640800  0.792600  0.703000  1.0  0.1238
  H  H2515  1  0.617600  0.792900  0.731800  1.0  0.1265
  H  H2516  1  0.612400  0.823200  0.750100  1.0  0.0847
  H  H2517  1  0.746800  0.899400  0.667100  1.0  0.0883
  H  H2518  1  0.728000  0.896900  0.697800  1.0  0.1258
  H  H2519  1  0.701300  0.871600  0.700700  1.0  0.1205
  H  H2520  1  0.718300  0.849800  0.643800  1.0  0.1001
  H  H2521  1  0.645800  0.786300  0.650600  1.0  0.091
  H  H2522  1  0.693800  0.814000  0.619700  1.0  0.117
  H  H2523  1  0.686400  0.791600  0.591300  1.0  0.1238
  H  H2524  1  0.658400  0.768900  0.593100  1.0  0.0915
  H  H2525  1  0.665900  0.743000  0.648900  1.0  0.087
  H  H2526  1  0.695500  0.723100  0.648100  1.0  0.1253
  H  H2527  1  0.698400  0.695900  0.622900  1.0  0.1172
  H  H2528  1  0.641500  0.713000  0.601300  1.0  0.0857
  H  H2529  1  0.155600  0.352400  0.717300  1.0  0.0876
  H  H2530  1  0.140800  0.292600  0.703000  1.0  0.1238
  H  H2531  1  0.117600  0.292900  0.731800  1.0  0.1265
  H  H2532  1  0.112400  0.323200  0.750100  1.0  0.0847
  H  H2533  1  0.246800  0.399400  0.667100  1.0  0.0883
  H  H2534  1  0.228000  0.396900  0.697800  1.0  0.1258
  H  H2535  1  0.201300  0.371600  0.700700  1.0  0.1205
  H  H2536  1  0.218300  0.349800  0.643800  1.0  0.1001
  H  H2537  1  0.145800  0.286300  0.650600  1.0  0.091
  H  H2538  1  0.193800  0.314000  0.619700  1.0  0.117
  H  H2539  1  0.186400  0.291600  0.591300  1.0  0.1238
  H  H2540  1  0.158400  0.268900  0.593100  1.0  0.0915
  H  H2541  1  0.165900  0.243000  0.648900  1.0  0.087
  H  H2542  1  0.195500  0.223100  0.648100  1.0  0.1253
  H  H2543  1  0.198400  0.195900  0.622900  1.0  0.1172
  H  H2544  1  0.141500  0.213000  0.601300  1.0  0.0857
  H  H2545  1  0.155600  0.852400  0.217300  1.0  0.0876
  H  H2546  1  0.140800  0.792600  0.203000  1.0  0.1238
  H  H2547  1  0.117600  0.792900  0.231800  1.0  0.1265
  H  H2548  1  0.112400  0.823200  0.250100  1.0  0.0847
  H  H2549  1  0.246800  0.899400  0.167100  1.0  0.0883
  H  H2550  1  0.228000  0.896900  0.197800  1.0  0.1258
  H  H2551  1  0.201300  0.871600  0.200700  1.0  0.1205
  H  H2552  1  0.218300  0.849800  0.143800  1.0  0.1001
  H  H2553  1  0.145800  0.786300  0.150600  1.0  0.091
  H  H2554  1  0.193800  0.814000  0.119700  1.0  0.117
  H  H2555  1  0.186400  0.791600  0.091300  1.0  0.1238
  H  H2556  1  0.158400  0.768900  0.093100  1.0  0.0915
  H  H2557  1  0.165900  0.743000  0.148900  1.0  0.087
  H  H2558  1  0.195500  0.723100  0.148100  1.0  0.1253
  H  H2559  1  0.198400  0.695900  0.122900  1.0  0.1172
  H  H2560  1  0.141500  0.713000  0.101300  1.0  0.0857
  H  H2561  1  0.094400  0.897600  0.717300  1.0  0.0876
  H  H2562  1  0.109200  0.957400  0.703000  1.0  0.1244
  H  H2563  1  0.132400  0.957100  0.731800  1.0  0.1269
  H  H2564  1  0.137600  0.926800  0.750100  1.0  0.0833
  H  H2565  1  0.003200  0.850600  0.667100  1.0  0.0883
  H  H2566  1  0.022000  0.853100  0.697800  1.0  0.1253
  H  H2567  1  0.048700  0.878400  0.700700  1.0  0.1205
  H  H2568  1  0.031700  0.900200  0.643800  1.0  0.1001
  H  H2569  1  0.104200  0.963700  0.650600  1.0  0.0911
  H  H2570  1  0.056200  0.936000  0.619700  1.0  0.1175
  H  H2571  1  0.063600  0.958400  0.591300  1.0  0.1225
  H  H2572  1  0.091600  0.981100  0.593100  1.0  0.0912
  H  H2573  1  0.084100  0.007000  0.648900  1.0  0.0879
  H  H2574  1  0.054500  0.026900  0.648100  1.0  0.1256
  H  H2575  1  0.051600  0.054100  0.622900  1.0  0.1175
  H  H2576  1  0.108500  0.037000  0.601300  1.0  0.0862
  H  H2577  1  0.094400  0.397600  0.217300  1.0  0.0876
  H  H2578  1  0.109200  0.457400  0.203000  1.0  0.1244
  H  H2579  1  0.132400  0.457100  0.231800  1.0  0.1269
  H  H2580  1  0.137600  0.426800  0.250100  1.0  0.0833
  H  H2581  1  0.003200  0.350600  0.167100  1.0  0.0883
  H  H2582  1  0.022000  0.353100  0.197800  1.0  0.1253
  H  H2583  1  0.048700  0.378400  0.200700  1.0  0.1205
  H  H2584  1  0.031700  0.400200  0.143800  1.0  0.1001
  H  H2585  1  0.104200  0.463700  0.150600  1.0  0.0911
  H  H2586  1  0.056200  0.436000  0.119700  1.0  0.1175
  H  H2587  1  0.063600  0.458400  0.091300  1.0  0.1229
  H  H2588  1  0.091600  0.481100  0.093100  1.0  0.0912
  H  H2589  1  0.084100  0.507000  0.148900  1.0  0.0879
  H  H2590  1  0.054500  0.526900  0.148100  1.0  0.1264
  H  H2591  1  0.051600  0.554100  0.122900  1.0  0.1175
  H  H2592  1  0.108500  0.537000  0.101300  1.0  0.0862
  H  H2593  1  0.594400  0.897600  0.217300  1.0  0.0876
  H  H2594  1  0.609200  0.957400  0.203000  1.0  0.1244
  H  H2595  1  0.632400  0.957100  0.231800  1.0  0.1269
  H  H2596  1  0.637600  0.926800  0.250100  1.0  0.0833
  H  H2597  1  0.503200  0.850600  0.167100  1.0  0.0883
  H  H2598  1  0.522000  0.853100  0.197800  1.0  0.1253
  H  H2599  1  0.548700  0.878400  0.200700  1.0  0.1205
  H  H2600  1  0.531700  0.900200  0.143800  1.0  0.1001
  H  H2601  1  0.604200  0.963700  0.150600  1.0  0.0911
  H  H2602  1  0.556200  0.936000  0.119700  1.0  0.1175
  H  H2603  1  0.563600  0.958400  0.091300  1.0  0.1229
  H  H2604  1  0.591600  0.981100  0.093100  1.0  0.0912
  H  H2605  1  0.584100  0.007000  0.148900  1.0  0.0879
  H  H2606  1  0.554500  0.026900  0.148100  1.0  0.1256
  H  H2607  1  0.551600  0.054100  0.122900  1.0  0.1175
  H  H2608  1  0.608500  0.037000  0.101300  1.0  0.0862
  H  H2609  1  0.594400  0.397600  0.717300  1.0  0.0876
  H  H2610  1  0.609200  0.457400  0.703000  1.0  0.1244
  H  H2611  1  0.632400  0.457100  0.731800  1.0  0.1269
  H  H2612  1  0.637600  0.426800  0.750100  1.0  0.0833
  H  H2613  1  0.503200  0.350600  0.667100  1.0  0.0883
  H  H2614  1  0.522000  0.353100  0.697800  1.0  0.1253
  H  H2615  1  0.548700  0.378400  0.700700  1.0  0.1205
  H  H2616  1  0.531700  0.400200  0.643800  1.0  0.1001
  H  H2617  1  0.604200  0.463700  0.650600  1.0  0.0911
  H  H2618  1  0.556200  0.436000  0.619700  1.0  0.1175
  H  H2619  1  0.563600  0.458400  0.591300  1.0  0.1229
  H  H2620  1  0.591600  0.481100  0.593100  1.0  0.0912
  H  H2621  1  0.584100  0.507000  0.648900  1.0  0.0879
  H  H2622  1  0.554500  0.526900  0.648100  1.0  0.1256
  H  H2623  1  0.551600  0.554100  0.622900  1.0  0.1175
  H  H2624  1  0.608500  0.537000  0.601300  1.0  0.0862
  H  H2625  1  0.155600  0.397600  0.032700  1.0  0.0879
  H  H2626  1  0.140800  0.457400  0.047000  1.0  0.1236
  H  H2627  1  0.117600  0.457100  0.018200  1.0  0.1279
  H  H2628  1  0.112400  0.426800  0.999900  1.0  0.0839
  H  H2629  1  0.246800  0.350600  0.082900  1.0  0.0876
  H  H2630  1  0.228000  0.353100  0.052200  1.0  0.1246
  H  H2631  1  0.201300  0.378400  0.049300  1.0  0.1202
  H  H2632  1  0.218300  0.400200  0.106200  1.0  0.0995
  H  H2633  1  0.145800  0.463700  0.099400  1.0  0.0905
  H  H2634  1  0.193800  0.436000  0.130300  1.0  0.1179
  H  H2635  1  0.186400  0.458400  0.158700  1.0  0.1233
  H  H2636  1  0.158400  0.481100  0.156900  1.0  0.0913
  H  H2637  1  0.165900  0.507000  0.101100  1.0  0.0874
  H  H2638  1  0.195500  0.526900  0.101900  1.0  0.1257
  H  H2639  1  0.198400  0.554100  0.127100  1.0  0.1171
  H  H2640  1  0.141500  0.537000  0.148700  1.0  0.0855
  H  H2641  1  0.155600  0.897600  0.532700  1.0  0.0879
  H  H2642  1  0.140800  0.957400  0.547000  1.0  0.1236
  H  H2643  1  0.117600  0.957100  0.518200  1.0  0.1279
  H  H2644  1  0.112400  0.926800  0.499900  1.0  0.0839
  H  H2645  1  0.246800  0.850600  0.582900  1.0  0.0876
  H  H2646  1  0.228000  0.853100  0.552200  1.0  0.1246
  H  H2647  1  0.201300  0.878400  0.549300  1.0  0.1202
  H  H2648  1  0.218300  0.900200  0.606200  1.0  0.0995
  H  H2649  1  0.145800  0.963700  0.599400  1.0  0.0905
  H  H2650  1  0.193800  0.936000  0.630300  1.0  0.1179
  H  H2651  1  0.186400  0.958400  0.658700  1.0  0.1233
  H  H2652  1  0.158400  0.981100  0.656900  1.0  0.0913
  H  H2653  1  0.165900  0.007000  0.601100  1.0  0.0874
  H  H2654  1  0.195500  0.026900  0.601900  1.0  0.1257
  H  H2655  1  0.198400  0.054100  0.627100  1.0  0.1171
  H  H2656  1  0.141500  0.037000  0.648700  1.0  0.0855
  H  H2657  1  0.655600  0.397600  0.532700  1.0  0.0879
  H  H2658  1  0.640800  0.457400  0.547000  1.0  0.1236
  H  H2659  1  0.617600  0.457100  0.518200  1.0  0.1279
  H  H2660  1  0.612400  0.426800  0.499900  1.0  0.0839
  H  H2661  1  0.746800  0.350600  0.582900  1.0  0.0876
  H  H2662  1  0.728000  0.353100  0.552200  1.0  0.1246
  H  H2663  1  0.701300  0.378400  0.549300  1.0  0.1202
  H  H2664  1  0.718300  0.400200  0.606200  1.0  0.0995
  H  H2665  1  0.645800  0.463700  0.599400  1.0  0.0905
  H  H2666  1  0.693800  0.436000  0.630300  1.0  0.1179
  H  H2667  1  0.686400  0.458400  0.658700  1.0  0.1233
  H  H2668  1  0.658400  0.481100  0.656900  1.0  0.0913
  H  H2669  1  0.665900  0.507000  0.601100  1.0  0.0874
  H  H2670  1  0.695500  0.526900  0.601900  1.0  0.1257
  H  H2671  1  0.698400  0.554100  0.627100  1.0  0.1171
  H  H2672  1  0.641500  0.537000  0.648700  1.0  0.0855
  H  H2673  1  0.655600  0.897600  0.032700  1.0  0.0879
  H  H2674  1  0.640800  0.957400  0.047000  1.0  0.1236
  H  H2675  1  0.617600  0.957100  0.018200  1.0  0.1279
  H  H2676  1  0.612400  0.926800  0.999900  1.0  0.0839
  H  H2677  1  0.746800  0.850600  0.082900  1.0  0.0876
  H  H2678  1  0.728000  0.853100  0.052200  1.0  0.1246
  H  H2679  1  0.701300  0.878400  0.049300  1.0  0.1202
  H  H2680  1  0.718300  0.900200  0.106200  1.0  0.0995
  H  H2681  1  0.645800  0.963700  0.099400  1.0  0.0905
  H  H2682  1  0.693800  0.936000  0.130300  1.0  0.1179
  H  H2683  1  0.686400  0.958400  0.158700  1.0  0.1233
  H  H2684  1  0.658400  0.981100  0.156900  1.0  0.0913
  H  H2685  1  0.665900  0.007000  0.101100  1.0  0.0874
  H  H2686  1  0.695500  0.026900  0.101900  1.0  0.124
  H  H2687  1  0.698400  0.054100  0.127100  1.0  0.1171
  H  H2688  1  0.641500  0.037000  0.148700  1.0  0.0855
  H  H2689  1  0.594400  0.852400  0.532700  1.0  0.0877
  H  H2690  1  0.609200  0.792600  0.547000  1.0  0.1238
  H  H2691  1  0.632400  0.792900  0.518200  1.0  0.1277
  H  H2692  1  0.637600  0.823200  0.499900  1.0  0.0844
  H  H2693  1  0.503200  0.899400  0.582900  1.0  0.0879
  H  H2694  1  0.522000  0.896900  0.552200  1.0  0.1246
  H  H2695  1  0.548700  0.871600  0.549300  1.0  0.1201
  H  H2696  1  0.531700  0.849800  0.606200  1.0  0.0997
  H  H2697  1  0.604200  0.786300  0.599400  1.0  0.0907
  H  H2698  1  0.556200  0.814000  0.630300  1.0  0.1177
  H  H2699  1  0.563600  0.791600  0.658700  1.0  0.1239
  H  H2700  1  0.591600  0.768900  0.656900  1.0  0.0914
  H  H2701  1  0.584100  0.743000  0.601100  1.0  0.087
  H  H2702  1  0.554500  0.723100  0.601900  1.0  0.1253
  H  H2703  1  0.551600  0.695900  0.627100  1.0  0.1173
  H  H2704  1  0.608500  0.713000  0.648700  1.0  0.0868
  H  H2705  1  0.594400  0.352400  0.032700  1.0  0.0877
  H  H2706  1  0.609200  0.292600  0.047000  1.0  0.1238
  H  H2707  1  0.632400  0.292900  0.018200  1.0  0.1277
  H  H2708  1  0.637600  0.323200  0.999900  1.0  0.0844
  H  H2709  1  0.503200  0.399400  0.082900  1.0  0.0879
  H  H2710  1  0.522000  0.396900  0.052200  1.0  0.1246
  H  H2711  1  0.548700  0.371600  0.049300  1.0  0.1201
  H  H2712  1  0.531700  0.349800  0.106200  1.0  0.0997
  H  H2713  1  0.604200  0.286300  0.099400  1.0  0.0907
  H  H2714  1  0.556200  0.314000  0.130300  1.0  0.1177
  H  H2715  1  0.563600  0.291600  0.158700  1.0  0.1239
  H  H2716  1  0.591600  0.268900  0.156900  1.0  0.0914
  H  H2717  1  0.584100  0.243000  0.101100  1.0  0.087
  H  H2718  1  0.554500  0.223100  0.101900  1.0  0.1253
  H  H2719  1  0.551600  0.195900  0.127100  1.0  0.1173
  H  H2720  1  0.608500  0.213000  0.148700  1.0  0.0868
  H  H2721  1  0.094400  0.852400  0.032700  1.0  0.0877
  H  H2722  1  0.109200  0.792600  0.047000  1.0  0.1238
  H  H2723  1  0.132400  0.792900  0.018200  1.0  0.1277
  H  H2724  1  0.137600  0.823200  0.999900  1.0  0.0844
  H  H2725  1  0.003200  0.899400  0.082900  1.0  0.0879
  H  H2726  1  0.022000  0.896900  0.052200  1.0  0.1264
  H  H2727  1  0.048700  0.871600  0.049300  1.0  0.1201
  H  H2728  1  0.031700  0.849800  0.106200  1.0  0.0997
  H  H2729  1  0.104200  0.786300  0.099400  1.0  0.0907
  H  H2730  1  0.056200  0.814000  0.130300  1.0  0.1177
  H  H2731  1  0.063600  0.791600  0.158700  1.0  0.1239
  H  H2732  1  0.091600  0.768900  0.156900  1.0  0.0914
  H  H2733  1  0.084100  0.743000  0.101100  1.0  0.087
  H  H2734  1  0.054500  0.723100  0.101900  1.0  0.125
  H  H2735  1  0.051600  0.695900  0.127100  1.0  0.1173
  H  H2736  1  0.108500  0.713000  0.148700  1.0  0.0868
  H  H2737  1  0.094400  0.352400  0.532700  1.0  0.0877
  H  H2738  1  0.109200  0.292600  0.547000  1.0  0.1238
  H  H2739  1  0.132400  0.292900  0.518200  1.0  0.1277
  H  H2740  1  0.137600  0.323200  0.499900  1.0  0.0844
  H  H2741  1  0.003200  0.399400  0.582900  1.0  0.0879
  H  H2742  1  0.022000  0.396900  0.552200  1.0  0.1246
  H  H2743  1  0.048700  0.371600  0.549300  1.0  0.1201
  H  H2744  1  0.031700  0.349800  0.606200  1.0  0.0997
  H  H2745  1  0.104200  0.286300  0.599400  1.0  0.0907
  H  H2746  1  0.056200  0.314000  0.630300  1.0  0.1177
  H  H2747  1  0.063600  0.291600  0.658700  1.0  0.1239
  H  H2748  1  0.091600  0.268900  0.656900  1.0  0.0914
  H  H2749  1  0.084100  0.243000  0.601100  1.0  0.087
  H  H2750  1  0.054500  0.223100  0.601900  1.0  0.126
  H  H2751  1  0.051600  0.195900  0.627100  1.0  0.1173
  H  H2752  1  0.108500  0.213000  0.648700  1.0  0.0868
  H  H2753  1  0.852400  0.532700  0.594400  1.0  0.0857
  H  H2754  1  0.792600  0.547000  0.609200  1.0  0.1251
  H  H2755  1  0.792900  0.518200  0.632400  1.0  0.1262
  H  H2756  1  0.823200  0.499900  0.637600  1.0  0.0854
  H  H2757  1  0.899400  0.582900  0.503200  1.0  0.0866
  H  H2758  1  0.896900  0.552200  0.522000  1.0  0.1249
  H  H2759  1  0.871600  0.549300  0.548700  1.0  0.1191
  H  H2760  1  0.849800  0.606200  0.531700  1.0  0.1001
  H  H2761  1  0.786300  0.599400  0.604200  1.0  0.0887
  H  H2762  1  0.814000  0.630300  0.556200  1.0  0.1179
  H  H2763  1  0.791600  0.658700  0.563600  1.0  0.1248
  H  H2764  1  0.768900  0.656900  0.591600  1.0  0.0933
  H  H2765  1  0.743000  0.601100  0.584100  1.0  0.0895
  H  H2766  1  0.723100  0.601900  0.554500  1.0  0.1257
  H  H2767  1  0.695900  0.627100  0.551600  1.0  0.118
  H  H2768  1  0.713000  0.648700  0.608500  1.0  0.0864
  H  H2769  1  0.852400  0.032700  0.094400  1.0  0.0857
  H  H2770  1  0.792600  0.047000  0.109200  1.0  0.1251
  H  H2771  1  0.792900  0.018200  0.132400  1.0  0.1262
  H  H2772  1  0.823200  0.999900  0.137600  1.0  0.0854
  H  H2773  1  0.899400  0.082900  0.003200  1.0  0.0866
  H  H2774  1  0.896900  0.052200  0.022000  1.0  0.1265
  H  H2775  1  0.871600  0.049300  0.048700  1.0  0.1191
  H  H2776  1  0.849800  0.106200  0.031700  1.0  0.1001
  H  H2777  1  0.786300  0.099400  0.104200  1.0  0.0887
  H  H2778  1  0.814000  0.130300  0.056200  1.0  0.1179
  H  H2779  1  0.791600  0.158700  0.063600  1.0  0.1248
  H  H2780  1  0.768900  0.156900  0.091600  1.0  0.0933
  H  H2781  1  0.743000  0.101100  0.084100  1.0  0.0895
  H  H2782  1  0.723100  0.101900  0.054500  1.0  0.1254
  H  H2783  1  0.695900  0.127100  0.051600  1.0  0.118
  H  H2784  1  0.713000  0.148700  0.108500  1.0  0.0864
  H  H2785  1  0.352400  0.532700  0.094400  1.0  0.0857
  H  H2786  1  0.292600  0.547000  0.109200  1.0  0.1251
  H  H2787  1  0.292900  0.518200  0.132400  1.0  0.1262
  H  H2788  1  0.323200  0.499900  0.137600  1.0  0.0854
  H  H2789  1  0.399400  0.582900  0.003200  1.0  0.0866
  H  H2790  1  0.396900  0.552200  0.022000  1.0  0.1249
  H  H2791  1  0.371600  0.549300  0.048700  1.0  0.1191
  H  H2792  1  0.349800  0.606200  0.031700  1.0  0.1001
  H  H2793  1  0.286300  0.599400  0.104200  1.0  0.0887
  H  H2794  1  0.314000  0.630300  0.056200  1.0  0.1179
  H  H2795  1  0.291600  0.658700  0.063600  1.0  0.1248
  H  H2796  1  0.268900  0.656900  0.091600  1.0  0.0933
  H  H2797  1  0.243000  0.601100  0.084100  1.0  0.0895
  H  H2798  1  0.223100  0.601900  0.054500  1.0  0.1263
  H  H2799  1  0.195900  0.627100  0.051600  1.0  0.118
  H  H2800  1  0.213000  0.648700  0.108500  1.0  0.0864
  H  H2801  1  0.352400  0.032700  0.594400  1.0  0.0857
  H  H2802  1  0.292600  0.047000  0.609200  1.0  0.1251
  H  H2803  1  0.292900  0.018200  0.632400  1.0  0.1262
  H  H2804  1  0.323200  0.999900  0.637600  1.0  0.0854
  H  H2805  1  0.399400  0.082900  0.503200  1.0  0.0866
  H  H2806  1  0.396900  0.052200  0.522000  1.0  0.1249
  H  H2807  1  0.371600  0.049300  0.548700  1.0  0.1191
  H  H2808  1  0.349800  0.106200  0.531700  1.0  0.1001
  H  H2809  1  0.286300  0.099400  0.604200  1.0  0.0887
  H  H2810  1  0.314000  0.130300  0.556200  1.0  0.1179
  H  H2811  1  0.291600  0.158700  0.563600  1.0  0.1248
  H  H2812  1  0.268900  0.156900  0.591600  1.0  0.0933
  H  H2813  1  0.243000  0.101100  0.584100  1.0  0.0895
  H  H2814  1  0.223100  0.101900  0.554500  1.0  0.1257
  H  H2815  1  0.195900  0.127100  0.551600  1.0  0.118
  H  H2816  1  0.213000  0.148700  0.608500  1.0  0.0864
  H  H2817  1  0.397600  0.032700  0.155600  1.0  0.0862
  H  H2818  1  0.457400  0.047000  0.140800  1.0  0.125
  H  H2819  1  0.457100  0.018200  0.117600  1.0  0.1267
  H  H2820  1  0.426800  0.999900  0.112400  1.0  0.0852
  H  H2821  1  0.350600  0.082900  0.246800  1.0  0.0865
  H  H2822  1  0.353100  0.052200  0.228000  1.0  0.1247
  H  H2823  1  0.378400  0.049300  0.201300  1.0  0.1189
  H  H2824  1  0.400200  0.106200  0.218300  1.0  0.0994
  H  H2825  1  0.463700  0.099400  0.145800  1.0  0.089
  H  H2826  1  0.436000  0.130300  0.193800  1.0  0.1185
  H  H2827  1  0.458400  0.158700  0.186400  1.0  0.1248
  H  H2828  1  0.481100  0.156900  0.158400  1.0  0.0925
  H  H2829  1  0.507000  0.101100  0.165900  1.0  0.0889
  H  H2830  1  0.526900  0.101900  0.195500  1.0  0.1268
  H  H2831  1  0.554100  0.127100  0.198400  1.0  0.1187
  H  H2832  1  0.537000  0.148700  0.141500  1.0  0.0869
  H  H2833  1  0.397600  0.532700  0.655600  1.0  0.0862
  H  H2834  1  0.457400  0.547000  0.640800  1.0  0.125
  H  H2835  1  0.457100  0.518200  0.617600  1.0  0.1267
  H  H2836  1  0.426800  0.499900  0.612400  1.0  0.0852
  H  H2837  1  0.350600  0.582900  0.746800  1.0  0.0865
  H  H2838  1  0.353100  0.552200  0.728000  1.0  0.1247
  H  H2839  1  0.378400  0.549300  0.701300  1.0  0.1189
  H  H2840  1  0.400200  0.606200  0.718300  1.0  0.0994
  H  H2841  1  0.463700  0.599400  0.645800  1.0  0.089
  H  H2842  1  0.436000  0.630300  0.693800  1.0  0.1185
  H  H2843  1  0.458400  0.658700  0.686400  1.0  0.1248
  H  H2844  1  0.481100  0.656900  0.658400  1.0  0.0925
  H  H2845  1  0.507000  0.601100  0.665900  1.0  0.0889
  H  H2846  1  0.526900  0.601900  0.695500  1.0  0.1268
  H  H2847  1  0.554100  0.627100  0.698400  1.0  0.1187
  H  H2848  1  0.537000  0.648700  0.641500  1.0  0.0869
  H  H2849  1  0.897600  0.032700  0.655600  1.0  0.0862
  H  H2850  1  0.957400  0.047000  0.640800  1.0  0.125
  H  H2851  1  0.957100  0.018200  0.617600  1.0  0.1267
  H  H2852  1  0.926800  0.999900  0.612400  1.0  0.0852
  H  H2853  1  0.850600  0.082900  0.746800  1.0  0.0865
  H  H2854  1  0.853100  0.052200  0.728000  1.0  0.1247
  H  H2855  1  0.878400  0.049300  0.701300  1.0  0.1189
  H  H2856  1  0.900200  0.106200  0.718300  1.0  0.0994
  H  H2857  1  0.963700  0.099400  0.645800  1.0  0.089
  H  H2858  1  0.936000  0.130300  0.693800  1.0  0.1185
  H  H2859  1  0.958400  0.158700  0.686400  1.0  0.1248
  H  H2860  1  0.981100  0.156900  0.658400  1.0  0.0925
  H  H2861  1  0.007000  0.101100  0.665900  1.0  0.0889
  H  H2862  1  0.026900  0.101900  0.695500  1.0  0.125
  H  H2863  1  0.054100  0.127100  0.698400  1.0  0.1187
  H  H2864  1  0.037000  0.148700  0.641500  1.0  0.0869
  H  H2865  1  0.897600  0.532700  0.155600  1.0  0.0862
  H  H2866  1  0.957400  0.547000  0.140800  1.0  0.125
  H  H2867  1  0.957100  0.518200  0.117600  1.0  0.1267
  H  H2868  1  0.926800  0.499900  0.112400  1.0  0.0852
  H  H2869  1  0.850600  0.582900  0.246800  1.0  0.0865
  H  H2870  1  0.853100  0.552200  0.228000  1.0  0.1247
  H  H2871  1  0.878400  0.549300  0.201300  1.0  0.1189
  H  H2872  1  0.900200  0.606200  0.218300  1.0  0.0994
  H  H2873  1  0.963700  0.599400  0.145800  1.0  0.089
  H  H2874  1  0.936000  0.630300  0.193800  1.0  0.1185
  H  H2875  1  0.958400  0.658700  0.186400  1.0  0.1248
  H  H2876  1  0.981100  0.656900  0.158400  1.0  0.0925
  H  H2877  1  0.007000  0.601100  0.165900  1.0  0.0889
  H  H2878  1  0.026900  0.601900  0.195500  1.0  0.1268
  H  H2879  1  0.054100  0.627100  0.198400  1.0  0.1187
  H  H2880  1  0.037000  0.648700  0.141500  1.0  0.0869
  H  H2881  1  0.897600  0.717300  0.094400  1.0  0.086
  H  H2882  1  0.957400  0.703000  0.109200  1.0  0.1251
  H  H2883  1  0.957100  0.731800  0.132400  1.0  0.1263
  H  H2884  1  0.926800  0.750100  0.137600  1.0  0.0843
  H  H2885  1  0.850600  0.667100  0.003200  1.0  0.0855
  H  H2886  1  0.853100  0.697800  0.022000  1.0  0.1254
  H  H2887  1  0.878400  0.700700  0.048700  1.0  0.1189
  H  H2888  1  0.900200  0.643800  0.031700  1.0  0.0998
  H  H2889  1  0.963700  0.650600  0.104200  1.0  0.0888
  H  H2890  1  0.936000  0.619700  0.056200  1.0  0.1183
  H  H2891  1  0.958400  0.591300  0.063600  1.0  0.1236
  H  H2892  1  0.981100  0.593100  0.091600  1.0  0.0941
  H  H2893  1  0.007000  0.648900  0.084100  1.0  0.0896
  H  H2894  1  0.026900  0.648100  0.054500  1.0  0.126
  H  H2895  1  0.054100  0.622900  0.051600  1.0  0.1184
  H  H2896  1  0.037000  0.601300  0.108500  1.0  0.0869
  H  H2897  1  0.897600  0.217300  0.594400  1.0  0.086
  H  H2898  1  0.957400  0.203000  0.609200  1.0  0.1251
  H  H2899  1  0.957100  0.231800  0.632400  1.0  0.1263
  H  H2900  1  0.926800  0.250100  0.637600  1.0  0.0843
  H  H2901  1  0.850600  0.167100  0.503200  1.0  0.0855
  H  H2902  1  0.853100  0.197800  0.522000  1.0  0.1254
  H  H2903  1  0.878400  0.200700  0.548700  1.0  0.1189
  H  H2904  1  0.900200  0.143800  0.531700  1.0  0.0998
  H  H2905  1  0.963700  0.150600  0.604200  1.0  0.0888
  H  H2906  1  0.936000  0.119700  0.556200  1.0  0.1183
  H  H2907  1  0.958400  0.091300  0.563600  1.0  0.1239
  H  H2908  1  0.981100  0.093100  0.591600  1.0  0.0941
  H  H2909  1  0.007000  0.148900  0.584100  1.0  0.0896
  H  H2910  1  0.026900  0.148100  0.554500  1.0  0.1263
  H  H2911  1  0.054100  0.122900  0.551600  1.0  0.1184
  H  H2912  1  0.037000  0.101300  0.608500  1.0  0.0869
  H  H2913  1  0.397600  0.717300  0.594400  1.0  0.086
  H  H2914  1  0.457400  0.703000  0.609200  1.0  0.1251
  H  H2915  1  0.457100  0.731800  0.632400  1.0  0.1263
  H  H2916  1  0.426800  0.750100  0.637600  1.0  0.0843
  H  H2917  1  0.350600  0.667100  0.503200  1.0  0.0855
  H  H2918  1  0.353100  0.697800  0.522000  1.0  0.1254
  H  H2919  1  0.378400  0.700700  0.548700  1.0  0.1189
  H  H2920  1  0.400200  0.643800  0.531700  1.0  0.0998
  H  H2921  1  0.463700  0.650600  0.604200  1.0  0.0888
  H  H2922  1  0.436000  0.619700  0.556200  1.0  0.1183
  H  H2923  1  0.458400  0.591300  0.563600  1.0  0.1239
  H  H2924  1  0.481100  0.593100  0.591600  1.0  0.0941
  H  H2925  1  0.507000  0.648900  0.584100  1.0  0.0896
  H  H2926  1  0.526900  0.648100  0.554500  1.0  0.1263
  H  H2927  1  0.554100  0.622900  0.551600  1.0  0.1184
  H  H2928  1  0.537000  0.601300  0.608500  1.0  0.0869
  H  H2929  1  0.397600  0.217300  0.094400  1.0  0.086
  H  H2930  1  0.457400  0.203000  0.109200  1.0  0.1251
  H  H2931  1  0.457100  0.231800  0.132400  1.0  0.1263
  H  H2932  1  0.426800  0.250100  0.137600  1.0  0.0843
  H  H2933  1  0.350600  0.167100  0.003200  1.0  0.0855
  H  H2934  1  0.353100  0.197800  0.022000  1.0  0.1254
  H  H2935  1  0.378400  0.200700  0.048700  1.0  0.1189
  H  H2936  1  0.400200  0.143800  0.031700  1.0  0.0998
  H  H2937  1  0.463700  0.150600  0.104200  1.0  0.0888
  H  H2938  1  0.436000  0.119700  0.056200  1.0  0.1183
  H  H2939  1  0.458400  0.091300  0.063600  1.0  0.1239
  H  H2940  1  0.481100  0.093100  0.091600  1.0  0.0941
  H  H2941  1  0.507000  0.148900  0.084100  1.0  0.0896
  H  H2942  1  0.526900  0.148100  0.054500  1.0  0.1269
  H  H2943  1  0.554100  0.122900  0.051600  1.0  0.1184
  H  H2944  1  0.537000  0.101300  0.108500  1.0  0.0869
  H  H2945  1  0.352400  0.217300  0.655600  1.0  0.0856
  H  H2946  1  0.292600  0.203000  0.640800  1.0  0.1249
  H  H2947  1  0.292900  0.231800  0.617600  1.0  0.1264
  H  H2948  1  0.323200  0.250100  0.612400  1.0  0.0842
  H  H2949  1  0.399400  0.167100  0.746800  1.0  0.0856
  H  H2950  1  0.396900  0.197800  0.728000  1.0  0.1248
  H  H2951  1  0.371600  0.200700  0.701300  1.0  0.1192
  H  H2952  1  0.349800  0.143800  0.718300  1.0  0.0998
  H  H2953  1  0.286300  0.150600  0.645800  1.0  0.0892
  H  H2954  1  0.314000  0.119700  0.693800  1.0  0.1183
  H  H2955  1  0.291600  0.091300  0.686400  1.0  0.1248
  H  H2956  1  0.268900  0.093100  0.658400  1.0  0.0919
  H  H2957  1  0.243000  0.148900  0.665900  1.0  0.0894
  H  H2958  1  0.223100  0.148100  0.695500  1.0  0.1268
  H  H2959  1  0.195900  0.122900  0.698400  1.0  0.1184
  H  H2960  1  0.213000  0.101300  0.641500  1.0  0.0865
  H  H2961  1  0.352400  0.717300  0.155600  1.0  0.0856
  H  H2962  1  0.292600  0.703000  0.140800  1.0  0.1249
  H  H2963  1  0.292900  0.731800  0.117600  1.0  0.1264
  H  H2964  1  0.323200  0.750100  0.112400  1.0  0.0842
  H  H2965  1  0.399400  0.667100  0.246800  1.0  0.0856
  H  H2966  1  0.396900  0.697800  0.228000  1.0  0.1248
  H  H2967  1  0.371600  0.700700  0.201300  1.0  0.1192
  H  H2968  1  0.349800  0.643800  0.218300  1.0  0.0998
  H  H2969  1  0.286300  0.650600  0.145800  1.0  0.0892
  H  H2970  1  0.314000  0.619700  0.193800  1.0  0.1183
  H  H2971  1  0.291600  0.591300  0.186400  1.0  0.1248
  H  H2972  1  0.268900  0.593100  0.158400  1.0  0.0919
  H  H2973  1  0.243000  0.648900  0.165900  1.0  0.0894
  H  H2974  1  0.223100  0.648100  0.195500  1.0  0.1268
  H  H2975  1  0.195900  0.622900  0.198400  1.0  0.1184
  H  H2976  1  0.213000  0.601300  0.141500  1.0  0.0865
  H  H2977  1  0.852400  0.217300  0.155600  1.0  0.0856
  H  H2978  1  0.792600  0.203000  0.140800  1.0  0.1249
  H  H2979  1  0.792900  0.231800  0.117600  1.0  0.1264
  H  H2980  1  0.823200  0.250100  0.112400  1.0  0.0842
  H  H2981  1  0.899400  0.167100  0.246800  1.0  0.0856
  H  H2982  1  0.896900  0.197800  0.228000  1.0  0.1248
  H  H2983  1  0.871600  0.200700  0.201300  1.0  0.1192
  H  H2984  1  0.849800  0.143800  0.218300  1.0  0.0998
  H  H2985  1  0.786300  0.150600  0.145800  1.0  0.0892
  H  H2986  1  0.814000  0.119700  0.193800  1.0  0.1183
  H  H2987  1  0.791600  0.091300  0.186400  1.0  0.1248
  H  H2988  1  0.768900  0.093100  0.158400  1.0  0.0919
  H  H2989  1  0.743000  0.148900  0.165900  1.0  0.0894
  H  H2990  1  0.723100  0.148100  0.195500  1.0  0.1268
  H  H2991  1  0.695900  0.122900  0.198400  1.0  0.1184
  H  H2992  1  0.713000  0.101300  0.141500  1.0  0.0865
  H  H2993  1  0.852400  0.717300  0.655600  1.0  0.0856
  H  H2994  1  0.792600  0.703000  0.640800  1.0  0.1249
  H  H2995  1  0.792900  0.731800  0.617600  1.0  0.1264
  H  H2996  1  0.823200  0.750100  0.612400  1.0  0.0842
  H  H2997  1  0.899400  0.667100  0.746800  1.0  0.0856
  H  H2998  1  0.896900  0.697800  0.728000  1.0  0.1248
  H  H2999  1  0.871600  0.700700  0.701300  1.0  0.1192
  H  H3000  1  0.849800  0.643800  0.718300  1.0  0.0998
  H  H3001  1  0.786300  0.650600  0.645800  1.0  0.0892
  H  H3002  1  0.814000  0.619700  0.693800  1.0  0.1183
  H  H3003  1  0.791600  0.591300  0.686400  1.0  0.1248
  H  H3004  1  0.768900  0.593100  0.658400  1.0  0.0919
  H  H3005  1  0.743000  0.648900  0.665900  1.0  0.0894
  H  H3006  1  0.723100  0.648100  0.695500  1.0  0.1268
  H  H3007  1  0.695900  0.622900  0.698400  1.0  0.1184
  H  H3008  1  0.713000  0.601300  0.641500  1.0  0.0865
  H  H3009  1  0.032700  0.155600  0.397600  1.0  0.0875
  H  H3010  1  0.047000  0.140800  0.457400  1.0  0.1249
  H  H3011  1  0.018200  0.117600  0.457100  1.0  0.1267
  H  H3012  1  0.999900  0.112400  0.426800  1.0  0.0858
  H  H3013  1  0.082900  0.246800  0.350600  1.0  0.0862
  H  H3014  1  0.052200  0.228000  0.353100  1.0  0.1238
  H  H3015  1  0.049300  0.201300  0.378400  1.0  0.1198
  H  H3016  1  0.106200  0.218300  0.400200  1.0  0.1008
  H  H3017  1  0.099400  0.145800  0.463700  1.0  0.0892
  H  H3018  1  0.130300  0.193800  0.436000  1.0  0.1172
  H  H3019  1  0.158700  0.186400  0.458400  1.0  0.1251
  H  H3020  1  0.156900  0.158400  0.481100  1.0  0.0884
  H  H3021  1  0.101100  0.165900  0.507000  1.0  0.0873
  H  H3022  1  0.101900  0.195500  0.526900  1.0  0.1264
  H  H3023  1  0.127100  0.198400  0.554100  1.0  0.1168
  H  H3024  1  0.148700  0.141500  0.537000  1.0  0.0866
  H  H3025  1  0.032700  0.655600  0.897600  1.0  0.0875
  H  H3026  1  0.047000  0.640800  0.957400  1.0  0.1249
  H  H3027  1  0.018200  0.617600  0.957100  1.0  0.1267
  H  H3028  1  0.999900  0.612400  0.926800  1.0  0.0858
  H  H3029  1  0.082900  0.746800  0.850600  1.0  0.0862
  H  H3030  1  0.052200  0.728000  0.853100  1.0  0.1238
  H  H3031  1  0.049300  0.701300  0.878400  1.0  0.1198
  H  H3032  1  0.106200  0.718300  0.900200  1.0  0.1008
  H  H3033  1  0.099400  0.645800  0.963700  1.0  0.0892
  H  H3034  1  0.130300  0.693800  0.936000  1.0  0.1172
  H  H3035  1  0.158700  0.686400  0.958400  1.0  0.1251
  H  H3036  1  0.156900  0.658400  0.981100  1.0  0.0884
  H  H3037  1  0.101100  0.665900  0.007000  1.0  0.0873
  H  H3038  1  0.101900  0.695500  0.026900  1.0  0.1247
  H  H3039  1  0.127100  0.698400  0.054100  1.0  0.1168
  H  H3040  1  0.148700  0.641500  0.037000  1.0  0.0866
  H  H3041  1  0.532700  0.155600  0.897600  1.0  0.0875
  H  H3042  1  0.547000  0.140800  0.957400  1.0  0.1249
  H  H3043  1  0.518200  0.117600  0.957100  1.0  0.1267
  H  H3044  1  0.499900  0.112400  0.926800  1.0  0.0858
  H  H3045  1  0.582900  0.246800  0.850600  1.0  0.0862
  H  H3046  1  0.552200  0.228000  0.853100  1.0  0.1238
  H  H3047  1  0.549300  0.201300  0.878400  1.0  0.1198
  H  H3048  1  0.606200  0.218300  0.900200  1.0  0.1008
  H  H3049  1  0.599400  0.145800  0.963700  1.0  0.0892
  H  H3050  1  0.630300  0.193800  0.936000  1.0  0.1172
  H  H3051  1  0.658700  0.186400  0.958400  1.0  0.1251
  H  H3052  1  0.656900  0.158400  0.981100  1.0  0.0884
  H  H3053  1  0.601100  0.165900  0.007000  1.0  0.0873
  H  H3054  1  0.601900  0.195500  0.026900  1.0  0.1264
  H  H3055  1  0.627100  0.198400  0.054100  1.0  0.1168
  H  H3056  1  0.648700  0.141500  0.037000  1.0  0.0866
  H  H3057  1  0.532700  0.655600  0.397600  1.0  0.0875
  H  H3058  1  0.547000  0.640800  0.457400  1.0  0.1249
  H  H3059  1  0.518200  0.617600  0.457100  1.0  0.1267
  H  H3060  1  0.499900  0.612400  0.426800  1.0  0.0858
  H  H3061  1  0.582900  0.746800  0.350600  1.0  0.0862
  H  H3062  1  0.552200  0.728000  0.353100  1.0  0.1238
  H  H3063  1  0.549300  0.701300  0.378400  1.0  0.1198
  H  H3064  1  0.606200  0.718300  0.400200  1.0  0.1008
  H  H3065  1  0.599400  0.645800  0.463700  1.0  0.0892
  H  H3066  1  0.630300  0.693800  0.436000  1.0  0.1172
  H  H3067  1  0.658700  0.686400  0.458400  1.0  0.1251
  H  H3068  1  0.656900  0.658400  0.481100  1.0  0.0884
  H  H3069  1  0.601100  0.665900  0.507000  1.0  0.0873
  H  H3070  1  0.601900  0.695500  0.526900  1.0  0.1264
  H  H3071  1  0.627100  0.698400  0.554100  1.0  0.1168
  H  H3072  1  0.648700  0.641500  0.537000  1.0  0.0866
  H  H3073  1  0.532700  0.594400  0.852400  1.0  0.0869
  H  H3074  1  0.547000  0.609200  0.792600  1.0  0.1245
  H  H3075  1  0.518200  0.632400  0.792900  1.0  0.1269
  H  H3076  1  0.499900  0.637600  0.823200  1.0  0.0858
  H  H3077  1  0.582900  0.503200  0.899400  1.0  0.0869
  H  H3078  1  0.552200  0.522000  0.896900  1.0  0.1241
  H  H3079  1  0.549300  0.548700  0.871600  1.0  0.1196
  H  H3080  1  0.606200  0.531700  0.849800  1.0  0.1007
  H  H3081  1  0.599400  0.604200  0.786300  1.0  0.0896
  H  H3082  1  0.630300  0.556200  0.814000  1.0  0.1169
  H  H3083  1  0.658700  0.563600  0.791600  1.0  0.1247
  H  H3084  1  0.656900  0.591600  0.768900  1.0  0.0885
  H  H3085  1  0.601100  0.584100  0.743000  1.0  0.0871
  H  H3086  1  0.601900  0.554500  0.723100  1.0  0.1267
  H  H3087  1  0.627100  0.551600  0.695900  1.0  0.1165
  H  H3088  1  0.648700  0.608500  0.713000  1.0  0.0862
  H  H3089  1  0.532700  0.094400  0.352400  1.0  0.0869
  H  H3090  1  0.547000  0.109200  0.292600  1.0  0.1245
  H  H3091  1  0.518200  0.132400  0.292900  1.0  0.1269
  H  H3092  1  0.499900  0.137600  0.323200  1.0  0.0858
  H  H3093  1  0.582900  0.003200  0.399400  1.0  0.0869
  H  H3094  1  0.552200  0.022000  0.396900  1.0  0.1241
  H  H3095  1  0.549300  0.048700  0.371600  1.0  0.1196
  H  H3096  1  0.606200  0.031700  0.349800  1.0  0.1007
  H  H3097  1  0.599400  0.104200  0.286300  1.0  0.0896
  H  H3098  1  0.630300  0.056200  0.314000  1.0  0.1169
  H  H3099  1  0.658700  0.063600  0.291600  1.0  0.1247
  H  H3100  1  0.656900  0.091600  0.268900  1.0  0.0885
  H  H3101  1  0.601100  0.084100  0.243000  1.0  0.0871
  H  H3102  1  0.601900  0.054500  0.223100  1.0  0.1275
  H  H3103  1  0.627100  0.051600  0.195900  1.0  0.1165
  H  H3104  1  0.648700  0.108500  0.213000  1.0  0.0862
  H  H3105  1  0.032700  0.594400  0.352400  1.0  0.0869
  H  H3106  1  0.047000  0.609200  0.292600  1.0  0.1245
  H  H3107  1  0.018200  0.632400  0.292900  1.0  0.1269
  H  H3108  1  0.999900  0.637600  0.323200  1.0  0.0858
  H  H3109  1  0.082900  0.503200  0.399400  1.0  0.0869
  H  H3110  1  0.052200  0.522000  0.396900  1.0  0.1241
  H  H3111  1  0.049300  0.548700  0.371600  1.0  0.1196
  H  H3112  1  0.106200  0.531700  0.349800  1.0  0.1007
  H  H3113  1  0.099400  0.604200  0.286300  1.0  0.0896
  H  H3114  1  0.130300  0.556200  0.314000  1.0  0.1169
  H  H3115  1  0.158700  0.563600  0.291600  1.0  0.1247
  H  H3116  1  0.156900  0.591600  0.268900  1.0  0.0885
  H  H3117  1  0.101100  0.584100  0.243000  1.0  0.0871
  H  H3118  1  0.101900  0.554500  0.223100  1.0  0.1267
  H  H3119  1  0.127100  0.551600  0.195900  1.0  0.1165
  H  H3120  1  0.148700  0.608500  0.213000  1.0  0.0862
  H  H3121  1  0.032700  0.094400  0.852400  1.0  0.0869
  H  H3122  1  0.047000  0.109200  0.792600  1.0  0.1245
  H  H3123  1  0.018200  0.132400  0.792900  1.0  0.1269
  H  H3124  1  0.999900  0.137600  0.823200  1.0  0.0858
  H  H3125  1  0.082900  0.003200  0.899400  1.0  0.0869
  H  H3126  1  0.052200  0.022000  0.896900  1.0  0.1264
  H  H3127  1  0.049300  0.048700  0.871600  1.0  0.1196
  H  H3128  1  0.106200  0.031700  0.849800  1.0  0.1007
  H  H3129  1  0.099400  0.104200  0.786300  1.0  0.0896
  H  H3130  1  0.130300  0.056200  0.814000  1.0  0.1169
  H  H3131  1  0.158700  0.063600  0.791600  1.0  0.1247
  H  H3132  1  0.156900  0.091600  0.768900  1.0  0.0885
  H  H3133  1  0.101100  0.084100  0.743000  1.0  0.0871
  H  H3134  1  0.101900  0.054500  0.723100  1.0  0.1264
  H  H3135  1  0.127100  0.051600  0.695900  1.0  0.1165
  H  H3136  1  0.148700  0.108500  0.713000  1.0  0.0862
  H  H3137  1  0.217300  0.655600  0.352400  1.0  0.0868
  H  H3138  1  0.203000  0.640800  0.292600  1.0  0.1249
  H  H3139  1  0.231800  0.617600  0.292900  1.0  0.1269
  H  H3140  1  0.250100  0.612400  0.323200  1.0  0.086
  H  H3141  1  0.167100  0.746800  0.399400  1.0  0.0861
  H  H3142  1  0.197800  0.728000  0.396900  1.0  0.1245
  H  H3143  1  0.200700  0.701300  0.371600  1.0  0.1197
  H  H3144  1  0.143800  0.718300  0.349800  1.0  0.1005
  H  H3145  1  0.150600  0.645800  0.286300  1.0  0.0895
  H  H3146  1  0.119700  0.693800  0.314000  1.0  0.1165
  H  H3147  1  0.091300  0.686400  0.291600  1.0  0.1248
  H  H3148  1  0.093100  0.658400  0.268900  1.0  0.0888
  H  H3149  1  0.148900  0.665900  0.243000  1.0  0.0867
  H  H3150  1  0.148100  0.695500  0.223100  1.0  0.1265
  H  H3151  1  0.122900  0.698400  0.195900  1.0  0.1169
  H  H3152  1  0.101300  0.641500  0.213000  1.0  0.086
  H  H3153  1  0.217300  0.155600  0.852400  1.0  0.0868
  H  H3154  1  0.203000  0.140800  0.792600  1.0  0.1249
  H  H3155  1  0.231800  0.117600  0.792900  1.0  0.1269
  H  H3156  1  0.250100  0.112400  0.823200  1.0  0.086
  H  H3157  1  0.167100  0.246800  0.899400  1.0  0.0861
  H  H3158  1  0.197800  0.228000  0.896900  1.0  0.1245
  H  H3159  1  0.200700  0.201300  0.871600  1.0  0.1197
  H  H3160  1  0.143800  0.218300  0.849800  1.0  0.1005
  H  H3161  1  0.150600  0.145800  0.786300  1.0  0.0895
  H  H3162  1  0.119700  0.193800  0.814000  1.0  0.1165
  H  H3163  1  0.091300  0.186400  0.791600  1.0  0.1248
  H  H3164  1  0.093100  0.158400  0.768900  1.0  0.0888
  H  H3165  1  0.148900  0.165900  0.743000  1.0  0.0867
  H  H3166  1  0.148100  0.195500  0.723100  1.0  0.1265
  H  H3167  1  0.122900  0.198400  0.695900  1.0  0.1169
  H  H3168  1  0.101300  0.141500  0.713000  1.0  0.086
  H  H3169  1  0.717300  0.655600  0.852400  1.0  0.0868
  H  H3170  1  0.703000  0.640800  0.792600  1.0  0.1249
  H  H3171  1  0.731800  0.617600  0.792900  1.0  0.1269
  H  H3172  1  0.750100  0.612400  0.823200  1.0  0.086
  H  H3173  1  0.667100  0.746800  0.899400  1.0  0.0861
  H  H3174  1  0.697800  0.728000  0.896900  1.0  0.1245
  H  H3175  1  0.700700  0.701300  0.871600  1.0  0.1197
  H  H3176  1  0.643800  0.718300  0.849800  1.0  0.1005
  H  H3177  1  0.650600  0.645800  0.786300  1.0  0.0895
  H  H3178  1  0.619700  0.693800  0.814000  1.0  0.1165
  H  H3179  1  0.591300  0.686400  0.791600  1.0  0.1248
  H  H3180  1  0.593100  0.658400  0.768900  1.0  0.0888
  H  H3181  1  0.648900  0.665900  0.743000  1.0  0.0867
  H  H3182  1  0.648100  0.695500  0.723100  1.0  0.1265
  H  H3183  1  0.622900  0.698400  0.695900  1.0  0.1169
  H  H3184  1  0.601300  0.641500  0.713000  1.0  0.086
  H  H3185  1  0.717300  0.155600  0.352400  1.0  0.0868
  H  H3186  1  0.703000  0.140800  0.292600  1.0  0.1249
  H  H3187  1  0.731800  0.117600  0.292900  1.0  0.1269
  H  H3188  1  0.750100  0.112400  0.323200  1.0  0.086
  H  H3189  1  0.667100  0.246800  0.399400  1.0  0.0861
  H  H3190  1  0.697800  0.228000  0.396900  1.0  0.1245
  H  H3191  1  0.700700  0.201300  0.371600  1.0  0.1197
  H  H3192  1  0.643800  0.218300  0.349800  1.0  0.1005
  H  H3193  1  0.650600  0.145800  0.286300  1.0  0.0895
  H  H3194  1  0.619700  0.193800  0.314000  1.0  0.1165
  H  H3195  1  0.591300  0.186400  0.291600  1.0  0.1248
  H  H3196  1  0.593100  0.158400  0.268900  1.0  0.0888
  H  H3197  1  0.648900  0.165900  0.243000  1.0  0.0867
  H  H3198  1  0.648100  0.195500  0.223100  1.0  0.1265
  H  H3199  1  0.622900  0.198400  0.195900  1.0  0.1169
  H  H3200  1  0.601300  0.141500  0.213000  1.0  0.086
  H  H3201  1  0.717300  0.094400  0.897600  1.0  0.0874
  H  H3202  1  0.703000  0.109200  0.957400  1.0  0.125
  H  H3203  1  0.731800  0.132400  0.957100  1.0  0.1262
  H  H3204  1  0.750100  0.137600  0.926800  1.0  0.0854
  H  H3205  1  0.667100  0.003200  0.850600  1.0  0.0862
  H  H3206  1  0.697800  0.022000  0.853100  1.0  0.1243
  H  H3207  1  0.700700  0.048700  0.878400  1.0  0.1194
  H  H3208  1  0.643800  0.031700  0.900200  1.0  0.1006
  H  H3209  1  0.650600  0.104200  0.963700  1.0  0.0892
  H  H3210  1  0.619700  0.056200  0.936000  1.0  0.1173
  H  H3211  1  0.591300  0.063600  0.958400  1.0  0.1242
  H  H3212  1  0.593100  0.091600  0.981100  1.0  0.0891
  H  H3213  1  0.648900  0.084100  0.007000  1.0  0.0873
  H  H3214  1  0.648100  0.054500  0.026900  1.0  0.1265
  H  H3215  1  0.622900  0.051600  0.054100  1.0  0.1163
  H  H3216  1  0.601300  0.108500  0.037000  1.0  0.0866
  H  H3217  1  0.717300  0.594400  0.397600  1.0  0.0874
  H  H3218  1  0.703000  0.609200  0.457400  1.0  0.125
  H  H3219  1  0.731800  0.632400  0.457100  1.0  0.1262
  H  H3220  1  0.750100  0.637600  0.426800  1.0  0.0854
  H  H3221  1  0.667100  0.503200  0.350600  1.0  0.0862
  H  H3222  1  0.697800  0.522000  0.353100  1.0  0.1243
  H  H3223  1  0.700700  0.548700  0.378400  1.0  0.1194
  H  H3224  1  0.643800  0.531700  0.400200  1.0  0.1006
  H  H3225  1  0.650600  0.604200  0.463700  1.0  0.0892
  H  H3226  1  0.619700  0.556200  0.436000  1.0  0.1173
  H  H3227  1  0.591300  0.563600  0.458400  1.0  0.1246
  H  H3228  1  0.593100  0.591600  0.481100  1.0  0.0891
  H  H3229  1  0.648900  0.584100  0.507000  1.0  0.0873
  H  H3230  1  0.648100  0.554500  0.526900  1.0  0.1265
  H  H3231  1  0.622900  0.551600  0.554100  1.0  0.1163
  H  H3232  1  0.601300  0.608500  0.537000  1.0  0.0866
  H  H3233  1  0.217300  0.094400  0.397600  1.0  0.0874
  H  H3234  1  0.203000  0.109200  0.457400  1.0  0.125
  H  H3235  1  0.231800  0.132400  0.457100  1.0  0.1262
  H  H3236  1  0.250100  0.137600  0.426800  1.0  0.0854
  H  H3237  1  0.167100  0.003200  0.350600  1.0  0.0862
  H  H3238  1  0.197800  0.022000  0.353100  1.0  0.1243
  H  H3239  1  0.200700  0.048700  0.378400  1.0  0.1194
  H  H3240  1  0.143800  0.031700  0.400200  1.0  0.1006
  H  H3241  1  0.150600  0.104200  0.463700  1.0  0.0892
  H  H3242  1  0.119700  0.056200  0.436000  1.0  0.1173
  H  H3243  1  0.091300  0.063600  0.458400  1.0  0.1246
  H  H3244  1  0.093100  0.091600  0.481100  1.0  0.0891
  H  H3245  1  0.148900  0.084100  0.507000  1.0  0.0873
  H  H3246  1  0.148100  0.054500  0.526900  1.0  0.1272
  H  H3247  1  0.122900  0.051600  0.554100  1.0  0.1163
  H  H3248  1  0.101300  0.108500  0.537000  1.0  0.0866
  H  H3249  1  0.217300  0.594400  0.897600  1.0  0.0874
  H  H3250  1  0.203000  0.609200  0.957400  1.0  0.125
  H  H3251  1  0.231800  0.632400  0.957100  1.0  0.1262
  H  H3252  1  0.250100  0.637600  0.926800  1.0  0.0854
  H  H3253  1  0.167100  0.503200  0.850600  1.0  0.0862
  H  H3254  1  0.197800  0.522000  0.853100  1.0  0.1243
  H  H3255  1  0.200700  0.548700  0.878400  1.0  0.1194
  H  H3256  1  0.143800  0.531700  0.900200  1.0  0.1006
  H  H3257  1  0.150600  0.604200  0.963700  1.0  0.0892
  H  H3258  1  0.119700  0.556200  0.936000  1.0  0.1173
  H  H3259  1  0.091300  0.563600  0.958400  1.0  0.1246
  H  H3260  1  0.093100  0.591600  0.981100  1.0  0.0891
  H  H3261  1  0.148900  0.584100  0.007000  1.0  0.0873
  H  H3262  1  0.148100  0.554500  0.026900  1.0  0.1265
  H  H3263  1  0.122900  0.551600  0.054100  1.0  0.1163
  H  H3264  1  0.101300  0.608500  0.037000  1.0  0.0866
  C  C3265  1  0.409720  0.602580  0.219890  1.0  0.1787
  C  C3266  1  0.427420  0.599140  0.207500  1.0  -0.1418
  C  C3267  1  0.445230  0.610720  0.211380  1.0  -0.0531
  C  C3268  1  0.444860  0.624820  0.228100  1.0  -0.1417
  C  C3269  1  0.426860  0.627580  0.239070  1.0  0.1843
  C  C3270  1  0.397740  0.533380  0.095330  1.0  0.2672
  C  C3271  1  0.361480  0.513210  0.168430  1.0  0.1829
  C  C3272  1  0.362600  0.524620  0.186660  1.0  -0.1635
  C  C3273  1  0.377790  0.540070  0.188580  1.0  -0.0358
  C  C3274  1  0.392100  0.542490  0.172260  1.0  -0.1756
  C  C3275  1  0.390260  0.530010  0.154720  1.0  0.1885
  C  C3276  1  0.408680  0.558770  0.172820  1.0  0.3893
  C  C3277  1  0.425670  0.584610  0.189700  1.0  0.3109
  C  C3278  1  0.435110  0.575890  0.156840  1.0  0.4461
  C  C3279  1  0.462320  0.596010  0.138220  1.0  0.1979
  C  C3280  1  0.447790  0.579520  0.138150  1.0  -0.1758
  C  C3281  1  0.445890  0.567350  0.120400  1.0  -0.0494
  C  C3282  1  0.458910  0.571920  0.103580  1.0  -0.1492
  C  C3283  1  0.472540  0.588600  0.104890  1.0  0.164
  C  C3284  1  0.517630  0.583010  0.138620  1.0  0.1691
  C  C3285  1  0.529400  0.565400  0.138340  1.0  -0.185
  C  C3286  1  0.545300  0.563600  0.123330  1.0  -0.0544
  C  C3287  1  0.547830  0.579840  0.109240  1.0  -0.1605
  C  C3288  1  0.535020  0.597310  0.110850  1.0  0.1811
  C  C3289  1  0.564410  0.579080  0.093020  1.0  0.3967
  C  C3290  1  0.500590  0.626110  0.074780  1.0  0.2622
  C  C3291  1  0.409720  0.102580  0.719890  1.0  0.1787
  C  C3292  1  0.427420  0.099140  0.707500  1.0  -0.1418
  C  C3293  1  0.445230  0.110720  0.711380  1.0  -0.0531
  C  C3294  1  0.444860  0.124820  0.728100  1.0  -0.1417
  C  C3295  1  0.426860  0.127580  0.739070  1.0  0.1843
  C  C3296  1  0.397740  0.033380  0.595330  1.0  0.2672
  C  C3297  1  0.361480  0.013210  0.668430  1.0  0.1829
  C  C3298  1  0.362600  0.024620  0.686660  1.0  -0.1635
  C  C3299  1  0.377790  0.040070  0.688580  1.0  -0.0358
  C  C3300  1  0.392100  0.042490  0.672260  1.0  -0.1756
  C  C3301  1  0.390260  0.030010  0.654720  1.0  0.1885
  C  C3302  1  0.408680  0.058770  0.672820  1.0  0.3893
  C  C3303  1  0.425670  0.084610  0.689700  1.0  0.3109
  C  C3304  1  0.435110  0.075890  0.656840  1.0  0.4461
  C  C3305  1  0.462320  0.096010  0.638220  1.0  0.1979
  C  C3306  1  0.447790  0.079520  0.638150  1.0  -0.1758
  C  C3307  1  0.445890  0.067350  0.620400  1.0  -0.0494
  C  C3308  1  0.458910  0.071920  0.603580  1.0  -0.1492
  C  C3309  1  0.472540  0.088600  0.604890  1.0  0.164
  C  C3310  1  0.517630  0.083010  0.638620  1.0  0.1691
  C  C3311  1  0.529400  0.065400  0.638340  1.0  -0.185
  C  C3312  1  0.545300  0.063600  0.623330  1.0  -0.0544
  C  C3313  1  0.547830  0.079840  0.609240  1.0  -0.1605
  C  C3314  1  0.535020  0.097310  0.610850  1.0  0.1811
  C  C3315  1  0.564410  0.079080  0.593020  1.0  0.3967
  C  C3316  1  0.500590  0.126110  0.574780  1.0  0.2622
  C  C3317  1  0.909720  0.602580  0.719890  1.0  0.1787
  C  C3318  1  0.927420  0.599140  0.707500  1.0  -0.1418
  C  C3319  1  0.945230  0.610720  0.711380  1.0  -0.0531
  C  C3320  1  0.944860  0.624820  0.728100  1.0  -0.1417
  C  C3321  1  0.926860  0.627580  0.739070  1.0  0.1843
  C  C3322  1  0.897740  0.533380  0.595330  1.0  0.2672
  C  C3323  1  0.861480  0.513210  0.668430  1.0  0.1829
  C  C3324  1  0.862600  0.524620  0.686660  1.0  -0.1635
  C  C3325  1  0.877790  0.540070  0.688580  1.0  -0.0358
  C  C3326  1  0.892100  0.542490  0.672260  1.0  -0.1756
  C  C3327  1  0.890260  0.530010  0.654720  1.0  0.1885
  C  C3328  1  0.908680  0.558770  0.672820  1.0  0.3893
  C  C3329  1  0.925670  0.584610  0.689700  1.0  0.3109
  C  C3330  1  0.935110  0.575890  0.656840  1.0  0.4461
  C  C3331  1  0.962320  0.596010  0.638220  1.0  0.1979
  C  C3332  1  0.947790  0.579520  0.638150  1.0  -0.1758
  C  C3333  1  0.945890  0.567350  0.620400  1.0  -0.0494
  C  C3334  1  0.958910  0.571920  0.603580  1.0  -0.1492
  C  C3335  1  0.972540  0.588600  0.604890  1.0  0.164
  C  C3336  1  0.017630  0.583010  0.638620  1.0  0.1691
  C  C3337  1  0.029400  0.565400  0.638340  1.0  -0.185
  C  C3338  1  0.045300  0.563600  0.623330  1.0  -0.0544
  C  C3339  1  0.047830  0.579840  0.609240  1.0  -0.1605
  C  C3340  1  0.035020  0.597310  0.610850  1.0  0.1811
  C  C3341  1  0.064410  0.579080  0.593020  1.0  0.3967
  C  C3342  1  0.000590  0.626110  0.574780  1.0  0.2622
  C  C3343  1  0.909720  0.102580  0.219890  1.0  0.1787
  C  C3344  1  0.927420  0.099140  0.207500  1.0  -0.1418
  C  C3345  1  0.945230  0.110720  0.211380  1.0  -0.0531
  C  C3346  1  0.944860  0.124820  0.228100  1.0  -0.1417
  C  C3347  1  0.926860  0.127580  0.239070  1.0  0.1843
  C  C3348  1  0.897740  0.033380  0.095330  1.0  0.2672
  C  C3349  1  0.861480  0.013210  0.168430  1.0  0.1829
  C  C3350  1  0.862600  0.024620  0.186660  1.0  -0.1635
  C  C3351  1  0.877790  0.040070  0.188580  1.0  -0.0358
  C  C3352  1  0.892100  0.042490  0.172260  1.0  -0.1756
  C  C3353  1  0.890260  0.030010  0.154720  1.0  0.1885
  C  C3354  1  0.908680  0.058770  0.172820  1.0  0.3893
  C  C3355  1  0.925670  0.084610  0.189700  1.0  0.3109
  C  C3356  1  0.935110  0.075890  0.156840  1.0  0.4461
  C  C3357  1  0.962320  0.096010  0.138220  1.0  0.1979
  C  C3358  1  0.947790  0.079520  0.138150  1.0  -0.1758
  C  C3359  1  0.945890  0.067350  0.120400  1.0  -0.0494
  C  C3360  1  0.958910  0.071920  0.103580  1.0  -0.1492
  C  C3361  1  0.972540  0.088600  0.104890  1.0  0.164
  C  C3362  1  0.017630  0.083010  0.138620  1.0  0.1691
  C  C3363  1  0.029400  0.065400  0.138340  1.0  -0.185
  C  C3364  1  0.045300  0.063600  0.123330  1.0  -0.0544
  C  C3365  1  0.047830  0.079840  0.109240  1.0  -0.1605
  C  C3366  1  0.035020  0.097310  0.110850  1.0  0.1811
  C  C3367  1  0.064410  0.079080  0.093020  1.0  0.3967
  C  C3368  1  0.000590  0.126110  0.074780  1.0  0.2622
  C  C3369  1  0.840280  0.147420  0.719890  1.0  0.18
  C  C3370  1  0.822580  0.150860  0.707500  1.0  -0.1401
  C  C3371  1  0.804770  0.139280  0.711380  1.0  -0.054
  C  C3372  1  0.805140  0.125180  0.728100  1.0  -0.1415
  C  C3373  1  0.823140  0.122420  0.739070  1.0  0.1835
  C  C3374  1  0.852260  0.216620  0.595330  1.0  0.2701
  C  C3375  1  0.888520  0.236790  0.668430  1.0  0.183
  C  C3376  1  0.887400  0.225380  0.686660  1.0  -0.1613
  C  C3377  1  0.872210  0.209930  0.688580  1.0  -0.0361
  C  C3378  1  0.857900  0.207510  0.672260  1.0  -0.1738
  C  C3379  1  0.859740  0.219990  0.654720  1.0  0.188
  C  C3380  1  0.841320  0.191230  0.672820  1.0  0.3893
  C  C3381  1  0.824330  0.165390  0.689700  1.0  0.3112
  C  C3382  1  0.814890  0.174110  0.656840  1.0  0.4457
  C  C3383  1  0.787680  0.153990  0.638220  1.0  0.1969
  C  C3384  1  0.802210  0.170480  0.638150  1.0  -0.1761
  C  C3385  1  0.804110  0.182650  0.620400  1.0  -0.0499
  C  C3386  1  0.791090  0.178080  0.603580  1.0  -0.151
  C  C3387  1  0.777460  0.161400  0.604890  1.0  0.1644
  C  C3388  1  0.732370  0.166990  0.638620  1.0  0.1683
  C  C3389  1  0.720600  0.184600  0.638340  1.0  -0.181
  C  C3390  1  0.704700  0.186400  0.623330  1.0  -0.0536
  C  C3391  1  0.702170  0.170160  0.609240  1.0  -0.161
  C  C3392  1  0.714980  0.152690  0.610850  1.0  0.1808
  C  C3393  1  0.685590  0.170920  0.593020  1.0  0.397
  C  C3394  1  0.749410  0.123890  0.574780  1.0  0.2627
  C  C3395  1  0.840280  0.647420  0.219890  1.0  0.18
  C  C3396  1  0.822580  0.650860  0.207500  1.0  -0.1401
  C  C3397  1  0.804770  0.639280  0.211380  1.0  -0.054
  C  C3398  1  0.805140  0.625180  0.228100  1.0  -0.1415
  C  C3399  1  0.823140  0.622420  0.239070  1.0  0.1835
  C  C3400  1  0.852260  0.716620  0.095330  1.0  0.2701
  C  C3401  1  0.888520  0.736790  0.168430  1.0  0.183
  C  C3402  1  0.887400  0.725380  0.186660  1.0  -0.1613
  C  C3403  1  0.872210  0.709930  0.188580  1.0  -0.0361
  C  C3404  1  0.857900  0.707510  0.172260  1.0  -0.1738
  C  C3405  1  0.859740  0.719990  0.154720  1.0  0.188
  C  C3406  1  0.841320  0.691230  0.172820  1.0  0.3893
  C  C3407  1  0.824330  0.665390  0.189700  1.0  0.3112
  C  C3408  1  0.814890  0.674110  0.156840  1.0  0.4457
  C  C3409  1  0.787680  0.653990  0.138220  1.0  0.1969
  C  C3410  1  0.802210  0.670480  0.138150  1.0  -0.1761
  C  C3411  1  0.804110  0.682650  0.120400  1.0  -0.0499
  C  C3412  1  0.791090  0.678080  0.103580  1.0  -0.151
  C  C3413  1  0.777460  0.661400  0.104890  1.0  0.1644
  C  C3414  1  0.732370  0.666990  0.138620  1.0  0.1683
  C  C3415  1  0.720600  0.684600  0.138340  1.0  -0.181
  C  C3416  1  0.704700  0.686400  0.123330  1.0  -0.0536
  C  C3417  1  0.702170  0.670160  0.109240  1.0  -0.161
  C  C3418  1  0.714980  0.652690  0.110850  1.0  0.1808
  C  C3419  1  0.685590  0.670920  0.093020  1.0  0.397
  C  C3420  1  0.749410  0.623890  0.074780  1.0  0.2627
  C  C3421  1  0.340280  0.147420  0.219890  1.0  0.18
  C  C3422  1  0.322580  0.150860  0.207500  1.0  -0.1401
  C  C3423  1  0.304770  0.139280  0.211380  1.0  -0.054
  C  C3424  1  0.305140  0.125180  0.228100  1.0  -0.1415
  C  C3425  1  0.323140  0.122420  0.239070  1.0  0.1835
  C  C3426  1  0.352260  0.216620  0.095330  1.0  0.2701
  C  C3427  1  0.388520  0.236790  0.168430  1.0  0.183
  C  C3428  1  0.387400  0.225380  0.186660  1.0  -0.1613
  C  C3429  1  0.372210  0.209930  0.188580  1.0  -0.0361
  C  C3430  1  0.357900  0.207510  0.172260  1.0  -0.1738
  C  C3431  1  0.359740  0.219990  0.154720  1.0  0.188
  C  C3432  1  0.341320  0.191230  0.172820  1.0  0.3893
  C  C3433  1  0.324330  0.165390  0.189700  1.0  0.3112
  C  C3434  1  0.314890  0.174110  0.156840  1.0  0.4457
  C  C3435  1  0.287680  0.153990  0.138220  1.0  0.1969
  C  C3436  1  0.302210  0.170480  0.138150  1.0  -0.1761
  C  C3437  1  0.304110  0.182650  0.120400  1.0  -0.0499
  C  C3438  1  0.291090  0.178080  0.103580  1.0  -0.151
  C  C3439  1  0.277460  0.161400  0.104890  1.0  0.1644
  C  C3440  1  0.232370  0.166990  0.138620  1.0  0.1683
  C  C3441  1  0.220600  0.184600  0.138340  1.0  -0.181
  C  C3442  1  0.204700  0.186400  0.123330  1.0  -0.0536
  C  C3443  1  0.202170  0.170160  0.109240  1.0  -0.161
  C  C3444  1  0.214980  0.152690  0.110850  1.0  0.1808
  C  C3445  1  0.185590  0.170920  0.093020  1.0  0.397
  C  C3446  1  0.249410  0.123890  0.074780  1.0  0.2627
  C  C3447  1  0.340280  0.647420  0.719890  1.0  0.18
  C  C3448  1  0.322580  0.650860  0.707500  1.0  -0.1401
  C  C3449  1  0.304770  0.639280  0.711380  1.0  -0.054
  C  C3450  1  0.305140  0.625180  0.728100  1.0  -0.1415
  C  C3451  1  0.323140  0.622420  0.739070  1.0  0.1835
  C  C3452  1  0.352260  0.716620  0.595330  1.0  0.2701
  C  C3453  1  0.388520  0.736790  0.668430  1.0  0.183
  C  C3454  1  0.387400  0.725380  0.686660  1.0  -0.1613
  C  C3455  1  0.372210  0.709930  0.688580  1.0  -0.0361
  C  C3456  1  0.357900  0.707510  0.672260  1.0  -0.1738
  C  C3457  1  0.359740  0.719990  0.654720  1.0  0.188
  C  C3458  1  0.341320  0.691230  0.672820  1.0  0.3893
  C  C3459  1  0.324330  0.665390  0.689700  1.0  0.3112
  C  C3460  1  0.314890  0.674110  0.656840  1.0  0.4457
  C  C3461  1  0.287680  0.653990  0.638220  1.0  0.1969
  C  C3462  1  0.302210  0.670480  0.638150  1.0  -0.1761
  C  C3463  1  0.304110  0.682650  0.620400  1.0  -0.0499
  C  C3464  1  0.291090  0.678080  0.603580  1.0  -0.151
  C  C3465  1  0.277460  0.661400  0.604890  1.0  0.1644
  C  C3466  1  0.232370  0.666990  0.638620  1.0  0.1683
  C  C3467  1  0.220600  0.684600  0.638340  1.0  -0.181
  C  C3468  1  0.204700  0.686400  0.623330  1.0  -0.0536
  C  C3469  1  0.202170  0.670160  0.609240  1.0  -0.161
  C  C3470  1  0.214980  0.652690  0.610850  1.0  0.1808
  C  C3471  1  0.185590  0.670920  0.593020  1.0  0.397
  C  C3472  1  0.249410  0.623890  0.574780  1.0  0.2627
  C  C3473  1  0.340280  0.102580  0.030110  1.0  0.1785
  C  C3474  1  0.322580  0.099140  0.042500  1.0  -0.1411
  C  C3475  1  0.304770  0.110720  0.038620  1.0  -0.0537
  C  C3476  1  0.305140  0.124820  0.021900  1.0  -0.1424
  C  C3477  1  0.323140  0.127580  0.010930  1.0  0.183
  C  C3478  1  0.352260  0.033380  0.154670  1.0  0.2693
  C  C3479  1  0.388520  0.013210  0.081570  1.0  0.1822
  C  C3480  1  0.387400  0.024620  0.063340  1.0  -0.1605
  C  C3481  1  0.372210  0.040070  0.061420  1.0  -0.0375
  C  C3482  1  0.357900  0.042490  0.077740  1.0  -0.1741
  C  C3483  1  0.359740  0.030010  0.095280  1.0  0.1891
  C  C3484  1  0.341320  0.058770  0.077180  1.0  0.389
  C  C3485  1  0.324330  0.084610  0.060300  1.0  0.3112
  C  C3486  1  0.314890  0.075890  0.093160  1.0  0.4456
  C  C3487  1  0.287680  0.096010  0.111780  1.0  0.1976
  C  C3488  1  0.302210  0.079520  0.111850  1.0  -0.1754
  C  C3489  1  0.304110  0.067350  0.129600  1.0  -0.05
  C  C3490  1  0.291090  0.071920  0.146420  1.0  -0.1498
  C  C3491  1  0.277460  0.088600  0.145110  1.0  0.1617
  C  C3492  1  0.232370  0.083010  0.111380  1.0  0.1685
  C  C3493  1  0.220600  0.065400  0.111660  1.0  -0.182
  C  C3494  1  0.204700  0.063600  0.126670  1.0  -0.0551
  C  C3495  1  0.202170  0.079840  0.140760  1.0  -0.1606
  C  C3496  1  0.214980  0.097310  0.139150  1.0  0.1801
  C  C3497  1  0.185590  0.079080  0.156980  1.0  0.3968
  C  C3498  1  0.249410  0.126110  0.175220  1.0  0.258
  C  C3499  1  0.340280  0.602580  0.530110  1.0  0.1785
  C  C3500  1  0.322580  0.599140  0.542500  1.0  -0.1411
  C  C3501  1  0.304770  0.610720  0.538620  1.0  -0.0537
  C  C3502  1  0.305140  0.624820  0.521900  1.0  -0.1424
  C  C3503  1  0.323140  0.627580  0.510930  1.0  0.183
  C  C3504  1  0.352260  0.533380  0.654670  1.0  0.2693
  C  C3505  1  0.388520  0.513210  0.581570  1.0  0.1822
  C  C3506  1  0.387400  0.524620  0.563340  1.0  -0.1605
  C  C3507  1  0.372210  0.540070  0.561420  1.0  -0.0375
  C  C3508  1  0.357900  0.542490  0.577740  1.0  -0.1741
  C  C3509  1  0.359740  0.530010  0.595280  1.0  0.1891
  C  C3510  1  0.341320  0.558770  0.577180  1.0  0.389
  C  C3511  1  0.324330  0.584610  0.560300  1.0  0.3112
  C  C3512  1  0.314890  0.575890  0.593160  1.0  0.4456
  C  C3513  1  0.287680  0.596010  0.611780  1.0  0.1976
  C  C3514  1  0.302210  0.579520  0.611850  1.0  -0.1754
  C  C3515  1  0.304110  0.567350  0.629600  1.0  -0.05
  C  C3516  1  0.291090  0.571920  0.646420  1.0  -0.1498
  C  C3517  1  0.277460  0.588600  0.645110  1.0  0.1617
  C  C3518  1  0.232370  0.583010  0.611380  1.0  0.1685
  C  C3519  1  0.220600  0.565400  0.611660  1.0  -0.182
  C  C3520  1  0.204700  0.563600  0.626670  1.0  -0.0551
  C  C3521  1  0.202170  0.579840  0.640760  1.0  -0.1606
  C  C3522  1  0.214980  0.597310  0.639150  1.0  0.1801
  C  C3523  1  0.185590  0.579080  0.656980  1.0  0.3968
  C  C3524  1  0.249410  0.626110  0.675220  1.0  0.258
  C  C3525  1  0.840280  0.102580  0.530110  1.0  0.1785
  C  C3526  1  0.822580  0.099140  0.542500  1.0  -0.1411
  C  C3527  1  0.804770  0.110720  0.538620  1.0  -0.0537
  C  C3528  1  0.805140  0.124820  0.521900  1.0  -0.1424
  C  C3529  1  0.823140  0.127580  0.510930  1.0  0.183
  C  C3530  1  0.852260  0.033380  0.654670  1.0  0.2693
  C  C3531  1  0.888520  0.013210  0.581570  1.0  0.1822
  C  C3532  1  0.887400  0.024620  0.563340  1.0  -0.1605
  C  C3533  1  0.872210  0.040070  0.561420  1.0  -0.0375
  C  C3534  1  0.857900  0.042490  0.577740  1.0  -0.1741
  C  C3535  1  0.859740  0.030010  0.595280  1.0  0.1891
  C  C3536  1  0.841320  0.058770  0.577180  1.0  0.389
  C  C3537  1  0.824330  0.084610  0.560300  1.0  0.3112
  C  C3538  1  0.814890  0.075890  0.593160  1.0  0.4456
  C  C3539  1  0.787680  0.096010  0.611780  1.0  0.1976
  C  C3540  1  0.802210  0.079520  0.611850  1.0  -0.1754
  C  C3541  1  0.804110  0.067350  0.629600  1.0  -0.05
  C  C3542  1  0.791090  0.071920  0.646420  1.0  -0.1498
  C  C3543  1  0.777460  0.088600  0.645110  1.0  0.1617
  C  C3544  1  0.732370  0.083010  0.611380  1.0  0.1685
  C  C3545  1  0.720600  0.065400  0.611660  1.0  -0.182
  C  C3546  1  0.704700  0.063600  0.626670  1.0  -0.0551
  C  C3547  1  0.702170  0.079840  0.640760  1.0  -0.1606
  C  C3548  1  0.714980  0.097310  0.639150  1.0  0.1801
  C  C3549  1  0.685590  0.079080  0.656980  1.0  0.3968
  C  C3550  1  0.749410  0.126110  0.675220  1.0  0.258
  C  C3551  1  0.840280  0.602580  0.030110  1.0  0.1785
  C  C3552  1  0.822580  0.599140  0.042500  1.0  -0.1411
  C  C3553  1  0.804770  0.610720  0.038620  1.0  -0.0537
  C  C3554  1  0.805140  0.624820  0.021900  1.0  -0.1424
  C  C3555  1  0.823140  0.627580  0.010930  1.0  0.183
  C  C3556  1  0.852260  0.533380  0.154670  1.0  0.2693
  C  C3557  1  0.888520  0.513210  0.081570  1.0  0.1822
  C  C3558  1  0.887400  0.524620  0.063340  1.0  -0.1605
  C  C3559  1  0.872210  0.540070  0.061420  1.0  -0.0375
  C  C3560  1  0.857900  0.542490  0.077740  1.0  -0.1741
  C  C3561  1  0.859740  0.530010  0.095280  1.0  0.1891
  C  C3562  1  0.841320  0.558770  0.077180  1.0  0.389
  C  C3563  1  0.824330  0.584610  0.060300  1.0  0.3112
  C  C3564  1  0.814890  0.575890  0.093160  1.0  0.4456
  C  C3565  1  0.787680  0.596010  0.111780  1.0  0.1976
  C  C3566  1  0.802210  0.579520  0.111850  1.0  -0.1754
  C  C3567  1  0.804110  0.567350  0.129600  1.0  -0.05
  C  C3568  1  0.791090  0.571920  0.146420  1.0  -0.1498
  C  C3569  1  0.777460  0.588600  0.145110  1.0  0.1617
  C  C3570  1  0.732370  0.583010  0.111380  1.0  0.1685
  C  C3571  1  0.720600  0.565400  0.111660  1.0  -0.182
  C  C3572  1  0.704700  0.563600  0.126670  1.0  -0.0551
  C  C3573  1  0.702170  0.579840  0.140760  1.0  -0.1606
  C  C3574  1  0.714980  0.597310  0.139150  1.0  0.1801
  C  C3575  1  0.685590  0.579080  0.156980  1.0  0.3968
  C  C3576  1  0.749410  0.626110  0.175220  1.0  0.258
  C  C3577  1  0.909720  0.647420  0.530110  1.0  0.1793
  C  C3578  1  0.927420  0.650860  0.542500  1.0  -0.1417
  C  C3579  1  0.945230  0.639280  0.538620  1.0  -0.0523
  C  C3580  1  0.944860  0.625180  0.521900  1.0  -0.1419
  C  C3581  1  0.926860  0.622420  0.510930  1.0  0.1843
  C  C3582  1  0.897740  0.716620  0.654670  1.0  0.269
  C  C3583  1  0.861480  0.736790  0.581570  1.0  0.183
  C  C3584  1  0.862600  0.725380  0.563340  1.0  -0.1617
  C  C3585  1  0.877790  0.709930  0.561420  1.0  -0.0365
  C  C3586  1  0.892100  0.707510  0.577740  1.0  -0.1754
  C  C3587  1  0.890260  0.719990  0.595280  1.0  0.1889
  C  C3588  1  0.908680  0.691230  0.577180  1.0  0.3895
  C  C3589  1  0.925670  0.665390  0.560300  1.0  0.3106
  C  C3590  1  0.935110  0.674110  0.593160  1.0  0.4466
  C  C3591  1  0.962320  0.653990  0.611780  1.0  0.1977
  C  C3592  1  0.947790  0.670480  0.611850  1.0  -0.1763
  C  C3593  1  0.945890  0.682650  0.629600  1.0  -0.0505
  C  C3594  1  0.958910  0.678080  0.646420  1.0  -0.1512
  C  C3595  1  0.972540  0.661400  0.645110  1.0  0.1618
  C  C3596  1  0.017630  0.666990  0.611380  1.0  0.1693
  C  C3597  1  0.029400  0.684600  0.611660  1.0  -0.1823
  C  C3598  1  0.045300  0.686400  0.626670  1.0  -0.0531
  C  C3599  1  0.047830  0.670160  0.640760  1.0  -0.1615
  C  C3600  1  0.035020  0.652690  0.639150  1.0  0.1823
  C  C3601  1  0.064410  0.670920  0.656980  1.0  0.3967
  C  C3602  1  0.000590  0.623890  0.675220  1.0  0.2574
  C  C3603  1  0.909720  0.147420  0.030110  1.0  0.1793
  C  C3604  1  0.927420  0.150860  0.042500  1.0  -0.1417
  C  C3605  1  0.945230  0.139280  0.038620  1.0  -0.0523
  C  C3606  1  0.944860  0.125180  0.021900  1.0  -0.1419
  C  C3607  1  0.926860  0.122420  0.010930  1.0  0.1843
  C  C3608  1  0.897740  0.216620  0.154670  1.0  0.269
  C  C3609  1  0.861480  0.236790  0.081570  1.0  0.183
  C  C3610  1  0.862600  0.225380  0.063340  1.0  -0.1617
  C  C3611  1  0.877790  0.209930  0.061420  1.0  -0.0365
  C  C3612  1  0.892100  0.207510  0.077740  1.0  -0.1754
  C  C3613  1  0.890260  0.219990  0.095280  1.0  0.1889
  C  C3614  1  0.908680  0.191230  0.077180  1.0  0.3895
  C  C3615  1  0.925670  0.165390  0.060300  1.0  0.3106
  C  C3616  1  0.935110  0.174110  0.093160  1.0  0.4466
  C  C3617  1  0.962320  0.153990  0.111780  1.0  0.1977
  C  C3618  1  0.947790  0.170480  0.111850  1.0  -0.1763
  C  C3619  1  0.945890  0.182650  0.129600  1.0  -0.0505
  C  C3620  1  0.958910  0.178080  0.146420  1.0  -0.1512
  C  C3621  1  0.972540  0.161400  0.145110  1.0  0.1618
  C  C3622  1  0.017630  0.166990  0.111380  1.0  0.1693
  C  C3623  1  0.029400  0.184600  0.111660  1.0  -0.1823
  C  C3624  1  0.045300  0.186400  0.126670  1.0  -0.0531
  C  C3625  1  0.047830  0.170160  0.140760  1.0  -0.1615
  C  C3626  1  0.035020  0.152690  0.139150  1.0  0.1823
  C  C3627  1  0.064410  0.170920  0.156980  1.0  0.3967
  C  C3628  1  0.000590  0.123890  0.175220  1.0  0.2574
  C  C3629  1  0.409720  0.647420  0.030110  1.0  0.1793
  C  C3630  1  0.427420  0.650860  0.042500  1.0  -0.1417
  C  C3631  1  0.445230  0.639280  0.038620  1.0  -0.0523
  C  C3632  1  0.444860  0.625180  0.021900  1.0  -0.1419
  C  C3633  1  0.426860  0.622420  0.010930  1.0  0.1843
  C  C3634  1  0.397740  0.716620  0.154670  1.0  0.269
  C  C3635  1  0.361480  0.736790  0.081570  1.0  0.183
  C  C3636  1  0.362600  0.725380  0.063340  1.0  -0.1617
  C  C3637  1  0.377790  0.709930  0.061420  1.0  -0.0365
  C  C3638  1  0.392100  0.707510  0.077740  1.0  -0.1754
  C  C3639  1  0.390260  0.719990  0.095280  1.0  0.1889
  C  C3640  1  0.408680  0.691230  0.077180  1.0  0.3895
  C  C3641  1  0.425670  0.665390  0.060300  1.0  0.3106
  C  C3642  1  0.435110  0.674110  0.093160  1.0  0.4466
  C  C3643  1  0.462320  0.653990  0.111780  1.0  0.1977
  C  C3644  1  0.447790  0.670480  0.111850  1.0  -0.1763
  C  C3645  1  0.445890  0.682650  0.129600  1.0  -0.0505
  C  C3646  1  0.458910  0.678080  0.146420  1.0  -0.1512
  C  C3647  1  0.472540  0.661400  0.145110  1.0  0.1618
  C  C3648  1  0.517630  0.666990  0.111380  1.0  0.1693
  C  C3649  1  0.529400  0.684600  0.111660  1.0  -0.1823
  C  C3650  1  0.545300  0.686400  0.126670  1.0  -0.0531
  C  C3651  1  0.547830  0.670160  0.140760  1.0  -0.1615
  C  C3652  1  0.535020  0.652690  0.139150  1.0  0.1823
  C  C3653  1  0.564410  0.670920  0.156980  1.0  0.3967
  C  C3654  1  0.500590  0.623890  0.175220  1.0  0.2574
  C  C3655  1  0.409720  0.147420  0.530110  1.0  0.1793
  C  C3656  1  0.427420  0.150860  0.542500  1.0  -0.1417
  C  C3657  1  0.445230  0.139280  0.538620  1.0  -0.0523
  C  C3658  1  0.444860  0.125180  0.521900  1.0  -0.1419
  C  C3659  1  0.426860  0.122420  0.510930  1.0  0.1843
  C  C3660  1  0.397740  0.216620  0.654670  1.0  0.269
  C  C3661  1  0.361480  0.236790  0.581570  1.0  0.183
  C  C3662  1  0.362600  0.225380  0.563340  1.0  -0.1617
  C  C3663  1  0.377790  0.209930  0.561420  1.0  -0.0365
  C  C3664  1  0.392100  0.207510  0.577740  1.0  -0.1754
  C  C3665  1  0.390260  0.219990  0.595280  1.0  0.1889
  C  C3666  1  0.408680  0.191230  0.577180  1.0  0.3895
  C  C3667  1  0.425670  0.165390  0.560300  1.0  0.3106
  C  C3668  1  0.435110  0.174110  0.593160  1.0  0.4466
  C  C3669  1  0.462320  0.153990  0.611780  1.0  0.1977
  C  C3670  1  0.447790  0.170480  0.611850  1.0  -0.1763
  C  C3671  1  0.445890  0.182650  0.629600  1.0  -0.0505
  C  C3672  1  0.458910  0.178080  0.646420  1.0  -0.1512
  C  C3673  1  0.472540  0.161400  0.645110  1.0  0.1618
  C  C3674  1  0.517630  0.166990  0.611380  1.0  0.1693
  C  C3675  1  0.529400  0.184600  0.611660  1.0  -0.1823
  C  C3676  1  0.545300  0.186400  0.626670  1.0  -0.0531
  C  C3677  1  0.547830  0.170160  0.640760  1.0  -0.1615
  C  C3678  1  0.535020  0.152690  0.639150  1.0  0.1823
  C  C3679  1  0.564410  0.170920  0.656980  1.0  0.3967
  C  C3680  1  0.500590  0.123890  0.675220  1.0  0.2574
  C  C3681  1  0.219890  0.409720  0.602580  1.0  0.18
  C  C3682  1  0.207500  0.427420  0.599140  1.0  -0.1401
  C  C3683  1  0.211380  0.445230  0.610720  1.0  -0.0578
  C  C3684  1  0.228100  0.444860  0.624820  1.0  -0.143
  C  C3685  1  0.239070  0.426860  0.627580  1.0  0.1816
  C  C3686  1  0.095330  0.397740  0.533380  1.0  0.267
  C  C3687  1  0.168430  0.361480  0.513210  1.0  0.1891
  C  C3688  1  0.186660  0.362600  0.524620  1.0  -0.1645
  C  C3689  1  0.188580  0.377790  0.540070  1.0  -0.0363
  C  C3690  1  0.172260  0.392100  0.542490  1.0  -0.1773
  C  C3691  1  0.154720  0.390260  0.530010  1.0  0.1879
  C  C3692  1  0.172820  0.408680  0.558770  1.0  0.3893
  C  C3693  1  0.189700  0.425670  0.584610  1.0  0.3111
  C  C3694  1  0.156840  0.435110  0.575890  1.0  0.4454
  C  C3695  1  0.138220  0.462320  0.596010  1.0  0.2003
  C  C3696  1  0.138150  0.447790  0.579520  1.0  -0.1741
  C  C3697  1  0.120400  0.445890  0.567350  1.0  -0.0489
  C  C3698  1  0.103580  0.458910  0.571920  1.0  -0.1522
  C  C3699  1  0.104890  0.472540  0.588600  1.0  0.1686
  C  C3700  1  0.138620  0.517630  0.583010  1.0  0.1692
  C  C3701  1  0.138340  0.529400  0.565400  1.0  -0.177
  C  C3702  1  0.123330  0.545300  0.563600  1.0  -0.0557
  C  C3703  1  0.109240  0.547830  0.579840  1.0  -0.1578
  C  C3704  1  0.110850  0.535020  0.597310  1.0  0.1853
  C  C3705  1  0.093020  0.564410  0.579080  1.0  0.3973
  C  C3706  1  0.074780  0.500590  0.626110  1.0  0.2705
  C  C3707  1  0.219890  0.909720  0.102580  1.0  0.18
  C  C3708  1  0.207500  0.927420  0.099140  1.0  -0.1401
  C  C3709  1  0.211380  0.945230  0.110720  1.0  -0.0578
  C  C3710  1  0.228100  0.944860  0.124820  1.0  -0.143
  C  C3711  1  0.239070  0.926860  0.127580  1.0  0.1816
  C  C3712  1  0.095330  0.897740  0.033380  1.0  0.267
  C  C3713  1  0.168430  0.861480  0.013210  1.0  0.1891
  C  C3714  1  0.186660  0.862600  0.024620  1.0  -0.1645
  C  C3715  1  0.188580  0.877790  0.040070  1.0  -0.0363
  C  C3716  1  0.172260  0.892100  0.042490  1.0  -0.1773
  C  C3717  1  0.154720  0.890260  0.030010  1.0  0.1879
  C  C3718  1  0.172820  0.908680  0.058770  1.0  0.3893
  C  C3719  1  0.189700  0.925670  0.084610  1.0  0.3111
  C  C3720  1  0.156840  0.935110  0.075890  1.0  0.4454
  C  C3721  1  0.138220  0.962320  0.096010  1.0  0.2003
  C  C3722  1  0.138150  0.947790  0.079520  1.0  -0.1741
  C  C3723  1  0.120400  0.945890  0.067350  1.0  -0.0489
  C  C3724  1  0.103580  0.958910  0.071920  1.0  -0.1522
  C  C3725  1  0.104890  0.972540  0.088600  1.0  0.1686
  C  C3726  1  0.138620  0.017630  0.083010  1.0  0.1692
  C  C3727  1  0.138340  0.029400  0.065400  1.0  -0.177
  C  C3728  1  0.123330  0.045300  0.063600  1.0  -0.0557
  C  C3729  1  0.109240  0.047830  0.079840  1.0  -0.1578
  C  C3730  1  0.110850  0.035020  0.097310  1.0  0.1853
  C  C3731  1  0.093020  0.064410  0.079080  1.0  0.3973
  C  C3732  1  0.074780  0.000590  0.126110  1.0  0.2705
  C  C3733  1  0.719890  0.409720  0.102580  1.0  0.18
  C  C3734  1  0.707500  0.427420  0.099140  1.0  -0.1401
  C  C3735  1  0.711380  0.445230  0.110720  1.0  -0.0578
  C  C3736  1  0.728100  0.444860  0.124820  1.0  -0.143
  C  C3737  1  0.739070  0.426860  0.127580  1.0  0.1816
  C  C3738  1  0.595330  0.397740  0.033380  1.0  0.267
  C  C3739  1  0.668430  0.361480  0.013210  1.0  0.1891
  C  C3740  1  0.686660  0.362600  0.024620  1.0  -0.1645
  C  C3741  1  0.688580  0.377790  0.040070  1.0  -0.0363
  C  C3742  1  0.672260  0.392100  0.042490  1.0  -0.1773
  C  C3743  1  0.654720  0.390260  0.030010  1.0  0.1879
  C  C3744  1  0.672820  0.408680  0.058770  1.0  0.3893
  C  C3745  1  0.689700  0.425670  0.084610  1.0  0.3111
  C  C3746  1  0.656840  0.435110  0.075890  1.0  0.4454
  C  C3747  1  0.638220  0.462320  0.096010  1.0  0.2003
  C  C3748  1  0.638150  0.447790  0.079520  1.0  -0.1741
  C  C3749  1  0.620400  0.445890  0.067350  1.0  -0.0489
  C  C3750  1  0.603580  0.458910  0.071920  1.0  -0.1522
  C  C3751  1  0.604890  0.472540  0.088600  1.0  0.1686
  C  C3752  1  0.638620  0.517630  0.083010  1.0  0.1692
  C  C3753  1  0.638340  0.529400  0.065400  1.0  -0.177
  C  C3754  1  0.623330  0.545300  0.063600  1.0  -0.0557
  C  C3755  1  0.609240  0.547830  0.079840  1.0  -0.1578
  C  C3756  1  0.610850  0.535020  0.097310  1.0  0.1853
  C  C3757  1  0.593020  0.564410  0.079080  1.0  0.3973
  C  C3758  1  0.574780  0.500590  0.126110  1.0  0.2705
  C  C3759  1  0.719890  0.909720  0.602580  1.0  0.18
  C  C3760  1  0.707500  0.927420  0.599140  1.0  -0.1401
  C  C3761  1  0.711380  0.945230  0.610720  1.0  -0.0578
  C  C3762  1  0.728100  0.944860  0.624820  1.0  -0.143
  C  C3763  1  0.739070  0.926860  0.627580  1.0  0.1816
  C  C3764  1  0.595330  0.897740  0.533380  1.0  0.267
  C  C3765  1  0.668430  0.861480  0.513210  1.0  0.1891
  C  C3766  1  0.686660  0.862600  0.524620  1.0  -0.1645
  C  C3767  1  0.688580  0.877790  0.540070  1.0  -0.0363
  C  C3768  1  0.672260  0.892100  0.542490  1.0  -0.1773
  C  C3769  1  0.654720  0.890260  0.530010  1.0  0.1879
  C  C3770  1  0.672820  0.908680  0.558770  1.0  0.3893
  C  C3771  1  0.689700  0.925670  0.584610  1.0  0.3111
  C  C3772  1  0.656840  0.935110  0.575890  1.0  0.4454
  C  C3773  1  0.638220  0.962320  0.596010  1.0  0.2003
  C  C3774  1  0.638150  0.947790  0.579520  1.0  -0.1741
  C  C3775  1  0.620400  0.945890  0.567350  1.0  -0.0489
  C  C3776  1  0.603580  0.958910  0.571920  1.0  -0.1522
  C  C3777  1  0.604890  0.972540  0.588600  1.0  0.1686
  C  C3778  1  0.638620  0.017630  0.583010  1.0  0.1692
  C  C3779  1  0.638340  0.029400  0.565400  1.0  -0.177
  C  C3780  1  0.623330  0.045300  0.563600  1.0  -0.0557
  C  C3781  1  0.609240  0.047830  0.579840  1.0  -0.1578
  C  C3782  1  0.610850  0.035020  0.597310  1.0  0.1853
  C  C3783  1  0.593020  0.064410  0.579080  1.0  0.3973
  C  C3784  1  0.574780  0.000590  0.626110  1.0  0.2705
  C  C3785  1  0.719890  0.840280  0.147420  1.0  0.1794
  C  C3786  1  0.707500  0.822580  0.150860  1.0  -0.1414
  C  C3787  1  0.711380  0.804770  0.139280  1.0  -0.0569
  C  C3788  1  0.728100  0.805140  0.125180  1.0  -0.1436
  C  C3789  1  0.739070  0.823140  0.122420  1.0  0.1824
  C  C3790  1  0.595330  0.852260  0.216620  1.0  0.2698
  C  C3791  1  0.668430  0.888520  0.236790  1.0  0.1894
  C  C3792  1  0.686660  0.887400  0.225380  1.0  -0.165
  C  C3793  1  0.688580  0.872210  0.209930  1.0  -0.0361
  C  C3794  1  0.672260  0.857900  0.207510  1.0  -0.177
  C  C3795  1  0.654720  0.859740  0.219990  1.0  0.188
  C  C3796  1  0.672820  0.841320  0.191230  1.0  0.3893
  C  C3797  1  0.689700  0.824330  0.165390  1.0  0.3111
  C  C3798  1  0.656840  0.814890  0.174110  1.0  0.4459
  C  C3799  1  0.638220  0.787680  0.153990  1.0  0.1997
  C  C3800  1  0.638150  0.802210  0.170480  1.0  -0.174
  C  C3801  1  0.620400  0.804110  0.182650  1.0  -0.0486
  C  C3802  1  0.603580  0.791090  0.178080  1.0  -0.1541
  C  C3803  1  0.604890  0.777460  0.161400  1.0  0.1672
  C  C3804  1  0.638620  0.732370  0.166990  1.0  0.1705
  C  C3805  1  0.638340  0.720600  0.184600  1.0  -0.1787
  C  C3806  1  0.623330  0.704700  0.186400  1.0  -0.0543
  C  C3807  1  0.609240  0.702170  0.170160  1.0  -0.1584
  C  C3808  1  0.610850  0.714980  0.152690  1.0  0.1854
  C  C3809  1  0.593020  0.685590  0.170920  1.0  0.397
  C  C3810  1  0.574780  0.749410  0.123890  1.0  0.2703
  C  C3811  1  0.719890  0.340280  0.647420  1.0  0.1794
  C  C3812  1  0.707500  0.322580  0.650860  1.0  -0.1414
  C  C3813  1  0.711380  0.304770  0.639280  1.0  -0.0569
  C  C3814  1  0.728100  0.305140  0.625180  1.0  -0.1436
  C  C3815  1  0.739070  0.323140  0.622420  1.0  0.1824
  C  C3816  1  0.595330  0.352260  0.716620  1.0  0.2698
  C  C3817  1  0.668430  0.388520  0.736790  1.0  0.1894
  C  C3818  1  0.686660  0.387400  0.725380  1.0  -0.165
  C  C3819  1  0.688580  0.372210  0.709930  1.0  -0.0361
  C  C3820  1  0.672260  0.357900  0.707510  1.0  -0.177
  C  C3821  1  0.654720  0.359740  0.719990  1.0  0.188
  C  C3822  1  0.672820  0.341320  0.691230  1.0  0.3893
  C  C3823  1  0.689700  0.324330  0.665390  1.0  0.3111
  C  C3824  1  0.656840  0.314890  0.674110  1.0  0.4459
  C  C3825  1  0.638220  0.287680  0.653990  1.0  0.1997
  C  C3826  1  0.638150  0.302210  0.670480  1.0  -0.174
  C  C3827  1  0.620400  0.304110  0.682650  1.0  -0.0486
  C  C3828  1  0.603580  0.291090  0.678080  1.0  -0.1541
  C  C3829  1  0.604890  0.277460  0.661400  1.0  0.1672
  C  C3830  1  0.638620  0.232370  0.666990  1.0  0.1705
  C  C3831  1  0.638340  0.220600  0.684600  1.0  -0.1787
  C  C3832  1  0.623330  0.204700  0.686400  1.0  -0.0543
  C  C3833  1  0.609240  0.202170  0.670160  1.0  -0.1584
  C  C3834  1  0.610850  0.214980  0.652690  1.0  0.1854
  C  C3835  1  0.593020  0.185590  0.670920  1.0  0.397
  C  C3836  1  0.574780  0.249410  0.623890  1.0  0.2703
  C  C3837  1  0.219890  0.840280  0.647420  1.0  0.1794
  C  C3838  1  0.207500  0.822580  0.650860  1.0  -0.1414
  C  C3839  1  0.211380  0.804770  0.639280  1.0  -0.0569
  C  C3840  1  0.228100  0.805140  0.625180  1.0  -0.1436
  C  C3841  1  0.239070  0.823140  0.622420  1.0  0.1824
  C  C3842  1  0.095330  0.852260  0.716620  1.0  0.2698
  C  C3843  1  0.168430  0.888520  0.736790  1.0  0.1894
  C  C3844  1  0.186660  0.887400  0.725380  1.0  -0.165
  C  C3845  1  0.188580  0.872210  0.709930  1.0  -0.0361
  C  C3846  1  0.172260  0.857900  0.707510  1.0  -0.177
  C  C3847  1  0.154720  0.859740  0.719990  1.0  0.188
  C  C3848  1  0.172820  0.841320  0.691230  1.0  0.3893
  C  C3849  1  0.189700  0.824330  0.665390  1.0  0.3111
  C  C3850  1  0.156840  0.814890  0.674110  1.0  0.4459
  C  C3851  1  0.138220  0.787680  0.653990  1.0  0.1997
  C  C3852  1  0.138150  0.802210  0.670480  1.0  -0.174
  C  C3853  1  0.120400  0.804110  0.682650  1.0  -0.0486
  C  C3854  1  0.103580  0.791090  0.678080  1.0  -0.1541
  C  C3855  1  0.104890  0.777460  0.661400  1.0  0.1672
  C  C3856  1  0.138620  0.732370  0.666990  1.0  0.1705
  C  C3857  1  0.138340  0.720600  0.684600  1.0  -0.1787
  C  C3858  1  0.123330  0.704700  0.686400  1.0  -0.0543
  C  C3859  1  0.109240  0.702170  0.670160  1.0  -0.1584
  C  C3860  1  0.110850  0.714980  0.652690  1.0  0.1854
  C  C3861  1  0.093020  0.685590  0.670920  1.0  0.397
  C  C3862  1  0.074780  0.749410  0.623890  1.0  0.2703
  C  C3863  1  0.219890  0.340280  0.147420  1.0  0.1794
  C  C3864  1  0.207500  0.322580  0.150860  1.0  -0.1414
  C  C3865  1  0.211380  0.304770  0.139280  1.0  -0.0569
  C  C3866  1  0.228100  0.305140  0.125180  1.0  -0.1436
  C  C3867  1  0.239070  0.323140  0.122420  1.0  0.1824
  C  C3868  1  0.095330  0.352260  0.216620  1.0  0.2698
  C  C3869  1  0.168430  0.388520  0.236790  1.0  0.1894
  C  C3870  1  0.186660  0.387400  0.225380  1.0  -0.165
  C  C3871  1  0.188580  0.372210  0.209930  1.0  -0.0361
  C  C3872  1  0.172260  0.357900  0.207510  1.0  -0.177
  C  C3873  1  0.154720  0.359740  0.219990  1.0  0.188
  C  C3874  1  0.172820  0.341320  0.191230  1.0  0.3893
  C  C3875  1  0.189700  0.324330  0.165390  1.0  0.3111
  C  C3876  1  0.156840  0.314890  0.174110  1.0  0.4459
  C  C3877  1  0.138220  0.287680  0.153990  1.0  0.1997
  C  C3878  1  0.138150  0.302210  0.170480  1.0  -0.174
  C  C3879  1  0.120400  0.304110  0.182650  1.0  -0.0486
  C  C3880  1  0.103580  0.291090  0.178080  1.0  -0.1541
  C  C3881  1  0.104890  0.277460  0.161400  1.0  0.1672
  C  C3882  1  0.138620  0.232370  0.166990  1.0  0.1705
  C  C3883  1  0.138340  0.220600  0.184600  1.0  -0.1787
  C  C3884  1  0.123330  0.204700  0.186400  1.0  -0.0543
  C  C3885  1  0.109240  0.202170  0.170160  1.0  -0.1584
  C  C3886  1  0.110850  0.214980  0.152690  1.0  0.1854
  C  C3887  1  0.093020  0.185590  0.170920  1.0  0.397
  C  C3888  1  0.074780  0.249410  0.123890  1.0  0.2703
  C  C3889  1  0.030110  0.340280  0.102580  1.0  0.1798
  C  C3890  1  0.042500  0.322580  0.099140  1.0  -0.1414
  C  C3891  1  0.038620  0.304770  0.110720  1.0  -0.0559
  C  C3892  1  0.021900  0.305140  0.124820  1.0  -0.1433
  C  C3893  1  0.010930  0.323140  0.127580  1.0  0.1834
  C  C3894  1  0.154670  0.352260  0.033380  1.0  0.2658
  C  C3895  1  0.081570  0.388520  0.013210  1.0  0.1885
  C  C3896  1  0.063340  0.387400  0.024620  1.0  -0.168
  C  C3897  1  0.061420  0.372210  0.040070  1.0  -0.0348
  C  C3898  1  0.077740  0.357900  0.042490  1.0  -0.1781
  C  C3899  1  0.095280  0.359740  0.030010  1.0  0.1881
  C  C3900  1  0.077180  0.341320  0.058770  1.0  0.389
  C  C3901  1  0.060300  0.324330  0.084610  1.0  0.3111
  C  C3902  1  0.093160  0.314890  0.075890  1.0  0.4458
  C  C3903  1  0.111780  0.287680  0.096010  1.0  0.2
  C  C3904  1  0.111850  0.302210  0.079520  1.0  -0.1736
  C  C3905  1  0.129600  0.304110  0.067350  1.0  -0.049
  C  C3906  1  0.146420  0.291090  0.071920  1.0  -0.1524
  C  C3907  1  0.145110  0.277460  0.088600  1.0  0.1683
  C  C3908  1  0.111380  0.232370  0.083010  1.0  0.1698
  C  C3909  1  0.111660  0.220600  0.065400  1.0  -0.1777
  C  C3910  1  0.126670  0.204700  0.063600  1.0  -0.0543
  C  C3911  1  0.140760  0.202170  0.079840  1.0  -0.1577
  C  C3912  1  0.139150  0.214980  0.097310  1.0  0.186
  C  C3913  1  0.156980  0.185590  0.079080  1.0  0.3972
  C  C3914  1  0.175220  0.249410  0.126110  1.0  0.2661
  C  C3915  1  0.030110  0.840280  0.602580  1.0  0.1798
  C  C3916  1  0.042500  0.822580  0.599140  1.0  -0.1414
  C  C3917  1  0.038620  0.804770  0.610720  1.0  -0.0559
  C  C3918  1  0.021900  0.805140  0.624820  1.0  -0.1433
  C  C3919  1  0.010930  0.823140  0.627580  1.0  0.1834
  C  C3920  1  0.154670  0.852260  0.533380  1.0  0.2658
  C  C3921  1  0.081570  0.888520  0.513210  1.0  0.1885
  C  C3922  1  0.063340  0.887400  0.524620  1.0  -0.168
  C  C3923  1  0.061420  0.872210  0.540070  1.0  -0.0348
  C  C3924  1  0.077740  0.857900  0.542490  1.0  -0.1781
  C  C3925  1  0.095280  0.859740  0.530010  1.0  0.1881
  C  C3926  1  0.077180  0.841320  0.558770  1.0  0.389
  C  C3927  1  0.060300  0.824330  0.584610  1.0  0.3111
  C  C3928  1  0.093160  0.814890  0.575890  1.0  0.4458
  C  C3929  1  0.111780  0.787680  0.596010  1.0  0.2
  C  C3930  1  0.111850  0.802210  0.579520  1.0  -0.1736
  C  C3931  1  0.129600  0.804110  0.567350  1.0  -0.049
  C  C3932  1  0.146420  0.791090  0.571920  1.0  -0.1524
  C  C3933  1  0.145110  0.777460  0.588600  1.0  0.1683
  C  C3934  1  0.111380  0.732370  0.583010  1.0  0.1698
  C  C3935  1  0.111660  0.720600  0.565400  1.0  -0.1777
  C  C3936  1  0.126670  0.704700  0.563600  1.0  -0.0543
  C  C3937  1  0.140760  0.702170  0.579840  1.0  -0.1577
  C  C3938  1  0.139150  0.714980  0.597310  1.0  0.186
  C  C3939  1  0.156980  0.685590  0.579080  1.0  0.3972
  C  C3940  1  0.175220  0.749410  0.626110  1.0  0.2661
  C  C3941  1  0.530110  0.340280  0.602580  1.0  0.1798
  C  C3942  1  0.542500  0.322580  0.599140  1.0  -0.1414
  C  C3943  1  0.538620  0.304770  0.610720  1.0  -0.0559
  C  C3944  1  0.521900  0.305140  0.624820  1.0  -0.1433
  C  C3945  1  0.510930  0.323140  0.627580  1.0  0.1834
  C  C3946  1  0.654670  0.352260  0.533380  1.0  0.2658
  C  C3947  1  0.581570  0.388520  0.513210  1.0  0.1885
  C  C3948  1  0.563340  0.387400  0.524620  1.0  -0.168
  C  C3949  1  0.561420  0.372210  0.540070  1.0  -0.0348
  C  C3950  1  0.577740  0.357900  0.542490  1.0  -0.1781
  C  C3951  1  0.595280  0.359740  0.530010  1.0  0.1881
  C  C3952  1  0.577180  0.341320  0.558770  1.0  0.389
  C  C3953  1  0.560300  0.324330  0.584610  1.0  0.3111
  C  C3954  1  0.593160  0.314890  0.575890  1.0  0.4458
  C  C3955  1  0.611780  0.287680  0.596010  1.0  0.2
  C  C3956  1  0.611850  0.302210  0.579520  1.0  -0.1736
  C  C3957  1  0.629600  0.304110  0.567350  1.0  -0.049
  C  C3958  1  0.646420  0.291090  0.571920  1.0  -0.1524
  C  C3959  1  0.645110  0.277460  0.588600  1.0  0.1683
  C  C3960  1  0.611380  0.232370  0.583010  1.0  0.1698
  C  C3961  1  0.611660  0.220600  0.565400  1.0  -0.1777
  C  C3962  1  0.626670  0.204700  0.563600  1.0  -0.0543
  C  C3963  1  0.640760  0.202170  0.579840  1.0  -0.1577
  C  C3964  1  0.639150  0.214980  0.597310  1.0  0.186
  C  C3965  1  0.656980  0.185590  0.579080  1.0  0.3972
  C  C3966  1  0.675220  0.249410  0.626110  1.0  0.2661
  C  C3967  1  0.530110  0.840280  0.102580  1.0  0.1798
  C  C3968  1  0.542500  0.822580  0.099140  1.0  -0.1414
  C  C3969  1  0.538620  0.804770  0.110720  1.0  -0.0559
  C  C3970  1  0.521900  0.805140  0.124820  1.0  -0.1433
  C  C3971  1  0.510930  0.823140  0.127580  1.0  0.1834
  C  C3972  1  0.654670  0.852260  0.033380  1.0  0.2658
  C  C3973  1  0.581570  0.888520  0.013210  1.0  0.1885
  C  C3974  1  0.563340  0.887400  0.024620  1.0  -0.168
  C  C3975  1  0.561420  0.872210  0.040070  1.0  -0.0348
  C  C3976  1  0.577740  0.857900  0.042490  1.0  -0.1781
  C  C3977  1  0.595280  0.859740  0.030010  1.0  0.1881
  C  C3978  1  0.577180  0.841320  0.058770  1.0  0.389
  C  C3979  1  0.560300  0.824330  0.084610  1.0  0.3111
  C  C3980  1  0.593160  0.814890  0.075890  1.0  0.4458
  C  C3981  1  0.611780  0.787680  0.096010  1.0  0.2
  C  C3982  1  0.611850  0.802210  0.079520  1.0  -0.1736
  C  C3983  1  0.629600  0.804110  0.067350  1.0  -0.049
  C  C3984  1  0.646420  0.791090  0.071920  1.0  -0.1524
  C  C3985  1  0.645110  0.777460  0.088600  1.0  0.1683
  C  C3986  1  0.611380  0.732370  0.083010  1.0  0.1698
  C  C3987  1  0.611660  0.720600  0.065400  1.0  -0.1777
  C  C3988  1  0.626670  0.704700  0.063600  1.0  -0.0543
  C  C3989  1  0.640760  0.702170  0.079840  1.0  -0.1577
  C  C3990  1  0.639150  0.714980  0.097310  1.0  0.186
  C  C3991  1  0.656980  0.685590  0.079080  1.0  0.3972
  C  C3992  1  0.675220  0.749410  0.126110  1.0  0.2661
  C  C3993  1  0.530110  0.909720  0.647420  1.0  0.1797
  C  C3994  1  0.542500  0.927420  0.650860  1.0  -0.1418
  C  C3995  1  0.538620  0.945230  0.639280  1.0  -0.0565
  C  C3996  1  0.521900  0.944860  0.625180  1.0  -0.1446
  C  C3997  1  0.510930  0.926860  0.622420  1.0  0.1819
  C  C3998  1  0.654670  0.897740  0.716620  1.0  0.2684
  C  C3999  1  0.581570  0.861480  0.736790  1.0  0.1887
  C  C4000  1  0.563340  0.862600  0.725380  1.0  -0.1659
  C  C4001  1  0.561420  0.877790  0.709930  1.0  -0.0353
  C  C4002  1  0.577740  0.892100  0.707510  1.0  -0.1783
  C  C4003  1  0.595280  0.890260  0.719990  1.0  0.189
  C  C4004  1  0.577180  0.908680  0.691230  1.0  0.3889
  C  C4005  1  0.560300  0.925670  0.665390  1.0  0.3109
  C  C4006  1  0.593160  0.935110  0.674110  1.0  0.4461
  C  C4007  1  0.611780  0.962320  0.653990  1.0  0.2011
  C  C4008  1  0.611850  0.947790  0.670480  1.0  -0.1745
  C  C4009  1  0.629600  0.945890  0.682650  1.0  -0.0486
  C  C4010  1  0.646420  0.958910  0.678080  1.0  -0.1523
  C  C4011  1  0.645110  0.972540  0.661400  1.0  0.1686
  C  C4012  1  0.611380  0.017630  0.666990  1.0  0.17
  C  C4013  1  0.611660  0.029400  0.684600  1.0  -0.1794
  C  C4014  1  0.626670  0.045300  0.686400  1.0  -0.054
  C  C4015  1  0.640760  0.047830  0.670160  1.0  -0.1575
  C  C4016  1  0.639150  0.035020  0.652690  1.0  0.1841
  C  C4017  1  0.656980  0.064410  0.670920  1.0  0.3971
  C  C4018  1  0.675220  0.000590  0.623890  1.0  0.2661
  C  C4019  1  0.530110  0.409720  0.147420  1.0  0.1797
  C  C4020  1  0.542500  0.427420  0.150860  1.0  -0.1418
  C  C4021  1  0.538620  0.445230  0.139280  1.0  -0.0565
  C  C4022  1  0.521900  0.444860  0.125180  1.0  -0.1446
  C  C4023  1  0.510930  0.426860  0.122420  1.0  0.1819
  C  C4024  1  0.654670  0.397740  0.216620  1.0  0.2684
  C  C4025  1  0.581570  0.361480  0.236790  1.0  0.1887
  C  C4026  1  0.563340  0.362600  0.225380  1.0  -0.1659
  C  C4027  1  0.561420  0.377790  0.209930  1.0  -0.0353
  C  C4028  1  0.577740  0.392100  0.207510  1.0  -0.1783
  C  C4029  1  0.595280  0.390260  0.219990  1.0  0.189
  C  C4030  1  0.577180  0.408680  0.191230  1.0  0.3889
  C  C4031  1  0.560300  0.425670  0.165390  1.0  0.3109
  C  C4032  1  0.593160  0.435110  0.174110  1.0  0.4461
  C  C4033  1  0.611780  0.462320  0.153990  1.0  0.2011
  C  C4034  1  0.611850  0.447790  0.170480  1.0  -0.1745
  C  C4035  1  0.629600  0.445890  0.182650  1.0  -0.0486
  C  C4036  1  0.646420  0.458910  0.178080  1.0  -0.1523
  C  C4037  1  0.645110  0.472540  0.161400  1.0  0.1686
  C  C4038  1  0.611380  0.517630  0.166990  1.0  0.17
  C  C4039  1  0.611660  0.529400  0.184600  1.0  -0.1794
  C  C4040  1  0.626670  0.545300  0.186400  1.0  -0.054
  C  C4041  1  0.640760  0.547830  0.170160  1.0  -0.1575
  C  C4042  1  0.639150  0.535020  0.152690  1.0  0.1841
  C  C4043  1  0.656980  0.564410  0.170920  1.0  0.3971
  C  C4044  1  0.675220  0.500590  0.123890  1.0  0.2661
  C  C4045  1  0.030110  0.909720  0.147420  1.0  0.1797
  C  C4046  1  0.042500  0.927420  0.150860  1.0  -0.1418
  C  C4047  1  0.038620  0.945230  0.139280  1.0  -0.0565
  C  C4048  1  0.021900  0.944860  0.125180  1.0  -0.1446
  C  C4049  1  0.010930  0.926860  0.122420  1.0  0.1819
  C  C4050  1  0.154670  0.897740  0.216620  1.0  0.2684
  C  C4051  1  0.081570  0.861480  0.236790  1.0  0.1887
  C  C4052  1  0.063340  0.862600  0.225380  1.0  -0.1659
  C  C4053  1  0.061420  0.877790  0.209930  1.0  -0.0353
  C  C4054  1  0.077740  0.892100  0.207510  1.0  -0.1783
  C  C4055  1  0.095280  0.890260  0.219990  1.0  0.189
  C  C4056  1  0.077180  0.908680  0.191230  1.0  0.3889
  C  C4057  1  0.060300  0.925670  0.165390  1.0  0.3109
  C  C4058  1  0.093160  0.935110  0.174110  1.0  0.4461
  C  C4059  1  0.111780  0.962320  0.153990  1.0  0.2011
  C  C4060  1  0.111850  0.947790  0.170480  1.0  -0.1745
  C  C4061  1  0.129600  0.945890  0.182650  1.0  -0.0486
  C  C4062  1  0.146420  0.958910  0.178080  1.0  -0.1523
  C  C4063  1  0.145110  0.972540  0.161400  1.0  0.1686
  C  C4064  1  0.111380  0.017630  0.166990  1.0  0.17
  C  C4065  1  0.111660  0.029400  0.184600  1.0  -0.1794
  C  C4066  1  0.126670  0.045300  0.186400  1.0  -0.054
  C  C4067  1  0.140760  0.047830  0.170160  1.0  -0.1575
  C  C4068  1  0.139150  0.035020  0.152690  1.0  0.1841
  C  C4069  1  0.156980  0.064410  0.170920  1.0  0.3971
  C  C4070  1  0.175220  0.000590  0.123890  1.0  0.2661
  C  C4071  1  0.030110  0.409720  0.647420  1.0  0.1797
  C  C4072  1  0.042500  0.427420  0.650860  1.0  -0.1418
  C  C4073  1  0.038620  0.445230  0.639280  1.0  -0.0565
  C  C4074  1  0.021900  0.444860  0.625180  1.0  -0.1446
  C  C4075  1  0.010930  0.426860  0.622420  1.0  0.1819
  C  C4076  1  0.154670  0.397740  0.716620  1.0  0.2684
  C  C4077  1  0.081570  0.361480  0.736790  1.0  0.1887
  C  C4078  1  0.063340  0.362600  0.725380  1.0  -0.1659
  C  C4079  1  0.061420  0.377790  0.709930  1.0  -0.0353
  C  C4080  1  0.077740  0.392100  0.707510  1.0  -0.1783
  C  C4081  1  0.095280  0.390260  0.719990  1.0  0.189
  C  C4082  1  0.077180  0.408680  0.691230  1.0  0.3889
  C  C4083  1  0.060300  0.425670  0.665390  1.0  0.3109
  C  C4084  1  0.093160  0.435110  0.674110  1.0  0.4461
  C  C4085  1  0.111780  0.462320  0.653990  1.0  0.2011
  C  C4086  1  0.111850  0.447790  0.670480  1.0  -0.1745
  C  C4087  1  0.129600  0.445890  0.682650  1.0  -0.0486
  C  C4088  1  0.146420  0.458910  0.678080  1.0  -0.1523
  C  C4089  1  0.145110  0.472540  0.661400  1.0  0.1686
  C  C4090  1  0.111380  0.517630  0.666990  1.0  0.17
  C  C4091  1  0.111660  0.529400  0.684600  1.0  -0.1794
  C  C4092  1  0.126670  0.545300  0.686400  1.0  -0.054
  C  C4093  1  0.140760  0.547830  0.670160  1.0  -0.1575
  C  C4094  1  0.139150  0.535020  0.652690  1.0  0.1841
  C  C4095  1  0.156980  0.564410  0.670920  1.0  0.3971
  C  C4096  1  0.175220  0.500590  0.623890  1.0  0.2661
  C  C4097  1  0.602580  0.219890  0.409720  1.0  0.1807
  C  C4098  1  0.599140  0.207500  0.427420  1.0  -0.1398
  C  C4099  1  0.610720  0.211380  0.445230  1.0  -0.0539
  C  C4100  1  0.624820  0.228100  0.444860  1.0  -0.1391
  C  C4101  1  0.627580  0.239070  0.426860  1.0  0.1797
  C  C4102  1  0.533380  0.095330  0.397740  1.0  0.2707
  C  C4103  1  0.513210  0.168430  0.361480  1.0  0.1847
  C  C4104  1  0.524620  0.186660  0.362600  1.0  -0.1684
  C  C4105  1  0.540070  0.188580  0.377790  1.0  -0.0366
  C  C4106  1  0.542490  0.172260  0.392100  1.0  -0.1772
  C  C4107  1  0.530010  0.154720  0.390260  1.0  0.1866
  C  C4108  1  0.558770  0.172820  0.408680  1.0  0.3888
  C  C4109  1  0.584610  0.189700  0.425670  1.0  0.3114
  C  C4110  1  0.575890  0.156840  0.435110  1.0  0.4464
  C  C4111  1  0.596010  0.138220  0.462320  1.0  0.1977
  C  C4112  1  0.579520  0.138150  0.447790  1.0  -0.1746
  C  C4113  1  0.567350  0.120400  0.445890  1.0  -0.0505
  C  C4114  1  0.571920  0.103580  0.458910  1.0  -0.1522
  C  C4115  1  0.588600  0.104890  0.472540  1.0  0.1652
  C  C4116  1  0.583010  0.138620  0.517630  1.0  0.1696
  C  C4117  1  0.565400  0.138340  0.529400  1.0  -0.182
  C  C4118  1  0.563600  0.123330  0.545300  1.0  -0.0535
  C  C4119  1  0.579840  0.109240  0.547830  1.0  -0.1624
  C  C4120  1  0.597310  0.110850  0.535020  1.0  0.1822
  C  C4121  1  0.579080  0.093020  0.564410  1.0  0.397
  C  C4122  1  0.626110  0.074780  0.500590  1.0  0.2674
  C  C4123  1  0.602580  0.719890  0.909720  1.0  0.1807
  C  C4124  1  0.599140  0.707500  0.927420  1.0  -0.1398
  C  C4125  1  0.610720  0.711380  0.945230  1.0  -0.0539
  C  C4126  1  0.624820  0.728100  0.944860  1.0  -0.1391
  C  C4127  1  0.627580  0.739070  0.926860  1.0  0.1797
  C  C4128  1  0.533380  0.595330  0.897740  1.0  0.2707
  C  C4129  1  0.513210  0.668430  0.861480  1.0  0.1847
  C  C4130  1  0.524620  0.686660  0.862600  1.0  -0.1684
  C  C4131  1  0.540070  0.688580  0.877790  1.0  -0.0366
  C  C4132  1  0.542490  0.672260  0.892100  1.0  -0.1772
  C  C4133  1  0.530010  0.654720  0.890260  1.0  0.1866
  C  C4134  1  0.558770  0.672820  0.908680  1.0  0.3888
  C  C4135  1  0.584610  0.689700  0.925670  1.0  0.3114
  C  C4136  1  0.575890  0.656840  0.935110  1.0  0.4464
  C  C4137  1  0.596010  0.638220  0.962320  1.0  0.1977
  C  C4138  1  0.579520  0.638150  0.947790  1.0  -0.1746
  C  C4139  1  0.567350  0.620400  0.945890  1.0  -0.0505
  C  C4140  1  0.571920  0.603580  0.958910  1.0  -0.1522
  C  C4141  1  0.588600  0.604890  0.972540  1.0  0.1652
  C  C4142  1  0.583010  0.638620  0.017630  1.0  0.1696
  C  C4143  1  0.565400  0.638340  0.029400  1.0  -0.182
  C  C4144  1  0.563600  0.623330  0.045300  1.0  -0.0535
  C  C4145  1  0.579840  0.609240  0.047830  1.0  -0.1624
  C  C4146  1  0.597310  0.610850  0.035020  1.0  0.1822
  C  C4147  1  0.579080  0.593020  0.064410  1.0  0.397
  C  C4148  1  0.626110  0.574780  0.000590  1.0  0.2674
  C  C4149  1  0.102580  0.219890  0.909720  1.0  0.1807
  C  C4150  1  0.099140  0.207500  0.927420  1.0  -0.1398
  C  C4151  1  0.110720  0.211380  0.945230  1.0  -0.0539
  C  C4152  1  0.124820  0.228100  0.944860  1.0  -0.1391
  C  C4153  1  0.127580  0.239070  0.926860  1.0  0.1797
  C  C4154  1  0.033380  0.095330  0.897740  1.0  0.2707
  C  C4155  1  0.013210  0.168430  0.861480  1.0  0.1847
  C  C4156  1  0.024620  0.186660  0.862600  1.0  -0.1684
  C  C4157  1  0.040070  0.188580  0.877790  1.0  -0.0366
  C  C4158  1  0.042490  0.172260  0.892100  1.0  -0.1772
  C  C4159  1  0.030010  0.154720  0.890260  1.0  0.1866
  C  C4160  1  0.058770  0.172820  0.908680  1.0  0.3888
  C  C4161  1  0.084610  0.189700  0.925670  1.0  0.3114
  C  C4162  1  0.075890  0.156840  0.935110  1.0  0.4464
  C  C4163  1  0.096010  0.138220  0.962320  1.0  0.1977
  C  C4164  1  0.079520  0.138150  0.947790  1.0  -0.1746
  C  C4165  1  0.067350  0.120400  0.945890  1.0  -0.0505
  C  C4166  1  0.071920  0.103580  0.958910  1.0  -0.1522
  C  C4167  1  0.088600  0.104890  0.972540  1.0  0.1652
  C  C4168  1  0.083010  0.138620  0.017630  1.0  0.1696
  C  C4169  1  0.065400  0.138340  0.029400  1.0  -0.182
  C  C4170  1  0.063600  0.123330  0.045300  1.0  -0.0535
  C  C4171  1  0.079840  0.109240  0.047830  1.0  -0.1624
  C  C4172  1  0.097310  0.110850  0.035020  1.0  0.1822
  C  C4173  1  0.079080  0.093020  0.064410  1.0  0.397
  C  C4174  1  0.126110  0.074780  0.000590  1.0  0.2674
  C  C4175  1  0.102580  0.719890  0.409720  1.0  0.1807
  C  C4176  1  0.099140  0.707500  0.427420  1.0  -0.1398
  C  C4177  1  0.110720  0.711380  0.445230  1.0  -0.0539
  C  C4178  1  0.124820  0.728100  0.444860  1.0  -0.1391
  C  C4179  1  0.127580  0.739070  0.426860  1.0  0.1797
  C  C4180  1  0.033380  0.595330  0.397740  1.0  0.2707
  C  C4181  1  0.013210  0.668430  0.361480  1.0  0.1847
  C  C4182  1  0.024620  0.686660  0.362600  1.0  -0.1684
  C  C4183  1  0.040070  0.688580  0.377790  1.0  -0.0366
  C  C4184  1  0.042490  0.672260  0.392100  1.0  -0.1772
  C  C4185  1  0.030010  0.654720  0.390260  1.0  0.1866
  C  C4186  1  0.058770  0.672820  0.408680  1.0  0.3888
  C  C4187  1  0.084610  0.689700  0.425670  1.0  0.3114
  C  C4188  1  0.075890  0.656840  0.435110  1.0  0.4464
  C  C4189  1  0.096010  0.638220  0.462320  1.0  0.1977
  C  C4190  1  0.079520  0.638150  0.447790  1.0  -0.1746
  C  C4191  1  0.067350  0.620400  0.445890  1.0  -0.0505
  C  C4192  1  0.071920  0.603580  0.458910  1.0  -0.1522
  C  C4193  1  0.088600  0.604890  0.472540  1.0  0.1652
  C  C4194  1  0.083010  0.638620  0.517630  1.0  0.1696
  C  C4195  1  0.065400  0.638340  0.529400  1.0  -0.182
  C  C4196  1  0.063600  0.623330  0.545300  1.0  -0.0535
  C  C4197  1  0.079840  0.609240  0.547830  1.0  -0.1624
  C  C4198  1  0.097310  0.610850  0.535020  1.0  0.1822
  C  C4199  1  0.079080  0.593020  0.564410  1.0  0.397
  C  C4200  1  0.126110  0.574780  0.500590  1.0  0.2674
  C  C4201  1  0.147420  0.719890  0.840280  1.0  0.1819
  C  C4202  1  0.150860  0.707500  0.822580  1.0  -0.1405
  C  C4203  1  0.139280  0.711380  0.804770  1.0  -0.0575
  C  C4204  1  0.125180  0.728100  0.805140  1.0  -0.1403
  C  C4205  1  0.122420  0.739070  0.823140  1.0  0.1802
  C  C4206  1  0.216620  0.595330  0.852260  1.0  0.2713
  C  C4207  1  0.236790  0.668430  0.888520  1.0  0.1844
  C  C4208  1  0.225380  0.686660  0.887400  1.0  -0.1662
  C  C4209  1  0.209930  0.688580  0.872210  1.0  -0.0383
  C  C4210  1  0.207510  0.672260  0.857900  1.0  -0.1767
  C  C4211  1  0.219990  0.654720  0.859740  1.0  0.1872
  C  C4212  1  0.191230  0.672820  0.841320  1.0  0.3889
  C  C4213  1  0.165390  0.689700  0.824330  1.0  0.3112
  C  C4214  1  0.174110  0.656840  0.814890  1.0  0.4459
  C  C4215  1  0.153990  0.638220  0.787680  1.0  0.1982
  C  C4216  1  0.170480  0.638150  0.802210  1.0  -0.1739
  C  C4217  1  0.182650  0.620400  0.804110  1.0  -0.0491
  C  C4218  1  0.178080  0.603580  0.791090  1.0  -0.1528
  C  C4219  1  0.161400  0.604890  0.777460  1.0  0.1652
  C  C4220  1  0.166990  0.638620  0.732370  1.0  0.1701
  C  C4221  1  0.184600  0.638340  0.720600  1.0  -0.1811
  C  C4222  1  0.186400  0.623330  0.704700  1.0  -0.0516
  C  C4223  1  0.170160  0.609240  0.702170  1.0  -0.1614
  C  C4224  1  0.152690  0.610850  0.714980  1.0  0.1831
  C  C4225  1  0.170920  0.593020  0.685590  1.0  0.3975
  C  C4226  1  0.123890  0.574780  0.749410  1.0  0.2674
  C  C4227  1  0.147420  0.219890  0.340280  1.0  0.1819
  C  C4228  1  0.150860  0.207500  0.322580  1.0  -0.1405
  C  C4229  1  0.139280  0.211380  0.304770  1.0  -0.0575
  C  C4230  1  0.125180  0.228100  0.305140  1.0  -0.1403
  C  C4231  1  0.122420  0.239070  0.323140  1.0  0.1802
  C  C4232  1  0.216620  0.095330  0.352260  1.0  0.2713
  C  C4233  1  0.236790  0.168430  0.388520  1.0  0.1844
  C  C4234  1  0.225380  0.186660  0.387400  1.0  -0.1662
  C  C4235  1  0.209930  0.188580  0.372210  1.0  -0.0383
  C  C4236  1  0.207510  0.172260  0.357900  1.0  -0.1767
  C  C4237  1  0.219990  0.154720  0.359740  1.0  0.1872
  C  C4238  1  0.191230  0.172820  0.341320  1.0  0.3889
  C  C4239  1  0.165390  0.189700  0.324330  1.0  0.3112
  C  C4240  1  0.174110  0.156840  0.314890  1.0  0.4459
  C  C4241  1  0.153990  0.138220  0.287680  1.0  0.1982
  C  C4242  1  0.170480  0.138150  0.302210  1.0  -0.1739
  C  C4243  1  0.182650  0.120400  0.304110  1.0  -0.0491
  C  C4244  1  0.178080  0.103580  0.291090  1.0  -0.1528
  C  C4245  1  0.161400  0.104890  0.277460  1.0  0.1652
  C  C4246  1  0.166990  0.138620  0.232370  1.0  0.1701
  C  C4247  1  0.184600  0.138340  0.220600  1.0  -0.1811
  C  C4248  1  0.186400  0.123330  0.204700  1.0  -0.0516
  C  C4249  1  0.170160  0.109240  0.202170  1.0  -0.1614
  C  C4250  1  0.152690  0.110850  0.214980  1.0  0.1831
  C  C4251  1  0.170920  0.093020  0.185590  1.0  0.3975
  C  C4252  1  0.123890  0.074780  0.249410  1.0  0.2674
  C  C4253  1  0.647420  0.719890  0.340280  1.0  0.1819
  C  C4254  1  0.650860  0.707500  0.322580  1.0  -0.1405
  C  C4255  1  0.639280  0.711380  0.304770  1.0  -0.0575
  C  C4256  1  0.625180  0.728100  0.305140  1.0  -0.1403
  C  C4257  1  0.622420  0.739070  0.323140  1.0  0.1802
  C  C4258  1  0.716620  0.595330  0.352260  1.0  0.2713
  C  C4259  1  0.736790  0.668430  0.388520  1.0  0.1844
  C  C4260  1  0.725380  0.686660  0.387400  1.0  -0.1662
  C  C4261  1  0.709930  0.688580  0.372210  1.0  -0.0383
  C  C4262  1  0.707510  0.672260  0.357900  1.0  -0.1767
  C  C4263  1  0.719990  0.654720  0.359740  1.0  0.1872
  C  C4264  1  0.691230  0.672820  0.341320  1.0  0.3889
  C  C4265  1  0.665390  0.689700  0.324330  1.0  0.3112
  C  C4266  1  0.674110  0.656840  0.314890  1.0  0.4459
  C  C4267  1  0.653990  0.638220  0.287680  1.0  0.1982
  C  C4268  1  0.670480  0.638150  0.302210  1.0  -0.1739
  C  C4269  1  0.682650  0.620400  0.304110  1.0  -0.0491
  C  C4270  1  0.678080  0.603580  0.291090  1.0  -0.1528
  C  C4271  1  0.661400  0.604890  0.277460  1.0  0.1652
  C  C4272  1  0.666990  0.638620  0.232370  1.0  0.1701
  C  C4273  1  0.684600  0.638340  0.220600  1.0  -0.1811
  C  C4274  1  0.686400  0.623330  0.204700  1.0  -0.0516
  C  C4275  1  0.670160  0.609240  0.202170  1.0  -0.1614
  C  C4276  1  0.652690  0.610850  0.214980  1.0  0.1831
  C  C4277  1  0.670920  0.593020  0.185590  1.0  0.3975
  C  C4278  1  0.623890  0.574780  0.249410  1.0  0.2674
  C  C4279  1  0.647420  0.219890  0.840280  1.0  0.1819
  C  C4280  1  0.650860  0.207500  0.822580  1.0  -0.1405
  C  C4281  1  0.639280  0.211380  0.804770  1.0  -0.0575
  C  C4282  1  0.625180  0.228100  0.805140  1.0  -0.1403
  C  C4283  1  0.622420  0.239070  0.823140  1.0  0.1802
  C  C4284  1  0.716620  0.095330  0.852260  1.0  0.2713
  C  C4285  1  0.736790  0.168430  0.888520  1.0  0.1844
  C  C4286  1  0.725380  0.186660  0.887400  1.0  -0.1662
  C  C4287  1  0.709930  0.188580  0.872210  1.0  -0.0383
  C  C4288  1  0.707510  0.172260  0.857900  1.0  -0.1767
  C  C4289  1  0.719990  0.154720  0.859740  1.0  0.1872
  C  C4290  1  0.691230  0.172820  0.841320  1.0  0.3889
  C  C4291  1  0.665390  0.189700  0.824330  1.0  0.3112
  C  C4292  1  0.674110  0.156840  0.814890  1.0  0.4459
  C  C4293  1  0.653990  0.138220  0.787680  1.0  0.1982
  C  C4294  1  0.670480  0.138150  0.802210  1.0  -0.1739
  C  C4295  1  0.682650  0.120400  0.804110  1.0  -0.0491
  C  C4296  1  0.678080  0.103580  0.791090  1.0  -0.1528
  C  C4297  1  0.661400  0.104890  0.777460  1.0  0.1652
  C  C4298  1  0.666990  0.138620  0.732370  1.0  0.1701
  C  C4299  1  0.684600  0.138340  0.720600  1.0  -0.1811
  C  C4300  1  0.686400  0.123330  0.704700  1.0  -0.0516
  C  C4301  1  0.670160  0.109240  0.702170  1.0  -0.1614
  C  C4302  1  0.652690  0.110850  0.714980  1.0  0.1831
  C  C4303  1  0.670920  0.093020  0.685590  1.0  0.3975
  C  C4304  1  0.623890  0.074780  0.749410  1.0  0.2674
  C  C4305  1  0.102580  0.030110  0.340280  1.0  0.1802
  C  C4306  1  0.099140  0.042500  0.322580  1.0  -0.1401
  C  C4307  1  0.110720  0.038620  0.304770  1.0  -0.0573
  C  C4308  1  0.124820  0.021900  0.305140  1.0  -0.1399
  C  C4309  1  0.127580  0.010930  0.323140  1.0  0.1797
  C  C4310  1  0.033380  0.154670  0.352260  1.0  0.2703
  C  C4311  1  0.013210  0.081570  0.388520  1.0  0.1862
  C  C4312  1  0.024620  0.063340  0.387400  1.0  -0.1687
  C  C4313  1  0.040070  0.061420  0.372210  1.0  -0.0382
  C  C4314  1  0.042490  0.077740  0.357900  1.0  -0.1768
  C  C4315  1  0.030010  0.095280  0.359740  1.0  0.1868
  C  C4316  1  0.058770  0.077180  0.341320  1.0  0.3888
  C  C4317  1  0.084610  0.060300  0.324330  1.0  0.3109
  C  C4318  1  0.075890  0.093160  0.314890  1.0  0.4465
  C  C4319  1  0.096010  0.111780  0.287680  1.0  0.1978
  C  C4320  1  0.079520  0.111850  0.302210  1.0  -0.1736
  C  C4321  1  0.067350  0.129600  0.304110  1.0  -0.05
  C  C4322  1  0.071920  0.146420  0.291090  1.0  -0.1531
  C  C4323  1  0.088600  0.145110  0.277460  1.0  0.166
  C  C4324  1  0.083010  0.111380  0.232370  1.0  0.1696
  C  C4325  1  0.065400  0.111660  0.220600  1.0  -0.1835
  C  C4326  1  0.063600  0.126670  0.204700  1.0  -0.0539
  C  C4327  1  0.079840  0.140760  0.202170  1.0  -0.1613
  C  C4328  1  0.097310  0.139150  0.214980  1.0  0.1816
  C  C4329  1  0.079080  0.156980  0.185590  1.0  0.3974
  C  C4330  1  0.126110  0.175220  0.249410  1.0  0.2605
  C  C4331  1  0.102580  0.530110  0.840280  1.0  0.1802
  C  C4332  1  0.099140  0.542500  0.822580  1.0  -0.1401
  C  C4333  1  0.110720  0.538620  0.804770  1.0  -0.0573
  C  C4334  1  0.124820  0.521900  0.805140  1.0  -0.1399
  C  C4335  1  0.127580  0.510930  0.823140  1.0  0.1797
  C  C4336  1  0.033380  0.654670  0.852260  1.0  0.2703
  C  C4337  1  0.013210  0.581570  0.888520  1.0  0.1862
  C  C4338  1  0.024620  0.563340  0.887400  1.0  -0.1687
  C  C4339  1  0.040070  0.561420  0.872210  1.0  -0.0382
  C  C4340  1  0.042490  0.577740  0.857900  1.0  -0.1768
  C  C4341  1  0.030010  0.595280  0.859740  1.0  0.1868
  C  C4342  1  0.058770  0.577180  0.841320  1.0  0.3888
  C  C4343  1  0.084610  0.560300  0.824330  1.0  0.3109
  C  C4344  1  0.075890  0.593160  0.814890  1.0  0.4465
  C  C4345  1  0.096010  0.611780  0.787680  1.0  0.1978
  C  C4346  1  0.079520  0.611850  0.802210  1.0  -0.1736
  C  C4347  1  0.067350  0.629600  0.804110  1.0  -0.05
  C  C4348  1  0.071920  0.646420  0.791090  1.0  -0.1531
  C  C4349  1  0.088600  0.645110  0.777460  1.0  0.166
  C  C4350  1  0.083010  0.611380  0.732370  1.0  0.1696
  C  C4351  1  0.065400  0.611660  0.720600  1.0  -0.1835
  C  C4352  1  0.063600  0.626670  0.704700  1.0  -0.0539
  C  C4353  1  0.079840  0.640760  0.702170  1.0  -0.1613
  C  C4354  1  0.097310  0.639150  0.714980  1.0  0.1816
  C  C4355  1  0.079080  0.656980  0.685590  1.0  0.3974
  C  C4356  1  0.126110  0.675220  0.749410  1.0  0.2605
  C  C4357  1  0.602580  0.030110  0.840280  1.0  0.1802
  C  C4358  1  0.599140  0.042500  0.822580  1.0  -0.1401
  C  C4359  1  0.610720  0.038620  0.804770  1.0  -0.0573
  C  C4360  1  0.624820  0.021900  0.805140  1.0  -0.1399
  C  C4361  1  0.627580  0.010930  0.823140  1.0  0.1797
  C  C4362  1  0.533380  0.154670  0.852260  1.0  0.2703
  C  C4363  1  0.513210  0.081570  0.888520  1.0  0.1862
  C  C4364  1  0.524620  0.063340  0.887400  1.0  -0.1687
  C  C4365  1  0.540070  0.061420  0.872210  1.0  -0.0382
  C  C4366  1  0.542490  0.077740  0.857900  1.0  -0.1768
  C  C4367  1  0.530010  0.095280  0.859740  1.0  0.1868
  C  C4368  1  0.558770  0.077180  0.841320  1.0  0.3888
  C  C4369  1  0.584610  0.060300  0.824330  1.0  0.3109
  C  C4370  1  0.575890  0.093160  0.814890  1.0  0.4465
  C  C4371  1  0.596010  0.111780  0.787680  1.0  0.1978
  C  C4372  1  0.579520  0.111850  0.802210  1.0  -0.1736
  C  C4373  1  0.567350  0.129600  0.804110  1.0  -0.05
  C  C4374  1  0.571920  0.146420  0.791090  1.0  -0.1531
  C  C4375  1  0.588600  0.145110  0.777460  1.0  0.166
  C  C4376  1  0.583010  0.111380  0.732370  1.0  0.1696
  C  C4377  1  0.565400  0.111660  0.720600  1.0  -0.1835
  C  C4378  1  0.563600  0.126670  0.704700  1.0  -0.0539
  C  C4379  1  0.579840  0.140760  0.702170  1.0  -0.1613
  C  C4380  1  0.597310  0.139150  0.714980  1.0  0.1816
  C  C4381  1  0.579080  0.156980  0.685590  1.0  0.3974
  C  C4382  1  0.626110  0.175220  0.749410  1.0  0.2605
  C  C4383  1  0.602580  0.530110  0.340280  1.0  0.1802
  C  C4384  1  0.599140  0.542500  0.322580  1.0  -0.1401
  C  C4385  1  0.610720  0.538620  0.304770  1.0  -0.0573
  C  C4386  1  0.624820  0.521900  0.305140  1.0  -0.1399
  C  C4387  1  0.627580  0.510930  0.323140  1.0  0.1797
  C  C4388  1  0.533380  0.654670  0.352260  1.0  0.2703
  C  C4389  1  0.513210  0.581570  0.388520  1.0  0.1862
  C  C4390  1  0.524620  0.563340  0.387400  1.0  -0.1687
  C  C4391  1  0.540070  0.561420  0.372210  1.0  -0.0382
  C  C4392  1  0.542490  0.577740  0.357900  1.0  -0.1768
  C  C4393  1  0.530010  0.595280  0.359740  1.0  0.1868
  C  C4394  1  0.558770  0.577180  0.341320  1.0  0.3888
  C  C4395  1  0.584610  0.560300  0.324330  1.0  0.3109
  C  C4396  1  0.575890  0.593160  0.314890  1.0  0.4465
  C  C4397  1  0.596010  0.611780  0.287680  1.0  0.1978
  C  C4398  1  0.579520  0.611850  0.302210  1.0  -0.1736
  C  C4399  1  0.567350  0.629600  0.304110  1.0  -0.05
  C  C4400  1  0.571920  0.646420  0.291090  1.0  -0.1531
  C  C4401  1  0.588600  0.645110  0.277460  1.0  0.166
  C  C4402  1  0.583010  0.611380  0.232370  1.0  0.1696
  C  C4403  1  0.565400  0.611660  0.220600  1.0  -0.1835
  C  C4404  1  0.563600  0.626670  0.204700  1.0  -0.0539
  C  C4405  1  0.579840  0.640760  0.202170  1.0  -0.1613
  C  C4406  1  0.597310  0.639150  0.214980  1.0  0.1816
  C  C4407  1  0.579080  0.656980  0.185590  1.0  0.3974
  C  C4408  1  0.626110  0.675220  0.249410  1.0  0.2605
  C  C4409  1  0.647420  0.530110  0.909720  1.0  0.1815
  C  C4410  1  0.650860  0.542500  0.927420  1.0  -0.1401
  C  C4411  1  0.639280  0.538620  0.945230  1.0  -0.0538
  C  C4412  1  0.625180  0.521900  0.944860  1.0  -0.1391
  C  C4413  1  0.622420  0.510930  0.926860  1.0  0.1794
  C  C4414  1  0.716620  0.654670  0.897740  1.0  0.2728
  C  C4415  1  0.736790  0.581570  0.861480  1.0  0.1852
  C  C4416  1  0.725380  0.563340  0.862600  1.0  -0.1677
  C  C4417  1  0.709930  0.561420  0.877790  1.0  -0.0392
  C  C4418  1  0.707510  0.577740  0.892100  1.0  -0.1769
  C  C4419  1  0.719990  0.595280  0.890260  1.0  0.1866
  C  C4420  1  0.691230  0.577180  0.908680  1.0  0.3883
  C  C4421  1  0.665390  0.560300  0.925670  1.0  0.3116
  C  C4422  1  0.674110  0.593160  0.935110  1.0  0.4461
  C  C4423  1  0.653990  0.611780  0.962320  1.0  0.1991
  C  C4424  1  0.670480  0.611850  0.947790  1.0  -0.1747
  C  C4425  1  0.682650  0.629600  0.945890  1.0  -0.0499
  C  C4426  1  0.678080  0.646420  0.958910  1.0  -0.1527
  C  C4427  1  0.661400  0.645110  0.972540  1.0  0.1645
  C  C4428  1  0.666990  0.611380  0.017630  1.0  0.1702
  C  C4429  1  0.684600  0.611660  0.029400  1.0  -0.1819
  C  C4430  1  0.686400  0.626670  0.045300  1.0  -0.0517
  C  C4431  1  0.670160  0.640760  0.047830  1.0  -0.1627
  C  C4432  1  0.652690  0.639150  0.035020  1.0  0.1819
  C  C4433  1  0.670920  0.656980  0.064410  1.0  0.3968
  C  C4434  1  0.623890  0.675220  0.000590  1.0  0.2601
  C  C4435  1  0.647420  0.030110  0.409720  1.0  0.1815
  C  C4436  1  0.650860  0.042500  0.427420  1.0  -0.1401
  C  C4437  1  0.639280  0.038620  0.445230  1.0  -0.0538
  C  C4438  1  0.625180  0.021900  0.444860  1.0  -0.1391
  C  C4439  1  0.622420  0.010930  0.426860  1.0  0.1794
  C  C4440  1  0.716620  0.154670  0.397740  1.0  0.2728
  C  C4441  1  0.736790  0.081570  0.361480  1.0  0.1852
  C  C4442  1  0.725380  0.063340  0.362600  1.0  -0.1677
  C  C4443  1  0.709930  0.061420  0.377790  1.0  -0.0392
  C  C4444  1  0.707510  0.077740  0.392100  1.0  -0.1769
  C  C4445  1  0.719990  0.095280  0.390260  1.0  0.1866
  C  C4446  1  0.691230  0.077180  0.408680  1.0  0.3883
  C  C4447  1  0.665390  0.060300  0.425670  1.0  0.3116
  C  C4448  1  0.674110  0.093160  0.435110  1.0  0.4461
  C  C4449  1  0.653990  0.111780  0.462320  1.0  0.1991
  C  C4450  1  0.670480  0.111850  0.447790  1.0  -0.1747
  C  C4451  1  0.682650  0.129600  0.445890  1.0  -0.0499
  C  C4452  1  0.678080  0.146420  0.458910  1.0  -0.1527
  C  C4453  1  0.661400  0.145110  0.472540  1.0  0.1645
  C  C4454  1  0.666990  0.111380  0.517630  1.0  0.1702
  C  C4455  1  0.684600  0.111660  0.529400  1.0  -0.1819
  C  C4456  1  0.686400  0.126670  0.545300  1.0  -0.0517
  C  C4457  1  0.670160  0.140760  0.547830  1.0  -0.1627
  C  C4458  1  0.652690  0.139150  0.535020  1.0  0.1819
  C  C4459  1  0.670920  0.156980  0.564410  1.0  0.3968
  C  C4460  1  0.623890  0.175220  0.500590  1.0  0.2601
  C  C4461  1  0.147420  0.530110  0.409720  1.0  0.1815
  C  C4462  1  0.150860  0.542500  0.427420  1.0  -0.1401
  C  C4463  1  0.139280  0.538620  0.445230  1.0  -0.0538
  C  C4464  1  0.125180  0.521900  0.444860  1.0  -0.1391
  C  C4465  1  0.122420  0.510930  0.426860  1.0  0.1794
  C  C4466  1  0.216620  0.654670  0.397740  1.0  0.2728
  C  C4467  1  0.236790  0.581570  0.361480  1.0  0.1852
  C  C4468  1  0.225380  0.563340  0.362600  1.0  -0.1677
  C  C4469  1  0.209930  0.561420  0.377790  1.0  -0.0392
  C  C4470  1  0.207510  0.577740  0.392100  1.0  -0.1769
  C  C4471  1  0.219990  0.595280  0.390260  1.0  0.1866
  C  C4472  1  0.191230  0.577180  0.408680  1.0  0.3883
  C  C4473  1  0.165390  0.560300  0.425670  1.0  0.3116
  C  C4474  1  0.174110  0.593160  0.435110  1.0  0.4461
  C  C4475  1  0.153990  0.611780  0.462320  1.0  0.1991
  C  C4476  1  0.170480  0.611850  0.447790  1.0  -0.1747
  C  C4477  1  0.182650  0.629600  0.445890  1.0  -0.0499
  C  C4478  1  0.178080  0.646420  0.458910  1.0  -0.1527
  C  C4479  1  0.161400  0.645110  0.472540  1.0  0.1645
  C  C4480  1  0.166990  0.611380  0.517630  1.0  0.1702
  C  C4481  1  0.184600  0.611660  0.529400  1.0  -0.1819
  C  C4482  1  0.186400  0.626670  0.545300  1.0  -0.0517
  C  C4483  1  0.170160  0.640760  0.547830  1.0  -0.1627
  C  C4484  1  0.152690  0.639150  0.535020  1.0  0.1819
  C  C4485  1  0.170920  0.656980  0.564410  1.0  0.3968
  C  C4486  1  0.123890  0.675220  0.500590  1.0  0.2601
  C  C4487  1  0.147420  0.030110  0.909720  1.0  0.1815
  C  C4488  1  0.150860  0.042500  0.927420  1.0  -0.1401
  C  C4489  1  0.139280  0.038620  0.945230  1.0  -0.0538
  C  C4490  1  0.125180  0.021900  0.944860  1.0  -0.1391
  C  C4491  1  0.122420  0.010930  0.926860  1.0  0.1794
  C  C4492  1  0.216620  0.154670  0.897740  1.0  0.2728
  C  C4493  1  0.236790  0.081570  0.861480  1.0  0.1852
  C  C4494  1  0.225380  0.063340  0.862600  1.0  -0.1677
  C  C4495  1  0.209930  0.061420  0.877790  1.0  -0.0392
  C  C4496  1  0.207510  0.077740  0.892100  1.0  -0.1769
  C  C4497  1  0.219990  0.095280  0.890260  1.0  0.1866
  C  C4498  1  0.191230  0.077180  0.908680  1.0  0.3883
  C  C4499  1  0.165390  0.060300  0.925670  1.0  0.3116
  C  C4500  1  0.174110  0.093160  0.935110  1.0  0.4461
  C  C4501  1  0.153990  0.111780  0.962320  1.0  0.1991
  C  C4502  1  0.170480  0.111850  0.947790  1.0  -0.1747
  C  C4503  1  0.182650  0.129600  0.945890  1.0  -0.0499
  C  C4504  1  0.178080  0.146420  0.958910  1.0  -0.1527
  C  C4505  1  0.161400  0.145110  0.972540  1.0  0.1645
  C  C4506  1  0.166990  0.111380  0.017630  1.0  0.1702
  C  C4507  1  0.184600  0.111660  0.029400  1.0  -0.1819
  C  C4508  1  0.186400  0.126670  0.045300  1.0  -0.0517
  C  C4509  1  0.170160  0.140760  0.047830  1.0  -0.1627
  C  C4510  1  0.152690  0.139150  0.035020  1.0  0.1819
  C  C4511  1  0.170920  0.156980  0.064410  1.0  0.3968
  C  C4512  1  0.123890  0.175220  0.000590  1.0  0.2601
  C  C4513  1  0.352580  0.659720  0.780110  1.0  0.1789
  C  C4514  1  0.349140  0.677420  0.792500  1.0  -0.1419
  C  C4515  1  0.360720  0.695230  0.788620  1.0  -0.0556
  C  C4516  1  0.374820  0.694860  0.771900  1.0  -0.1434
  C  C4517  1  0.377580  0.676860  0.760930  1.0  0.1818
  C  C4518  1  0.283380  0.647740  0.904670  1.0  0.2713
  C  C4519  1  0.263210  0.611480  0.831570  1.0  0.1835
  C  C4520  1  0.274620  0.612600  0.813340  1.0  -0.1613
  C  C4521  1  0.290070  0.627790  0.811420  1.0  -0.0372
  C  C4522  1  0.292490  0.642100  0.827740  1.0  -0.1748
  C  C4523  1  0.280010  0.640260  0.845280  1.0  0.1891
  C  C4524  1  0.308770  0.658680  0.827180  1.0  0.3893
  C  C4525  1  0.334610  0.675670  0.810300  1.0  0.3109
  C  C4526  1  0.325890  0.685110  0.843160  1.0  0.4464
  C  C4527  1  0.346010  0.712320  0.861780  1.0  0.1979
  C  C4528  1  0.329520  0.697790  0.861850  1.0  -0.1766
  C  C4529  1  0.317350  0.695890  0.879600  1.0  -0.0495
  C  C4530  1  0.321920  0.708910  0.896420  1.0  -0.1504
  C  C4531  1  0.338600  0.722540  0.895110  1.0  0.1636
  C  C4532  1  0.333010  0.767630  0.861380  1.0  0.1711
  C  C4533  1  0.315400  0.779400  0.861660  1.0  -0.1804
  C  C4534  1  0.313600  0.795300  0.876670  1.0  -0.0542
  C  C4535  1  0.329840  0.797830  0.890760  1.0  -0.1608
  C  C4536  1  0.347310  0.785020  0.889150  1.0  0.1815
  C  C4537  1  0.329080  0.814410  0.906980  1.0  0.3971
  C  C4538  1  0.376110  0.750590  0.925220  1.0  0.2639
  C  C4539  1  0.352580  0.159720  0.280110  1.0  0.1789
  C  C4540  1  0.349140  0.177420  0.292500  1.0  -0.1419
  C  C4541  1  0.360720  0.195230  0.288620  1.0  -0.0556
  C  C4542  1  0.374820  0.194860  0.271900  1.0  -0.1434
  C  C4543  1  0.377580  0.176860  0.260930  1.0  0.1818
  C  C4544  1  0.283380  0.147740  0.404670  1.0  0.2713
  C  C4545  1  0.263210  0.111480  0.331570  1.0  0.1835
  C  C4546  1  0.274620  0.112600  0.313340  1.0  -0.1613
  C  C4547  1  0.290070  0.127790  0.311420  1.0  -0.0372
  C  C4548  1  0.292490  0.142100  0.327740  1.0  -0.1748
  C  C4549  1  0.280010  0.140260  0.345280  1.0  0.1891
  C  C4550  1  0.308770  0.158680  0.327180  1.0  0.3893
  C  C4551  1  0.334610  0.175670  0.310300  1.0  0.3109
  C  C4552  1  0.325890  0.185110  0.343160  1.0  0.4464
  C  C4553  1  0.346010  0.212320  0.361780  1.0  0.1979
  C  C4554  1  0.329520  0.197790  0.361850  1.0  -0.1766
  C  C4555  1  0.317350  0.195890  0.379600  1.0  -0.0495
  C  C4556  1  0.321920  0.208910  0.396420  1.0  -0.1504
  C  C4557  1  0.338600  0.222540  0.395110  1.0  0.1636
  C  C4558  1  0.333010  0.267630  0.361380  1.0  0.1711
  C  C4559  1  0.315400  0.279400  0.361660  1.0  -0.1804
  C  C4560  1  0.313600  0.295300  0.376670  1.0  -0.0542
  C  C4561  1  0.329840  0.297830  0.390760  1.0  -0.1608
  C  C4562  1  0.347310  0.285020  0.389150  1.0  0.1815
  C  C4563  1  0.329080  0.314410  0.406980  1.0  0.3971
  C  C4564  1  0.376110  0.250590  0.425220  1.0  0.2639
  C  C4565  1  0.852580  0.659720  0.280110  1.0  0.1789
  C  C4566  1  0.849140  0.677420  0.292500  1.0  -0.1419
  C  C4567  1  0.860720  0.695230  0.288620  1.0  -0.0556
  C  C4568  1  0.874820  0.694860  0.271900  1.0  -0.1434
  C  C4569  1  0.877580  0.676860  0.260930  1.0  0.1818
  C  C4570  1  0.783380  0.647740  0.404670  1.0  0.2713
  C  C4571  1  0.763210  0.611480  0.331570  1.0  0.1835
  C  C4572  1  0.774620  0.612600  0.313340  1.0  -0.1613
  C  C4573  1  0.790070  0.627790  0.311420  1.0  -0.0372
  C  C4574  1  0.792490  0.642100  0.327740  1.0  -0.1748
  C  C4575  1  0.780010  0.640260  0.345280  1.0  0.1891
  C  C4576  1  0.808770  0.658680  0.327180  1.0  0.3893
  C  C4577  1  0.834610  0.675670  0.310300  1.0  0.3109
  C  C4578  1  0.825890  0.685110  0.343160  1.0  0.4464
  C  C4579  1  0.846010  0.712320  0.361780  1.0  0.1979
  C  C4580  1  0.829520  0.697790  0.361850  1.0  -0.1766
  C  C4581  1  0.817350  0.695890  0.379600  1.0  -0.0495
  C  C4582  1  0.821920  0.708910  0.396420  1.0  -0.1504
  C  C4583  1  0.838600  0.722540  0.395110  1.0  0.1636
  C  C4584  1  0.833010  0.767630  0.361380  1.0  0.1711
  C  C4585  1  0.815400  0.779400  0.361660  1.0  -0.1804
  C  C4586  1  0.813600  0.795300  0.376670  1.0  -0.0542
  C  C4587  1  0.829840  0.797830  0.390760  1.0  -0.1608
  C  C4588  1  0.847310  0.785020  0.389150  1.0  0.1815
  C  C4589  1  0.829080  0.814410  0.406980  1.0  0.3971
  C  C4590  1  0.876110  0.750590  0.425220  1.0  0.2639
  C  C4591  1  0.852580  0.159720  0.780110  1.0  0.1789
  C  C4592  1  0.849140  0.177420  0.792500  1.0  -0.1419
  C  C4593  1  0.860720  0.195230  0.788620  1.0  -0.0556
  C  C4594  1  0.874820  0.194860  0.771900  1.0  -0.1434
  C  C4595  1  0.877580  0.176860  0.760930  1.0  0.1818
  C  C4596  1  0.783380  0.147740  0.904670  1.0  0.2713
  C  C4597  1  0.763210  0.111480  0.831570  1.0  0.1835
  C  C4598  1  0.774620  0.112600  0.813340  1.0  -0.1613
  C  C4599  1  0.790070  0.127790  0.811420  1.0  -0.0372
  C  C4600  1  0.792490  0.142100  0.827740  1.0  -0.1748
  C  C4601  1  0.780010  0.140260  0.845280  1.0  0.1891
  C  C4602  1  0.808770  0.158680  0.827180  1.0  0.3893
  C  C4603  1  0.834610  0.175670  0.810300  1.0  0.3109
  C  C4604  1  0.825890  0.185110  0.843160  1.0  0.4464
  C  C4605  1  0.846010  0.212320  0.861780  1.0  0.1979
  C  C4606  1  0.829520  0.197790  0.861850  1.0  -0.1766
  C  C4607  1  0.817350  0.195890  0.879600  1.0  -0.0495
  C  C4608  1  0.821920  0.208910  0.896420  1.0  -0.1504
  C  C4609  1  0.838600  0.222540  0.895110  1.0  0.1636
  C  C4610  1  0.833010  0.267630  0.861380  1.0  0.1711
  C  C4611  1  0.815400  0.279400  0.861660  1.0  -0.1804
  C  C4612  1  0.813600  0.295300  0.876670  1.0  -0.0542
  C  C4613  1  0.829840  0.297830  0.890760  1.0  -0.1608
  C  C4614  1  0.847310  0.285020  0.889150  1.0  0.1815
  C  C4615  1  0.829080  0.314410  0.906980  1.0  0.3971
  C  C4616  1  0.876110  0.250590  0.925220  1.0  0.2639
  C  C4617  1  0.897420  0.090280  0.280110  1.0  0.1798
  C  C4618  1  0.900860  0.072580  0.292500  1.0  -0.1425
  C  C4619  1  0.889280  0.054770  0.288620  1.0  -0.0544
  C  C4620  1  0.875180  0.055140  0.271900  1.0  -0.1426
  C  C4621  1  0.872420  0.073140  0.260930  1.0  0.1831
  C  C4622  1  0.966620  0.102260  0.404670  1.0  0.2728
  C  C4623  1  0.986790  0.138520  0.331570  1.0  0.1837
  C  C4624  1  0.975380  0.137400  0.313340  1.0  -0.162
  C  C4625  1  0.959930  0.122210  0.311420  1.0  -0.0374
  C  C4626  1  0.957510  0.107900  0.327740  1.0  -0.1751
  C  C4627  1  0.969990  0.109740  0.345280  1.0  0.1898
  C  C4628  1  0.941230  0.091320  0.327180  1.0  0.3888
  C  C4629  1  0.915390  0.074330  0.310300  1.0  0.3114
  C  C4630  1  0.924110  0.064890  0.343160  1.0  0.4459
  C  C4631  1  0.903990  0.037680  0.361780  1.0  0.198
  C  C4632  1  0.920480  0.052210  0.361850  1.0  -0.1751
  C  C4633  1  0.932650  0.054110  0.379600  1.0  -0.0488
  C  C4634  1  0.928080  0.041090  0.396420  1.0  -0.1508
  C  C4635  1  0.911400  0.027460  0.395110  1.0  0.1633
  C  C4636  1  0.916990  0.982370  0.361380  1.0  0.1721
  C  C4637  1  0.934600  0.970600  0.361660  1.0  -0.1802
  C  C4638  1  0.936400  0.954700  0.376670  1.0  -0.0521
  C  C4639  1  0.920160  0.952170  0.390760  1.0  -0.162
  C  C4640  1  0.902690  0.964980  0.389150  1.0  0.1836
  C  C4641  1  0.920920  0.935590  0.406980  1.0  0.397
  C  C4642  1  0.873890  0.999410  0.425220  1.0  0.2638
  C  C4643  1  0.897420  0.590280  0.780110  1.0  0.1798
  C  C4644  1  0.900860  0.572580  0.792500  1.0  -0.1425
  C  C4645  1  0.889280  0.554770  0.788620  1.0  -0.0544
  C  C4646  1  0.875180  0.555140  0.771900  1.0  -0.1426
  C  C4647  1  0.872420  0.573140  0.760930  1.0  0.1831
  C  C4648  1  0.966620  0.602260  0.904670  1.0  0.2728
  C  C4649  1  0.986790  0.638520  0.831570  1.0  0.1837
  C  C4650  1  0.975380  0.637400  0.813340  1.0  -0.162
  C  C4651  1  0.959930  0.622210  0.811420  1.0  -0.0374
  C  C4652  1  0.957510  0.607900  0.827740  1.0  -0.1751
  C  C4653  1  0.969990  0.609740  0.845280  1.0  0.1898
  C  C4654  1  0.941230  0.591320  0.827180  1.0  0.3888
  C  C4655  1  0.915390  0.574330  0.810300  1.0  0.3114
  C  C4656  1  0.924110  0.564890  0.843160  1.0  0.4459
  C  C4657  1  0.903990  0.537680  0.861780  1.0  0.198
  C  C4658  1  0.920480  0.552210  0.861850  1.0  -0.1751
  C  C4659  1  0.932650  0.554110  0.879600  1.0  -0.0488
  C  C4660  1  0.928080  0.541090  0.896420  1.0  -0.1508
  C  C4661  1  0.911400  0.527460  0.895110  1.0  0.1633
  C  C4662  1  0.916990  0.482370  0.861380  1.0  0.1721
  C  C4663  1  0.934600  0.470600  0.861660  1.0  -0.1802
  C  C4664  1  0.936400  0.454700  0.876670  1.0  -0.0521
  C  C4665  1  0.920160  0.452170  0.890760  1.0  -0.162
  C  C4666  1  0.902690  0.464980  0.889150  1.0  0.1836
  C  C4667  1  0.920920  0.435590  0.906980  1.0  0.397
  C  C4668  1  0.873890  0.499410  0.925220  1.0  0.2638
  C  C4669  1  0.397420  0.090280  0.780110  1.0  0.1798
  C  C4670  1  0.400860  0.072580  0.792500  1.0  -0.1425
  C  C4671  1  0.389280  0.054770  0.788620  1.0  -0.0544
  C  C4672  1  0.375180  0.055140  0.771900  1.0  -0.1426
  C  C4673  1  0.372420  0.073140  0.760930  1.0  0.1831
  C  C4674  1  0.466620  0.102260  0.904670  1.0  0.2728
  C  C4675  1  0.486790  0.138520  0.831570  1.0  0.1837
  C  C4676  1  0.475380  0.137400  0.813340  1.0  -0.162
  C  C4677  1  0.459930  0.122210  0.811420  1.0  -0.0374
  C  C4678  1  0.457510  0.107900  0.827740  1.0  -0.1751
  C  C4679  1  0.469990  0.109740  0.845280  1.0  0.1898
  C  C4680  1  0.441230  0.091320  0.827180  1.0  0.3888
  C  C4681  1  0.415390  0.074330  0.810300  1.0  0.3114
  C  C4682  1  0.424110  0.064890  0.843160  1.0  0.4459
  C  C4683  1  0.403990  0.037680  0.861780  1.0  0.198
  C  C4684  1  0.420480  0.052210  0.861850  1.0  -0.1751
  C  C4685  1  0.432650  0.054110  0.879600  1.0  -0.0488
  C  C4686  1  0.428080  0.041090  0.896420  1.0  -0.1508
  C  C4687  1  0.411400  0.027460  0.895110  1.0  0.1633
  C  C4688  1  0.416990  0.982370  0.861380  1.0  0.1721
  C  C4689  1  0.434600  0.970600  0.861660  1.0  -0.1802
  C  C4690  1  0.436400  0.954700  0.876670  1.0  -0.0521
  C  C4691  1  0.420160  0.952170  0.890760  1.0  -0.162
  C  C4692  1  0.402690  0.964980  0.889150  1.0  0.1836
  C  C4693  1  0.420920  0.935590  0.906980  1.0  0.397
  C  C4694  1  0.373890  0.999410  0.925220  1.0  0.2638
  C  C4695  1  0.397420  0.590280  0.280110  1.0  0.1798
  C  C4696  1  0.400860  0.572580  0.292500  1.0  -0.1425
  C  C4697  1  0.389280  0.554770  0.288620  1.0  -0.0544
  C  C4698  1  0.375180  0.555140  0.271900  1.0  -0.1426
  C  C4699  1  0.372420  0.573140  0.260930  1.0  0.1831
  C  C4700  1  0.466620  0.602260  0.404670  1.0  0.2728
  C  C4701  1  0.486790  0.638520  0.331570  1.0  0.1837
  C  C4702  1  0.475380  0.637400  0.313340  1.0  -0.162
  C  C4703  1  0.459930  0.622210  0.311420  1.0  -0.0374
  C  C4704  1  0.457510  0.607900  0.327740  1.0  -0.1751
  C  C4705  1  0.469990  0.609740  0.345280  1.0  0.1898
  C  C4706  1  0.441230  0.591320  0.327180  1.0  0.3888
  C  C4707  1  0.415390  0.574330  0.310300  1.0  0.3114
  C  C4708  1  0.424110  0.564890  0.343160  1.0  0.4459
  C  C4709  1  0.403990  0.537680  0.361780  1.0  0.198
  C  C4710  1  0.420480  0.552210  0.361850  1.0  -0.1751
  C  C4711  1  0.432650  0.554110  0.379600  1.0  -0.0488
  C  C4712  1  0.428080  0.541090  0.396420  1.0  -0.1508
  C  C4713  1  0.411400  0.527460  0.395110  1.0  0.1633
  C  C4714  1  0.416990  0.482370  0.361380  1.0  0.1721
  C  C4715  1  0.434600  0.470600  0.361660  1.0  -0.1802
  C  C4716  1  0.436400  0.454700  0.376670  1.0  -0.0521
  C  C4717  1  0.420160  0.452170  0.390760  1.0  -0.162
  C  C4718  1  0.402690  0.464980  0.389150  1.0  0.1836
  C  C4719  1  0.420920  0.435590  0.406980  1.0  0.397
  C  C4720  1  0.373890  0.499410  0.425220  1.0  0.2638
  C  C4721  1  0.852580  0.590280  0.969890  1.0  0.1787
  C  C4722  1  0.849140  0.572580  0.957500  1.0  -0.1426
  C  C4723  1  0.860720  0.554770  0.961380  1.0  -0.0543
  C  C4724  1  0.874820  0.555140  0.978100  1.0  -0.1427
  C  C4725  1  0.877580  0.573140  0.989070  1.0  0.1827
  C  C4726  1  0.783380  0.602260  0.845330  1.0  0.2706
  C  C4727  1  0.763210  0.638520  0.918430  1.0  0.1837
  C  C4728  1  0.774620  0.637400  0.936660  1.0  -0.1652
  C  C4729  1  0.790070  0.622210  0.938580  1.0  -0.0355
  C  C4730  1  0.792490  0.607900  0.922260  1.0  -0.1745
  C  C4731  1  0.780010  0.609740  0.904720  1.0  0.1884
  C  C4732  1  0.808770  0.591320  0.922820  1.0  0.3892
  C  C4733  1  0.834610  0.574330  0.939700  1.0  0.3113
  C  C4734  1  0.825890  0.564890  0.906840  1.0  0.4463
  C  C4735  1  0.846010  0.537680  0.888220  1.0  0.1966
  C  C4736  1  0.829520  0.552210  0.888150  1.0  -0.1755
  C  C4737  1  0.817350  0.554110  0.870400  1.0  -0.0493
  C  C4738  1  0.821920  0.541090  0.853580  1.0  -0.1498
  C  C4739  1  0.838600  0.527460  0.854890  1.0  0.1663
  C  C4740  1  0.833010  0.482370  0.888620  1.0  0.1709
  C  C4741  1  0.815400  0.470600  0.888340  1.0  -0.1814
  C  C4742  1  0.813600  0.454700  0.873330  1.0  -0.0534
  C  C4743  1  0.829840  0.452170  0.859240  1.0  -0.1621
  C  C4744  1  0.847310  0.464980  0.860850  1.0  0.182
  C  C4745  1  0.829080  0.435590  0.843020  1.0  0.3972
  C  C4746  1  0.876110  0.499410  0.824780  1.0  0.2563
  C  C4747  1  0.852580  0.090280  0.469890  1.0  0.1787
  C  C4748  1  0.849140  0.072580  0.457500  1.0  -0.1426
  C  C4749  1  0.860720  0.054770  0.461380  1.0  -0.0543
  C  C4750  1  0.874820  0.055140  0.478100  1.0  -0.1427
  C  C4751  1  0.877580  0.073140  0.489070  1.0  0.1827
  C  C4752  1  0.783380  0.102260  0.345330  1.0  0.2706
  C  C4753  1  0.763210  0.138520  0.418430  1.0  0.1837
  C  C4754  1  0.774620  0.137400  0.436660  1.0  -0.1652
  C  C4755  1  0.790070  0.122210  0.438580  1.0  -0.0355
  C  C4756  1  0.792490  0.107900  0.422260  1.0  -0.1745
  C  C4757  1  0.780010  0.109740  0.404720  1.0  0.1884
  C  C4758  1  0.808770  0.091320  0.422820  1.0  0.3892
  C  C4759  1  0.834610  0.074330  0.439700  1.0  0.3113
  C  C4760  1  0.825890  0.064890  0.406840  1.0  0.4463
  C  C4761  1  0.846010  0.037680  0.388220  1.0  0.1966
  C  C4762  1  0.829520  0.052210  0.388150  1.0  -0.1755
  C  C4763  1  0.817350  0.054110  0.370400  1.0  -0.0493
  C  C4764  1  0.821920  0.041090  0.353580  1.0  -0.1498
  C  C4765  1  0.838600  0.027460  0.354890  1.0  0.1663
  C  C4766  1  0.833010  0.982370  0.388620  1.0  0.1709
  C  C4767  1  0.815400  0.970600  0.388340  1.0  -0.1814
  C  C4768  1  0.813600  0.954700  0.373330  1.0  -0.0534
  C  C4769  1  0.829840  0.952170  0.359240  1.0  -0.1621
  C  C4770  1  0.847310  0.964980  0.360850  1.0  0.182
  C  C4771  1  0.829080  0.935590  0.343020  1.0  0.3972
  C  C4772  1  0.876110  0.999410  0.324780  1.0  0.2563
  C  C4773  1  0.352580  0.590280  0.469890  1.0  0.1787
  C  C4774  1  0.349140  0.572580  0.457500  1.0  -0.1426
  C  C4775  1  0.360720  0.554770  0.461380  1.0  -0.0543
  C  C4776  1  0.374820  0.555140  0.478100  1.0  -0.1427
  C  C4777  1  0.377580  0.573140  0.489070  1.0  0.1827
  C  C4778  1  0.283380  0.602260  0.345330  1.0  0.2706
  C  C4779  1  0.263210  0.638520  0.418430  1.0  0.1837
  C  C4780  1  0.274620  0.637400  0.436660  1.0  -0.1652
  C  C4781  1  0.290070  0.622210  0.438580  1.0  -0.0355
  C  C4782  1  0.292490  0.607900  0.422260  1.0  -0.1745
  C  C4783  1  0.280010  0.609740  0.404720  1.0  0.1884
  C  C4784  1  0.308770  0.591320  0.422820  1.0  0.3892
  C  C4785  1  0.334610  0.574330  0.439700  1.0  0.3113
  C  C4786  1  0.325890  0.564890  0.406840  1.0  0.4463
  C  C4787  1  0.346010  0.537680  0.388220  1.0  0.1966
  C  C4788  1  0.329520  0.552210  0.388150  1.0  -0.1755
  C  C4789  1  0.317350  0.554110  0.370400  1.0  -0.0493
  C  C4790  1  0.321920  0.541090  0.353580  1.0  -0.1498
  C  C4791  1  0.338600  0.527460  0.354890  1.0  0.1663
  C  C4792  1  0.333010  0.482370  0.388620  1.0  0.1709
  C  C4793  1  0.315400  0.470600  0.388340  1.0  -0.1814
  C  C4794  1  0.313600  0.454700  0.373330  1.0  -0.0534
  C  C4795  1  0.329840  0.452170  0.359240  1.0  -0.1621
  C  C4796  1  0.347310  0.464980  0.360850  1.0  0.182
  C  C4797  1  0.329080  0.435590  0.343020  1.0  0.3972
  C  C4798  1  0.376110  0.499410  0.324780  1.0  0.2563
  C  C4799  1  0.352580  0.090280  0.969890  1.0  0.1787
  C  C4800  1  0.349140  0.072580  0.957500  1.0  -0.1426
  C  C4801  1  0.360720  0.054770  0.961380  1.0  -0.0543
  C  C4802  1  0.374820  0.055140  0.978100  1.0  -0.1427
  C  C4803  1  0.377580  0.073140  0.989070  1.0  0.1827
  C  C4804  1  0.283380  0.102260  0.845330  1.0  0.2706
  C  C4805  1  0.263210  0.138520  0.918430  1.0  0.1837
  C  C4806  1  0.274620  0.137400  0.936660  1.0  -0.1652
  C  C4807  1  0.290070  0.122210  0.938580  1.0  -0.0355
  C  C4808  1  0.292490  0.107900  0.922260  1.0  -0.1745
  C  C4809  1  0.280010  0.109740  0.904720  1.0  0.1884
  C  C4810  1  0.308770  0.091320  0.922820  1.0  0.3892
  C  C4811  1  0.334610  0.074330  0.939700  1.0  0.3113
  C  C4812  1  0.325890  0.064890  0.906840  1.0  0.4463
  C  C4813  1  0.346010  0.037680  0.888220  1.0  0.1966
  C  C4814  1  0.329520  0.052210  0.888150  1.0  -0.1755
  C  C4815  1  0.317350  0.054110  0.870400  1.0  -0.0493
  C  C4816  1  0.321920  0.041090  0.853580  1.0  -0.1498
  C  C4817  1  0.338600  0.027460  0.854890  1.0  0.1663
  C  C4818  1  0.333010  0.982370  0.888620  1.0  0.1709
  C  C4819  1  0.315400  0.970600  0.888340  1.0  -0.1814
  C  C4820  1  0.313600  0.954700  0.873330  1.0  -0.0534
  C  C4821  1  0.329840  0.952170  0.859240  1.0  -0.1621
  C  C4822  1  0.347310  0.964980  0.860850  1.0  0.182
  C  C4823  1  0.329080  0.935590  0.843020  1.0  0.3972
  C  C4824  1  0.376110  0.999410  0.824780  1.0  0.2563
  C  C4825  1  0.397420  0.159720  0.469890  1.0  0.1803
  C  C4826  1  0.400860  0.177420  0.457500  1.0  -0.1418
  C  C4827  1  0.389280  0.195230  0.461380  1.0  -0.0556
  C  C4828  1  0.375180  0.194860  0.478100  1.0  -0.1432
  C  C4829  1  0.372420  0.176860  0.489070  1.0  0.1821
  C  C4830  1  0.466620  0.147740  0.345330  1.0  0.2728
  C  C4831  1  0.486790  0.111480  0.418430  1.0  0.1837
  C  C4832  1  0.475380  0.112600  0.436660  1.0  -0.1617
  C  C4833  1  0.459930  0.127790  0.438580  1.0  -0.0373
  C  C4834  1  0.457510  0.142100  0.422260  1.0  -0.1744
  C  C4835  1  0.469990  0.140260  0.404720  1.0  0.1892
  C  C4836  1  0.441230  0.158680  0.422820  1.0  0.389
  C  C4837  1  0.415390  0.175670  0.439700  1.0  0.3113
  C  C4838  1  0.424110  0.185110  0.406840  1.0  0.4458
  C  C4839  1  0.403990  0.212320  0.388220  1.0  0.1984
  C  C4840  1  0.420480  0.197790  0.388150  1.0  -0.1761
  C  C4841  1  0.432650  0.195890  0.370400  1.0  -0.0488
  C  C4842  1  0.428080  0.208910  0.353580  1.0  -0.1504
  C  C4843  1  0.411400  0.222540  0.354890  1.0  0.1664
  C  C4844  1  0.416990  0.267630  0.388620  1.0  0.1714
  C  C4845  1  0.434600  0.279400  0.388340  1.0  -0.1803
  C  C4846  1  0.436400  0.295300  0.373330  1.0  -0.0517
  C  C4847  1  0.420160  0.297830  0.359240  1.0  -0.1608
  C  C4848  1  0.402690  0.285020  0.360850  1.0  0.1825
  C  C4849  1  0.420920  0.314410  0.343020  1.0  0.3972
  C  C4850  1  0.373890  0.250590  0.324780  1.0  0.2565
  C  C4851  1  0.397420  0.659720  0.969890  1.0  0.1803
  C  C4852  1  0.400860  0.677420  0.957500  1.0  -0.1418
  C  C4853  1  0.389280  0.695230  0.961380  1.0  -0.0556
  C  C4854  1  0.375180  0.694860  0.978100  1.0  -0.1432
  C  C4855  1  0.372420  0.676860  0.989070  1.0  0.1821
  C  C4856  1  0.466620  0.647740  0.845330  1.0  0.2728
  C  C4857  1  0.486790  0.611480  0.918430  1.0  0.1837
  C  C4858  1  0.475380  0.612600  0.936660  1.0  -0.1617
  C  C4859  1  0.459930  0.627790  0.938580  1.0  -0.0373
  C  C4860  1  0.457510  0.642100  0.922260  1.0  -0.1744
  C  C4861  1  0.469990  0.640260  0.904720  1.0  0.1892
  C  C4862  1  0.441230  0.658680  0.922820  1.0  0.389
  C  C4863  1  0.415390  0.675670  0.939700  1.0  0.3113
  C  C4864  1  0.424110  0.685110  0.906840  1.0  0.4458
  C  C4865  1  0.403990  0.712320  0.888220  1.0  0.1984
  C  C4866  1  0.420480  0.697790  0.888150  1.0  -0.1761
  C  C4867  1  0.432650  0.695890  0.870400  1.0  -0.0488
  C  C4868  1  0.428080  0.708910  0.853580  1.0  -0.1504
  C  C4869  1  0.411400  0.722540  0.854890  1.0  0.1664
  C  C4870  1  0.416990  0.767630  0.888620  1.0  0.1714
  C  C4871  1  0.434600  0.779400  0.888340  1.0  -0.1803
  C  C4872  1  0.436400  0.795300  0.873330  1.0  -0.0517
  C  C4873  1  0.420160  0.797830  0.859240  1.0  -0.1608
  C  C4874  1  0.402690  0.785020  0.860850  1.0  0.1825
  C  C4875  1  0.420920  0.814410  0.843020  1.0  0.3972
  C  C4876  1  0.373890  0.750590  0.824780  1.0  0.2565
  C  C4877  1  0.897420  0.159720  0.969890  1.0  0.1803
  C  C4878  1  0.900860  0.177420  0.957500  1.0  -0.1418
  C  C4879  1  0.889280  0.195230  0.961380  1.0  -0.0556
  C  C4880  1  0.875180  0.194860  0.978100  1.0  -0.1432
  C  C4881  1  0.872420  0.176860  0.989070  1.0  0.1821
  C  C4882  1  0.966620  0.147740  0.845330  1.0  0.2728
  C  C4883  1  0.986790  0.111480  0.918430  1.0  0.1837
  C  C4884  1  0.975380  0.112600  0.936660  1.0  -0.1617
  C  C4885  1  0.959930  0.127790  0.938580  1.0  -0.0373
  C  C4886  1  0.957510  0.142100  0.922260  1.0  -0.1744
  C  C4887  1  0.969990  0.140260  0.904720  1.0  0.1892
  C  C4888  1  0.941230  0.158680  0.922820  1.0  0.389
  C  C4889  1  0.915390  0.175670  0.939700  1.0  0.3113
  C  C4890  1  0.924110  0.185110  0.906840  1.0  0.4458
  C  C4891  1  0.903990  0.212320  0.888220  1.0  0.1984
  C  C4892  1  0.920480  0.197790  0.888150  1.0  -0.1761
  C  C4893  1  0.932650  0.195890  0.870400  1.0  -0.0488
  C  C4894  1  0.928080  0.208910  0.853580  1.0  -0.1504
  C  C4895  1  0.911400  0.222540  0.854890  1.0  0.1664
  C  C4896  1  0.916990  0.267630  0.888620  1.0  0.1714
  C  C4897  1  0.934600  0.279400  0.888340  1.0  -0.1803
  C  C4898  1  0.936400  0.295300  0.873330  1.0  -0.0517
  C  C4899  1  0.920160  0.297830  0.859240  1.0  -0.1608
  C  C4900  1  0.902690  0.285020  0.860850  1.0  0.1825
  C  C4901  1  0.920920  0.314410  0.843020  1.0  0.3972
  C  C4902  1  0.873890  0.250590  0.824780  1.0  0.2565
  C  C4903  1  0.897420  0.659720  0.469890  1.0  0.1803
  C  C4904  1  0.900860  0.677420  0.457500  1.0  -0.1418
  C  C4905  1  0.889280  0.695230  0.461380  1.0  -0.0556
  C  C4906  1  0.875180  0.694860  0.478100  1.0  -0.1432
  C  C4907  1  0.872420  0.676860  0.489070  1.0  0.1821
  C  C4908  1  0.966620  0.647740  0.345330  1.0  0.2728
  C  C4909  1  0.986790  0.611480  0.418430  1.0  0.1837
  C  C4910  1  0.975380  0.612600  0.436660  1.0  -0.1617
  C  C4911  1  0.959930  0.627790  0.438580  1.0  -0.0373
  C  C4912  1  0.957510  0.642100  0.422260  1.0  -0.1744
  C  C4913  1  0.969990  0.640260  0.404720  1.0  0.1892
  C  C4914  1  0.941230  0.658680  0.422820  1.0  0.389
  C  C4915  1  0.915390  0.675670  0.439700  1.0  0.3113
  C  C4916  1  0.924110  0.685110  0.406840  1.0  0.4458
  C  C4917  1  0.903990  0.712320  0.388220  1.0  0.1984
  C  C4918  1  0.920480  0.697790  0.388150  1.0  -0.1761
  C  C4919  1  0.932650  0.695890  0.370400  1.0  -0.0488
  C  C4920  1  0.928080  0.708910  0.353580  1.0  -0.1504
  C  C4921  1  0.911400  0.722540  0.354890  1.0  0.1664
  C  C4922  1  0.916990  0.767630  0.388620  1.0  0.1714
  C  C4923  1  0.934600  0.779400  0.388340  1.0  -0.1803
  C  C4924  1  0.936400  0.795300  0.373330  1.0  -0.0517
  C  C4925  1  0.920160  0.797830  0.359240  1.0  -0.1608
  C  C4926  1  0.902690  0.785020  0.360850  1.0  0.1825
  C  C4927  1  0.920920  0.814410  0.343020  1.0  0.3972
  C  C4928  1  0.873890  0.750590  0.324780  1.0  0.2565
  C  C4929  1  0.159720  0.469890  0.397420  1.0  0.1791
  C  C4930  1  0.177420  0.457500  0.400860  1.0  -0.1419
  C  C4931  1  0.195230  0.461380  0.389280  1.0  -0.0539
  C  C4932  1  0.194860  0.478100  0.375180  1.0  -0.1421
  C  C4933  1  0.176860  0.489070  0.372420  1.0  0.1836
  C  C4934  1  0.147740  0.345330  0.466620  1.0  0.2681
  C  C4935  1  0.111480  0.418430  0.486790  1.0  0.1853
  C  C4936  1  0.112600  0.436660  0.475380  1.0  -0.1676
  C  C4937  1  0.127790  0.438580  0.459930  1.0  -0.0351
  C  C4938  1  0.142100  0.422260  0.457510  1.0  -0.1774
  C  C4939  1  0.140260  0.404720  0.469990  1.0  0.188
  C  C4940  1  0.158680  0.422820  0.441230  1.0  0.3893
  C  C4941  1  0.175670  0.439700  0.415390  1.0  0.3107
  C  C4942  1  0.185110  0.406840  0.424110  1.0  0.4467
  C  C4943  1  0.212320  0.388220  0.403990  1.0  0.199
  C  C4944  1  0.197790  0.388150  0.420480  1.0  -0.175
  C  C4945  1  0.195890  0.370400  0.432650  1.0  -0.0489
  C  C4946  1  0.208910  0.353580  0.428080  1.0  -0.1531
  C  C4947  1  0.222540  0.354890  0.411400  1.0  0.164
  C  C4948  1  0.267630  0.388620  0.416990  1.0  0.1674
  C  C4949  1  0.279400  0.388340  0.434600  1.0  -0.1805
  C  C4950  1  0.295300  0.373330  0.436400  1.0  -0.0535
  C  C4951  1  0.297830  0.359240  0.420160  1.0  -0.1594
  C  C4952  1  0.285020  0.360850  0.402690  1.0  0.1836
  C  C4953  1  0.314410  0.343020  0.420920  1.0  0.3969
  C  C4954  1  0.250590  0.324780  0.373890  1.0  0.2676
  C  C4955  1  0.159720  0.969890  0.897420  1.0  0.1791
  C  C4956  1  0.177420  0.957500  0.900860  1.0  -0.1419
  C  C4957  1  0.195230  0.961380  0.889280  1.0  -0.0539
  C  C4958  1  0.194860  0.978100  0.875180  1.0  -0.1421
  C  C4959  1  0.176860  0.989070  0.872420  1.0  0.1836
  C  C4960  1  0.147740  0.845330  0.966620  1.0  0.2681
  C  C4961  1  0.111480  0.918430  0.986790  1.0  0.1853
  C  C4962  1  0.112600  0.936660  0.975380  1.0  -0.1676
  C  C4963  1  0.127790  0.938580  0.959930  1.0  -0.0351
  C  C4964  1  0.142100  0.922260  0.957510  1.0  -0.1774
  C  C4965  1  0.140260  0.904720  0.969990  1.0  0.188
  C  C4966  1  0.158680  0.922820  0.941230  1.0  0.3893
  C  C4967  1  0.175670  0.939700  0.915390  1.0  0.3107
  C  C4968  1  0.185110  0.906840  0.924110  1.0  0.4467
  C  C4969  1  0.212320  0.888220  0.903990  1.0  0.199
  C  C4970  1  0.197790  0.888150  0.920480  1.0  -0.175
  C  C4971  1  0.195890  0.870400  0.932650  1.0  -0.0489
  C  C4972  1  0.208910  0.853580  0.928080  1.0  -0.1531
  C  C4973  1  0.222540  0.854890  0.911400  1.0  0.164
  C  C4974  1  0.267630  0.888620  0.916990  1.0  0.1674
  C  C4975  1  0.279400  0.888340  0.934600  1.0  -0.1805
  C  C4976  1  0.295300  0.873330  0.936400  1.0  -0.0535
  C  C4977  1  0.297830  0.859240  0.920160  1.0  -0.1594
  C  C4978  1  0.285020  0.860850  0.902690  1.0  0.1836
  C  C4979  1  0.314410  0.843020  0.920920  1.0  0.3969
  C  C4980  1  0.250590  0.824780  0.873890  1.0  0.2676
  C  C4981  1  0.659720  0.469890  0.897420  1.0  0.1791
  C  C4982  1  0.677420  0.457500  0.900860  1.0  -0.1419
  C  C4983  1  0.695230  0.461380  0.889280  1.0  -0.0539
  C  C4984  1  0.694860  0.478100  0.875180  1.0  -0.1421
  C  C4985  1  0.676860  0.489070  0.872420  1.0  0.1836
  C  C4986  1  0.647740  0.345330  0.966620  1.0  0.2681
  C  C4987  1  0.611480  0.418430  0.986790  1.0  0.1853
  C  C4988  1  0.612600  0.436660  0.975380  1.0  -0.1676
  C  C4989  1  0.627790  0.438580  0.959930  1.0  -0.0351
  C  C4990  1  0.642100  0.422260  0.957510  1.0  -0.1774
  C  C4991  1  0.640260  0.404720  0.969990  1.0  0.188
  C  C4992  1  0.658680  0.422820  0.941230  1.0  0.3893
  C  C4993  1  0.675670  0.439700  0.915390  1.0  0.3107
  C  C4994  1  0.685110  0.406840  0.924110  1.0  0.4467
  C  C4995  1  0.712320  0.388220  0.903990  1.0  0.199
  C  C4996  1  0.697790  0.388150  0.920480  1.0  -0.175
  C  C4997  1  0.695890  0.370400  0.932650  1.0  -0.0489
  C  C4998  1  0.708910  0.353580  0.928080  1.0  -0.1531
  C  C4999  1  0.722540  0.354890  0.911400  1.0  0.164
  C  C5000  1  0.767630  0.388620  0.916990  1.0  0.1674
  C  C5001  1  0.779400  0.388340  0.934600  1.0  -0.1805
  C  C5002  1  0.795300  0.373330  0.936400  1.0  -0.0535
  C  C5003  1  0.797830  0.359240  0.920160  1.0  -0.1594
  C  C5004  1  0.785020  0.360850  0.902690  1.0  0.1836
  C  C5005  1  0.814410  0.343020  0.920920  1.0  0.3969
  C  C5006  1  0.750590  0.324780  0.873890  1.0  0.2676
  C  C5007  1  0.659720  0.969890  0.397420  1.0  0.1791
  C  C5008  1  0.677420  0.957500  0.400860  1.0  -0.1419
  C  C5009  1  0.695230  0.961380  0.389280  1.0  -0.0539
  C  C5010  1  0.694860  0.978100  0.375180  1.0  -0.1421
  C  C5011  1  0.676860  0.989070  0.372420  1.0  0.1836
  C  C5012  1  0.647740  0.845330  0.466620  1.0  0.2681
  C  C5013  1  0.611480  0.918430  0.486790  1.0  0.1853
  C  C5014  1  0.612600  0.936660  0.475380  1.0  -0.1676
  C  C5015  1  0.627790  0.938580  0.459930  1.0  -0.0351
  C  C5016  1  0.642100  0.922260  0.457510  1.0  -0.1774
  C  C5017  1  0.640260  0.904720  0.469990  1.0  0.188
  C  C5018  1  0.658680  0.922820  0.441230  1.0  0.3893
  C  C5019  1  0.675670  0.939700  0.415390  1.0  0.3107
  C  C5020  1  0.685110  0.906840  0.424110  1.0  0.4467
  C  C5021  1  0.712320  0.888220  0.403990  1.0  0.199
  C  C5022  1  0.697790  0.888150  0.420480  1.0  -0.175
  C  C5023  1  0.695890  0.870400  0.432650  1.0  -0.0489
  C  C5024  1  0.708910  0.853580  0.428080  1.0  -0.1531
  C  C5025  1  0.722540  0.854890  0.411400  1.0  0.164
  C  C5026  1  0.767630  0.888620  0.416990  1.0  0.1674
  C  C5027  1  0.779400  0.888340  0.434600  1.0  -0.1805
  C  C5028  1  0.795300  0.873330  0.436400  1.0  -0.0535
  C  C5029  1  0.797830  0.859240  0.420160  1.0  -0.1594
  C  C5030  1  0.785020  0.860850  0.402690  1.0  0.1836
  C  C5031  1  0.814410  0.843020  0.420920  1.0  0.3969
  C  C5032  1  0.750590  0.824780  0.373890  1.0  0.2676
  C  C5033  1  0.590280  0.969890  0.852580  1.0  0.1797
  C  C5034  1  0.572580  0.957500  0.849140  1.0  -0.1409
  C  C5035  1  0.554770  0.961380  0.860720  1.0  -0.0547
  C  C5036  1  0.555140  0.978100  0.874820  1.0  -0.1427
  C  C5037  1  0.573140  0.989070  0.877580  1.0  0.1823
  C  C5038  1  0.602260  0.845330  0.783380  1.0  0.2672
  C  C5039  1  0.638520  0.918430  0.763210  1.0  0.1855
  C  C5040  1  0.637400  0.936660  0.774620  1.0  -0.1656
  C  C5041  1  0.622210  0.938580  0.790070  1.0  -0.0351
  C  C5042  1  0.607900  0.922260  0.792490  1.0  -0.1757
  C  C5043  1  0.609740  0.904720  0.780010  1.0  0.1873
  C  C5044  1  0.591320  0.922820  0.808770  1.0  0.389
  C  C5045  1  0.574330  0.939700  0.834610  1.0  0.3113
  C  C5046  1  0.564890  0.906840  0.825890  1.0  0.4455
  C  C5047  1  0.537680  0.888220  0.846010  1.0  0.1978
  C  C5048  1  0.552210  0.888150  0.829520  1.0  -0.1747
  C  C5049  1  0.554110  0.870400  0.817350  1.0  -0.0497
  C  C5050  1  0.541090  0.853580  0.821920  1.0  -0.1528
  C  C5051  1  0.527460  0.854890  0.838600  1.0  0.1651
  C  C5052  1  0.482370  0.888620  0.833010  1.0  0.1671
  C  C5053  1  0.470600  0.888340  0.815400  1.0  -0.1788
  C  C5054  1  0.454700  0.873330  0.813600  1.0  -0.0545
  C  C5055  1  0.452170  0.859240  0.829840  1.0  -0.16
  C  C5056  1  0.464980  0.860850  0.847310  1.0  0.1836
  C  C5057  1  0.435590  0.843020  0.829080  1.0  0.3972
  C  C5058  1  0.499410  0.824780  0.876110  1.0  0.2679
  C  C5059  1  0.590280  0.469890  0.352580  1.0  0.1797
  C  C5060  1  0.572580  0.457500  0.349140  1.0  -0.1409
  C  C5061  1  0.554770  0.461380  0.360720  1.0  -0.0547
  C  C5062  1  0.555140  0.478100  0.374820  1.0  -0.1427
  C  C5063  1  0.573140  0.489070  0.377580  1.0  0.1823
  C  C5064  1  0.602260  0.345330  0.283380  1.0  0.2672
  C  C5065  1  0.638520  0.418430  0.263210  1.0  0.1855
  C  C5066  1  0.637400  0.436660  0.274620  1.0  -0.1656
  C  C5067  1  0.622210  0.438580  0.290070  1.0  -0.0351
  C  C5068  1  0.607900  0.422260  0.292490  1.0  -0.1757
  C  C5069  1  0.609740  0.404720  0.280010  1.0  0.1873
  C  C5070  1  0.591320  0.422820  0.308770  1.0  0.389
  C  C5071  1  0.574330  0.439700  0.334610  1.0  0.3113
  C  C5072  1  0.564890  0.406840  0.325890  1.0  0.4455
  C  C5073  1  0.537680  0.388220  0.346010  1.0  0.1978
  C  C5074  1  0.552210  0.388150  0.329520  1.0  -0.1747
  C  C5075  1  0.554110  0.370400  0.317350  1.0  -0.0497
  C  C5076  1  0.541090  0.353580  0.321920  1.0  -0.1528
  C  C5077  1  0.527460  0.354890  0.338600  1.0  0.1651
  C  C5078  1  0.482370  0.388620  0.333010  1.0  0.1671
  C  C5079  1  0.470600  0.388340  0.315400  1.0  -0.1788
  C  C5080  1  0.454700  0.373330  0.313600  1.0  -0.0545
  C  C5081  1  0.452170  0.359240  0.329840  1.0  -0.16
  C  C5082  1  0.464980  0.360850  0.347310  1.0  0.1836
  C  C5083  1  0.435590  0.343020  0.329080  1.0  0.3972
  C  C5084  1  0.499410  0.324780  0.376110  1.0  0.2679
  C  C5085  1  0.090280  0.969890  0.352580  1.0  0.1797
  C  C5086  1  0.072580  0.957500  0.349140  1.0  -0.1409
  C  C5087  1  0.054770  0.961380  0.360720  1.0  -0.0547
  C  C5088  1  0.055140  0.978100  0.374820  1.0  -0.1427
  C  C5089  1  0.073140  0.989070  0.377580  1.0  0.1823
  C  C5090  1  0.102260  0.845330  0.283380  1.0  0.2672
  C  C5091  1  0.138520  0.918430  0.263210  1.0  0.1855
  C  C5092  1  0.137400  0.936660  0.274620  1.0  -0.1656
  C  C5093  1  0.122210  0.938580  0.290070  1.0  -0.0351
  C  C5094  1  0.107900  0.922260  0.292490  1.0  -0.1757
  C  C5095  1  0.109740  0.904720  0.280010  1.0  0.1873
  C  C5096  1  0.091320  0.922820  0.308770  1.0  0.389
  C  C5097  1  0.074330  0.939700  0.334610  1.0  0.3113
  C  C5098  1  0.064890  0.906840  0.325890  1.0  0.4455
  C  C5099  1  0.037680  0.888220  0.346010  1.0  0.1978
  C  C5100  1  0.052210  0.888150  0.329520  1.0  -0.1747
  C  C5101  1  0.054110  0.870400  0.317350  1.0  -0.0497
  C  C5102  1  0.041090  0.853580  0.321920  1.0  -0.1528
  C  C5103  1  0.027460  0.854890  0.338600  1.0  0.1651
  C  C5104  1  0.982370  0.888620  0.333010  1.0  0.1671
  C  C5105  1  0.970600  0.888340  0.315400  1.0  -0.1788
  C  C5106  1  0.954700  0.873330  0.313600  1.0  -0.0545
  C  C5107  1  0.952170  0.859240  0.329840  1.0  -0.16
  C  C5108  1  0.964980  0.860850  0.347310  1.0  0.1836
  C  C5109  1  0.935590  0.843020  0.329080  1.0  0.3972
  C  C5110  1  0.999410  0.824780  0.376110  1.0  0.2679
  C  C5111  1  0.090280  0.469890  0.852580  1.0  0.1797
  C  C5112  1  0.072580  0.457500  0.849140  1.0  -0.1409
  C  C5113  1  0.054770  0.461380  0.860720  1.0  -0.0547
  C  C5114  1  0.055140  0.478100  0.874820  1.0  -0.1427
  C  C5115  1  0.073140  0.489070  0.877580  1.0  0.1823
  C  C5116  1  0.102260  0.345330  0.783380  1.0  0.2672
  C  C5117  1  0.138520  0.418430  0.763210  1.0  0.1855
  C  C5118  1  0.137400  0.436660  0.774620  1.0  -0.1656
  C  C5119  1  0.122210  0.438580  0.790070  1.0  -0.0351
  C  C5120  1  0.107900  0.422260  0.792490  1.0  -0.1757
  C  C5121  1  0.109740  0.404720  0.780010  1.0  0.1873
  C  C5122  1  0.091320  0.422820  0.808770  1.0  0.389
  C  C5123  1  0.074330  0.439700  0.834610  1.0  0.3113
  C  C5124  1  0.064890  0.406840  0.825890  1.0  0.4455
  C  C5125  1  0.037680  0.388220  0.846010  1.0  0.1978
  C  C5126  1  0.052210  0.388150  0.829520  1.0  -0.1747
  C  C5127  1  0.054110  0.370400  0.817350  1.0  -0.0497
  C  C5128  1  0.041090  0.353580  0.821920  1.0  -0.1528
  C  C5129  1  0.027460  0.354890  0.838600  1.0  0.1651
  C  C5130  1  0.982370  0.388620  0.833010  1.0  0.1671
  C  C5131  1  0.970600  0.388340  0.815400  1.0  -0.1788
  C  C5132  1  0.954700  0.373330  0.813600  1.0  -0.0545
  C  C5133  1  0.952170  0.359240  0.829840  1.0  -0.16
  C  C5134  1  0.964980  0.360850  0.847310  1.0  0.1836
  C  C5135  1  0.935590  0.343020  0.829080  1.0  0.3972
  C  C5136  1  0.999410  0.324780  0.876110  1.0  0.2679
  C  C5137  1  0.090280  0.280110  0.897420  1.0  0.1792
  C  C5138  1  0.072580  0.292500  0.900860  1.0  -0.1412
  C  C5139  1  0.054770  0.288620  0.889280  1.0  -0.0552
  C  C5140  1  0.055140  0.271900  0.875180  1.0  -0.1414
  C  C5141  1  0.073140  0.260930  0.872420  1.0  0.1822
  C  C5142  1  0.102260  0.404670  0.966620  1.0  0.2706
  C  C5143  1  0.138520  0.331570  0.986790  1.0  0.1864
  C  C5144  1  0.137400  0.313340  0.975380  1.0  -0.1672
  C  C5145  1  0.122210  0.311420  0.959930  1.0  -0.0364
  C  C5146  1  0.107900  0.327740  0.957510  1.0  -0.1765
  C  C5147  1  0.109740  0.345280  0.969990  1.0  0.1873
  C  C5148  1  0.091320  0.327180  0.941230  1.0  0.3888
  C  C5149  1  0.074330  0.310300  0.915390  1.0  0.3113
  C  C5150  1  0.064890  0.343160  0.924110  1.0  0.4461
  C  C5151  1  0.037680  0.361780  0.903990  1.0  0.1988
  C  C5152  1  0.052210  0.361850  0.920480  1.0  -0.175
  C  C5153  1  0.054110  0.379600  0.932650  1.0  -0.0486
  C  C5154  1  0.041090  0.396420  0.928080  1.0  -0.153
  C  C5155  1  0.027460  0.395110  0.911400  1.0  0.1649
  C  C5156  1  0.982370  0.361380  0.916990  1.0  0.167
  C  C5157  1  0.970600  0.361660  0.934600  1.0  -0.1806
  C  C5158  1  0.954700  0.376670  0.936400  1.0  -0.0543
  C  C5159  1  0.952170  0.390760  0.920160  1.0  -0.1589
  C  C5160  1  0.964980  0.389150  0.902690  1.0  0.1821
  C  C5161  1  0.935590  0.406980  0.920920  1.0  0.3969
  C  C5162  1  0.999410  0.425220  0.873890  1.0  0.2609
  C  C5163  1  0.090280  0.780110  0.397420  1.0  0.1792
  C  C5164  1  0.072580  0.792500  0.400860  1.0  -0.1412
  C  C5165  1  0.054770  0.788620  0.389280  1.0  -0.0552
  C  C5166  1  0.055140  0.771900  0.375180  1.0  -0.1414
  C  C5167  1  0.073140  0.760930  0.372420  1.0  0.1822
  C  C5168  1  0.102260  0.904670  0.466620  1.0  0.2706
  C  C5169  1  0.138520  0.831570  0.486790  1.0  0.1864
  C  C5170  1  0.137400  0.813340  0.475380  1.0  -0.1672
  C  C5171  1  0.122210  0.811420  0.459930  1.0  -0.0364
  C  C5172  1  0.107900  0.827740  0.457510  1.0  -0.1765
  C  C5173  1  0.109740  0.845280  0.469990  1.0  0.1873
  C  C5174  1  0.091320  0.827180  0.441230  1.0  0.3888
  C  C5175  1  0.074330  0.810300  0.415390  1.0  0.3113
  C  C5176  1  0.064890  0.843160  0.424110  1.0  0.4461
  C  C5177  1  0.037680  0.861780  0.403990  1.0  0.1988
  C  C5178  1  0.052210  0.861850  0.420480  1.0  -0.175
  C  C5179  1  0.054110  0.879600  0.432650  1.0  -0.0486
  C  C5180  1  0.041090  0.896420  0.428080  1.0  -0.153
  C  C5181  1  0.027460  0.895110  0.411400  1.0  0.1649
  C  C5182  1  0.982370  0.861380  0.416990  1.0  0.167
  C  C5183  1  0.970600  0.861660  0.434600  1.0  -0.1806
  C  C5184  1  0.954700  0.876670  0.436400  1.0  -0.0543
  C  C5185  1  0.952170  0.890760  0.420160  1.0  -0.1589
  C  C5186  1  0.964980  0.889150  0.402690  1.0  0.1821
  C  C5187  1  0.935590  0.906980  0.420920  1.0  0.3969
  C  C5188  1  0.999410  0.925220  0.373890  1.0  0.2609
  C  C5189  1  0.590280  0.280110  0.397420  1.0  0.1792
  C  C5190  1  0.572580  0.292500  0.400860  1.0  -0.1412
  C  C5191  1  0.554770  0.288620  0.389280  1.0  -0.0552
  C  C5192  1  0.555140  0.271900  0.375180  1.0  -0.1414
  C  C5193  1  0.573140  0.260930  0.372420  1.0  0.1822
  C  C5194  1  0.602260  0.404670  0.466620  1.0  0.2706
  C  C5195  1  0.638520  0.331570  0.486790  1.0  0.1864
  C  C5196  1  0.637400  0.313340  0.475380  1.0  -0.1672
  C  C5197  1  0.622210  0.311420  0.459930  1.0  -0.0364
  C  C5198  1  0.607900  0.327740  0.457510  1.0  -0.1765
  C  C5199  1  0.609740  0.345280  0.469990  1.0  0.1873
  C  C5200  1  0.591320  0.327180  0.441230  1.0  0.3888
  C  C5201  1  0.574330  0.310300  0.415390  1.0  0.3113
  C  C5202  1  0.564890  0.343160  0.424110  1.0  0.4461
  C  C5203  1  0.537680  0.361780  0.403990  1.0  0.1988
  C  C5204  1  0.552210  0.361850  0.420480  1.0  -0.175
  C  C5205  1  0.554110  0.379600  0.432650  1.0  -0.0486
  C  C5206  1  0.541090  0.396420  0.428080  1.0  -0.153
  C  C5207  1  0.527460  0.395110  0.411400  1.0  0.1649
  C  C5208  1  0.482370  0.361380  0.416990  1.0  0.167
  C  C5209  1  0.470600  0.361660  0.434600  1.0  -0.1806
  C  C5210  1  0.454700  0.376670  0.436400  1.0  -0.0543
  C  C5211  1  0.452170  0.390760  0.420160  1.0  -0.1589
  C  C5212  1  0.464980  0.389150  0.402690  1.0  0.1821
  C  C5213  1  0.435590  0.406980  0.420920  1.0  0.3969
  C  C5214  1  0.499410  0.425220  0.373890  1.0  0.2609
  C  C5215  1  0.590280  0.780110  0.897420  1.0  0.1792
  C  C5216  1  0.572580  0.792500  0.900860  1.0  -0.1412
  C  C5217  1  0.554770  0.788620  0.889280  1.0  -0.0552
  C  C5218  1  0.555140  0.771900  0.875180  1.0  -0.1414
  C  C5219  1  0.573140  0.760930  0.872420  1.0  0.1822
  C  C5220  1  0.602260  0.904670  0.966620  1.0  0.2706
  C  C5221  1  0.638520  0.831570  0.986790  1.0  0.1864
  C  C5222  1  0.637400  0.813340  0.975380  1.0  -0.1672
  C  C5223  1  0.622210  0.811420  0.959930  1.0  -0.0364
  C  C5224  1  0.607900  0.827740  0.957510  1.0  -0.1765
  C  C5225  1  0.609740  0.845280  0.969990  1.0  0.1873
  C  C5226  1  0.591320  0.827180  0.941230  1.0  0.3888
  C  C5227  1  0.574330  0.810300  0.915390  1.0  0.3113
  C  C5228  1  0.564890  0.843160  0.924110  1.0  0.4461
  C  C5229  1  0.537680  0.861780  0.903990  1.0  0.1988
  C  C5230  1  0.552210  0.861850  0.920480  1.0  -0.175
  C  C5231  1  0.554110  0.879600  0.932650  1.0  -0.0486
  C  C5232  1  0.541090  0.896420  0.928080  1.0  -0.153
  C  C5233  1  0.527460  0.895110  0.911400  1.0  0.1649
  C  C5234  1  0.482370  0.861380  0.916990  1.0  0.167
  C  C5235  1  0.470600  0.861660  0.934600  1.0  -0.1806
  C  C5236  1  0.454700  0.876670  0.936400  1.0  -0.0543
  C  C5237  1  0.452170  0.890760  0.920160  1.0  -0.1589
  C  C5238  1  0.464980  0.889150  0.902690  1.0  0.1821
  C  C5239  1  0.435590  0.906980  0.920920  1.0  0.3969
  C  C5240  1  0.499410  0.925220  0.873890  1.0  0.2609
  C  C5241  1  0.659720  0.780110  0.352580  1.0  0.1792
  C  C5242  1  0.677420  0.792500  0.349140  1.0  -0.1406
  C  C5243  1  0.695230  0.788620  0.360720  1.0  -0.0536
  C  C5244  1  0.694860  0.771900  0.374820  1.0  -0.1407
  C  C5245  1  0.676860  0.760930  0.377580  1.0  0.1832
  C  C5246  1  0.647740  0.904670  0.283380  1.0  0.2663
  C  C5247  1  0.611480  0.831570  0.263210  1.0  0.1867
  C  C5248  1  0.612600  0.813340  0.274620  1.0  -0.1681
  C  C5249  1  0.627790  0.811420  0.290070  1.0  -0.0362
  C  C5250  1  0.642100  0.827740  0.292490  1.0  -0.1775
  C  C5251  1  0.640260  0.845280  0.280010  1.0  0.1872
  C  C5252  1  0.658680  0.827180  0.308770  1.0  0.389
  C  C5253  1  0.675670  0.810300  0.334610  1.0  0.3109
  C  C5254  1  0.685110  0.843160  0.325890  1.0  0.4465
  C  C5255  1  0.712320  0.861780  0.346010  1.0  0.1999
  C  C5256  1  0.697790  0.861850  0.329520  1.0  -0.1755
  C  C5257  1  0.695890  0.879600  0.317350  1.0  -0.0484
  C  C5258  1  0.708910  0.896420  0.321920  1.0  -0.1536
  C  C5259  1  0.722540  0.895110  0.338600  1.0  0.1652
  C  C5260  1  0.767630  0.861380  0.333010  1.0  0.1673
  C  C5261  1  0.779400  0.861660  0.315400  1.0  -0.1798
  C  C5262  1  0.795300  0.876670  0.313600  1.0  -0.0555
  C  C5263  1  0.797830  0.890760  0.329840  1.0  -0.1593
  C  C5264  1  0.785020  0.889150  0.347310  1.0  0.1841
  C  C5265  1  0.814410  0.906980  0.329080  1.0  0.397
  C  C5266  1  0.750590  0.925220  0.376110  1.0  0.2601
  C  C5267  1  0.659720  0.280110  0.852580  1.0  0.1792
  C  C5268  1  0.677420  0.292500  0.849140  1.0  -0.1406
  C  C5269  1  0.695230  0.288620  0.860720  1.0  -0.0536
  C  C5270  1  0.694860  0.271900  0.874820  1.0  -0.1407
  C  C5271  1  0.676860  0.260930  0.877580  1.0  0.1832
  C  C5272  1  0.647740  0.404670  0.783380  1.0  0.2663
  C  C5273  1  0.611480  0.331570  0.763210  1.0  0.1867
  C  C5274  1  0.612600  0.313340  0.774620  1.0  -0.1681
  C  C5275  1  0.627790  0.311420  0.790070  1.0  -0.0362
  C  C5276  1  0.642100  0.327740  0.792490  1.0  -0.1775
  C  C5277  1  0.640260  0.345280  0.780010  1.0  0.1872
  C  C5278  1  0.658680  0.327180  0.808770  1.0  0.389
  C  C5279  1  0.675670  0.310300  0.834610  1.0  0.3109
  C  C5280  1  0.685110  0.343160  0.825890  1.0  0.4465
  C  C5281  1  0.712320  0.361780  0.846010  1.0  0.1999
  C  C5282  1  0.697790  0.361850  0.829520  1.0  -0.1755
  C  C5283  1  0.695890  0.379600  0.817350  1.0  -0.0484
  C  C5284  1  0.708910  0.396420  0.821920  1.0  -0.1536
  C  C5285  1  0.722540  0.395110  0.838600  1.0  0.1652
  C  C5286  1  0.767630  0.361380  0.833010  1.0  0.1673
  C  C5287  1  0.779400  0.361660  0.815400  1.0  -0.1798
  C  C5288  1  0.795300  0.376670  0.813600  1.0  -0.0555
  C  C5289  1  0.797830  0.390760  0.829840  1.0  -0.1593
  C  C5290  1  0.785020  0.389150  0.847310  1.0  0.1841
  C  C5291  1  0.814410  0.406980  0.829080  1.0  0.397
  C  C5292  1  0.750590  0.425220  0.876110  1.0  0.2601
  C  C5293  1  0.159720  0.780110  0.852580  1.0  0.1792
  C  C5294  1  0.177420  0.792500  0.849140  1.0  -0.1406
  C  C5295  1  0.195230  0.788620  0.860720  1.0  -0.0536
  C  C5296  1  0.194860  0.771900  0.874820  1.0  -0.1407
  C  C5297  1  0.176860  0.760930  0.877580  1.0  0.1832
  C  C5298  1  0.147740  0.904670  0.783380  1.0  0.2663
  C  C5299  1  0.111480  0.831570  0.763210  1.0  0.1867
  C  C5300  1  0.112600  0.813340  0.774620  1.0  -0.1681
  C  C5301  1  0.127790  0.811420  0.790070  1.0  -0.0362
  C  C5302  1  0.142100  0.827740  0.792490  1.0  -0.1775
  C  C5303  1  0.140260  0.845280  0.780010  1.0  0.1872
  C  C5304  1  0.158680  0.827180  0.808770  1.0  0.389
  C  C5305  1  0.175670  0.810300  0.834610  1.0  0.3109
  C  C5306  1  0.185110  0.843160  0.825890  1.0  0.4465
  C  C5307  1  0.212320  0.861780  0.846010  1.0  0.1999
  C  C5308  1  0.197790  0.861850  0.829520  1.0  -0.1755
  C  C5309  1  0.195890  0.879600  0.817350  1.0  -0.0484
  C  C5310  1  0.208910  0.896420  0.821920  1.0  -0.1536
  C  C5311  1  0.222540  0.895110  0.838600  1.0  0.1652
  C  C5312  1  0.267630  0.861380  0.833010  1.0  0.1673
  C  C5313  1  0.279400  0.861660  0.815400  1.0  -0.1798
  C  C5314  1  0.295300  0.876670  0.813600  1.0  -0.0555
  C  C5315  1  0.297830  0.890760  0.829840  1.0  -0.1593
  C  C5316  1  0.285020  0.889150  0.847310  1.0  0.1841
  C  C5317  1  0.314410  0.906980  0.829080  1.0  0.397
  C  C5318  1  0.250590  0.925220  0.876110  1.0  0.2601
  C  C5319  1  0.159720  0.280110  0.352580  1.0  0.1792
  C  C5320  1  0.177420  0.292500  0.349140  1.0  -0.1406
  C  C5321  1  0.195230  0.288620  0.360720  1.0  -0.0536
  C  C5322  1  0.194860  0.271900  0.374820  1.0  -0.1407
  C  C5323  1  0.176860  0.260930  0.377580  1.0  0.1832
  C  C5324  1  0.147740  0.404670  0.283380  1.0  0.2663
  C  C5325  1  0.111480  0.331570  0.263210  1.0  0.1867
  C  C5326  1  0.112600  0.313340  0.274620  1.0  -0.1681
  C  C5327  1  0.127790  0.311420  0.290070  1.0  -0.0362
  C  C5328  1  0.142100  0.327740  0.292490  1.0  -0.1775
  C  C5329  1  0.140260  0.345280  0.280010  1.0  0.1872
  C  C5330  1  0.158680  0.327180  0.308770  1.0  0.389
  C  C5331  1  0.175670  0.310300  0.334610  1.0  0.3109
  C  C5332  1  0.185110  0.343160  0.325890  1.0  0.4465
  C  C5333  1  0.212320  0.361780  0.346010  1.0  0.1999
  C  C5334  1  0.197790  0.361850  0.329520  1.0  -0.1755
  C  C5335  1  0.195890  0.379600  0.317350  1.0  -0.0484
  C  C5336  1  0.208910  0.396420  0.321920  1.0  -0.1536
  C  C5337  1  0.222540  0.395110  0.338600  1.0  0.1652
  C  C5338  1  0.267630  0.361380  0.333010  1.0  0.1673
  C  C5339  1  0.279400  0.361660  0.315400  1.0  -0.1798
  C  C5340  1  0.295300  0.376670  0.313600  1.0  -0.0555
  C  C5341  1  0.297830  0.390760  0.329840  1.0  -0.1593
  C  C5342  1  0.285020  0.389150  0.347310  1.0  0.1841
  C  C5343  1  0.314410  0.406980  0.329080  1.0  0.397
  C  C5344  1  0.250590  0.425220  0.376110  1.0  0.2601
  C  C5345  1  0.969890  0.852580  0.590280  1.0  0.1809
  C  C5346  1  0.957500  0.849140  0.572580  1.0  -0.1398
  C  C5347  1  0.961380  0.860720  0.554770  1.0  -0.0576
  C  C5348  1  0.978100  0.874820  0.555140  1.0  -0.1411
  C  C5349  1  0.989070  0.877580  0.573140  1.0  0.1811
  C  C5350  1  0.845330  0.783380  0.602260  1.0  0.2683
  C  C5351  1  0.918430  0.763210  0.638520  1.0  0.1872
  C  C5352  1  0.936660  0.774620  0.637400  1.0  -0.1629
  C  C5353  1  0.938580  0.790070  0.622210  1.0  -0.0376
  C  C5354  1  0.922260  0.792490  0.607900  1.0  -0.1773
  C  C5355  1  0.904720  0.780010  0.609740  1.0  0.1874
  C  C5356  1  0.922820  0.808770  0.591320  1.0  0.3893
  C  C5357  1  0.939700  0.834610  0.574330  1.0  0.3111
  C  C5358  1  0.906840  0.825890  0.564890  1.0  0.4454
  C  C5359  1  0.888220  0.846010  0.537680  1.0  0.199
  C  C5360  1  0.888150  0.829520  0.552210  1.0  -0.1723
  C  C5361  1  0.870400  0.817350  0.554110  1.0  -0.0501
  C  C5362  1  0.853580  0.821920  0.541090  1.0  -0.1518
  C  C5363  1  0.854890  0.838600  0.527460  1.0  0.1677
  C  C5364  1  0.888620  0.833010  0.482370  1.0  0.17
  C  C5365  1  0.888340  0.815400  0.470600  1.0  -0.1823
  C  C5366  1  0.873330  0.813600  0.454700  1.0  -0.0542
  C  C5367  1  0.859240  0.829840  0.452170  1.0  -0.1594
  C  C5368  1  0.860850  0.847310  0.464980  1.0  0.1827
  C  C5369  1  0.843020  0.829080  0.435590  1.0  0.3972
  C  C5370  1  0.824780  0.876110  0.499410  1.0  0.2707
  C  C5371  1  0.969890  0.352580  0.090280  1.0  0.1809
  C  C5372  1  0.957500  0.349140  0.072580  1.0  -0.1398
  C  C5373  1  0.961380  0.360720  0.054770  1.0  -0.0576
  C  C5374  1  0.978100  0.374820  0.055140  1.0  -0.1411
  C  C5375  1  0.989070  0.377580  0.073140  1.0  0.1811
  C  C5376  1  0.845330  0.283380  0.102260  1.0  0.2683
  C  C5377  1  0.918430  0.263210  0.138520  1.0  0.1872
  C  C5378  1  0.936660  0.274620  0.137400  1.0  -0.1629
  C  C5379  1  0.938580  0.290070  0.122210  1.0  -0.0376
  C  C5380  1  0.922260  0.292490  0.107900  1.0  -0.1773
  C  C5381  1  0.904720  0.280010  0.109740  1.0  0.1874
  C  C5382  1  0.922820  0.308770  0.091320  1.0  0.3893
  C  C5383  1  0.939700  0.334610  0.074330  1.0  0.3111
  C  C5384  1  0.906840  0.325890  0.064890  1.0  0.4454
  C  C5385  1  0.888220  0.346010  0.037680  1.0  0.199
  C  C5386  1  0.888150  0.329520  0.052210  1.0  -0.1723
  C  C5387  1  0.870400  0.317350  0.054110  1.0  -0.0501
  C  C5388  1  0.853580  0.321920  0.041090  1.0  -0.1518
  C  C5389  1  0.854890  0.338600  0.027460  1.0  0.1677
  C  C5390  1  0.888620  0.333010  0.982370  1.0  0.17
  C  C5391  1  0.888340  0.315400  0.970600  1.0  -0.1823
  C  C5392  1  0.873330  0.313600  0.954700  1.0  -0.0542
  C  C5393  1  0.859240  0.329840  0.952170  1.0  -0.1594
  C  C5394  1  0.860850  0.347310  0.964980  1.0  0.1827
  C  C5395  1  0.843020  0.329080  0.935590  1.0  0.3972
  C  C5396  1  0.824780  0.376110  0.999410  1.0  0.2707
  C  C5397  1  0.469890  0.852580  0.090280  1.0  0.1809
  C  C5398  1  0.457500  0.849140  0.072580  1.0  -0.1398
  C  C5399  1  0.461380  0.860720  0.054770  1.0  -0.0576
  C  C5400  1  0.478100  0.874820  0.055140  1.0  -0.1411
  C  C5401  1  0.489070  0.877580  0.073140  1.0  0.1811
  C  C5402  1  0.345330  0.783380  0.102260  1.0  0.2683
  C  C5403  1  0.418430  0.763210  0.138520  1.0  0.1872
  C  C5404  1  0.436660  0.774620  0.137400  1.0  -0.1629
  C  C5405  1  0.438580  0.790070  0.122210  1.0  -0.0376
  C  C5406  1  0.422260  0.792490  0.107900  1.0  -0.1773
  C  C5407  1  0.404720  0.780010  0.109740  1.0  0.1874
  C  C5408  1  0.422820  0.808770  0.091320  1.0  0.3893
  C  C5409  1  0.439700  0.834610  0.074330  1.0  0.3111
  C  C5410  1  0.406840  0.825890  0.064890  1.0  0.4454
  C  C5411  1  0.388220  0.846010  0.037680  1.0  0.199
  C  C5412  1  0.388150  0.829520  0.052210  1.0  -0.1723
  C  C5413  1  0.370400  0.817350  0.054110  1.0  -0.0501
  C  C5414  1  0.353580  0.821920  0.041090  1.0  -0.1518
  C  C5415  1  0.354890  0.838600  0.027460  1.0  0.1677
  C  C5416  1  0.388620  0.833010  0.982370  1.0  0.17
  C  C5417  1  0.388340  0.815400  0.970600  1.0  -0.1823
  C  C5418  1  0.373330  0.813600  0.954700  1.0  -0.0542
  C  C5419  1  0.359240  0.829840  0.952170  1.0  -0.1594
  C  C5420  1  0.360850  0.847310  0.964980  1.0  0.1827
  C  C5421  1  0.343020  0.829080  0.935590  1.0  0.3972
  C  C5422  1  0.324780  0.876110  0.999410  1.0  0.2707
  C  C5423  1  0.469890  0.352580  0.590280  1.0  0.1809
  C  C5424  1  0.457500  0.349140  0.572580  1.0  -0.1398
  C  C5425  1  0.461380  0.360720  0.554770  1.0  -0.0576
  C  C5426  1  0.478100  0.374820  0.555140  1.0  -0.1411
  C  C5427  1  0.489070  0.377580  0.573140  1.0  0.1811
  C  C5428  1  0.345330  0.283380  0.602260  1.0  0.2683
  C  C5429  1  0.418430  0.263210  0.638520  1.0  0.1872
  C  C5430  1  0.436660  0.274620  0.637400  1.0  -0.1629
  C  C5431  1  0.438580  0.290070  0.622210  1.0  -0.0376
  C  C5432  1  0.422260  0.292490  0.607900  1.0  -0.1773
  C  C5433  1  0.404720  0.280010  0.609740  1.0  0.1874
  C  C5434  1  0.422820  0.308770  0.591320  1.0  0.3893
  C  C5435  1  0.439700  0.334610  0.574330  1.0  0.3111
  C  C5436  1  0.406840  0.325890  0.564890  1.0  0.4454
  C  C5437  1  0.388220  0.346010  0.537680  1.0  0.199
  C  C5438  1  0.388150  0.329520  0.552210  1.0  -0.1723
  C  C5439  1  0.370400  0.317350  0.554110  1.0  -0.0501
  C  C5440  1  0.353580  0.321920  0.541090  1.0  -0.1518
  C  C5441  1  0.354890  0.338600  0.527460  1.0  0.1677
  C  C5442  1  0.388620  0.333010  0.482370  1.0  0.17
  C  C5443  1  0.388340  0.315400  0.470600  1.0  -0.1823
  C  C5444  1  0.373330  0.313600  0.454700  1.0  -0.0542
  C  C5445  1  0.359240  0.329840  0.452170  1.0  -0.1594
  C  C5446  1  0.360850  0.347310  0.464980  1.0  0.1827
  C  C5447  1  0.343020  0.329080  0.435590  1.0  0.3972
  C  C5448  1  0.324780  0.376110  0.499410  1.0  0.2707
  C  C5449  1  0.469890  0.397420  0.159720  1.0  0.1814
  C  C5450  1  0.457500  0.400860  0.177420  1.0  -0.1382
  C  C5451  1  0.461380  0.389280  0.195230  1.0  -0.0548
  C  C5452  1  0.478100  0.375180  0.194860  1.0  -0.1389
  C  C5453  1  0.489070  0.372420  0.176860  1.0  0.1804
  C  C5454  1  0.345330  0.466620  0.147740  1.0  0.2705
  C  C5455  1  0.418430  0.486790  0.111480  1.0  0.1876
  C  C5456  1  0.436660  0.475380  0.112600  1.0  -0.1636
  C  C5457  1  0.438580  0.459930  0.127790  1.0  -0.0379
  C  C5458  1  0.422260  0.457510  0.142100  1.0  -0.1775
  C  C5459  1  0.404720  0.469990  0.140260  1.0  0.1867
  C  C5460  1  0.422820  0.441230  0.158680  1.0  0.3892
  C  C5461  1  0.439700  0.415390  0.175670  1.0  0.3113
  C  C5462  1  0.406840  0.424110  0.185110  1.0  0.4459
  C  C5463  1  0.388220  0.403990  0.212320  1.0  0.1991
  C  C5464  1  0.388150  0.420480  0.197790  1.0  -0.1733
  C  C5465  1  0.370400  0.432650  0.195890  1.0  -0.051
  C  C5466  1  0.353580  0.428080  0.208910  1.0  -0.1536
  C  C5467  1  0.354890  0.411400  0.222540  1.0  0.1671
  C  C5468  1  0.388620  0.416990  0.267630  1.0  0.1699
  C  C5469  1  0.388340  0.434600  0.279400  1.0  -0.1813
  C  C5470  1  0.373330  0.436400  0.295300  1.0  -0.0534
  C  C5471  1  0.359240  0.420160  0.297830  1.0  -0.16
  C  C5472  1  0.360850  0.402690  0.285020  1.0  0.1834
  C  C5473  1  0.343020  0.420920  0.314410  1.0  0.3967
  C  C5474  1  0.324780  0.373890  0.250590  1.0  0.2709
  C  C5475  1  0.469890  0.897420  0.659720  1.0  0.1814
  C  C5476  1  0.457500  0.900860  0.677420  1.0  -0.1382
  C  C5477  1  0.461380  0.889280  0.695230  1.0  -0.0548
  C  C5478  1  0.478100  0.875180  0.694860  1.0  -0.1389
  C  C5479  1  0.489070  0.872420  0.676860  1.0  0.1804
  C  C5480  1  0.345330  0.966620  0.647740  1.0  0.2705
  C  C5481  1  0.418430  0.986790  0.611480  1.0  0.1876
  C  C5482  1  0.436660  0.975380  0.612600  1.0  -0.1636
  C  C5483  1  0.438580  0.959930  0.627790  1.0  -0.0379
  C  C5484  1  0.422260  0.957510  0.642100  1.0  -0.1775
  C  C5485  1  0.404720  0.969990  0.640260  1.0  0.1867
  C  C5486  1  0.422820  0.941230  0.658680  1.0  0.3892
  C  C5487  1  0.439700  0.915390  0.675670  1.0  0.3113
  C  C5488  1  0.406840  0.924110  0.685110  1.0  0.4459
  C  C5489  1  0.388220  0.903990  0.712320  1.0  0.1991
  C  C5490  1  0.388150  0.920480  0.697790  1.0  -0.1733
  C  C5491  1  0.370400  0.932650  0.695890  1.0  -0.051
  C  C5492  1  0.353580  0.928080  0.708910  1.0  -0.1536
  C  C5493  1  0.354890  0.911400  0.722540  1.0  0.1671
  C  C5494  1  0.388620  0.916990  0.767630  1.0  0.1699
  C  C5495  1  0.388340  0.934600  0.779400  1.0  -0.1813
  C  C5496  1  0.373330  0.936400  0.795300  1.0  -0.0534
  C  C5497  1  0.359240  0.920160  0.797830  1.0  -0.16
  C  C5498  1  0.360850  0.902690  0.785020  1.0  0.1834
  C  C5499  1  0.343020  0.920920  0.814410  1.0  0.3967
  C  C5500  1  0.324780  0.873890  0.750590  1.0  0.2709
  C  C5501  1  0.969890  0.397420  0.659720  1.0  0.1814
  C  C5502  1  0.957500  0.400860  0.677420  1.0  -0.1382
  C  C5503  1  0.961380  0.389280  0.695230  1.0  -0.0548
  C  C5504  1  0.978100  0.375180  0.694860  1.0  -0.1389
  C  C5505  1  0.989070  0.372420  0.676860  1.0  0.1804
  C  C5506  1  0.845330  0.466620  0.647740  1.0  0.2705
  C  C5507  1  0.918430  0.486790  0.611480  1.0  0.1876
  C  C5508  1  0.936660  0.475380  0.612600  1.0  -0.1636
  C  C5509  1  0.938580  0.459930  0.627790  1.0  -0.0379
  C  C5510  1  0.922260  0.457510  0.642100  1.0  -0.1775
  C  C5511  1  0.904720  0.469990  0.640260  1.0  0.1867
  C  C5512  1  0.922820  0.441230  0.658680  1.0  0.3892
  C  C5513  1  0.939700  0.415390  0.675670  1.0  0.3113
  C  C5514  1  0.906840  0.424110  0.685110  1.0  0.4459
  C  C5515  1  0.888220  0.403990  0.712320  1.0  0.1991
  C  C5516  1  0.888150  0.420480  0.697790  1.0  -0.1733
  C  C5517  1  0.870400  0.432650  0.695890  1.0  -0.051
  C  C5518  1  0.853580  0.428080  0.708910  1.0  -0.1536
  C  C5519  1  0.854890  0.411400  0.722540  1.0  0.1671
  C  C5520  1  0.888620  0.416990  0.767630  1.0  0.1699
  C  C5521  1  0.888340  0.434600  0.779400  1.0  -0.1813
  C  C5522  1  0.873330  0.436400  0.795300  1.0  -0.0534
  C  C5523  1  0.859240  0.420160  0.797830  1.0  -0.16
  C  C5524  1  0.860850  0.402690  0.785020  1.0  0.1834
  C  C5525  1  0.843020  0.420920  0.814410  1.0  0.3967
  C  C5526  1  0.824780  0.373890  0.750590  1.0  0.2709
  C  C5527  1  0.969890  0.897420  0.159720  1.0  0.1814
  C  C5528  1  0.957500  0.900860  0.177420  1.0  -0.1382
  C  C5529  1  0.961380  0.889280  0.195230  1.0  -0.0548
  C  C5530  1  0.978100  0.875180  0.194860  1.0  -0.1389
  C  C5531  1  0.989070  0.872420  0.176860  1.0  0.1804
  C  C5532  1  0.845330  0.966620  0.147740  1.0  0.2705
  C  C5533  1  0.918430  0.986790  0.111480  1.0  0.1876
  C  C5534  1  0.936660  0.975380  0.112600  1.0  -0.1636
  C  C5535  1  0.938580  0.959930  0.127790  1.0  -0.0379
  C  C5536  1  0.922260  0.957510  0.142100  1.0  -0.1775
  C  C5537  1  0.904720  0.969990  0.140260  1.0  0.1867
  C  C5538  1  0.922820  0.941230  0.158680  1.0  0.3892
  C  C5539  1  0.939700  0.915390  0.175670  1.0  0.3113
  C  C5540  1  0.906840  0.924110  0.185110  1.0  0.4459
  C  C5541  1  0.888220  0.903990  0.212320  1.0  0.1991
  C  C5542  1  0.888150  0.920480  0.197790  1.0  -0.1733
  C  C5543  1  0.870400  0.932650  0.195890  1.0  -0.051
  C  C5544  1  0.853580  0.928080  0.208910  1.0  -0.1536
  C  C5545  1  0.854890  0.911400  0.222540  1.0  0.1671
  C  C5546  1  0.888620  0.916990  0.267630  1.0  0.1699
  C  C5547  1  0.888340  0.934600  0.279400  1.0  -0.1813
  C  C5548  1  0.873330  0.936400  0.295300  1.0  -0.0534
  C  C5549  1  0.859240  0.920160  0.297830  1.0  -0.16
  C  C5550  1  0.860850  0.902690  0.285020  1.0  0.1834
  C  C5551  1  0.843020  0.920920  0.314410  1.0  0.3967
  C  C5552  1  0.824780  0.873890  0.250590  1.0  0.2709
  C  C5553  1  0.780110  0.352580  0.659720  1.0  0.1806
  C  C5554  1  0.792500  0.349140  0.677420  1.0  -0.1396
  C  C5555  1  0.788620  0.360720  0.695230  1.0  -0.0539
  C  C5556  1  0.771900  0.374820  0.694860  1.0  -0.1406
  C  C5557  1  0.760930  0.377580  0.676860  1.0  0.1806
  C  C5558  1  0.904670  0.283380  0.647740  1.0  0.2677
  C  C5559  1  0.831570  0.263210  0.611480  1.0  0.1861
  C  C5560  1  0.813340  0.274620  0.612600  1.0  -0.1654
  C  C5561  1  0.811420  0.290070  0.627790  1.0  -0.0369
  C  C5562  1  0.827740  0.292490  0.642100  1.0  -0.1783
  C  C5563  1  0.845280  0.280010  0.640260  1.0  0.1874
  C  C5564  1  0.827180  0.308770  0.658680  1.0  0.3885
  C  C5565  1  0.810300  0.334610  0.675670  1.0  0.3113
  C  C5566  1  0.843160  0.325890  0.685110  1.0  0.4458
  C  C5567  1  0.861780  0.346010  0.712320  1.0  0.2003
  C  C5568  1  0.861850  0.329520  0.697790  1.0  -0.1739
  C  C5569  1  0.879600  0.317350  0.695890  1.0  -0.0515
  C  C5570  1  0.896420  0.321920  0.708910  1.0  -0.1514
  C  C5571  1  0.895110  0.338600  0.722540  1.0  0.1673
  C  C5572  1  0.861380  0.333010  0.767630  1.0  0.1704
  C  C5573  1  0.861660  0.315400  0.779400  1.0  -0.1829
  C  C5574  1  0.876670  0.313600  0.795300  1.0  -0.0543
  C  C5575  1  0.890760  0.329840  0.797830  1.0  -0.1596
  C  C5576  1  0.889150  0.347310  0.785020  1.0  0.1816
  C  C5577  1  0.906980  0.329080  0.814410  1.0  0.3967
  C  C5578  1  0.925220  0.376110  0.750590  1.0  0.266
  C  C5579  1  0.780110  0.852580  0.159720  1.0  0.1806
  C  C5580  1  0.792500  0.849140  0.177420  1.0  -0.1396
  C  C5581  1  0.788620  0.860720  0.195230  1.0  -0.0539
  C  C5582  1  0.771900  0.874820  0.194860  1.0  -0.1406
  C  C5583  1  0.760930  0.877580  0.176860  1.0  0.1806
  C  C5584  1  0.904670  0.783380  0.147740  1.0  0.2677
  C  C5585  1  0.831570  0.763210  0.111480  1.0  0.1861
  C  C5586  1  0.813340  0.774620  0.112600  1.0  -0.1654
  C  C5587  1  0.811420  0.790070  0.127790  1.0  -0.0369
  C  C5588  1  0.827740  0.792490  0.142100  1.0  -0.1783
  C  C5589  1  0.845280  0.780010  0.140260  1.0  0.1874
  C  C5590  1  0.827180  0.808770  0.158680  1.0  0.3885
  C  C5591  1  0.810300  0.834610  0.175670  1.0  0.3113
  C  C5592  1  0.843160  0.825890  0.185110  1.0  0.4458
  C  C5593  1  0.861780  0.846010  0.212320  1.0  0.2003
  C  C5594  1  0.861850  0.829520  0.197790  1.0  -0.1739
  C  C5595  1  0.879600  0.817350  0.195890  1.0  -0.0515
  C  C5596  1  0.896420  0.821920  0.208910  1.0  -0.1514
  C  C5597  1  0.895110  0.838600  0.222540  1.0  0.1673
  C  C5598  1  0.861380  0.833010  0.267630  1.0  0.1704
  C  C5599  1  0.861660  0.815400  0.279400  1.0  -0.1829
  C  C5600  1  0.876670  0.813600  0.295300  1.0  -0.0543
  C  C5601  1  0.890760  0.829840  0.297830  1.0  -0.1596
  C  C5602  1  0.889150  0.847310  0.285020  1.0  0.1816
  C  C5603  1  0.906980  0.829080  0.314410  1.0  0.3967
  C  C5604  1  0.925220  0.876110  0.250590  1.0  0.266
  C  C5605  1  0.280110  0.352580  0.159720  1.0  0.1806
  C  C5606  1  0.292500  0.349140  0.177420  1.0  -0.1396
  C  C5607  1  0.288620  0.360720  0.195230  1.0  -0.0539
  C  C5608  1  0.271900  0.374820  0.194860  1.0  -0.1406
  C  C5609  1  0.260930  0.377580  0.176860  1.0  0.1806
  C  C5610  1  0.404670  0.283380  0.147740  1.0  0.2677
  C  C5611  1  0.331570  0.263210  0.111480  1.0  0.1861
  C  C5612  1  0.313340  0.274620  0.112600  1.0  -0.1654
  C  C5613  1  0.311420  0.290070  0.127790  1.0  -0.0369
  C  C5614  1  0.327740  0.292490  0.142100  1.0  -0.1783
  C  C5615  1  0.345280  0.280010  0.140260  1.0  0.1874
  C  C5616  1  0.327180  0.308770  0.158680  1.0  0.3885
  C  C5617  1  0.310300  0.334610  0.175670  1.0  0.3113
  C  C5618  1  0.343160  0.325890  0.185110  1.0  0.4458
  C  C5619  1  0.361780  0.346010  0.212320  1.0  0.2003
  C  C5620  1  0.361850  0.329520  0.197790  1.0  -0.1739
  C  C5621  1  0.379600  0.317350  0.195890  1.0  -0.0515
  C  C5622  1  0.396420  0.321920  0.208910  1.0  -0.1514
  C  C5623  1  0.395110  0.338600  0.222540  1.0  0.1673
  C  C5624  1  0.361380  0.333010  0.267630  1.0  0.1704
  C  C5625  1  0.361660  0.315400  0.279400  1.0  -0.1829
  C  C5626  1  0.376670  0.313600  0.295300  1.0  -0.0543
  C  C5627  1  0.390760  0.329840  0.297830  1.0  -0.1596
  C  C5628  1  0.389150  0.347310  0.285020  1.0  0.1816
  C  C5629  1  0.406980  0.329080  0.314410  1.0  0.3967
  C  C5630  1  0.425220  0.376110  0.250590  1.0  0.266
  C  C5631  1  0.280110  0.852580  0.659720  1.0  0.1806
  C  C5632  1  0.292500  0.849140  0.677420  1.0  -0.1396
  C  C5633  1  0.288620  0.860720  0.695230  1.0  -0.0539
  C  C5634  1  0.271900  0.874820  0.694860  1.0  -0.1406
  C  C5635  1  0.260930  0.877580  0.676860  1.0  0.1806
  C  C5636  1  0.404670  0.783380  0.647740  1.0  0.2677
  C  C5637  1  0.331570  0.763210  0.611480  1.0  0.1861
  C  C5638  1  0.313340  0.774620  0.612600  1.0  -0.1654
  C  C5639  1  0.311420  0.790070  0.627790  1.0  -0.0369
  C  C5640  1  0.327740  0.792490  0.642100  1.0  -0.1783
  C  C5641  1  0.345280  0.780010  0.640260  1.0  0.1874
  C  C5642  1  0.327180  0.808770  0.658680  1.0  0.3885
  C  C5643  1  0.310300  0.834610  0.675670  1.0  0.3113
  C  C5644  1  0.343160  0.825890  0.685110  1.0  0.4458
  C  C5645  1  0.361780  0.846010  0.712320  1.0  0.2003
  C  C5646  1  0.361850  0.829520  0.697790  1.0  -0.1739
  C  C5647  1  0.379600  0.817350  0.695890  1.0  -0.0515
  C  C5648  1  0.396420  0.821920  0.708910  1.0  -0.1514
  C  C5649  1  0.395110  0.838600  0.722540  1.0  0.1673
  C  C5650  1  0.361380  0.833010  0.767630  1.0  0.1704
  C  C5651  1  0.361660  0.815400  0.779400  1.0  -0.1829
  C  C5652  1  0.376670  0.813600  0.795300  1.0  -0.0543
  C  C5653  1  0.390760  0.829840  0.797830  1.0  -0.1596
  C  C5654  1  0.389150  0.847310  0.785020  1.0  0.1816
  C  C5655  1  0.406980  0.829080  0.814410  1.0  0.3967
  C  C5656  1  0.425220  0.876110  0.750590  1.0  0.266
  C  C5657  1  0.280110  0.897420  0.090280  1.0  0.1817
  C  C5658  1  0.292500  0.900860  0.072580  1.0  -0.1394
  C  C5659  1  0.288620  0.889280  0.054770  1.0  -0.0576
  C  C5660  1  0.271900  0.875180  0.055140  1.0  -0.1399
  C  C5661  1  0.260930  0.872420  0.073140  1.0  0.181
  C  C5662  1  0.404670  0.966620  0.102260  1.0  0.268
  C  C5663  1  0.331570  0.986790  0.138520  1.0  0.1868
  C  C5664  1  0.313340  0.975380  0.137400  1.0  -0.1669
  C  C5665  1  0.311420  0.959930  0.122210  1.0  -0.0366
  C  C5666  1  0.327740  0.957510  0.107900  1.0  -0.1791
  C  C5667  1  0.345280  0.969990  0.109740  1.0  0.188
  C  C5668  1  0.327180  0.941230  0.091320  1.0  0.3891
  C  C5669  1  0.310300  0.915390  0.074330  1.0  0.3108
  C  C5670  1  0.343160  0.924110  0.064890  1.0  0.4459
  C  C5671  1  0.361780  0.903990  0.037680  1.0  0.1997
  C  C5672  1  0.361850  0.920480  0.052210  1.0  -0.1723
  C  C5673  1  0.379600  0.932650  0.054110  1.0  -0.0506
  C  C5674  1  0.396420  0.928080  0.041090  1.0  -0.1525
  C  C5675  1  0.395110  0.911400  0.027460  1.0  0.1679
  C  C5676  1  0.361380  0.916990  0.982370  1.0  0.1706
  C  C5677  1  0.361660  0.934600  0.970600  1.0  -0.1821
  C  C5678  1  0.376670  0.936400  0.954700  1.0  -0.0528
  C  C5679  1  0.390760  0.920160  0.952170  1.0  -0.1587
  C  C5680  1  0.389150  0.902690  0.964980  1.0  0.183
  C  C5681  1  0.406980  0.920920  0.935590  1.0  0.3973
  C  C5682  1  0.425220  0.873890  0.999410  1.0  0.2659
  C  C5683  1  0.280110  0.397420  0.590280  1.0  0.1817
  C  C5684  1  0.292500  0.400860  0.572580  1.0  -0.1394
  C  C5685  1  0.288620  0.389280  0.554770  1.0  -0.0576
  C  C5686  1  0.271900  0.375180  0.555140  1.0  -0.1399
  C  C5687  1  0.260930  0.372420  0.573140  1.0  0.181
  C  C5688  1  0.404670  0.466620  0.602260  1.0  0.268
  C  C5689  1  0.331570  0.486790  0.638520  1.0  0.1868
  C  C5690  1  0.313340  0.475380  0.637400  1.0  -0.1669
  C  C5691  1  0.311420  0.459930  0.622210  1.0  -0.0366
  C  C5692  1  0.327740  0.457510  0.607900  1.0  -0.1791
  C  C5693  1  0.345280  0.469990  0.609740  1.0  0.188
  C  C5694  1  0.327180  0.441230  0.591320  1.0  0.3891
  C  C5695  1  0.310300  0.415390  0.574330  1.0  0.3108
  C  C5696  1  0.343160  0.424110  0.564890  1.0  0.4459
  C  C5697  1  0.361780  0.403990  0.537680  1.0  0.1997
  C  C5698  1  0.361850  0.420480  0.552210  1.0  -0.1723
  C  C5699  1  0.379600  0.432650  0.554110  1.0  -0.0506
  C  C5700  1  0.396420  0.428080  0.541090  1.0  -0.1525
  C  C5701  1  0.395110  0.411400  0.527460  1.0  0.1679
  C  C5702  1  0.361380  0.416990  0.482370  1.0  0.1706
  C  C5703  1  0.361660  0.434600  0.470600  1.0  -0.1821
  C  C5704  1  0.376670  0.436400  0.454700  1.0  -0.0528
  C  C5705  1  0.390760  0.420160  0.452170  1.0  -0.1587
  C  C5706  1  0.389150  0.402690  0.464980  1.0  0.183
  C  C5707  1  0.406980  0.420920  0.435590  1.0  0.3973
  C  C5708  1  0.425220  0.373890  0.499410  1.0  0.2659
  C  C5709  1  0.780110  0.897420  0.590280  1.0  0.1817
  C  C5710  1  0.792500  0.900860  0.572580  1.0  -0.1394
  C  C5711  1  0.788620  0.889280  0.554770  1.0  -0.0576
  C  C5712  1  0.771900  0.875180  0.555140  1.0  -0.1399
  C  C5713  1  0.760930  0.872420  0.573140  1.0  0.181
  C  C5714  1  0.904670  0.966620  0.602260  1.0  0.268
  C  C5715  1  0.831570  0.986790  0.638520  1.0  0.1868
  C  C5716  1  0.813340  0.975380  0.637400  1.0  -0.1669
  C  C5717  1  0.811420  0.959930  0.622210  1.0  -0.0366
  C  C5718  1  0.827740  0.957510  0.607900  1.0  -0.1791
  C  C5719  1  0.845280  0.969990  0.609740  1.0  0.188
  C  C5720  1  0.827180  0.941230  0.591320  1.0  0.3891
  C  C5721  1  0.810300  0.915390  0.574330  1.0  0.3108
  C  C5722  1  0.843160  0.924110  0.564890  1.0  0.4459
  C  C5723  1  0.861780  0.903990  0.537680  1.0  0.1997
  C  C5724  1  0.861850  0.920480  0.552210  1.0  -0.1723
  C  C5725  1  0.879600  0.932650  0.554110  1.0  -0.0506
  C  C5726  1  0.896420  0.928080  0.541090  1.0  -0.1525
  C  C5727  1  0.895110  0.911400  0.527460  1.0  0.1679
  C  C5728  1  0.861380  0.916990  0.482370  1.0  0.1706
  C  C5729  1  0.861660  0.934600  0.470600  1.0  -0.1821
  C  C5730  1  0.876670  0.936400  0.454700  1.0  -0.0528
  C  C5731  1  0.890760  0.920160  0.452170  1.0  -0.1587
  C  C5732  1  0.889150  0.902690  0.464980  1.0  0.183
  C  C5733  1  0.906980  0.920920  0.435590  1.0  0.3973
  C  C5734  1  0.925220  0.873890  0.499410  1.0  0.2659
  C  C5735  1  0.780110  0.397420  0.090280  1.0  0.1817
  C  C5736  1  0.792500  0.400860  0.072580  1.0  -0.1394
  C  C5737  1  0.788620  0.389280  0.054770  1.0  -0.0576
  C  C5738  1  0.771900  0.375180  0.055140  1.0  -0.1399
  C  C5739  1  0.760930  0.372420  0.073140  1.0  0.181
  C  C5740  1  0.904670  0.466620  0.102260  1.0  0.268
  C  C5741  1  0.831570  0.486790  0.138520  1.0  0.1868
  C  C5742  1  0.813340  0.475380  0.137400  1.0  -0.1669
  C  C5743  1  0.811420  0.459930  0.122210  1.0  -0.0366
  C  C5744  1  0.827740  0.457510  0.107900  1.0  -0.1791
  C  C5745  1  0.845280  0.469990  0.109740  1.0  0.188
  C  C5746  1  0.827180  0.441230  0.091320  1.0  0.3891
  C  C5747  1  0.810300  0.415390  0.074330  1.0  0.3108
  C  C5748  1  0.843160  0.424110  0.064890  1.0  0.4459
  C  C5749  1  0.861780  0.403990  0.037680  1.0  0.1997
  C  C5750  1  0.861850  0.420480  0.052210  1.0  -0.1723
  C  C5751  1  0.879600  0.432650  0.054110  1.0  -0.0506
  C  C5752  1  0.896420  0.428080  0.041090  1.0  -0.1525
  C  C5753  1  0.895110  0.411400  0.027460  1.0  0.1679
  C  C5754  1  0.861380  0.416990  0.982370  1.0  0.1706
  C  C5755  1  0.861660  0.434600  0.970600  1.0  -0.1821
  C  C5756  1  0.876670  0.436400  0.954700  1.0  -0.0528
  C  C5757  1  0.890760  0.420160  0.952170  1.0  -0.1587
  C  C5758  1  0.889150  0.402690  0.964980  1.0  0.183
  C  C5759  1  0.906980  0.420920  0.935590  1.0  0.3973
  C  C5760  1  0.925220  0.373890  0.999410  1.0  0.2659
  C  C5761  1  0.590280  0.397420  0.780110  1.0  0.1792
  C  C5762  1  0.572580  0.400860  0.792500  1.0  -0.1403
  C  C5763  1  0.554770  0.389280  0.788620  1.0  -0.054
  C  C5764  1  0.555140  0.375180  0.771900  1.0  -0.1417
  C  C5765  1  0.573140  0.372420  0.760930  1.0  0.1832
  C  C5766  1  0.602260  0.466620  0.904670  1.0  0.2708
  C  C5767  1  0.638520  0.486790  0.831570  1.0  0.1826
  C  C5768  1  0.637400  0.475380  0.813340  1.0  -0.1605
  C  C5769  1  0.622210  0.459930  0.811420  1.0  -0.0372
  C  C5770  1  0.607900  0.457510  0.827740  1.0  -0.1745
  C  C5771  1  0.609740  0.469990  0.845280  1.0  0.1892
  C  C5772  1  0.591320  0.441230  0.827180  1.0  0.3893
  C  C5773  1  0.574330  0.415390  0.810300  1.0  0.311
  C  C5774  1  0.564890  0.424110  0.843160  1.0  0.4459
  C  C5775  1  0.537680  0.403990  0.861780  1.0  0.1972
  C  C5776  1  0.552210  0.420480  0.861850  1.0  -0.1753
  C  C5777  1  0.554110  0.432650  0.879600  1.0  -0.0499
  C  C5778  1  0.541090  0.428080  0.896420  1.0  -0.1503
  C  C5779  1  0.527460  0.411400  0.895110  1.0  0.1621
  C  C5780  1  0.482370  0.416990  0.861380  1.0  0.1684
  C  C5781  1  0.470600  0.434600  0.861660  1.0  -0.1816
  C  C5782  1  0.454700  0.436400  0.876670  1.0  -0.054
  C  C5783  1  0.452170  0.420160  0.890760  1.0  -0.1607
  C  C5784  1  0.464980  0.402690  0.889150  1.0  0.1812
  C  C5785  1  0.435590  0.420920  0.906980  1.0  0.3969
  C  C5786  1  0.499410  0.373890  0.925220  1.0  0.2641
  C  C5787  1  0.590280  0.897420  0.280110  1.0  0.1792
  C  C5788  1  0.572580  0.900860  0.292500  1.0  -0.1403
  C  C5789  1  0.554770  0.889280  0.288620  1.0  -0.054
  C  C5790  1  0.555140  0.875180  0.271900  1.0  -0.1417
  C  C5791  1  0.573140  0.872420  0.260930  1.0  0.1832
  C  C5792  1  0.602260  0.966620  0.404670  1.0  0.2708
  C  C5793  1  0.638520  0.986790  0.331570  1.0  0.1826
  C  C5794  1  0.637400  0.975380  0.313340  1.0  -0.1605
  C  C5795  1  0.622210  0.959930  0.311420  1.0  -0.0372
  C  C5796  1  0.607900  0.957510  0.327740  1.0  -0.1745
  C  C5797  1  0.609740  0.969990  0.345280  1.0  0.1892
  C  C5798  1  0.591320  0.941230  0.327180  1.0  0.3893
  C  C5799  1  0.574330  0.915390  0.310300  1.0  0.311
  C  C5800  1  0.564890  0.924110  0.343160  1.0  0.4459
  C  C5801  1  0.537680  0.903990  0.361780  1.0  0.1972
  C  C5802  1  0.552210  0.920480  0.361850  1.0  -0.1753
  C  C5803  1  0.554110  0.932650  0.379600  1.0  -0.0499
  C  C5804  1  0.541090  0.928080  0.396420  1.0  -0.1503
  C  C5805  1  0.527460  0.911400  0.395110  1.0  0.1621
  C  C5806  1  0.482370  0.916990  0.361380  1.0  0.1684
  C  C5807  1  0.470600  0.934600  0.361660  1.0  -0.1816
  C  C5808  1  0.454700  0.936400  0.376670  1.0  -0.054
  C  C5809  1  0.452170  0.920160  0.390760  1.0  -0.1607
  C  C5810  1  0.464980  0.902690  0.389150  1.0  0.1812
  C  C5811  1  0.435590  0.920920  0.406980  1.0  0.3969
  C  C5812  1  0.499410  0.873890  0.425220  1.0  0.2641
  C  C5813  1  0.090280  0.397420  0.280110  1.0  0.1792
  C  C5814  1  0.072580  0.400860  0.292500  1.0  -0.1403
  C  C5815  1  0.054770  0.389280  0.288620  1.0  -0.054
  C  C5816  1  0.055140  0.375180  0.271900  1.0  -0.1417
  C  C5817  1  0.073140  0.372420  0.260930  1.0  0.1832
  C  C5818  1  0.102260  0.466620  0.404670  1.0  0.2708
  C  C5819  1  0.138520  0.486790  0.331570  1.0  0.1826
  C  C5820  1  0.137400  0.475380  0.313340  1.0  -0.1605
  C  C5821  1  0.122210  0.459930  0.311420  1.0  -0.0372
  C  C5822  1  0.107900  0.457510  0.327740  1.0  -0.1745
  C  C5823  1  0.109740  0.469990  0.345280  1.0  0.1892
  C  C5824  1  0.091320  0.441230  0.327180  1.0  0.3893
  C  C5825  1  0.074330  0.415390  0.310300  1.0  0.311
  C  C5826  1  0.064890  0.424110  0.343160  1.0  0.4459
  C  C5827  1  0.037680  0.403990  0.361780  1.0  0.1972
  C  C5828  1  0.052210  0.420480  0.361850  1.0  -0.1753
  C  C5829  1  0.054110  0.432650  0.379600  1.0  -0.0499
  C  C5830  1  0.041090  0.428080  0.396420  1.0  -0.1503
  C  C5831  1  0.027460  0.411400  0.395110  1.0  0.1621
  C  C5832  1  0.982370  0.416990  0.361380  1.0  0.1684
  C  C5833  1  0.970600  0.434600  0.361660  1.0  -0.1816
  C  C5834  1  0.954700  0.436400  0.376670  1.0  -0.054
  C  C5835  1  0.952170  0.420160  0.390760  1.0  -0.1607
  C  C5836  1  0.964980  0.402690  0.389150  1.0  0.1812
  C  C5837  1  0.935590  0.420920  0.406980  1.0  0.3969
  C  C5838  1  0.999410  0.373890  0.425220  1.0  0.2641
  C  C5839  1  0.090280  0.897420  0.780110  1.0  0.1792
  C  C5840  1  0.072580  0.900860  0.792500  1.0  -0.1403
  C  C5841  1  0.054770  0.889280  0.788620  1.0  -0.054
  C  C5842  1  0.055140  0.875180  0.771900  1.0  -0.1417
  C  C5843  1  0.073140  0.872420  0.760930  1.0  0.1832
  C  C5844  1  0.102260  0.966620  0.904670  1.0  0.2708
  C  C5845  1  0.138520  0.986790  0.831570  1.0  0.1826
  C  C5846  1  0.137400  0.975380  0.813340  1.0  -0.1605
  C  C5847  1  0.122210  0.959930  0.811420  1.0  -0.0372
  C  C5848  1  0.107900  0.957510  0.827740  1.0  -0.1745
  C  C5849  1  0.109740  0.969990  0.845280  1.0  0.1892
  C  C5850  1  0.091320  0.941230  0.827180  1.0  0.3893
  C  C5851  1  0.074330  0.915390  0.810300  1.0  0.311
  C  C5852  1  0.064890  0.924110  0.843160  1.0  0.4459
  C  C5853  1  0.037680  0.903990  0.861780  1.0  0.1972
  C  C5854  1  0.052210  0.920480  0.861850  1.0  -0.1753
  C  C5855  1  0.054110  0.932650  0.879600  1.0  -0.0499
  C  C5856  1  0.041090  0.928080  0.896420  1.0  -0.1503
  C  C5857  1  0.027460  0.911400  0.895110  1.0  0.1621
  C  C5858  1  0.982370  0.916990  0.861380  1.0  0.1684
  C  C5859  1  0.970600  0.934600  0.861660  1.0  -0.1816
  C  C5860  1  0.954700  0.936400  0.876670  1.0  -0.054
  C  C5861  1  0.952170  0.920160  0.890760  1.0  -0.1607
  C  C5862  1  0.964980  0.902690  0.889150  1.0  0.1812
  C  C5863  1  0.935590  0.920920  0.906980  1.0  0.3969
  C  C5864  1  0.999410  0.873890  0.925220  1.0  0.2641
  C  C5865  1  0.159720  0.852580  0.280110  1.0  0.1786
  C  C5866  1  0.177420  0.849140  0.292500  1.0  -0.1421
  C  C5867  1  0.195230  0.860720  0.288620  1.0  -0.0522
  C  C5868  1  0.194860  0.874820  0.271900  1.0  -0.1425
  C  C5869  1  0.176860  0.877580  0.260930  1.0  0.1846
  C  C5870  1  0.147740  0.783380  0.404670  1.0  0.2675
  C  C5871  1  0.111480  0.763210  0.331570  1.0  0.1827
  C  C5872  1  0.112600  0.774620  0.313340  1.0  -0.1615
  C  C5873  1  0.127790  0.790070  0.311420  1.0  -0.0368
  C  C5874  1  0.142100  0.792490  0.327740  1.0  -0.1754
  C  C5875  1  0.140260  0.780010  0.345280  1.0  0.189
  C  C5876  1  0.158680  0.808770  0.327180  1.0  0.3893
  C  C5877  1  0.175670  0.834610  0.310300  1.0  0.3108
  C  C5878  1  0.185110  0.825890  0.343160  1.0  0.4463
  C  C5879  1  0.212320  0.846010  0.361780  1.0  0.1983
  C  C5880  1  0.197790  0.829520  0.361850  1.0  -0.1765
  C  C5881  1  0.195890  0.817350  0.379600  1.0  -0.0494
  C  C5882  1  0.208910  0.821920  0.396420  1.0  -0.1501
  C  C5883  1  0.222540  0.838600  0.395110  1.0  0.1609
  C  C5884  1  0.267630  0.833010  0.361380  1.0  0.17
  C  C5885  1  0.279400  0.815400  0.361660  1.0  -0.1832
  C  C5886  1  0.295300  0.813600  0.376670  1.0  -0.0554
  C  C5887  1  0.297830  0.829840  0.390760  1.0  -0.1614
  C  C5888  1  0.285020  0.847310  0.389150  1.0  0.1814
  C  C5889  1  0.314410  0.829080  0.406980  1.0  0.3965
  C  C5890  1  0.250590  0.876110  0.425220  1.0  0.264
  C  C5891  1  0.159720  0.352580  0.780110  1.0  0.1786
  C  C5892  1  0.177420  0.349140  0.792500  1.0  -0.1421
  C  C5893  1  0.195230  0.360720  0.788620  1.0  -0.0522
  C  C5894  1  0.194860  0.374820  0.771900  1.0  -0.1425
  C  C5895  1  0.176860  0.377580  0.760930  1.0  0.1846
  C  C5896  1  0.147740  0.283380  0.904670  1.0  0.2675
  C  C5897  1  0.111480  0.263210  0.831570  1.0  0.1827
  C  C5898  1  0.112600  0.274620  0.813340  1.0  -0.1615
  C  C5899  1  0.127790  0.290070  0.811420  1.0  -0.0368
  C  C5900  1  0.142100  0.292490  0.827740  1.0  -0.1754
  C  C5901  1  0.140260  0.280010  0.845280  1.0  0.189
  C  C5902  1  0.158680  0.308770  0.827180  1.0  0.3893
  C  C5903  1  0.175670  0.334610  0.810300  1.0  0.3108
  C  C5904  1  0.185110  0.325890  0.843160  1.0  0.4463
  C  C5905  1  0.212320  0.346010  0.861780  1.0  0.1983
  C  C5906  1  0.197790  0.329520  0.861850  1.0  -0.1765
  C  C5907  1  0.195890  0.317350  0.879600  1.0  -0.0494
  C  C5908  1  0.208910  0.321920  0.896420  1.0  -0.1501
  C  C5909  1  0.222540  0.338600  0.895110  1.0  0.1609
  C  C5910  1  0.267630  0.333010  0.861380  1.0  0.17
  C  C5911  1  0.279400  0.315400  0.861660  1.0  -0.1832
  C  C5912  1  0.295300  0.313600  0.876670  1.0  -0.0554
  C  C5913  1  0.297830  0.329840  0.890760  1.0  -0.1614
  C  C5914  1  0.285020  0.347310  0.889150  1.0  0.1814
  C  C5915  1  0.314410  0.329080  0.906980  1.0  0.3965
  C  C5916  1  0.250590  0.376110  0.925220  1.0  0.264
  C  C5917  1  0.659720  0.852580  0.780110  1.0  0.1786
  C  C5918  1  0.677420  0.849140  0.792500  1.0  -0.1421
  C  C5919  1  0.695230  0.860720  0.788620  1.0  -0.0522
  C  C5920  1  0.694860  0.874820  0.771900  1.0  -0.1425
  C  C5921  1  0.676860  0.877580  0.760930  1.0  0.1846
  C  C5922  1  0.647740  0.783380  0.904670  1.0  0.2675
  C  C5923  1  0.611480  0.763210  0.831570  1.0  0.1827
  C  C5924  1  0.612600  0.774620  0.813340  1.0  -0.1615
  C  C5925  1  0.627790  0.790070  0.811420  1.0  -0.0368
  C  C5926  1  0.642100  0.792490  0.827740  1.0  -0.1754
  C  C5927  1  0.640260  0.780010  0.845280  1.0  0.189
  C  C5928  1  0.658680  0.808770  0.827180  1.0  0.3893
  C  C5929  1  0.675670  0.834610  0.810300  1.0  0.3108
  C  C5930  1  0.685110  0.825890  0.843160  1.0  0.4463
  C  C5931  1  0.712320  0.846010  0.861780  1.0  0.1983
  C  C5932  1  0.697790  0.829520  0.861850  1.0  -0.1765
  C  C5933  1  0.695890  0.817350  0.879600  1.0  -0.0494
  C  C5934  1  0.708910  0.821920  0.896420  1.0  -0.1501
  C  C5935  1  0.722540  0.838600  0.895110  1.0  0.1609
  C  C5936  1  0.767630  0.833010  0.861380  1.0  0.17
  C  C5937  1  0.779400  0.815400  0.861660  1.0  -0.1832
  C  C5938  1  0.795300  0.813600  0.876670  1.0  -0.0554
  C  C5939  1  0.797830  0.829840  0.890760  1.0  -0.1614
  C  C5940  1  0.785020  0.847310  0.889150  1.0  0.1814
  C  C5941  1  0.814410  0.829080  0.906980  1.0  0.3965
  C  C5942  1  0.750590  0.876110  0.925220  1.0  0.264
  C  C5943  1  0.659720  0.352580  0.280110  1.0  0.1786
  C  C5944  1  0.677420  0.349140  0.292500  1.0  -0.1421
  C  C5945  1  0.695230  0.360720  0.288620  1.0  -0.0522
  C  C5946  1  0.694860  0.374820  0.271900  1.0  -0.1425
  C  C5947  1  0.676860  0.377580  0.260930  1.0  0.1846
  C  C5948  1  0.647740  0.283380  0.404670  1.0  0.2675
  C  C5949  1  0.611480  0.263210  0.331570  1.0  0.1827
  C  C5950  1  0.612600  0.274620  0.313340  1.0  -0.1615
  C  C5951  1  0.627790  0.290070  0.311420  1.0  -0.0368
  C  C5952  1  0.642100  0.292490  0.327740  1.0  -0.1754
  C  C5953  1  0.640260  0.280010  0.345280  1.0  0.189
  C  C5954  1  0.658680  0.308770  0.327180  1.0  0.3893
  C  C5955  1  0.675670  0.334610  0.310300  1.0  0.3108
  C  C5956  1  0.685110  0.325890  0.343160  1.0  0.4463
  C  C5957  1  0.712320  0.346010  0.361780  1.0  0.1983
  C  C5958  1  0.697790  0.329520  0.361850  1.0  -0.1765
  C  C5959  1  0.695890  0.317350  0.379600  1.0  -0.0494
  C  C5960  1  0.708910  0.321920  0.396420  1.0  -0.1501
  C  C5961  1  0.722540  0.338600  0.395110  1.0  0.1609
  C  C5962  1  0.767630  0.333010  0.361380  1.0  0.17
  C  C5963  1  0.779400  0.315400  0.361660  1.0  -0.1832
  C  C5964  1  0.795300  0.313600  0.376670  1.0  -0.0554
  C  C5965  1  0.797830  0.329840  0.390760  1.0  -0.1614
  C  C5966  1  0.785020  0.347310  0.389150  1.0  0.1814
  C  C5967  1  0.814410  0.329080  0.406980  1.0  0.3965
  C  C5968  1  0.750590  0.376110  0.425220  1.0  0.264
  C  C5969  1  0.659720  0.897420  0.969890  1.0  0.1794
  C  C5970  1  0.677420  0.900860  0.957500  1.0  -0.1412
  C  C5971  1  0.695230  0.889280  0.961380  1.0  -0.053
  C  C5972  1  0.694860  0.875180  0.978100  1.0  -0.1409
  C  C5973  1  0.676860  0.872420  0.989070  1.0  0.1844
  C  C5974  1  0.647740  0.966620  0.845330  1.0  0.2679
  C  C5975  1  0.611480  0.986790  0.918430  1.0  0.1824
  C  C5976  1  0.612600  0.975380  0.936660  1.0  -0.1642
  C  C5977  1  0.627790  0.959930  0.938580  1.0  -0.0357
  C  C5978  1  0.642100  0.957510  0.922260  1.0  -0.1752
  C  C5979  1  0.640260  0.969990  0.904720  1.0  0.1881
  C  C5980  1  0.658680  0.941230  0.922820  1.0  0.3895
  C  C5981  1  0.675670  0.915390  0.939700  1.0  0.3108
  C  C5982  1  0.685110  0.924110  0.906840  1.0  0.4464
  C  C5983  1  0.712320  0.903990  0.888220  1.0  0.1977
  C  C5984  1  0.697790  0.920480  0.888150  1.0  -0.1758
  C  C5985  1  0.695890  0.932650  0.870400  1.0  -0.0503
  C  C5986  1  0.708910  0.928080  0.853580  1.0  -0.1512
  C  C5987  1  0.722540  0.911400  0.854890  1.0  0.1642
  C  C5988  1  0.767630  0.916990  0.888620  1.0  0.1685
  C  C5989  1  0.779400  0.934600  0.888340  1.0  -0.1821
  C  C5990  1  0.795300  0.936400  0.873330  1.0  -0.0526
  C  C5991  1  0.797830  0.920160  0.859240  1.0  -0.1605
  C  C5992  1  0.785020  0.902690  0.860850  1.0  0.1821
  C  C5993  1  0.814410  0.920920  0.843020  1.0  0.3968
  C  C5994  1  0.750590  0.873890  0.824780  1.0  0.2559
  C  C5995  1  0.659720  0.397420  0.469890  1.0  0.1794
  C  C5996  1  0.677420  0.400860  0.457500  1.0  -0.1412
  C  C5997  1  0.695230  0.389280  0.461380  1.0  -0.053
  C  C5998  1  0.694860  0.375180  0.478100  1.0  -0.1409
  C  C5999  1  0.676860  0.372420  0.489070  1.0  0.1844
  C  C6000  1  0.647740  0.466620  0.345330  1.0  0.2679
  C  C6001  1  0.611480  0.486790  0.418430  1.0  0.1824
  C  C6002  1  0.612600  0.475380  0.436660  1.0  -0.1642
  C  C6003  1  0.627790  0.459930  0.438580  1.0  -0.0357
  C  C6004  1  0.642100  0.457510  0.422260  1.0  -0.1752
  C  C6005  1  0.640260  0.469990  0.404720  1.0  0.1881
  C  C6006  1  0.658680  0.441230  0.422820  1.0  0.3895
  C  C6007  1  0.675670  0.415390  0.439700  1.0  0.3108
  C  C6008  1  0.685110  0.424110  0.406840  1.0  0.4464
  C  C6009  1  0.712320  0.403990  0.388220  1.0  0.1977
  C  C6010  1  0.697790  0.420480  0.388150  1.0  -0.1758
  C  C6011  1  0.695890  0.432650  0.370400  1.0  -0.0503
  C  C6012  1  0.708910  0.428080  0.353580  1.0  -0.1512
  C  C6013  1  0.722540  0.411400  0.354890  1.0  0.1642
  C  C6014  1  0.767630  0.416990  0.388620  1.0  0.1685
  C  C6015  1  0.779400  0.434600  0.388340  1.0  -0.1821
  C  C6016  1  0.795300  0.436400  0.373330  1.0  -0.0526
  C  C6017  1  0.797830  0.420160  0.359240  1.0  -0.1605
  C  C6018  1  0.785020  0.402690  0.360850  1.0  0.1821
  C  C6019  1  0.814410  0.420920  0.343020  1.0  0.3968
  C  C6020  1  0.750590  0.373890  0.324780  1.0  0.2559
  C  C6021  1  0.159720  0.897420  0.469890  1.0  0.1794
  C  C6022  1  0.177420  0.900860  0.457500  1.0  -0.1412
  C  C6023  1  0.195230  0.889280  0.461380  1.0  -0.053
  C  C6024  1  0.194860  0.875180  0.478100  1.0  -0.1409
  C  C6025  1  0.176860  0.872420  0.489070  1.0  0.1844
  C  C6026  1  0.147740  0.966620  0.345330  1.0  0.2679
  C  C6027  1  0.111480  0.986790  0.418430  1.0  0.1824
  C  C6028  1  0.112600  0.975380  0.436660  1.0  -0.1642
  C  C6029  1  0.127790  0.959930  0.438580  1.0  -0.0357
  C  C6030  1  0.142100  0.957510  0.422260  1.0  -0.1752
  C  C6031  1  0.140260  0.969990  0.404720  1.0  0.1881
  C  C6032  1  0.158680  0.941230  0.422820  1.0  0.3895
  C  C6033  1  0.175670  0.915390  0.439700  1.0  0.3108
  C  C6034  1  0.185110  0.924110  0.406840  1.0  0.4464
  C  C6035  1  0.212320  0.903990  0.388220  1.0  0.1977
  C  C6036  1  0.197790  0.920480  0.388150  1.0  -0.1758
  C  C6037  1  0.195890  0.932650  0.370400  1.0  -0.0503
  C  C6038  1  0.208910  0.928080  0.353580  1.0  -0.1512
  C  C6039  1  0.222540  0.911400  0.354890  1.0  0.1642
  C  C6040  1  0.267630  0.916990  0.388620  1.0  0.1685
  C  C6041  1  0.279400  0.934600  0.388340  1.0  -0.1821
  C  C6042  1  0.295300  0.936400  0.373330  1.0  -0.0526
  C  C6043  1  0.297830  0.920160  0.359240  1.0  -0.1605
  C  C6044  1  0.285020  0.902690  0.360850  1.0  0.1821
  C  C6045  1  0.314410  0.920920  0.343020  1.0  0.3968
  C  C6046  1  0.250590  0.873890  0.324780  1.0  0.2559
  C  C6047  1  0.159720  0.397420  0.969890  1.0  0.1794
  C  C6048  1  0.177420  0.400860  0.957500  1.0  -0.1412
  C  C6049  1  0.195230  0.389280  0.961380  1.0  -0.053
  C  C6050  1  0.194860  0.375180  0.978100  1.0  -0.1409
  C  C6051  1  0.176860  0.372420  0.989070  1.0  0.1844
  C  C6052  1  0.147740  0.466620  0.845330  1.0  0.2679
  C  C6053  1  0.111480  0.486790  0.918430  1.0  0.1824
  C  C6054  1  0.112600  0.475380  0.936660  1.0  -0.1642
  C  C6055  1  0.127790  0.459930  0.938580  1.0  -0.0357
  C  C6056  1  0.142100  0.457510  0.922260  1.0  -0.1752
  C  C6057  1  0.140260  0.469990  0.904720  1.0  0.1881
  C  C6058  1  0.158680  0.441230  0.922820  1.0  0.3895
  C  C6059  1  0.175670  0.415390  0.939700  1.0  0.3108
  C  C6060  1  0.185110  0.424110  0.906840  1.0  0.4464
  C  C6061  1  0.212320  0.403990  0.888220  1.0  0.1977
  C  C6062  1  0.197790  0.420480  0.888150  1.0  -0.1758
  C  C6063  1  0.195890  0.432650  0.870400  1.0  -0.0503
  C  C6064  1  0.208910  0.428080  0.853580  1.0  -0.1512
  C  C6065  1  0.222540  0.411400  0.854890  1.0  0.1642
  C  C6066  1  0.267630  0.416990  0.888620  1.0  0.1685
  C  C6067  1  0.279400  0.434600  0.888340  1.0  -0.1821
  C  C6068  1  0.295300  0.436400  0.873330  1.0  -0.0526
  C  C6069  1  0.297830  0.420160  0.859240  1.0  -0.1605
  C  C6070  1  0.285020  0.402690  0.860850  1.0  0.1821
  C  C6071  1  0.314410  0.420920  0.843020  1.0  0.3968
  C  C6072  1  0.250590  0.373890  0.824780  1.0  0.2559
  C  C6073  1  0.090280  0.352580  0.469890  1.0  0.1791
  C  C6074  1  0.072580  0.349140  0.457500  1.0  -0.1413
  C  C6075  1  0.054770  0.360720  0.461380  1.0  -0.0539
  C  C6076  1  0.055140  0.374820  0.478100  1.0  -0.1424
  C  C6077  1  0.073140  0.377580  0.489070  1.0  0.1829
  C  C6078  1  0.102260  0.283380  0.345330  1.0  0.2688
  C  C6079  1  0.138520  0.263210  0.418430  1.0  0.1832
  C  C6080  1  0.137400  0.274620  0.436660  1.0  -0.1608
  C  C6081  1  0.122210  0.290070  0.438580  1.0  -0.036
  C  C6082  1  0.107900  0.292490  0.422260  1.0  -0.1737
  C  C6083  1  0.109740  0.280010  0.404720  1.0  0.1884
  C  C6084  1  0.091320  0.308770  0.422820  1.0  0.389
  C  C6085  1  0.074330  0.334610  0.439700  1.0  0.3113
  C  C6086  1  0.064890  0.325890  0.406840  1.0  0.4455
  C  C6087  1  0.037680  0.346010  0.388220  1.0  0.1971
  C  C6088  1  0.052210  0.329520  0.388150  1.0  -0.1761
  C  C6089  1  0.054110  0.317350  0.370400  1.0  -0.05
  C  C6090  1  0.041090  0.321920  0.353580  1.0  -0.1496
  C  C6091  1  0.027460  0.338600  0.354890  1.0  0.1646
  C  C6092  1  0.982370  0.333010  0.388620  1.0  0.1681
  C  C6093  1  0.970600  0.315400  0.388340  1.0  -0.1833
  C  C6094  1  0.954700  0.313600  0.373330  1.0  -0.0542
  C  C6095  1  0.952170  0.329840  0.359240  1.0  -0.1613
  C  C6096  1  0.964980  0.347310  0.360850  1.0  0.1798
  C  C6097  1  0.935590  0.329080  0.343020  1.0  0.3969
  C  C6098  1  0.999410  0.376110  0.324780  1.0  0.2566
  C  C6099  1  0.090280  0.852580  0.969890  1.0  0.1791
  C  C6100  1  0.072580  0.849140  0.957500  1.0  -0.1413
  C  C6101  1  0.054770  0.860720  0.961380  1.0  -0.0539
  C  C6102  1  0.055140  0.874820  0.978100  1.0  -0.1424
  C  C6103  1  0.073140  0.877580  0.989070  1.0  0.1829
  C  C6104  1  0.102260  0.783380  0.845330  1.0  0.2688
  C  C6105  1  0.138520  0.763210  0.918430  1.0  0.1832
  C  C6106  1  0.137400  0.774620  0.936660  1.0  -0.1608
  C  C6107  1  0.122210  0.790070  0.938580  1.0  -0.036
  C  C6108  1  0.107900  0.792490  0.922260  1.0  -0.1737
  C  C6109  1  0.109740  0.780010  0.904720  1.0  0.1884
  C  C6110  1  0.091320  0.808770  0.922820  1.0  0.389
  C  C6111  1  0.074330  0.834610  0.939700  1.0  0.3113
  C  C6112  1  0.064890  0.825890  0.906840  1.0  0.4455
  C  C6113  1  0.037680  0.846010  0.888220  1.0  0.1971
  C  C6114  1  0.052210  0.829520  0.888150  1.0  -0.1761
  C  C6115  1  0.054110  0.817350  0.870400  1.0  -0.05
  C  C6116  1  0.041090  0.821920  0.853580  1.0  -0.1496
  C  C6117  1  0.027460  0.838600  0.854890  1.0  0.1646
  C  C6118  1  0.982370  0.833010  0.888620  1.0  0.1681
  C  C6119  1  0.970600  0.815400  0.888340  1.0  -0.1833
  C  C6120  1  0.954700  0.813600  0.873330  1.0  -0.0542
  C  C6121  1  0.952170  0.829840  0.859240  1.0  -0.1613
  C  C6122  1  0.964980  0.847310  0.860850  1.0  0.1798
  C  C6123  1  0.935590  0.829080  0.843020  1.0  0.3969
  C  C6124  1  0.999410  0.876110  0.824780  1.0  0.2566
  C  C6125  1  0.590280  0.352580  0.969890  1.0  0.1791
  C  C6126  1  0.572580  0.349140  0.957500  1.0  -0.1413
  C  C6127  1  0.554770  0.360720  0.961380  1.0  -0.0539
  C  C6128  1  0.555140  0.374820  0.978100  1.0  -0.1424
  C  C6129  1  0.573140  0.377580  0.989070  1.0  0.1829
  C  C6130  1  0.602260  0.283380  0.845330  1.0  0.2688
  C  C6131  1  0.638520  0.263210  0.918430  1.0  0.1832
  C  C6132  1  0.637400  0.274620  0.936660  1.0  -0.1608
  C  C6133  1  0.622210  0.290070  0.938580  1.0  -0.036
  C  C6134  1  0.607900  0.292490  0.922260  1.0  -0.1737
  C  C6135  1  0.609740  0.280010  0.904720  1.0  0.1884
  C  C6136  1  0.591320  0.308770  0.922820  1.0  0.389
  C  C6137  1  0.574330  0.334610  0.939700  1.0  0.3113
  C  C6138  1  0.564890  0.325890  0.906840  1.0  0.4455
  C  C6139  1  0.537680  0.346010  0.888220  1.0  0.1971
  C  C6140  1  0.552210  0.329520  0.888150  1.0  -0.1761
  C  C6141  1  0.554110  0.317350  0.870400  1.0  -0.05
  C  C6142  1  0.541090  0.321920  0.853580  1.0  -0.1496
  C  C6143  1  0.527460  0.338600  0.854890  1.0  0.1646
  C  C6144  1  0.482370  0.333010  0.888620  1.0  0.1681
  C  C6145  1  0.470600  0.315400  0.888340  1.0  -0.1833
  C  C6146  1  0.454700  0.313600  0.873330  1.0  -0.0542
  C  C6147  1  0.452170  0.329840  0.859240  1.0  -0.1613
  C  C6148  1  0.464980  0.347310  0.860850  1.0  0.1798
  C  C6149  1  0.435590  0.329080  0.843020  1.0  0.3969
  C  C6150  1  0.499410  0.376110  0.824780  1.0  0.2566
  C  C6151  1  0.590280  0.852580  0.469890  1.0  0.1791
  C  C6152  1  0.572580  0.849140  0.457500  1.0  -0.1413
  C  C6153  1  0.554770  0.860720  0.461380  1.0  -0.0539
  C  C6154  1  0.555140  0.874820  0.478100  1.0  -0.1424
  C  C6155  1  0.573140  0.877580  0.489070  1.0  0.1829
  C  C6156  1  0.602260  0.783380  0.345330  1.0  0.2688
  C  C6157  1  0.638520  0.763210  0.418430  1.0  0.1832
  C  C6158  1  0.637400  0.774620  0.436660  1.0  -0.1608
  C  C6159  1  0.622210  0.790070  0.438580  1.0  -0.036
  C  C6160  1  0.607900  0.792490  0.422260  1.0  -0.1737
  C  C6161  1  0.609740  0.780010  0.404720  1.0  0.1884
  C  C6162  1  0.591320  0.808770  0.422820  1.0  0.389
  C  C6163  1  0.574330  0.834610  0.439700  1.0  0.3113
  C  C6164  1  0.564890  0.825890  0.406840  1.0  0.4455
  C  C6165  1  0.537680  0.846010  0.388220  1.0  0.1971
  C  C6166  1  0.552210  0.829520  0.388150  1.0  -0.1761
  C  C6167  1  0.554110  0.817350  0.370400  1.0  -0.05
  C  C6168  1  0.541090  0.821920  0.353580  1.0  -0.1496
  C  C6169  1  0.527460  0.838600  0.354890  1.0  0.1646
  C  C6170  1  0.482370  0.833010  0.388620  1.0  0.1681
  C  C6171  1  0.470600  0.815400  0.388340  1.0  -0.1833
  C  C6172  1  0.454700  0.813600  0.373330  1.0  -0.0542
  C  C6173  1  0.452170  0.829840  0.359240  1.0  -0.1613
  C  C6174  1  0.464980  0.847310  0.360850  1.0  0.1798
  C  C6175  1  0.435590  0.829080  0.343020  1.0  0.3969
  C  C6176  1  0.499410  0.876110  0.324780  1.0  0.2566
  C  C6177  1  0.780110  0.590280  0.397420  1.0  0.1798
  C  C6178  1  0.792500  0.572580  0.400860  1.0  -0.1422
  C  C6179  1  0.788620  0.554770  0.389280  1.0  -0.0563
  C  C6180  1  0.771900  0.555140  0.375180  1.0  -0.1433
  C  C6181  1  0.760930  0.573140  0.372420  1.0  0.1827
  C  C6182  1  0.904670  0.602260  0.466620  1.0  0.2682
  C  C6183  1  0.831570  0.638520  0.486790  1.0  0.1882
  C  C6184  1  0.813340  0.637400  0.475380  1.0  -0.168
  C  C6185  1  0.811420  0.622210  0.459930  1.0  -0.0351
  C  C6186  1  0.827740  0.607900  0.457510  1.0  -0.179
  C  C6187  1  0.845280  0.609740  0.469990  1.0  0.1886
  C  C6188  1  0.827180  0.591320  0.441230  1.0  0.3889
  C  C6189  1  0.810300  0.574330  0.415390  1.0  0.3111
  C  C6190  1  0.843160  0.564890  0.424110  1.0  0.4461
  C  C6191  1  0.861780  0.537680  0.403990  1.0  0.2002
  C  C6192  1  0.861850  0.552210  0.420480  1.0  -0.1739
  C  C6193  1  0.879600  0.554110  0.432650  1.0  -0.0483
  C  C6194  1  0.896420  0.541090  0.428080  1.0  -0.1526
  C  C6195  1  0.895110  0.527460  0.411400  1.0  0.1683
  C  C6196  1  0.861380  0.482370  0.416990  1.0  0.17
  C  C6197  1  0.861660  0.470600  0.434600  1.0  -0.1801
  C  C6198  1  0.876670  0.454700  0.436400  1.0  -0.0542
  C  C6199  1  0.890760  0.452170  0.420160  1.0  -0.1577
  C  C6200  1  0.889150  0.464980  0.402690  1.0  0.1845
  C  C6201  1  0.906980  0.435590  0.420920  1.0  0.397
  C  C6202  1  0.925220  0.499410  0.373890  1.0  0.2722
  C  C6203  1  0.780110  0.090280  0.897420  1.0  0.1798
  C  C6204  1  0.792500  0.072580  0.900860  1.0  -0.1422
  C  C6205  1  0.788620  0.054770  0.889280  1.0  -0.0563
  C  C6206  1  0.771900  0.055140  0.875180  1.0  -0.1433
  C  C6207  1  0.760930  0.073140  0.872420  1.0  0.1827
  C  C6208  1  0.904670  0.102260  0.966620  1.0  0.2682
  C  C6209  1  0.831570  0.138520  0.986790  1.0  0.1882
  C  C6210  1  0.813340  0.137400  0.975380  1.0  -0.168
  C  C6211  1  0.811420  0.122210  0.959930  1.0  -0.0351
  C  C6212  1  0.827740  0.107900  0.957510  1.0  -0.179
  C  C6213  1  0.845280  0.109740  0.969990  1.0  0.1886
  C  C6214  1  0.827180  0.091320  0.941230  1.0  0.3889
  C  C6215  1  0.810300  0.074330  0.915390  1.0  0.3111
  C  C6216  1  0.843160  0.064890  0.924110  1.0  0.4461
  C  C6217  1  0.861780  0.037680  0.903990  1.0  0.2002
  C  C6218  1  0.861850  0.052210  0.920480  1.0  -0.1739
  C  C6219  1  0.879600  0.054110  0.932650  1.0  -0.0483
  C  C6220  1  0.896420  0.041090  0.928080  1.0  -0.1526
  C  C6221  1  0.895110  0.027460  0.911400  1.0  0.1683
  C  C6222  1  0.861380  0.982370  0.916990  1.0  0.17
  C  C6223  1  0.861660  0.970600  0.934600  1.0  -0.1801
  C  C6224  1  0.876670  0.954700  0.936400  1.0  -0.0542
  C  C6225  1  0.890760  0.952170  0.920160  1.0  -0.1577
  C  C6226  1  0.889150  0.964980  0.902690  1.0  0.1845
  C  C6227  1  0.906980  0.935590  0.920920  1.0  0.397
  C  C6228  1  0.925220  0.999410  0.873890  1.0  0.2722
  C  C6229  1  0.280110  0.590280  0.897420  1.0  0.1798
  C  C6230  1  0.292500  0.572580  0.900860  1.0  -0.1422
  C  C6231  1  0.288620  0.554770  0.889280  1.0  -0.0563
  C  C6232  1  0.271900  0.555140  0.875180  1.0  -0.1433
  C  C6233  1  0.260930  0.573140  0.872420  1.0  0.1827
  C  C6234  1  0.404670  0.602260  0.966620  1.0  0.2682
  C  C6235  1  0.331570  0.638520  0.986790  1.0  0.1882
  C  C6236  1  0.313340  0.637400  0.975380  1.0  -0.168
  C  C6237  1  0.311420  0.622210  0.959930  1.0  -0.0351
  C  C6238  1  0.327740  0.607900  0.957510  1.0  -0.179
  C  C6239  1  0.345280  0.609740  0.969990  1.0  0.1886
  C  C6240  1  0.327180  0.591320  0.941230  1.0  0.3889
  C  C6241  1  0.310300  0.574330  0.915390  1.0  0.3111
  C  C6242  1  0.343160  0.564890  0.924110  1.0  0.4461
  C  C6243  1  0.361780  0.537680  0.903990  1.0  0.2002
  C  C6244  1  0.361850  0.552210  0.920480  1.0  -0.1739
  C  C6245  1  0.379600  0.554110  0.932650  1.0  -0.0483
  C  C6246  1  0.396420  0.541090  0.928080  1.0  -0.1526
  C  C6247  1  0.395110  0.527460  0.911400  1.0  0.1683
  C  C6248  1  0.361380  0.482370  0.916990  1.0  0.17
  C  C6249  1  0.361660  0.470600  0.934600  1.0  -0.1801
  C  C6250  1  0.376670  0.454700  0.936400  1.0  -0.0542
  C  C6251  1  0.390760  0.452170  0.920160  1.0  -0.1577
  C  C6252  1  0.389150  0.464980  0.902690  1.0  0.1845
  C  C6253  1  0.406980  0.435590  0.920920  1.0  0.397
  C  C6254  1  0.425220  0.499410  0.873890  1.0  0.2722
  C  C6255  1  0.280110  0.090280  0.397420  1.0  0.1798
  C  C6256  1  0.292500  0.072580  0.400860  1.0  -0.1422
  C  C6257  1  0.288620  0.054770  0.389280  1.0  -0.0563
  C  C6258  1  0.271900  0.055140  0.375180  1.0  -0.1433
  C  C6259  1  0.260930  0.073140  0.372420  1.0  0.1827
  C  C6260  1  0.404670  0.102260  0.466620  1.0  0.2682
  C  C6261  1  0.331570  0.138520  0.486790  1.0  0.1882
  C  C6262  1  0.313340  0.137400  0.475380  1.0  -0.168
  C  C6263  1  0.311420  0.122210  0.459930  1.0  -0.0351
  C  C6264  1  0.327740  0.107900  0.457510  1.0  -0.179
  C  C6265  1  0.345280  0.109740  0.469990  1.0  0.1886
  C  C6266  1  0.327180  0.091320  0.441230  1.0  0.3889
  C  C6267  1  0.310300  0.074330  0.415390  1.0  0.3111
  C  C6268  1  0.343160  0.064890  0.424110  1.0  0.4461
  C  C6269  1  0.361780  0.037680  0.403990  1.0  0.2002
  C  C6270  1  0.361850  0.052210  0.420480  1.0  -0.1739
  C  C6271  1  0.379600  0.054110  0.432650  1.0  -0.0483
  C  C6272  1  0.396420  0.041090  0.428080  1.0  -0.1526
  C  C6273  1  0.395110  0.027460  0.411400  1.0  0.1683
  C  C6274  1  0.361380  0.982370  0.416990  1.0  0.17
  C  C6275  1  0.361660  0.970600  0.434600  1.0  -0.1801
  C  C6276  1  0.376670  0.954700  0.436400  1.0  -0.0542
  C  C6277  1  0.390760  0.952170  0.420160  1.0  -0.1577
  C  C6278  1  0.389150  0.964980  0.402690  1.0  0.1845
  C  C6279  1  0.406980  0.935590  0.420920  1.0  0.397
  C  C6280  1  0.425220  0.999410  0.373890  1.0  0.2722
  C  C6281  1  0.280110  0.159720  0.852580  1.0  0.1802
  C  C6282  1  0.292500  0.177420  0.849140  1.0  -0.1409
  C  C6283  1  0.288620  0.195230  0.860720  1.0  -0.0566
  C  C6284  1  0.271900  0.194860  0.874820  1.0  -0.1438
  C  C6285  1  0.260930  0.176860  0.877580  1.0  0.1819
  C  C6286  1  0.404670  0.147740  0.783380  1.0  0.2656
  C  C6287  1  0.331570  0.111480  0.763210  1.0  0.1882
  C  C6288  1  0.313340  0.112600  0.774620  1.0  -0.1661
  C  C6289  1  0.311420  0.127790  0.790070  1.0  -0.0351
  C  C6290  1  0.327740  0.142100  0.792490  1.0  -0.1776
  C  C6291  1  0.345280  0.140260  0.780010  1.0  0.1885
  C  C6292  1  0.327180  0.158680  0.808770  1.0  0.3888
  C  C6293  1  0.310300  0.175670  0.834610  1.0  0.311
  C  C6294  1  0.343160  0.185110  0.825890  1.0  0.4458
  C  C6295  1  0.361780  0.212320  0.846010  1.0  0.201
  C  C6296  1  0.361850  0.197790  0.829520  1.0  -0.1744
  C  C6297  1  0.379600  0.195890  0.817350  1.0  -0.0496
  C  C6298  1  0.396420  0.208910  0.821920  1.0  -0.1522
  C  C6299  1  0.395110  0.222540  0.838600  1.0  0.1691
  C  C6300  1  0.361380  0.267630  0.833010  1.0  0.1696
  C  C6301  1  0.361660  0.279400  0.815400  1.0  -0.1774
  C  C6302  1  0.376670  0.295300  0.813600  1.0  -0.0549
  C  C6303  1  0.390760  0.297830  0.829840  1.0  -0.1575
  C  C6304  1  0.389150  0.285020  0.847310  1.0  0.1847
  C  C6305  1  0.406980  0.314410  0.829080  1.0  0.3973
  C  C6306  1  0.425220  0.250590  0.876110  1.0  0.2717
  C  C6307  1  0.280110  0.659720  0.352580  1.0  0.1802
  C  C6308  1  0.292500  0.677420  0.349140  1.0  -0.1409
  C  C6309  1  0.288620  0.695230  0.360720  1.0  -0.0566
  C  C6310  1  0.271900  0.694860  0.374820  1.0  -0.1438
  C  C6311  1  0.260930  0.676860  0.377580  1.0  0.1819
  C  C6312  1  0.404670  0.647740  0.283380  1.0  0.2656
  C  C6313  1  0.331570  0.611480  0.263210  1.0  0.1882
  C  C6314  1  0.313340  0.612600  0.274620  1.0  -0.1661
  C  C6315  1  0.311420  0.627790  0.290070  1.0  -0.0351
  C  C6316  1  0.327740  0.642100  0.292490  1.0  -0.1776
  C  C6317  1  0.345280  0.640260  0.280010  1.0  0.1885
  C  C6318  1  0.327180  0.658680  0.308770  1.0  0.3888
  C  C6319  1  0.310300  0.675670  0.334610  1.0  0.311
  C  C6320  1  0.343160  0.685110  0.325890  1.0  0.4458
  C  C6321  1  0.361780  0.712320  0.346010  1.0  0.201
  C  C6322  1  0.361850  0.697790  0.329520  1.0  -0.1744
  C  C6323  1  0.379600  0.695890  0.317350  1.0  -0.0496
  C  C6324  1  0.396420  0.708910  0.321920  1.0  -0.1522
  C  C6325  1  0.395110  0.722540  0.338600  1.0  0.1691
  C  C6326  1  0.361380  0.767630  0.333010  1.0  0.1696
  C  C6327  1  0.361660  0.779400  0.315400  1.0  -0.1774
  C  C6328  1  0.376670  0.795300  0.313600  1.0  -0.0549
  C  C6329  1  0.390760  0.797830  0.329840  1.0  -0.1575
  C  C6330  1  0.389150  0.785020  0.347310  1.0  0.1847
  C  C6331  1  0.406980  0.814410  0.329080  1.0  0.3973
  C  C6332  1  0.425220  0.750590  0.376110  1.0  0.2717
  C  C6333  1  0.780110  0.159720  0.352580  1.0  0.1802
  C  C6334  1  0.792500  0.177420  0.349140  1.0  -0.1409
  C  C6335  1  0.788620  0.195230  0.360720  1.0  -0.0566
  C  C6336  1  0.771900  0.194860  0.374820  1.0  -0.1438
  C  C6337  1  0.760930  0.176860  0.377580  1.0  0.1819
  C  C6338  1  0.904670  0.147740  0.283380  1.0  0.2656
  C  C6339  1  0.831570  0.111480  0.263210  1.0  0.1882
  C  C6340  1  0.813340  0.112600  0.274620  1.0  -0.1661
  C  C6341  1  0.811420  0.127790  0.290070  1.0  -0.0351
  C  C6342  1  0.827740  0.142100  0.292490  1.0  -0.1776
  C  C6343  1  0.845280  0.140260  0.280010  1.0  0.1885
  C  C6344  1  0.827180  0.158680  0.308770  1.0  0.3888
  C  C6345  1  0.810300  0.175670  0.334610  1.0  0.311
  C  C6346  1  0.843160  0.185110  0.325890  1.0  0.4458
  C  C6347  1  0.861780  0.212320  0.346010  1.0  0.201
  C  C6348  1  0.861850  0.197790  0.329520  1.0  -0.1744
  C  C6349  1  0.879600  0.195890  0.317350  1.0  -0.0496
  C  C6350  1  0.896420  0.208910  0.321920  1.0  -0.1522
  C  C6351  1  0.895110  0.222540  0.338600  1.0  0.1691
  C  C6352  1  0.861380  0.267630  0.333010  1.0  0.1696
  C  C6353  1  0.861660  0.279400  0.315400  1.0  -0.1774
  C  C6354  1  0.876670  0.295300  0.313600  1.0  -0.0549
  C  C6355  1  0.890760  0.297830  0.329840  1.0  -0.1575
  C  C6356  1  0.889150  0.285020  0.347310  1.0  0.1847
  C  C6357  1  0.906980  0.314410  0.329080  1.0  0.3973
  C  C6358  1  0.925220  0.250590  0.376110  1.0  0.2717
  C  C6359  1  0.780110  0.659720  0.852580  1.0  0.1802
  C  C6360  1  0.792500  0.677420  0.849140  1.0  -0.1409
  C  C6361  1  0.788620  0.695230  0.860720  1.0  -0.0566
  C  C6362  1  0.771900  0.694860  0.874820  1.0  -0.1438
  C  C6363  1  0.760930  0.676860  0.877580  1.0  0.1819
  C  C6364  1  0.904670  0.647740  0.783380  1.0  0.2656
  C  C6365  1  0.831570  0.611480  0.763210  1.0  0.1882
  C  C6366  1  0.813340  0.612600  0.774620  1.0  -0.1661
  C  C6367  1  0.811420  0.627790  0.790070  1.0  -0.0351
  C  C6368  1  0.827740  0.642100  0.792490  1.0  -0.1776
  C  C6369  1  0.845280  0.640260  0.780010  1.0  0.1885
  C  C6370  1  0.827180  0.658680  0.808770  1.0  0.3888
  C  C6371  1  0.810300  0.675670  0.834610  1.0  0.311
  C  C6372  1  0.843160  0.685110  0.825890  1.0  0.4458
  C  C6373  1  0.861780  0.712320  0.846010  1.0  0.201
  C  C6374  1  0.861850  0.697790  0.829520  1.0  -0.1744
  C  C6375  1  0.879600  0.695890  0.817350  1.0  -0.0496
  C  C6376  1  0.896420  0.708910  0.821920  1.0  -0.1522
  C  C6377  1  0.895110  0.722540  0.838600  1.0  0.1691
  C  C6378  1  0.861380  0.767630  0.833010  1.0  0.1696
  C  C6379  1  0.861660  0.779400  0.815400  1.0  -0.1774
  C  C6380  1  0.876670  0.795300  0.813600  1.0  -0.0549
  C  C6381  1  0.890760  0.797830  0.829840  1.0  -0.1575
  C  C6382  1  0.889150  0.785020  0.847310  1.0  0.1847
  C  C6383  1  0.906980  0.814410  0.829080  1.0  0.3973
  C  C6384  1  0.925220  0.750590  0.876110  1.0  0.2717
  C  C6385  1  0.969890  0.659720  0.897420  1.0  0.1796
  C  C6386  1  0.957500  0.677420  0.900860  1.0  -0.141
  C  C6387  1  0.961380  0.695230  0.889280  1.0  -0.0579
  C  C6388  1  0.978100  0.694860  0.875180  1.0  -0.1443
  C  C6389  1  0.989070  0.676860  0.872420  1.0  0.1818
  C  C6390  1  0.845330  0.647740  0.966620  1.0  0.2699
  C  C6391  1  0.918430  0.611480  0.986790  1.0  0.1895
  C  C6392  1  0.936660  0.612600  0.975380  1.0  -0.1638
  C  C6393  1  0.938580  0.627790  0.959930  1.0  -0.0366
  C  C6394  1  0.922260  0.642100  0.957510  1.0  -0.1772
  C  C6395  1  0.904720  0.640260  0.969990  1.0  0.1882
  C  C6396  1  0.922820  0.658680  0.941230  1.0  0.3894
  C  C6397  1  0.939700  0.675670  0.915390  1.0  0.311
  C  C6398  1  0.906840  0.685110  0.924110  1.0  0.4457
  C  C6399  1  0.888220  0.712320  0.903990  1.0  0.2002
  C  C6400  1  0.888150  0.697790  0.920480  1.0  -0.1744
  C  C6401  1  0.870400  0.695890  0.932650  1.0  -0.0485
  C  C6402  1  0.853580  0.708910  0.928080  1.0  -0.1537
  C  C6403  1  0.854890  0.722540  0.911400  1.0  0.1677
  C  C6404  1  0.888620  0.767630  0.916990  1.0  0.1703
  C  C6405  1  0.888340  0.779400  0.934600  1.0  -0.1782
  C  C6406  1  0.873330  0.795300  0.936400  1.0  -0.0541
  C  C6407  1  0.859240  0.797830  0.920160  1.0  -0.1576
  C  C6408  1  0.860850  0.785020  0.902690  1.0  0.185
  C  C6409  1  0.843020  0.814410  0.920920  1.0  0.397
  C  C6410  1  0.824780  0.750590  0.873890  1.0  0.2642
  C  C6411  1  0.969890  0.159720  0.397420  1.0  0.1796
  C  C6412  1  0.957500  0.177420  0.400860  1.0  -0.141
  C  C6413  1  0.961380  0.195230  0.389280  1.0  -0.0579
  C  C6414  1  0.978100  0.194860  0.375180  1.0  -0.1443
  C  C6415  1  0.989070  0.176860  0.372420  1.0  0.1818
  C  C6416  1  0.845330  0.147740  0.466620  1.0  0.2699
  C  C6417  1  0.918430  0.111480  0.486790  1.0  0.1895
  C  C6418  1  0.936660  0.112600  0.475380  1.0  -0.1638
  C  C6419  1  0.938580  0.127790  0.459930  1.0  -0.0366
  C  C6420  1  0.922260  0.142100  0.457510  1.0  -0.1772
  C  C6421  1  0.904720  0.140260  0.469990  1.0  0.1882
  C  C6422  1  0.922820  0.158680  0.441230  1.0  0.3894
  C  C6423  1  0.939700  0.175670  0.415390  1.0  0.311
  C  C6424  1  0.906840  0.185110  0.424110  1.0  0.4457
  C  C6425  1  0.888220  0.212320  0.403990  1.0  0.2002
  C  C6426  1  0.888150  0.197790  0.420480  1.0  -0.1744
  C  C6427  1  0.870400  0.195890  0.432650  1.0  -0.0485
  C  C6428  1  0.853580  0.208910  0.428080  1.0  -0.1537
  C  C6429  1  0.854890  0.222540  0.411400  1.0  0.1677
  C  C6430  1  0.888620  0.267630  0.416990  1.0  0.1703
  C  C6431  1  0.888340  0.279400  0.434600  1.0  -0.1782
  C  C6432  1  0.873330  0.295300  0.436400  1.0  -0.0541
  C  C6433  1  0.859240  0.297830  0.420160  1.0  -0.1576
  C  C6434  1  0.860850  0.285020  0.402690  1.0  0.185
  C  C6435  1  0.843020  0.314410  0.420920  1.0  0.397
  C  C6436  1  0.824780  0.250590  0.373890  1.0  0.2642
  C  C6437  1  0.469890  0.659720  0.397420  1.0  0.1796
  C  C6438  1  0.457500  0.677420  0.400860  1.0  -0.141
  C  C6439  1  0.461380  0.695230  0.389280  1.0  -0.0579
  C  C6440  1  0.478100  0.694860  0.375180  1.0  -0.1443
  C  C6441  1  0.489070  0.676860  0.372420  1.0  0.1818
  C  C6442  1  0.345330  0.647740  0.466620  1.0  0.2699
  C  C6443  1  0.418430  0.611480  0.486790  1.0  0.1895
  C  C6444  1  0.436660  0.612600  0.475380  1.0  -0.1638
  C  C6445  1  0.438580  0.627790  0.459930  1.0  -0.0366
  C  C6446  1  0.422260  0.642100  0.457510  1.0  -0.1772
  C  C6447  1  0.404720  0.640260  0.469990  1.0  0.1882
  C  C6448  1  0.422820  0.658680  0.441230  1.0  0.3894
  C  C6449  1  0.439700  0.675670  0.415390  1.0  0.311
  C  C6450  1  0.406840  0.685110  0.424110  1.0  0.4457
  C  C6451  1  0.388220  0.712320  0.403990  1.0  0.2002
  C  C6452  1  0.388150  0.697790  0.420480  1.0  -0.1744
  C  C6453  1  0.370400  0.695890  0.432650  1.0  -0.0485
  C  C6454  1  0.353580  0.708910  0.428080  1.0  -0.1537
  C  C6455  1  0.354890  0.722540  0.411400  1.0  0.1677
  C  C6456  1  0.388620  0.767630  0.416990  1.0  0.1703
  C  C6457  1  0.388340  0.779400  0.434600  1.0  -0.1782
  C  C6458  1  0.373330  0.795300  0.436400  1.0  -0.0541
  C  C6459  1  0.359240  0.797830  0.420160  1.0  -0.1576
  C  C6460  1  0.360850  0.785020  0.402690  1.0  0.185
  C  C6461  1  0.343020  0.814410  0.420920  1.0  0.397
  C  C6462  1  0.324780  0.750590  0.373890  1.0  0.2642
  C  C6463  1  0.469890  0.159720  0.897420  1.0  0.1796
  C  C6464  1  0.457500  0.177420  0.900860  1.0  -0.141
  C  C6465  1  0.461380  0.195230  0.889280  1.0  -0.0579
  C  C6466  1  0.478100  0.194860  0.875180  1.0  -0.1443
  C  C6467  1  0.489070  0.176860  0.872420  1.0  0.1818
  C  C6468  1  0.345330  0.147740  0.966620  1.0  0.2699
  C  C6469  1  0.418430  0.111480  0.986790  1.0  0.1895
  C  C6470  1  0.436660  0.112600  0.975380  1.0  -0.1638
  C  C6471  1  0.438580  0.127790  0.959930  1.0  -0.0366
  C  C6472  1  0.422260  0.142100  0.957510  1.0  -0.1772
  C  C6473  1  0.404720  0.140260  0.969990  1.0  0.1882
  C  C6474  1  0.422820  0.158680  0.941230  1.0  0.3894
  C  C6475  1  0.439700  0.175670  0.915390  1.0  0.311
  C  C6476  1  0.406840  0.185110  0.924110  1.0  0.4457
  C  C6477  1  0.388220  0.212320  0.903990  1.0  0.2002
  C  C6478  1  0.388150  0.197790  0.920480  1.0  -0.1744
  C  C6479  1  0.370400  0.195890  0.932650  1.0  -0.0485
  C  C6480  1  0.353580  0.208910  0.928080  1.0  -0.1537
  C  C6481  1  0.354890  0.222540  0.911400  1.0  0.1677
  C  C6482  1  0.388620  0.267630  0.916990  1.0  0.1703
  C  C6483  1  0.388340  0.279400  0.934600  1.0  -0.1782
  C  C6484  1  0.373330  0.295300  0.936400  1.0  -0.0541
  C  C6485  1  0.359240  0.297830  0.920160  1.0  -0.1576
  C  C6486  1  0.360850  0.285020  0.902690  1.0  0.185
  C  C6487  1  0.343020  0.314410  0.920920  1.0  0.397
  C  C6488  1  0.324780  0.250590  0.873890  1.0  0.2642
  C  C6489  1  0.469890  0.090280  0.352580  1.0  0.1793
  C  C6490  1  0.457500  0.072580  0.349140  1.0  -0.1408
  C  C6491  1  0.461380  0.054770  0.360720  1.0  -0.0565
  C  C6492  1  0.478100  0.055140  0.374820  1.0  -0.1433
  C  C6493  1  0.489070  0.073140  0.377580  1.0  0.183
  C  C6494  1  0.345330  0.102260  0.283380  1.0  0.2666
  C  C6495  1  0.418430  0.138520  0.263210  1.0  0.1899
  C  C6496  1  0.436660  0.137400  0.274620  1.0  -0.1653
  C  C6497  1  0.438580  0.122210  0.290070  1.0  -0.0355
  C  C6498  1  0.422260  0.107900  0.292490  1.0  -0.177
  C  C6499  1  0.404720  0.109740  0.280010  1.0  0.1877
  C  C6500  1  0.422820  0.091320  0.308770  1.0  0.3893
  C  C6501  1  0.439700  0.074330  0.334610  1.0  0.3112
  C  C6502  1  0.406840  0.064890  0.325890  1.0  0.4455
  C  C6503  1  0.388220  0.037680  0.346010  1.0  0.1997
  C  C6504  1  0.388150  0.052210  0.329520  1.0  -0.1737
  C  C6505  1  0.370400  0.054110  0.317350  1.0  -0.0487
  C  C6506  1  0.353580  0.041090  0.321920  1.0  -0.1523
  C  C6507  1  0.354890  0.027460  0.338600  1.0  0.1679
  C  C6508  1  0.388620  0.982370  0.333010  1.0  0.1695
  C  C6509  1  0.388340  0.970600  0.315400  1.0  -0.1773
  C  C6510  1  0.373330  0.954700  0.313600  1.0  -0.0549
  C  C6511  1  0.359240  0.952170  0.329840  1.0  -0.1589
  C  C6512  1  0.360850  0.964980  0.347310  1.0  0.1866
  C  C6513  1  0.343020  0.935590  0.329080  1.0  0.3972
  C  C6514  1  0.324780  0.999410  0.376110  1.0  0.2639
  C  C6515  1  0.469890  0.590280  0.852580  1.0  0.1793
  C  C6516  1  0.457500  0.572580  0.849140  1.0  -0.1408
  C  C6517  1  0.461380  0.554770  0.860720  1.0  -0.0565
  C  C6518  1  0.478100  0.555140  0.874820  1.0  -0.1433
  C  C6519  1  0.489070  0.573140  0.877580  1.0  0.183
  C  C6520  1  0.345330  0.602260  0.783380  1.0  0.2666
  C  C6521  1  0.418430  0.638520  0.763210  1.0  0.1899
  C  C6522  1  0.436660  0.637400  0.774620  1.0  -0.1653
  C  C6523  1  0.438580  0.622210  0.790070  1.0  -0.0355
  C  C6524  1  0.422260  0.607900  0.792490  1.0  -0.177
  C  C6525  1  0.404720  0.609740  0.780010  1.0  0.1877
  C  C6526  1  0.422820  0.591320  0.808770  1.0  0.3893
  C  C6527  1  0.439700  0.574330  0.834610  1.0  0.3112
  C  C6528  1  0.406840  0.564890  0.825890  1.0  0.4455
  C  C6529  1  0.388220  0.537680  0.846010  1.0  0.1997
  C  C6530  1  0.388150  0.552210  0.829520  1.0  -0.1737
  C  C6531  1  0.370400  0.554110  0.817350  1.0  -0.0487
  C  C6532  1  0.353580  0.541090  0.821920  1.0  -0.1523
  C  C6533  1  0.354890  0.527460  0.838600  1.0  0.1679
  C  C6534  1  0.388620  0.482370  0.833010  1.0  0.1695
  C  C6535  1  0.388340  0.470600  0.815400  1.0  -0.1773
  C  C6536  1  0.373330  0.454700  0.813600  1.0  -0.0549
  C  C6537  1  0.359240  0.452170  0.829840  1.0  -0.1589
  C  C6538  1  0.360850  0.464980  0.847310  1.0  0.1866
  C  C6539  1  0.343020  0.435590  0.829080  1.0  0.3972
  C  C6540  1  0.324780  0.499410  0.876110  1.0  0.2639
  C  C6541  1  0.969890  0.090280  0.852580  1.0  0.1793
  C  C6542  1  0.957500  0.072580  0.849140  1.0  -0.1408
  C  C6543  1  0.961380  0.054770  0.860720  1.0  -0.0565
  C  C6544  1  0.978100  0.055140  0.874820  1.0  -0.1433
  C  C6545  1  0.989070  0.073140  0.877580  1.0  0.183
  C  C6546  1  0.845330  0.102260  0.783380  1.0  0.2666
  C  C6547  1  0.918430  0.138520  0.763210  1.0  0.1899
  C  C6548  1  0.936660  0.137400  0.774620  1.0  -0.1653
  C  C6549  1  0.938580  0.122210  0.790070  1.0  -0.0355
  C  C6550  1  0.922260  0.107900  0.792490  1.0  -0.177
  C  C6551  1  0.904720  0.109740  0.780010  1.0  0.1877
  C  C6552  1  0.922820  0.091320  0.808770  1.0  0.3893
  C  C6553  1  0.939700  0.074330  0.834610  1.0  0.3112
  C  C6554  1  0.906840  0.064890  0.825890  1.0  0.4455
  C  C6555  1  0.888220  0.037680  0.846010  1.0  0.1997
  C  C6556  1  0.888150  0.052210  0.829520  1.0  -0.1737
  C  C6557  1  0.870400  0.054110  0.817350  1.0  -0.0487
  C  C6558  1  0.853580  0.041090  0.821920  1.0  -0.1523
  C  C6559  1  0.854890  0.027460  0.838600  1.0  0.1679
  C  C6560  1  0.888620  0.982370  0.833010  1.0  0.1695
  C  C6561  1  0.888340  0.970600  0.815400  1.0  -0.1773
  C  C6562  1  0.873330  0.954700  0.813600  1.0  -0.0549
  C  C6563  1  0.859240  0.952170  0.829840  1.0  -0.1589
  C  C6564  1  0.860850  0.964980  0.847310  1.0  0.1866
  C  C6565  1  0.843020  0.935590  0.829080  1.0  0.3972
  C  C6566  1  0.824780  0.999410  0.876110  1.0  0.2639
  C  C6567  1  0.969890  0.590280  0.352580  1.0  0.1793
  C  C6568  1  0.957500  0.572580  0.349140  1.0  -0.1408
  C  C6569  1  0.961380  0.554770  0.360720  1.0  -0.0565
  C  C6570  1  0.978100  0.555140  0.374820  1.0  -0.1433
  C  C6571  1  0.989070  0.573140  0.377580  1.0  0.183
  C  C6572  1  0.845330  0.602260  0.283380  1.0  0.2666
  C  C6573  1  0.918430  0.638520  0.263210  1.0  0.1899
  C  C6574  1  0.936660  0.637400  0.274620  1.0  -0.1653
  C  C6575  1  0.938580  0.622210  0.290070  1.0  -0.0355
  C  C6576  1  0.922260  0.607900  0.292490  1.0  -0.177
  C  C6577  1  0.904720  0.609740  0.280010  1.0  0.1877
  C  C6578  1  0.922820  0.591320  0.308770  1.0  0.3893
  C  C6579  1  0.939700  0.574330  0.334610  1.0  0.3112
  C  C6580  1  0.906840  0.564890  0.325890  1.0  0.4455
  C  C6581  1  0.888220  0.537680  0.346010  1.0  0.1997
  C  C6582  1  0.888150  0.552210  0.329520  1.0  -0.1737
  C  C6583  1  0.870400  0.554110  0.317350  1.0  -0.0487
  C  C6584  1  0.853580  0.541090  0.321920  1.0  -0.1523
  C  C6585  1  0.854890  0.527460  0.338600  1.0  0.1679
  C  C6586  1  0.888620  0.482370  0.333010  1.0  0.1695
  C  C6587  1  0.888340  0.470600  0.315400  1.0  -0.1773
  C  C6588  1  0.873330  0.454700  0.313600  1.0  -0.0549
  C  C6589  1  0.859240  0.452170  0.329840  1.0  -0.1589
  C  C6590  1  0.860850  0.464980  0.347310  1.0  0.1866
  C  C6591  1  0.843020  0.435590  0.329080  1.0  0.3972
  C  C6592  1  0.824780  0.499410  0.376110  1.0  0.2639
  C  C6593  1  0.397420  0.780110  0.590280  1.0  0.1813
  C  C6594  1  0.400860  0.792500  0.572580  1.0  -0.1401
  C  C6595  1  0.389280  0.788620  0.554770  1.0  -0.0578
  C  C6596  1  0.375180  0.771900  0.555140  1.0  -0.1398
  C  C6597  1  0.372420  0.760930  0.573140  1.0  0.1804
  C  C6598  1  0.466620  0.904670  0.602260  1.0  0.2723
  C  C6599  1  0.486790  0.831570  0.638520  1.0  0.1856
  C  C6600  1  0.475380  0.813340  0.637400  1.0  -0.1677
  C  C6601  1  0.459930  0.811420  0.622210  1.0  -0.039
  C  C6602  1  0.457510  0.827740  0.607900  1.0  -0.177
  C  C6603  1  0.469990  0.845280  0.609740  1.0  0.1872
  C  C6604  1  0.441230  0.827180  0.591320  1.0  0.3887
  C  C6605  1  0.415390  0.810300  0.574330  1.0  0.3112
  C  C6606  1  0.424110  0.843160  0.564890  1.0  0.446
  C  C6607  1  0.403990  0.861780  0.537680  1.0  0.1985
  C  C6608  1  0.420480  0.861850  0.552210  1.0  -0.1735
  C  C6609  1  0.432650  0.879600  0.554110  1.0  -0.0489
  C  C6610  1  0.428080  0.896420  0.541090  1.0  -0.1528
  C  C6611  1  0.411400  0.895110  0.527460  1.0  0.1656
  C  C6612  1  0.416990  0.861380  0.482370  1.0  0.1711
  C  C6613  1  0.434600  0.861660  0.470600  1.0  -0.1819
  C  C6614  1  0.436400  0.876670  0.454700  1.0  -0.0519
  C  C6615  1  0.420160  0.890760  0.452170  1.0  -0.1611
  C  C6616  1  0.402690  0.889150  0.464980  1.0  0.1823
  C  C6617  1  0.420920  0.906980  0.435590  1.0  0.3973
  C  C6618  1  0.373890  0.925220  0.499410  1.0  0.2666
  C  C6619  1  0.397420  0.280110  0.090280  1.0  0.1813
  C  C6620  1  0.400860  0.292500  0.072580  1.0  -0.1401
  C  C6621  1  0.389280  0.288620  0.054770  1.0  -0.0578
  C  C6622  1  0.375180  0.271900  0.055140  1.0  -0.1398
  C  C6623  1  0.372420  0.260930  0.073140  1.0  0.1804
  C  C6624  1  0.466620  0.404670  0.102260  1.0  0.2723
  C  C6625  1  0.486790  0.331570  0.138520  1.0  0.1856
  C  C6626  1  0.475380  0.313340  0.137400  1.0  -0.1677
  C  C6627  1  0.459930  0.311420  0.122210  1.0  -0.039
  C  C6628  1  0.457510  0.327740  0.107900  1.0  -0.177
  C  C6629  1  0.469990  0.345280  0.109740  1.0  0.1872
  C  C6630  1  0.441230  0.327180  0.091320  1.0  0.3887
  C  C6631  1  0.415390  0.310300  0.074330  1.0  0.3112
  C  C6632  1  0.424110  0.343160  0.064890  1.0  0.446
  C  C6633  1  0.403990  0.361780  0.037680  1.0  0.1985
  C  C6634  1  0.420480  0.361850  0.052210  1.0  -0.1735
  C  C6635  1  0.432650  0.379600  0.054110  1.0  -0.0489
  C  C6636  1  0.428080  0.396420  0.041090  1.0  -0.1528
  C  C6637  1  0.411400  0.395110  0.027460  1.0  0.1656
  C  C6638  1  0.416990  0.361380  0.982370  1.0  0.1711
  C  C6639  1  0.434600  0.361660  0.970600  1.0  -0.1819
  C  C6640  1  0.436400  0.376670  0.954700  1.0  -0.0519
  C  C6641  1  0.420160  0.390760  0.952170  1.0  -0.1611
  C  C6642  1  0.402690  0.389150  0.964980  1.0  0.1823
  C  C6643  1  0.420920  0.406980  0.935590  1.0  0.3973
  C  C6644  1  0.373890  0.425220  0.999410  1.0  0.2666
  C  C6645  1  0.897420  0.780110  0.090280  1.0  0.1813
  C  C6646  1  0.900860  0.792500  0.072580  1.0  -0.1401
  C  C6647  1  0.889280  0.788620  0.054770  1.0  -0.0578
  C  C6648  1  0.875180  0.771900  0.055140  1.0  -0.1398
  C  C6649  1  0.872420  0.760930  0.073140  1.0  0.1804
  C  C6650  1  0.966620  0.904670  0.102260  1.0  0.2723
  C  C6651  1  0.986790  0.831570  0.138520  1.0  0.1856
  C  C6652  1  0.975380  0.813340  0.137400  1.0  -0.1677
  C  C6653  1  0.959930  0.811420  0.122210  1.0  -0.039
  C  C6654  1  0.957510  0.827740  0.107900  1.0  -0.177
  C  C6655  1  0.969990  0.845280  0.109740  1.0  0.1872
  C  C6656  1  0.941230  0.827180  0.091320  1.0  0.3887
  C  C6657  1  0.915390  0.810300  0.074330  1.0  0.3112
  C  C6658  1  0.924110  0.843160  0.064890  1.0  0.446
  C  C6659  1  0.903990  0.861780  0.037680  1.0  0.1985
  C  C6660  1  0.920480  0.861850  0.052210  1.0  -0.1735
  C  C6661  1  0.932650  0.879600  0.054110  1.0  -0.0489
  C  C6662  1  0.928080  0.896420  0.041090  1.0  -0.1528
  C  C6663  1  0.911400  0.895110  0.027460  1.0  0.1656
  C  C6664  1  0.916990  0.861380  0.982370  1.0  0.1711
  C  C6665  1  0.934600  0.861660  0.970600  1.0  -0.1819
  C  C6666  1  0.936400  0.876670  0.954700  1.0  -0.0519
  C  C6667  1  0.920160  0.890760  0.952170  1.0  -0.1611
  C  C6668  1  0.902690  0.889150  0.964980  1.0  0.1823
  C  C6669  1  0.920920  0.906980  0.935590  1.0  0.3973
  C  C6670  1  0.873890  0.925220  0.999410  1.0  0.2666
  C  C6671  1  0.897420  0.280110  0.590280  1.0  0.1813
  C  C6672  1  0.900860  0.292500  0.572580  1.0  -0.1401
  C  C6673  1  0.889280  0.288620  0.554770  1.0  -0.0578
  C  C6674  1  0.875180  0.271900  0.555140  1.0  -0.1398
  C  C6675  1  0.872420  0.260930  0.573140  1.0  0.1804
  C  C6676  1  0.966620  0.404670  0.602260  1.0  0.2723
  C  C6677  1  0.986790  0.331570  0.638520  1.0  0.1856
  C  C6678  1  0.975380  0.313340  0.637400  1.0  -0.1677
  C  C6679  1  0.959930  0.311420  0.622210  1.0  -0.039
  C  C6680  1  0.957510  0.327740  0.607900  1.0  -0.177
  C  C6681  1  0.969990  0.345280  0.609740  1.0  0.1872
  C  C6682  1  0.941230  0.327180  0.591320  1.0  0.3887
  C  C6683  1  0.915390  0.310300  0.574330  1.0  0.3112
  C  C6684  1  0.924110  0.343160  0.564890  1.0  0.446
  C  C6685  1  0.903990  0.361780  0.537680  1.0  0.1985
  C  C6686  1  0.920480  0.361850  0.552210  1.0  -0.1735
  C  C6687  1  0.932650  0.379600  0.554110  1.0  -0.0489
  C  C6688  1  0.928080  0.396420  0.541090  1.0  -0.1528
  C  C6689  1  0.911400  0.395110  0.527460  1.0  0.1656
  C  C6690  1  0.916990  0.361380  0.482370  1.0  0.1711
  C  C6691  1  0.934600  0.361660  0.470600  1.0  -0.1819
  C  C6692  1  0.936400  0.376670  0.454700  1.0  -0.0519
  C  C6693  1  0.920160  0.390760  0.452170  1.0  -0.1611
  C  C6694  1  0.902690  0.389150  0.464980  1.0  0.1823
  C  C6695  1  0.920920  0.406980  0.435590  1.0  0.3973
  C  C6696  1  0.873890  0.425220  0.499410  1.0  0.2666
  C  C6697  1  0.852580  0.280110  0.159720  1.0  0.1805
  C  C6698  1  0.849140  0.292500  0.177420  1.0  -0.1396
  C  C6699  1  0.860720  0.288620  0.195230  1.0  -0.0541
  C  C6700  1  0.874820  0.271900  0.194860  1.0  -0.1379
  C  C6701  1  0.877580  0.260930  0.176860  1.0  0.1795
  C  C6702  1  0.783380  0.404670  0.147740  1.0  0.2704
  C  C6703  1  0.763210  0.331570  0.111480  1.0  0.1854
  C  C6704  1  0.774620  0.313340  0.112600  1.0  -0.1678
  C  C6705  1  0.790070  0.311420  0.127790  1.0  -0.0384
  C  C6706  1  0.792490  0.327740  0.142100  1.0  -0.1771
  C  C6707  1  0.780010  0.345280  0.140260  1.0  0.1864
  C  C6708  1  0.808770  0.327180  0.158680  1.0  0.3886
  C  C6709  1  0.834610  0.310300  0.175670  1.0  0.3114
  C  C6710  1  0.825890  0.343160  0.185110  1.0  0.4466
  C  C6711  1  0.846010  0.361780  0.212320  1.0  0.1982
  C  C6712  1  0.829520  0.361850  0.197790  1.0  -0.1756
  C  C6713  1  0.817350  0.379600  0.195890  1.0  -0.0501
  C  C6714  1  0.821920  0.396420  0.208910  1.0  -0.1531
  C  C6715  1  0.838600  0.395110  0.222540  1.0  0.165
  C  C6716  1  0.833010  0.361380  0.267630  1.0  0.1694
  C  C6717  1  0.815400  0.361660  0.279400  1.0  -0.1828
  C  C6718  1  0.813600  0.376670  0.295300  1.0  -0.0541
  C  C6719  1  0.829840  0.390760  0.297830  1.0  -0.1621
  C  C6720  1  0.847310  0.389150  0.285020  1.0  0.1811
  C  C6721  1  0.829080  0.406980  0.314410  1.0  0.3968
  C  C6722  1  0.876110  0.425220  0.250590  1.0  0.266
  C  C6723  1  0.852580  0.780110  0.659720  1.0  0.1805
  C  C6724  1  0.849140  0.792500  0.677420  1.0  -0.1396
  C  C6725  1  0.860720  0.788620  0.695230  1.0  -0.0541
  C  C6726  1  0.874820  0.771900  0.694860  1.0  -0.1379
  C  C6727  1  0.877580  0.760930  0.676860  1.0  0.1795
  C  C6728  1  0.783380  0.904670  0.647740  1.0  0.2704
  C  C6729  1  0.763210  0.831570  0.611480  1.0  0.1854
  C  C6730  1  0.774620  0.813340  0.612600  1.0  -0.1678
  C  C6731  1  0.790070  0.811420  0.627790  1.0  -0.0384
  C  C6732  1  0.792490  0.827740  0.642100  1.0  -0.1771
  C  C6733  1  0.780010  0.845280  0.640260  1.0  0.1864
  C  C6734  1  0.808770  0.827180  0.658680  1.0  0.3886
  C  C6735  1  0.834610  0.810300  0.675670  1.0  0.3114
  C  C6736  1  0.825890  0.843160  0.685110  1.0  0.4466
  C  C6737  1  0.846010  0.861780  0.712320  1.0  0.1982
  C  C6738  1  0.829520  0.861850  0.697790  1.0  -0.1756
  C  C6739  1  0.817350  0.879600  0.695890  1.0  -0.0501
  C  C6740  1  0.821920  0.896420  0.708910  1.0  -0.1531
  C  C6741  1  0.838600  0.895110  0.722540  1.0  0.165
  C  C6742  1  0.833010  0.861380  0.767630  1.0  0.1694
  C  C6743  1  0.815400  0.861660  0.779400  1.0  -0.1828
  C  C6744  1  0.813600  0.876670  0.795300  1.0  -0.0541
  C  C6745  1  0.829840  0.890760  0.797830  1.0  -0.1621
  C  C6746  1  0.847310  0.889150  0.785020  1.0  0.1811
  C  C6747  1  0.829080  0.906980  0.814410  1.0  0.3968
  C  C6748  1  0.876110  0.925220  0.750590  1.0  0.266
  C  C6749  1  0.352580  0.280110  0.659720  1.0  0.1805
  C  C6750  1  0.349140  0.292500  0.677420  1.0  -0.1396
  C  C6751  1  0.360720  0.288620  0.695230  1.0  -0.0541
  C  C6752  1  0.374820  0.271900  0.694860  1.0  -0.1379
  C  C6753  1  0.377580  0.260930  0.676860  1.0  0.1795
  C  C6754  1  0.283380  0.404670  0.647740  1.0  0.2704
  C  C6755  1  0.263210  0.331570  0.611480  1.0  0.1854
  C  C6756  1  0.274620  0.313340  0.612600  1.0  -0.1678
  C  C6757  1  0.290070  0.311420  0.627790  1.0  -0.0384
  C  C6758  1  0.292490  0.327740  0.642100  1.0  -0.1771
  C  C6759  1  0.280010  0.345280  0.640260  1.0  0.1864
  C  C6760  1  0.308770  0.327180  0.658680  1.0  0.3886
  C  C6761  1  0.334610  0.310300  0.675670  1.0  0.3114
  C  C6762  1  0.325890  0.343160  0.685110  1.0  0.4466
  C  C6763  1  0.346010  0.361780  0.712320  1.0  0.1982
  C  C6764  1  0.329520  0.361850  0.697790  1.0  -0.1756
  C  C6765  1  0.317350  0.379600  0.695890  1.0  -0.0501
  C  C6766  1  0.321920  0.396420  0.708910  1.0  -0.1531
  C  C6767  1  0.338600  0.395110  0.722540  1.0  0.165
  C  C6768  1  0.333010  0.361380  0.767630  1.0  0.1694
  C  C6769  1  0.315400  0.361660  0.779400  1.0  -0.1828
  C  C6770  1  0.313600  0.376670  0.795300  1.0  -0.0541
  C  C6771  1  0.329840  0.390760  0.797830  1.0  -0.1621
  C  C6772  1  0.347310  0.389150  0.785020  1.0  0.1811
  C  C6773  1  0.329080  0.406980  0.814410  1.0  0.3968
  C  C6774  1  0.376110  0.425220  0.750590  1.0  0.266
  C  C6775  1  0.352580  0.780110  0.159720  1.0  0.1805
  C  C6776  1  0.349140  0.792500  0.177420  1.0  -0.1396
  C  C6777  1  0.360720  0.788620  0.195230  1.0  -0.0541
  C  C6778  1  0.374820  0.771900  0.194860  1.0  -0.1379
  C  C6779  1  0.377580  0.760930  0.176860  1.0  0.1795
  C  C6780  1  0.283380  0.904670  0.147740  1.0  0.2704
  C  C6781  1  0.263210  0.831570  0.111480  1.0  0.1854
  C  C6782  1  0.274620  0.813340  0.112600  1.0  -0.1678
  C  C6783  1  0.290070  0.811420  0.127790  1.0  -0.0384
  C  C6784  1  0.292490  0.827740  0.142100  1.0  -0.1771
  C  C6785  1  0.280010  0.845280  0.140260  1.0  0.1864
  C  C6786  1  0.308770  0.827180  0.158680  1.0  0.3886
  C  C6787  1  0.334610  0.810300  0.175670  1.0  0.3114
  C  C6788  1  0.325890  0.843160  0.185110  1.0  0.4466
  C  C6789  1  0.346010  0.861780  0.212320  1.0  0.1982
  C  C6790  1  0.329520  0.861850  0.197790  1.0  -0.1756
  C  C6791  1  0.317350  0.879600  0.195890  1.0  -0.0501
  C  C6792  1  0.321920  0.896420  0.208910  1.0  -0.1531
  C  C6793  1  0.338600  0.895110  0.222540  1.0  0.165
  C  C6794  1  0.333010  0.861380  0.267630  1.0  0.1694
  C  C6795  1  0.315400  0.861660  0.279400  1.0  -0.1828
  C  C6796  1  0.313600  0.876670  0.295300  1.0  -0.0541
  C  C6797  1  0.329840  0.890760  0.297830  1.0  -0.1621
  C  C6798  1  0.347310  0.889150  0.285020  1.0  0.1811
  C  C6799  1  0.329080  0.906980  0.314410  1.0  0.3968
  C  C6800  1  0.376110  0.925220  0.250590  1.0  0.266
  C  C6801  1  0.897420  0.969890  0.659720  1.0  0.1817
  C  C6802  1  0.900860  0.957500  0.677420  1.0  -0.1403
  C  C6803  1  0.889280  0.961380  0.695230  1.0  -0.0537
  C  C6804  1  0.875180  0.978100  0.694860  1.0  -0.1401
  C  C6805  1  0.872420  0.989070  0.676860  1.0  0.1793
  C  C6806  1  0.966620  0.845330  0.647740  1.0  0.2723
  C  C6807  1  0.986790  0.918430  0.611480  1.0  0.1847
  C  C6808  1  0.975380  0.936660  0.612600  1.0  -0.1667
  C  C6809  1  0.959930  0.938580  0.627790  1.0  -0.0383
  C  C6810  1  0.957510  0.922260  0.642100  1.0  -0.1769
  C  C6811  1  0.969990  0.904720  0.640260  1.0  0.1868
  C  C6812  1  0.941230  0.922820  0.658680  1.0  0.3885
  C  C6813  1  0.915390  0.939700  0.675670  1.0  0.3115
  C  C6814  1  0.924110  0.906840  0.685110  1.0  0.446
  C  C6815  1  0.903990  0.888220  0.712320  1.0  0.1987
  C  C6816  1  0.920480  0.888150  0.697790  1.0  -0.1742
  C  C6817  1  0.932650  0.870400  0.695890  1.0  -0.0504
  C  C6818  1  0.928080  0.853580  0.708910  1.0  -0.1526
  C  C6819  1  0.911400  0.854890  0.722540  1.0  0.1651
  C  C6820  1  0.916990  0.888620  0.767630  1.0  0.1703
  C  C6821  1  0.934600  0.888340  0.779400  1.0  -0.1813
  C  C6822  1  0.936400  0.873330  0.795300  1.0  -0.0516
  C  C6823  1  0.920160  0.859240  0.797830  1.0  -0.1626
  C  C6824  1  0.902690  0.860850  0.785020  1.0  0.183
  C  C6825  1  0.920920  0.843020  0.814410  1.0  0.397
  C  C6826  1  0.873890  0.824780  0.750590  1.0  0.2613
  C  C6827  1  0.897420  0.469890  0.159720  1.0  0.1817
  C  C6828  1  0.900860  0.457500  0.177420  1.0  -0.1403
  C  C6829  1  0.889280  0.461380  0.195230  1.0  -0.0537
  C  C6830  1  0.875180  0.478100  0.194860  1.0  -0.1401
  C  C6831  1  0.872420  0.489070  0.176860  1.0  0.1793
  C  C6832  1  0.966620  0.345330  0.147740  1.0  0.2723
  C  C6833  1  0.986790  0.418430  0.111480  1.0  0.1847
  C  C6834  1  0.975380  0.436660  0.112600  1.0  -0.1667
  C  C6835  1  0.959930  0.438580  0.127790  1.0  -0.0383
  C  C6836  1  0.957510  0.422260  0.142100  1.0  -0.1769
  C  C6837  1  0.969990  0.404720  0.140260  1.0  0.1868
  C  C6838  1  0.941230  0.422820  0.158680  1.0  0.3885
  C  C6839  1  0.915390  0.439700  0.175670  1.0  0.3115
  C  C6840  1  0.924110  0.406840  0.185110  1.0  0.446
  C  C6841  1  0.903990  0.388220  0.212320  1.0  0.1987
  C  C6842  1  0.920480  0.388150  0.197790  1.0  -0.1742
  C  C6843  1  0.932650  0.370400  0.195890  1.0  -0.0504
  C  C6844  1  0.928080  0.353580  0.208910  1.0  -0.1526
  C  C6845  1  0.911400  0.354890  0.222540  1.0  0.1651
  C  C6846  1  0.916990  0.388620  0.267630  1.0  0.1703
  C  C6847  1  0.934600  0.388340  0.279400  1.0  -0.1813
  C  C6848  1  0.936400  0.373330  0.295300  1.0  -0.0516
  C  C6849  1  0.920160  0.359240  0.297830  1.0  -0.1626
  C  C6850  1  0.902690  0.360850  0.285020  1.0  0.183
  C  C6851  1  0.920920  0.343020  0.314410  1.0  0.397
  C  C6852  1  0.873890  0.324780  0.250590  1.0  0.2613
  C  C6853  1  0.397420  0.969890  0.159720  1.0  0.1817
  C  C6854  1  0.400860  0.957500  0.177420  1.0  -0.1403
  C  C6855  1  0.389280  0.961380  0.195230  1.0  -0.0537
  C  C6856  1  0.375180  0.978100  0.194860  1.0  -0.1401
  C  C6857  1  0.372420  0.989070  0.176860  1.0  0.1793
  C  C6858  1  0.466620  0.845330  0.147740  1.0  0.2723
  C  C6859  1  0.486790  0.918430  0.111480  1.0  0.1847
  C  C6860  1  0.475380  0.936660  0.112600  1.0  -0.1667
  C  C6861  1  0.459930  0.938580  0.127790  1.0  -0.0383
  C  C6862  1  0.457510  0.922260  0.142100  1.0  -0.1769
  C  C6863  1  0.469990  0.904720  0.140260  1.0  0.1868
  C  C6864  1  0.441230  0.922820  0.158680  1.0  0.3885
  C  C6865  1  0.415390  0.939700  0.175670  1.0  0.3115
  C  C6866  1  0.424110  0.906840  0.185110  1.0  0.446
  C  C6867  1  0.403990  0.888220  0.212320  1.0  0.1987
  C  C6868  1  0.420480  0.888150  0.197790  1.0  -0.1742
  C  C6869  1  0.432650  0.870400  0.195890  1.0  -0.0504
  C  C6870  1  0.428080  0.853580  0.208910  1.0  -0.1526
  C  C6871  1  0.411400  0.854890  0.222540  1.0  0.1651
  C  C6872  1  0.416990  0.888620  0.267630  1.0  0.1703
  C  C6873  1  0.434600  0.888340  0.279400  1.0  -0.1813
  C  C6874  1  0.436400  0.873330  0.295300  1.0  -0.0516
  C  C6875  1  0.420160  0.859240  0.297830  1.0  -0.1626
  C  C6876  1  0.402690  0.860850  0.285020  1.0  0.183
  C  C6877  1  0.420920  0.843020  0.314410  1.0  0.397
  C  C6878  1  0.373890  0.824780  0.250590  1.0  0.2613
  C  C6879  1  0.397420  0.469890  0.659720  1.0  0.1817
  C  C6880  1  0.400860  0.457500  0.677420  1.0  -0.1403
  C  C6881  1  0.389280  0.461380  0.695230  1.0  -0.0537
  C  C6882  1  0.375180  0.478100  0.694860  1.0  -0.1401
  C  C6883  1  0.372420  0.489070  0.676860  1.0  0.1793
  C  C6884  1  0.466620  0.345330  0.647740  1.0  0.2723
  C  C6885  1  0.486790  0.418430  0.611480  1.0  0.1847
  C  C6886  1  0.475380  0.436660  0.612600  1.0  -0.1667
  C  C6887  1  0.459930  0.438580  0.627790  1.0  -0.0383
  C  C6888  1  0.457510  0.422260  0.642100  1.0  -0.1769
  C  C6889  1  0.469990  0.404720  0.640260  1.0  0.1868
  C  C6890  1  0.441230  0.422820  0.658680  1.0  0.3885
  C  C6891  1  0.415390  0.439700  0.675670  1.0  0.3115
  C  C6892  1  0.424110  0.406840  0.685110  1.0  0.446
  C  C6893  1  0.403990  0.388220  0.712320  1.0  0.1987
  C  C6894  1  0.420480  0.388150  0.697790  1.0  -0.1742
  C  C6895  1  0.432650  0.370400  0.695890  1.0  -0.0504
  C  C6896  1  0.428080  0.353580  0.708910  1.0  -0.1526
  C  C6897  1  0.411400  0.354890  0.722540  1.0  0.1651
  C  C6898  1  0.416990  0.388620  0.767630  1.0  0.1703
  C  C6899  1  0.434600  0.388340  0.779400  1.0  -0.1813
  C  C6900  1  0.436400  0.373330  0.795300  1.0  -0.0516
  C  C6901  1  0.420160  0.359240  0.797830  1.0  -0.1626
  C  C6902  1  0.402690  0.360850  0.785020  1.0  0.183
  C  C6903  1  0.420920  0.343020  0.814410  1.0  0.397
  C  C6904  1  0.373890  0.324780  0.750590  1.0  0.2613
  C  C6905  1  0.352580  0.469890  0.090280  1.0  0.181
  C  C6906  1  0.349140  0.457500  0.072580  1.0  -0.1407
  C  C6907  1  0.360720  0.461380  0.054770  1.0  -0.0569
  C  C6908  1  0.374820  0.478100  0.055140  1.0  -0.1404
  C  C6909  1  0.377580  0.489070  0.073140  1.0  0.1799
  C  C6910  1  0.283380  0.345330  0.102260  1.0  0.2699
  C  C6911  1  0.263210  0.418430  0.138520  1.0  0.1846
  C  C6912  1  0.274620  0.436660  0.137400  1.0  -0.1687
  C  C6913  1  0.290070  0.438580  0.122210  1.0  -0.0366
  C  C6914  1  0.292490  0.422260  0.107900  1.0  -0.1768
  C  C6915  1  0.280010  0.404720  0.109740  1.0  0.1868
  C  C6916  1  0.308770  0.422820  0.091320  1.0  0.3891
  C  C6917  1  0.334610  0.439700  0.074330  1.0  0.311
  C  C6918  1  0.325890  0.406840  0.064890  1.0  0.4463
  C  C6919  1  0.346010  0.388220  0.037680  1.0  0.1971
  C  C6920  1  0.329520  0.388150  0.052210  1.0  -0.1736
  C  C6921  1  0.317350  0.370400  0.054110  1.0  -0.0499
  C  C6922  1  0.321920  0.353580  0.041090  1.0  -0.1525
  C  C6923  1  0.338600  0.354890  0.027460  1.0  0.1652
  C  C6924  1  0.333010  0.388620  0.982370  1.0  0.1692
  C  C6925  1  0.315400  0.388340  0.970600  1.0  -0.1827
  C  C6926  1  0.313600  0.373330  0.954700  1.0  -0.0532
  C  C6927  1  0.329840  0.359240  0.952170  1.0  -0.1621
  C  C6928  1  0.347310  0.360850  0.964980  1.0  0.1821
  C  C6929  1  0.329080  0.343020  0.935590  1.0  0.3975
  C  C6930  1  0.376110  0.324780  0.999410  1.0  0.2612
  C  C6931  1  0.352580  0.969890  0.590280  1.0  0.181
  C  C6932  1  0.349140  0.957500  0.572580  1.0  -0.1407
  C  C6933  1  0.360720  0.961380  0.554770  1.0  -0.0569
  C  C6934  1  0.374820  0.978100  0.555140  1.0  -0.1404
  C  C6935  1  0.377580  0.989070  0.573140  1.0  0.1799
  C  C6936  1  0.283380  0.845330  0.602260  1.0  0.2699
  C  C6937  1  0.263210  0.918430  0.638520  1.0  0.1846
  C  C6938  1  0.274620  0.936660  0.637400  1.0  -0.1687
  C  C6939  1  0.290070  0.938580  0.622210  1.0  -0.0366
  C  C6940  1  0.292490  0.922260  0.607900  1.0  -0.1768
  C  C6941  1  0.280010  0.904720  0.609740  1.0  0.1868
  C  C6942  1  0.308770  0.922820  0.591320  1.0  0.3891
  C  C6943  1  0.334610  0.939700  0.574330  1.0  0.311
  C  C6944  1  0.325890  0.906840  0.564890  1.0  0.4463
  C  C6945  1  0.346010  0.888220  0.537680  1.0  0.1971
  C  C6946  1  0.329520  0.888150  0.552210  1.0  -0.1736
  C  C6947  1  0.317350  0.870400  0.554110  1.0  -0.0499
  C  C6948  1  0.321920  0.853580  0.541090  1.0  -0.1525
  C  C6949  1  0.338600  0.854890  0.527460  1.0  0.1652
  C  C6950  1  0.333010  0.888620  0.482370  1.0  0.1692
  C  C6951  1  0.315400  0.888340  0.470600  1.0  -0.1827
  C  C6952  1  0.313600  0.873330  0.454700  1.0  -0.0532
  C  C6953  1  0.329840  0.859240  0.452170  1.0  -0.1621
  C  C6954  1  0.347310  0.860850  0.464980  1.0  0.1821
  C  C6955  1  0.329080  0.843020  0.435590  1.0  0.3975
  C  C6956  1  0.376110  0.824780  0.499410  1.0  0.2612
  C  C6957  1  0.852580  0.469890  0.590280  1.0  0.181
  C  C6958  1  0.849140  0.457500  0.572580  1.0  -0.1407
  C  C6959  1  0.860720  0.461380  0.554770  1.0  -0.0569
  C  C6960  1  0.874820  0.478100  0.555140  1.0  -0.1404
  C  C6961  1  0.877580  0.489070  0.573140  1.0  0.1799
  C  C6962  1  0.783380  0.345330  0.602260  1.0  0.2699
  C  C6963  1  0.763210  0.418430  0.638520  1.0  0.1846
  C  C6964  1  0.774620  0.436660  0.637400  1.0  -0.1687
  C  C6965  1  0.790070  0.438580  0.622210  1.0  -0.0366
  C  C6966  1  0.792490  0.422260  0.607900  1.0  -0.1768
  C  C6967  1  0.780010  0.404720  0.609740  1.0  0.1868
  C  C6968  1  0.808770  0.422820  0.591320  1.0  0.3891
  C  C6969  1  0.834610  0.439700  0.574330  1.0  0.311
  C  C6970  1  0.825890  0.406840  0.564890  1.0  0.4463
  C  C6971  1  0.846010  0.388220  0.537680  1.0  0.1971
  C  C6972  1  0.829520  0.388150  0.552210  1.0  -0.1736
  C  C6973  1  0.817350  0.370400  0.554110  1.0  -0.0499
  C  C6974  1  0.821920  0.353580  0.541090  1.0  -0.1525
  C  C6975  1  0.838600  0.354890  0.527460  1.0  0.1652
  C  C6976  1  0.833010  0.388620  0.482370  1.0  0.1692
  C  C6977  1  0.815400  0.388340  0.470600  1.0  -0.1827
  C  C6978  1  0.813600  0.373330  0.454700  1.0  -0.0532
  C  C6979  1  0.829840  0.359240  0.452170  1.0  -0.1621
  C  C6980  1  0.847310  0.360850  0.464980  1.0  0.1821
  C  C6981  1  0.829080  0.343020  0.435590  1.0  0.3975
  C  C6982  1  0.876110  0.324780  0.499410  1.0  0.2612
  C  C6983  1  0.852580  0.969890  0.090280  1.0  0.181
  C  C6984  1  0.849140  0.957500  0.072580  1.0  -0.1407
  C  C6985  1  0.860720  0.961380  0.054770  1.0  -0.0569
  C  C6986  1  0.874820  0.978100  0.055140  1.0  -0.1404
  C  C6987  1  0.877580  0.989070  0.073140  1.0  0.1799
  C  C6988  1  0.783380  0.845330  0.102260  1.0  0.2699
  C  C6989  1  0.763210  0.918430  0.138520  1.0  0.1846
  C  C6990  1  0.774620  0.936660  0.137400  1.0  -0.1687
  C  C6991  1  0.790070  0.938580  0.122210  1.0  -0.0366
  C  C6992  1  0.792490  0.922260  0.107900  1.0  -0.1768
  C  C6993  1  0.780010  0.904720  0.109740  1.0  0.1868
  C  C6994  1  0.808770  0.922820  0.091320  1.0  0.3891
  C  C6995  1  0.834610  0.939700  0.074330  1.0  0.311
  C  C6996  1  0.825890  0.906840  0.064890  1.0  0.4463
  C  C6997  1  0.846010  0.888220  0.037680  1.0  0.1971
  C  C6998  1  0.829520  0.888150  0.052210  1.0  -0.1736
  C  C6999  1  0.817350  0.870400  0.054110  1.0  -0.0499
  C  C7000  1  0.821920  0.853580  0.041090  1.0  -0.1525
  C  C7001  1  0.838600  0.854890  0.027460  1.0  0.1652
  C  C7002  1  0.833010  0.888620  0.982370  1.0  0.1692
  C  C7003  1  0.815400  0.888340  0.970600  1.0  -0.1827
  C  C7004  1  0.813600  0.873330  0.954700  1.0  -0.0532
  C  C7005  1  0.829840  0.859240  0.952170  1.0  -0.1621
  C  C7006  1  0.847310  0.860850  0.964980  1.0  0.1821
  C  C7007  1  0.829080  0.843020  0.935590  1.0  0.3975
  C  C7008  1  0.876110  0.824780  0.999410  1.0  0.2612
  C  C7009  1  0.647420  0.340280  0.219890  1.0  0.1798
  C  C7010  1  0.650860  0.322580  0.207500  1.0  -0.1422
  C  C7011  1  0.639280  0.304770  0.211380  1.0  -0.0541
  C  C7012  1  0.625180  0.305140  0.228100  1.0  -0.1425
  C  C7013  1  0.622420  0.323140  0.239070  1.0  0.1835
  C  C7014  1  0.716620  0.352260  0.095330  1.0  0.2719
  C  C7015  1  0.736790  0.388520  0.168430  1.0  0.1837
  C  C7016  1  0.725380  0.387400  0.186660  1.0  -0.1628
  C  C7017  1  0.709930  0.372210  0.188580  1.0  -0.0369
  C  C7018  1  0.707510  0.357900  0.172260  1.0  -0.1744
  C  C7019  1  0.719990  0.359740  0.154720  1.0  0.1886
  C  C7020  1  0.691230  0.341320  0.172820  1.0  0.3889
  C  C7021  1  0.665390  0.324330  0.189700  1.0  0.3115
  C  C7022  1  0.674110  0.314890  0.156840  1.0  0.4458
  C  C7023  1  0.653990  0.287680  0.138220  1.0  0.1974
  C  C7024  1  0.670480  0.302210  0.138150  1.0  -0.176
  C  C7025  1  0.682650  0.304110  0.120400  1.0  -0.0486
  C  C7026  1  0.678080  0.291090  0.103580  1.0  -0.1507
  C  C7027  1  0.661400  0.277460  0.104890  1.0  0.1656
  C  C7028  1  0.666990  0.232370  0.138620  1.0  0.1717
  C  C7029  1  0.684600  0.220600  0.138340  1.0  -0.1804
  C  C7030  1  0.686400  0.204700  0.123330  1.0  -0.0515
  C  C7031  1  0.670160  0.202170  0.109240  1.0  -0.1613
  C  C7032  1  0.652690  0.214980  0.110850  1.0  0.1832
  C  C7033  1  0.670920  0.185590  0.093020  1.0  0.3972
  C  C7034  1  0.623890  0.249410  0.074780  1.0  0.2624
  C  C7035  1  0.647420  0.840280  0.719890  1.0  0.1798
  C  C7036  1  0.650860  0.822580  0.707500  1.0  -0.1422
  C  C7037  1  0.639280  0.804770  0.711380  1.0  -0.0541
  C  C7038  1  0.625180  0.805140  0.728100  1.0  -0.1425
  C  C7039  1  0.622420  0.823140  0.739070  1.0  0.1835
  C  C7040  1  0.716620  0.852260  0.595330  1.0  0.2719
  C  C7041  1  0.736790  0.888520  0.668430  1.0  0.1837
  C  C7042  1  0.725380  0.887400  0.686660  1.0  -0.1628
  C  C7043  1  0.709930  0.872210  0.688580  1.0  -0.0369
  C  C7044  1  0.707510  0.857900  0.672260  1.0  -0.1744
  C  C7045  1  0.719990  0.859740  0.654720  1.0  0.1886
  C  C7046  1  0.691230  0.841320  0.672820  1.0  0.3889
  C  C7047  1  0.665390  0.824330  0.689700  1.0  0.3115
  C  C7048  1  0.674110  0.814890  0.656840  1.0  0.4458
  C  C7049  1  0.653990  0.787680  0.638220  1.0  0.1974
  C  C7050  1  0.670480  0.802210  0.638150  1.0  -0.176
  C  C7051  1  0.682650  0.804110  0.620400  1.0  -0.0486
  C  C7052  1  0.678080  0.791090  0.603580  1.0  -0.1507
  C  C7053  1  0.661400  0.777460  0.604890  1.0  0.1656
  C  C7054  1  0.666990  0.732370  0.638620  1.0  0.1717
  C  C7055  1  0.684600  0.720600  0.638340  1.0  -0.1804
  C  C7056  1  0.686400  0.704700  0.623330  1.0  -0.0515
  C  C7057  1  0.670160  0.702170  0.609240  1.0  -0.1613
  C  C7058  1  0.652690  0.714980  0.610850  1.0  0.1832
  C  C7059  1  0.670920  0.685590  0.593020  1.0  0.3972
  C  C7060  1  0.623890  0.749410  0.574780  1.0  0.2624
  C  C7061  1  0.147420  0.340280  0.719890  1.0  0.1798
  C  C7062  1  0.150860  0.322580  0.707500  1.0  -0.1422
  C  C7063  1  0.139280  0.304770  0.711380  1.0  -0.0541
  C  C7064  1  0.125180  0.305140  0.728100  1.0  -0.1425
  C  C7065  1  0.122420  0.323140  0.739070  1.0  0.1835
  C  C7066  1  0.216620  0.352260  0.595330  1.0  0.2719
  C  C7067  1  0.236790  0.388520  0.668430  1.0  0.1837
  C  C7068  1  0.225380  0.387400  0.686660  1.0  -0.1628
  C  C7069  1  0.209930  0.372210  0.688580  1.0  -0.0369
  C  C7070  1  0.207510  0.357900  0.672260  1.0  -0.1744
  C  C7071  1  0.219990  0.359740  0.654720  1.0  0.1886
  C  C7072  1  0.191230  0.341320  0.672820  1.0  0.3889
  C  C7073  1  0.165390  0.324330  0.689700  1.0  0.3115
  C  C7074  1  0.174110  0.314890  0.656840  1.0  0.4458
  C  C7075  1  0.153990  0.287680  0.638220  1.0  0.1974
  C  C7076  1  0.170480  0.302210  0.638150  1.0  -0.176
  C  C7077  1  0.182650  0.304110  0.620400  1.0  -0.0486
  C  C7078  1  0.178080  0.291090  0.603580  1.0  -0.1507
  C  C7079  1  0.161400  0.277460  0.604890  1.0  0.1656
  C  C7080  1  0.166990  0.232370  0.638620  1.0  0.1717
  C  C7081  1  0.184600  0.220600  0.638340  1.0  -0.1804
  C  C7082  1  0.186400  0.204700  0.623330  1.0  -0.0515
  C  C7083  1  0.170160  0.202170  0.609240  1.0  -0.1613
  C  C7084  1  0.152690  0.214980  0.610850  1.0  0.1832
  C  C7085  1  0.170920  0.185590  0.593020  1.0  0.3972
  C  C7086  1  0.123890  0.249410  0.574780  1.0  0.2624
  C  C7087  1  0.147420  0.840280  0.219890  1.0  0.1798
  C  C7088  1  0.150860  0.822580  0.207500  1.0  -0.1422
  C  C7089  1  0.139280  0.804770  0.211380  1.0  -0.0541
  C  C7090  1  0.125180  0.805140  0.228100  1.0  -0.1425
  C  C7091  1  0.122420  0.823140  0.239070  1.0  0.1835
  C  C7092  1  0.216620  0.852260  0.095330  1.0  0.2719
  C  C7093  1  0.236790  0.888520  0.168430  1.0  0.1837
  C  C7094  1  0.225380  0.887400  0.186660  1.0  -0.1628
  C  C7095  1  0.209930  0.872210  0.188580  1.0  -0.0369
  C  C7096  1  0.207510  0.857900  0.172260  1.0  -0.1744
  C  C7097  1  0.219990  0.859740  0.154720  1.0  0.1886
  C  C7098  1  0.191230  0.841320  0.172820  1.0  0.3889
  C  C7099  1  0.165390  0.824330  0.189700  1.0  0.3115
  C  C7100  1  0.174110  0.814890  0.156840  1.0  0.4458
  C  C7101  1  0.153990  0.787680  0.138220  1.0  0.1974
  C  C7102  1  0.170480  0.802210  0.138150  1.0  -0.176
  C  C7103  1  0.182650  0.804110  0.120400  1.0  -0.0486
  C  C7104  1  0.178080  0.791090  0.103580  1.0  -0.1507
  C  C7105  1  0.161400  0.777460  0.104890  1.0  0.1656
  C  C7106  1  0.166990  0.732370  0.138620  1.0  0.1717
  C  C7107  1  0.184600  0.720600  0.138340  1.0  -0.1804
  C  C7108  1  0.186400  0.704700  0.123330  1.0  -0.0515
  C  C7109  1  0.170160  0.702170  0.109240  1.0  -0.1613
  C  C7110  1  0.152690  0.714980  0.110850  1.0  0.1832
  C  C7111  1  0.170920  0.685590  0.093020  1.0  0.3972
  C  C7112  1  0.123890  0.749410  0.074780  1.0  0.2624
  C  C7113  1  0.102580  0.909720  0.719890  1.0  0.1791
  C  C7114  1  0.099140  0.927420  0.707500  1.0  -0.1417
  C  C7115  1  0.110720  0.945230  0.711380  1.0  -0.0557
  C  C7116  1  0.124820  0.944860  0.728100  1.0  -0.1429
  C  C7117  1  0.127580  0.926860  0.739070  1.0  0.1815
  C  C7118  1  0.033380  0.897740  0.595330  1.0  0.2707
  C  C7119  1  0.013210  0.861480  0.668430  1.0  0.1835
  C  C7120  1  0.024620  0.862600  0.686660  1.0  -0.163
  C  C7121  1  0.040070  0.877790  0.688580  1.0  -0.0359
  C  C7122  1  0.042490  0.892100  0.672260  1.0  -0.1747
  C  C7123  1  0.030010  0.890260  0.654720  1.0  0.1891
  C  C7124  1  0.058770  0.908680  0.672820  1.0  0.3892
  C  C7125  1  0.084610  0.925670  0.689700  1.0  0.3111
  C  C7126  1  0.075890  0.935110  0.656840  1.0  0.4462
  C  C7127  1  0.096010  0.962320  0.638220  1.0  0.1972
  C  C7128  1  0.079520  0.947790  0.638150  1.0  -0.176
  C  C7129  1  0.067350  0.945890  0.620400  1.0  -0.0491
  C  C7130  1  0.071920  0.958910  0.603580  1.0  -0.1496
  C  C7131  1  0.088600  0.972540  0.604890  1.0  0.1672
  C  C7132  1  0.083010  0.017630  0.638620  1.0  0.1705
  C  C7133  1  0.065400  0.029400  0.638340  1.0  -0.1812
  C  C7134  1  0.063600  0.045300  0.623330  1.0  -0.0538
  C  C7135  1  0.079840  0.047830  0.609240  1.0  -0.161
  C  C7136  1  0.097310  0.035020  0.610850  1.0  0.1816
  C  C7137  1  0.079080  0.064410  0.593020  1.0  0.3972
  C  C7138  1  0.126110  0.000590  0.574780  1.0  0.2625
  C  C7139  1  0.102580  0.409720  0.219890  1.0  0.1791
  C  C7140  1  0.099140  0.427420  0.207500  1.0  -0.1417
  C  C7141  1  0.110720  0.445230  0.211380  1.0  -0.0557
  C  C7142  1  0.124820  0.444860  0.228100  1.0  -0.1429
  C  C7143  1  0.127580  0.426860  0.239070  1.0  0.1815
  C  C7144  1  0.033380  0.397740  0.095330  1.0  0.2707
  C  C7145  1  0.013210  0.361480  0.168430  1.0  0.1835
  C  C7146  1  0.024620  0.362600  0.186660  1.0  -0.163
  C  C7147  1  0.040070  0.377790  0.188580  1.0  -0.0359
  C  C7148  1  0.042490  0.392100  0.172260  1.0  -0.1747
  C  C7149  1  0.030010  0.390260  0.154720  1.0  0.1891
  C  C7150  1  0.058770  0.408680  0.172820  1.0  0.3892
  C  C7151  1  0.084610  0.425670  0.189700  1.0  0.3111
  C  C7152  1  0.075890  0.435110  0.156840  1.0  0.4462
  C  C7153  1  0.096010  0.462320  0.138220  1.0  0.1972
  C  C7154  1  0.079520  0.447790  0.138150  1.0  -0.176
  C  C7155  1  0.067350  0.445890  0.120400  1.0  -0.0491
  C  C7156  1  0.071920  0.458910  0.103580  1.0  -0.1496
  C  C7157  1  0.088600  0.472540  0.104890  1.0  0.1672
  C  C7158  1  0.083010  0.517630  0.138620  1.0  0.1705
  C  C7159  1  0.065400  0.529400  0.138340  1.0  -0.1812
  C  C7160  1  0.063600  0.545300  0.123330  1.0  -0.0538
  C  C7161  1  0.079840  0.547830  0.109240  1.0  -0.161
  C  C7162  1  0.097310  0.535020  0.110850  1.0  0.1816
  C  C7163  1  0.079080  0.564410  0.093020  1.0  0.3972
  C  C7164  1  0.126110  0.500590  0.074780  1.0  0.2625
  C  C7165  1  0.602580  0.909720  0.219890  1.0  0.1791
  C  C7166  1  0.599140  0.927420  0.207500  1.0  -0.1417
  C  C7167  1  0.610720  0.945230  0.211380  1.0  -0.0557
  C  C7168  1  0.624820  0.944860  0.228100  1.0  -0.1429
  C  C7169  1  0.627580  0.926860  0.239070  1.0  0.1815
  C  C7170  1  0.533380  0.897740  0.095330  1.0  0.2707
  C  C7171  1  0.513210  0.861480  0.168430  1.0  0.1835
  C  C7172  1  0.524620  0.862600  0.186660  1.0  -0.163
  C  C7173  1  0.540070  0.877790  0.188580  1.0  -0.0359
  C  C7174  1  0.542490  0.892100  0.172260  1.0  -0.1747
  C  C7175  1  0.530010  0.890260  0.154720  1.0  0.1891
  C  C7176  1  0.558770  0.908680  0.172820  1.0  0.3892
  C  C7177  1  0.584610  0.925670  0.189700  1.0  0.3111
  C  C7178  1  0.575890  0.935110  0.156840  1.0  0.4462
  C  C7179  1  0.596010  0.962320  0.138220  1.0  0.1972
  C  C7180  1  0.579520  0.947790  0.138150  1.0  -0.176
  C  C7181  1  0.567350  0.945890  0.120400  1.0  -0.0491
  C  C7182  1  0.571920  0.958910  0.103580  1.0  -0.1496
  C  C7183  1  0.588600  0.972540  0.104890  1.0  0.1672
  C  C7184  1  0.583010  0.017630  0.138620  1.0  0.1705
  C  C7185  1  0.565400  0.029400  0.138340  1.0  -0.1812
  C  C7186  1  0.563600  0.045300  0.123330  1.0  -0.0538
  C  C7187  1  0.579840  0.047830  0.109240  1.0  -0.161
  C  C7188  1  0.597310  0.035020  0.110850  1.0  0.1816
  C  C7189  1  0.579080  0.064410  0.093020  1.0  0.3972
  C  C7190  1  0.626110  0.000590  0.074780  1.0  0.2625
  C  C7191  1  0.602580  0.409720  0.719890  1.0  0.1791
  C  C7192  1  0.599140  0.427420  0.707500  1.0  -0.1417
  C  C7193  1  0.610720  0.445230  0.711380  1.0  -0.0557
  C  C7194  1  0.624820  0.444860  0.728100  1.0  -0.1429
  C  C7195  1  0.627580  0.426860  0.739070  1.0  0.1815
  C  C7196  1  0.533380  0.397740  0.595330  1.0  0.2707
  C  C7197  1  0.513210  0.361480  0.668430  1.0  0.1835
  C  C7198  1  0.524620  0.362600  0.686660  1.0  -0.163
  C  C7199  1  0.540070  0.377790  0.688580  1.0  -0.0359
  C  C7200  1  0.542490  0.392100  0.672260  1.0  -0.1747
  C  C7201  1  0.530010  0.390260  0.654720  1.0  0.1891
  C  C7202  1  0.558770  0.408680  0.672820  1.0  0.3892
  C  C7203  1  0.584610  0.425670  0.689700  1.0  0.3111
  C  C7204  1  0.575890  0.435110  0.656840  1.0  0.4462
  C  C7205  1  0.596010  0.462320  0.638220  1.0  0.1972
  C  C7206  1  0.579520  0.447790  0.638150  1.0  -0.176
  C  C7207  1  0.567350  0.445890  0.620400  1.0  -0.0491
  C  C7208  1  0.571920  0.458910  0.603580  1.0  -0.1496
  C  C7209  1  0.588600  0.472540  0.604890  1.0  0.1672
  C  C7210  1  0.583010  0.517630  0.638620  1.0  0.1705
  C  C7211  1  0.565400  0.529400  0.638340  1.0  -0.1812
  C  C7212  1  0.563600  0.545300  0.623330  1.0  -0.0538
  C  C7213  1  0.579840  0.547830  0.609240  1.0  -0.161
  C  C7214  1  0.597310  0.535020  0.610850  1.0  0.1816
  C  C7215  1  0.579080  0.564410  0.593020  1.0  0.3972
  C  C7216  1  0.626110  0.500590  0.574780  1.0  0.2625
  C  C7217  1  0.147420  0.409720  0.030110  1.0  0.1801
  C  C7218  1  0.150860  0.427420  0.042500  1.0  -0.1422
  C  C7219  1  0.139280  0.445230  0.038620  1.0  -0.0557
  C  C7220  1  0.125180  0.444860  0.021900  1.0  -0.1437
  C  C7221  1  0.122420  0.426860  0.010930  1.0  0.1821
  C  C7222  1  0.216620  0.397740  0.154670  1.0  0.2724
  C  C7223  1  0.236790  0.361480  0.081570  1.0  0.1834
  C  C7224  1  0.225380  0.362600  0.063340  1.0  -0.1609
  C  C7225  1  0.209930  0.377790  0.061420  1.0  -0.0375
  C  C7226  1  0.207510  0.392100  0.077740  1.0  -0.1747
  C  C7227  1  0.219990  0.390260  0.095280  1.0  0.1895
  C  C7228  1  0.191230  0.408680  0.077180  1.0  0.389
  C  C7229  1  0.165390  0.425670  0.060300  1.0  0.3111
  C  C7230  1  0.174110  0.435110  0.093160  1.0  0.4459
  C  C7231  1  0.153990  0.462320  0.111780  1.0  0.1988
  C  C7232  1  0.170480  0.447790  0.111850  1.0  -0.1758
  C  C7233  1  0.182650  0.445890  0.129600  1.0  -0.0489
  C  C7234  1  0.178080  0.458910  0.146420  1.0  -0.1505
  C  C7235  1  0.161400  0.472540  0.145110  1.0  0.1634
  C  C7236  1  0.166990  0.517630  0.111380  1.0  0.1722
  C  C7237  1  0.184600  0.529400  0.111660  1.0  -0.1799
  C  C7238  1  0.186400  0.545300  0.126670  1.0  -0.0521
  C  C7239  1  0.170160  0.547830  0.140760  1.0  -0.1618
  C  C7240  1  0.152690  0.535020  0.139150  1.0  0.1822
  C  C7241  1  0.170920  0.564410  0.156980  1.0  0.3971
  C  C7242  1  0.123890  0.500590  0.175220  1.0  0.2575
  C  C7243  1  0.147420  0.909720  0.530110  1.0  0.1801
  C  C7244  1  0.150860  0.927420  0.542500  1.0  -0.1422
  C  C7245  1  0.139280  0.945230  0.538620  1.0  -0.0557
  C  C7246  1  0.125180  0.944860  0.521900  1.0  -0.1437
  C  C7247  1  0.122420  0.926860  0.510930  1.0  0.1821
  C  C7248  1  0.216620  0.897740  0.654670  1.0  0.2724
  C  C7249  1  0.236790  0.861480  0.581570  1.0  0.1834
  C  C7250  1  0.225380  0.862600  0.563340  1.0  -0.1609
  C  C7251  1  0.209930  0.877790  0.561420  1.0  -0.0375
  C  C7252  1  0.207510  0.892100  0.577740  1.0  -0.1747
  C  C7253  1  0.219990  0.890260  0.595280  1.0  0.1895
  C  C7254  1  0.191230  0.908680  0.577180  1.0  0.389
  C  C7255  1  0.165390  0.925670  0.560300  1.0  0.3111
  C  C7256  1  0.174110  0.935110  0.593160  1.0  0.4459
  C  C7257  1  0.153990  0.962320  0.611780  1.0  0.1988
  C  C7258  1  0.170480  0.947790  0.611850  1.0  -0.1758
  C  C7259  1  0.182650  0.945890  0.629600  1.0  -0.0489
  C  C7260  1  0.178080  0.958910  0.646420  1.0  -0.1505
  C  C7261  1  0.161400  0.972540  0.645110  1.0  0.1634
  C  C7262  1  0.166990  0.017630  0.611380  1.0  0.1722
  C  C7263  1  0.184600  0.029400  0.611660  1.0  -0.1799
  C  C7264  1  0.186400  0.045300  0.626670  1.0  -0.0521
  C  C7265  1  0.170160  0.047830  0.640760  1.0  -0.1618
  C  C7266  1  0.152690  0.035020  0.639150  1.0  0.1822
  C  C7267  1  0.170920  0.064410  0.656980  1.0  0.3971
  C  C7268  1  0.123890  0.000590  0.675220  1.0  0.2575
  C  C7269  1  0.647420  0.409720  0.530110  1.0  0.1801
  C  C7270  1  0.650860  0.427420  0.542500  1.0  -0.1422
  C  C7271  1  0.639280  0.445230  0.538620  1.0  -0.0557
  C  C7272  1  0.625180  0.444860  0.521900  1.0  -0.1437
  C  C7273  1  0.622420  0.426860  0.510930  1.0  0.1821
  C  C7274  1  0.716620  0.397740  0.654670  1.0  0.2724
  C  C7275  1  0.736790  0.361480  0.581570  1.0  0.1834
  C  C7276  1  0.725380  0.362600  0.563340  1.0  -0.1609
  C  C7277  1  0.709930  0.377790  0.561420  1.0  -0.0375
  C  C7278  1  0.707510  0.392100  0.577740  1.0  -0.1747
  C  C7279  1  0.719990  0.390260  0.595280  1.0  0.1895
  C  C7280  1  0.691230  0.408680  0.577180  1.0  0.389
  C  C7281  1  0.665390  0.425670  0.560300  1.0  0.3111
  C  C7282  1  0.674110  0.435110  0.593160  1.0  0.4459
  C  C7283  1  0.653990  0.462320  0.611780  1.0  0.1988
  C  C7284  1  0.670480  0.447790  0.611850  1.0  -0.1758
  C  C7285  1  0.682650  0.445890  0.629600  1.0  -0.0489
  C  C7286  1  0.678080  0.458910  0.646420  1.0  -0.1505
  C  C7287  1  0.661400  0.472540  0.645110  1.0  0.1634
  C  C7288  1  0.666990  0.517630  0.611380  1.0  0.1722
  C  C7289  1  0.684600  0.529400  0.611660  1.0  -0.1799
  C  C7290  1  0.686400  0.545300  0.626670  1.0  -0.0521
  C  C7291  1  0.670160  0.547830  0.640760  1.0  -0.1618
  C  C7292  1  0.652690  0.535020  0.639150  1.0  0.1822
  C  C7293  1  0.670920  0.564410  0.656980  1.0  0.3971
  C  C7294  1  0.623890  0.500590  0.675220  1.0  0.2575
  C  C7295  1  0.647420  0.909720  0.030110  1.0  0.1801
  C  C7296  1  0.650860  0.927420  0.042500  1.0  -0.1422
  C  C7297  1  0.639280  0.945230  0.038620  1.0  -0.0557
  C  C7298  1  0.625180  0.944860  0.021900  1.0  -0.1437
  C  C7299  1  0.622420  0.926860  0.010930  1.0  0.1821
  C  C7300  1  0.716620  0.897740  0.154670  1.0  0.2724
  C  C7301  1  0.736790  0.861480  0.081570  1.0  0.1834
  C  C7302  1  0.725380  0.862600  0.063340  1.0  -0.1609
  C  C7303  1  0.709930  0.877790  0.061420  1.0  -0.0375
  C  C7304  1  0.707510  0.892100  0.077740  1.0  -0.1747
  C  C7305  1  0.719990  0.890260  0.095280  1.0  0.1895
  C  C7306  1  0.691230  0.908680  0.077180  1.0  0.389
  C  C7307  1  0.665390  0.925670  0.060300  1.0  0.3111
  C  C7308  1  0.674110  0.935110  0.093160  1.0  0.4459
  C  C7309  1  0.653990  0.962320  0.111780  1.0  0.1988
  C  C7310  1  0.670480  0.947790  0.111850  1.0  -0.1758
  C  C7311  1  0.682650  0.945890  0.129600  1.0  -0.0489
  C  C7312  1  0.678080  0.958910  0.146420  1.0  -0.1505
  C  C7313  1  0.661400  0.972540  0.145110  1.0  0.1634
  C  C7314  1  0.666990  0.017630  0.111380  1.0  0.1722
  C  C7315  1  0.684600  0.029400  0.111660  1.0  -0.1799
  C  C7316  1  0.686400  0.045300  0.126670  1.0  -0.0521
  C  C7317  1  0.670160  0.047830  0.140760  1.0  -0.1618
  C  C7318  1  0.652690  0.035020  0.139150  1.0  0.1822
  C  C7319  1  0.670920  0.064410  0.156980  1.0  0.3971
  C  C7320  1  0.623890  0.000590  0.175220  1.0  0.2575
  C  C7321  1  0.602580  0.840280  0.530110  1.0  0.1787
  C  C7322  1  0.599140  0.822580  0.542500  1.0  -0.1427
  C  C7323  1  0.610720  0.804770  0.538620  1.0  -0.0545
  C  C7324  1  0.624820  0.805140  0.521900  1.0  -0.1425
  C  C7325  1  0.627580  0.823140  0.510930  1.0  0.1823
  C  C7326  1  0.533380  0.852260  0.654670  1.0  0.2707
  C  C7327  1  0.513210  0.888520  0.581570  1.0  0.1838
  C  C7328  1  0.524620  0.887400  0.563340  1.0  -0.1631
  C  C7329  1  0.540070  0.872210  0.561420  1.0  -0.0371
  C  C7330  1  0.542490  0.857900  0.577740  1.0  -0.175
  C  C7331  1  0.530010  0.859740  0.595280  1.0  0.1893
  C  C7332  1  0.558770  0.841320  0.577180  1.0  0.3892
  C  C7333  1  0.584610  0.824330  0.560300  1.0  0.3113
  C  C7334  1  0.575890  0.814890  0.593160  1.0  0.4464
  C  C7335  1  0.596010  0.787680  0.611780  1.0  0.1974
  C  C7336  1  0.579520  0.802210  0.611850  1.0  -0.1755
  C  C7337  1  0.567350  0.804110  0.629600  1.0  -0.0496
  C  C7338  1  0.571920  0.791090  0.646420  1.0  -0.1508
  C  C7339  1  0.588600  0.777460  0.645110  1.0  0.1633
  C  C7340  1  0.583010  0.732370  0.611380  1.0  0.1714
  C  C7341  1  0.565400  0.720600  0.611660  1.0  -0.1803
  C  C7342  1  0.563600  0.704700  0.626670  1.0  -0.054
  C  C7343  1  0.579840  0.702170  0.640760  1.0  -0.1615
  C  C7344  1  0.597310  0.714980  0.639150  1.0  0.1826
  C  C7345  1  0.579080  0.685590  0.656980  1.0  0.3971
  C  C7346  1  0.626110  0.749410  0.675220  1.0  0.2576
  C  C7347  1  0.602580  0.340280  0.030110  1.0  0.1787
  C  C7348  1  0.599140  0.322580  0.042500  1.0  -0.1427
  C  C7349  1  0.610720  0.304770  0.038620  1.0  -0.0545
  C  C7350  1  0.624820  0.305140  0.021900  1.0  -0.1425
  C  C7351  1  0.627580  0.323140  0.010930  1.0  0.1823
  C  C7352  1  0.533380  0.352260  0.154670  1.0  0.2707
  C  C7353  1  0.513210  0.388520  0.081570  1.0  0.1838
  C  C7354  1  0.524620  0.387400  0.063340  1.0  -0.1631
  C  C7355  1  0.540070  0.372210  0.061420  1.0  -0.0371
  C  C7356  1  0.542490  0.357900  0.077740  1.0  -0.175
  C  C7357  1  0.530010  0.359740  0.095280  1.0  0.1893
  C  C7358  1  0.558770  0.341320  0.077180  1.0  0.3892
  C  C7359  1  0.584610  0.324330  0.060300  1.0  0.3113
  C  C7360  1  0.575890  0.314890  0.093160  1.0  0.4464
  C  C7361  1  0.596010  0.287680  0.111780  1.0  0.1974
  C  C7362  1  0.579520  0.302210  0.111850  1.0  -0.1755
  C  C7363  1  0.567350  0.304110  0.129600  1.0  -0.0496
  C  C7364  1  0.571920  0.291090  0.146420  1.0  -0.1508
  C  C7365  1  0.588600  0.277460  0.145110  1.0  0.1633
  C  C7366  1  0.583010  0.232370  0.111380  1.0  0.1714
  C  C7367  1  0.565400  0.220600  0.111660  1.0  -0.1803
  C  C7368  1  0.563600  0.204700  0.126670  1.0  -0.054
  C  C7369  1  0.579840  0.202170  0.140760  1.0  -0.1615
  C  C7370  1  0.597310  0.214980  0.139150  1.0  0.1826
  C  C7371  1  0.579080  0.185590  0.156980  1.0  0.3971
  C  C7372  1  0.626110  0.249410  0.175220  1.0  0.2576
  C  C7373  1  0.102580  0.840280  0.030110  1.0  0.1787
  C  C7374  1  0.099140  0.822580  0.042500  1.0  -0.1427
  C  C7375  1  0.110720  0.804770  0.038620  1.0  -0.0545
  C  C7376  1  0.124820  0.805140  0.021900  1.0  -0.1425
  C  C7377  1  0.127580  0.823140  0.010930  1.0  0.1823
  C  C7378  1  0.033380  0.852260  0.154670  1.0  0.2707
  C  C7379  1  0.013210  0.888520  0.081570  1.0  0.1838
  C  C7380  1  0.024620  0.887400  0.063340  1.0  -0.1631
  C  C7381  1  0.040070  0.872210  0.061420  1.0  -0.0371
  C  C7382  1  0.042490  0.857900  0.077740  1.0  -0.175
  C  C7383  1  0.030010  0.859740  0.095280  1.0  0.1893
  C  C7384  1  0.058770  0.841320  0.077180  1.0  0.3892
  C  C7385  1  0.084610  0.824330  0.060300  1.0  0.3113
  C  C7386  1  0.075890  0.814890  0.093160  1.0  0.4464
  C  C7387  1  0.096010  0.787680  0.111780  1.0  0.1974
  C  C7388  1  0.079520  0.802210  0.111850  1.0  -0.1755
  C  C7389  1  0.067350  0.804110  0.129600  1.0  -0.0496
  C  C7390  1  0.071920  0.791090  0.146420  1.0  -0.1508
  C  C7391  1  0.088600  0.777460  0.145110  1.0  0.1633
  C  C7392  1  0.083010  0.732370  0.111380  1.0  0.1714
  C  C7393  1  0.065400  0.720600  0.111660  1.0  -0.1803
  C  C7394  1  0.063600  0.704700  0.126670  1.0  -0.054
  C  C7395  1  0.079840  0.702170  0.140760  1.0  -0.1615
  C  C7396  1  0.097310  0.714980  0.139150  1.0  0.1826
  C  C7397  1  0.079080  0.685590  0.156980  1.0  0.3971
  C  C7398  1  0.126110  0.749410  0.175220  1.0  0.2576
  C  C7399  1  0.102580  0.340280  0.530110  1.0  0.1787
  C  C7400  1  0.099140  0.322580  0.542500  1.0  -0.1427
  C  C7401  1  0.110720  0.304770  0.538620  1.0  -0.0545
  C  C7402  1  0.124820  0.305140  0.521900  1.0  -0.1425
  C  C7403  1  0.127580  0.323140  0.510930  1.0  0.1823
  C  C7404  1  0.033380  0.352260  0.654670  1.0  0.2707
  C  C7405  1  0.013210  0.388520  0.581570  1.0  0.1838
  C  C7406  1  0.024620  0.387400  0.563340  1.0  -0.1631
  C  C7407  1  0.040070  0.372210  0.561420  1.0  -0.0371
  C  C7408  1  0.042490  0.357900  0.577740  1.0  -0.175
  C  C7409  1  0.030010  0.359740  0.595280  1.0  0.1893
  C  C7410  1  0.058770  0.341320  0.577180  1.0  0.3892
  C  C7411  1  0.084610  0.324330  0.560300  1.0  0.3113
  C  C7412  1  0.075890  0.314890  0.593160  1.0  0.4464
  C  C7413  1  0.096010  0.287680  0.611780  1.0  0.1974
  C  C7414  1  0.079520  0.302210  0.611850  1.0  -0.1755
  C  C7415  1  0.067350  0.304110  0.629600  1.0  -0.0496
  C  C7416  1  0.071920  0.291090  0.646420  1.0  -0.1508
  C  C7417  1  0.088600  0.277460  0.645110  1.0  0.1633
  C  C7418  1  0.083010  0.232370  0.611380  1.0  0.1714
  C  C7419  1  0.065400  0.220600  0.611660  1.0  -0.1803
  C  C7420  1  0.063600  0.204700  0.626670  1.0  -0.054
  C  C7421  1  0.079840  0.202170  0.640760  1.0  -0.1615
  C  C7422  1  0.097310  0.214980  0.639150  1.0  0.1826
  C  C7423  1  0.079080  0.185590  0.656980  1.0  0.3971
  C  C7424  1  0.126110  0.249410  0.675220  1.0  0.2576
  C  C7425  1  0.840280  0.530110  0.602580  1.0  0.1797
  C  C7426  1  0.822580  0.542500  0.599140  1.0  -0.1398
  C  C7427  1  0.804770  0.538620  0.610720  1.0  -0.055
  C  C7428  1  0.805140  0.521900  0.624820  1.0  -0.1423
  C  C7429  1  0.823140  0.510930  0.627580  1.0  0.1826
  C  C7430  1  0.852260  0.654670  0.533380  1.0  0.2672
  C  C7431  1  0.888520  0.581570  0.513210  1.0  0.1862
  C  C7432  1  0.887400  0.563340  0.524620  1.0  -0.1672
  C  C7433  1  0.872210  0.561420  0.540070  1.0  -0.0367
  C  C7434  1  0.857900  0.577740  0.542490  1.0  -0.1763
  C  C7435  1  0.859740  0.595280  0.530010  1.0  0.187
  C  C7436  1  0.841320  0.577180  0.558770  1.0  0.3888
  C  C7437  1  0.824330  0.560300  0.584610  1.0  0.3113
  C  C7438  1  0.814890  0.593160  0.575890  1.0  0.4458
  C  C7439  1  0.787680  0.611780  0.596010  1.0  0.1992
  C  C7440  1  0.802210  0.611850  0.579520  1.0  -0.1749
  C  C7441  1  0.804110  0.629600  0.567350  1.0  -0.0492
  C  C7442  1  0.791090  0.646420  0.571920  1.0  -0.1536
  C  C7443  1  0.777460  0.645110  0.588600  1.0  0.1649
  C  C7444  1  0.732370  0.611380  0.583010  1.0  0.166
  C  C7445  1  0.720600  0.611660  0.565400  1.0  -0.1791
  C  C7446  1  0.704700  0.626670  0.563600  1.0  -0.0545
  C  C7447  1  0.702170  0.640760  0.579840  1.0  -0.1591
  C  C7448  1  0.714980  0.639150  0.597310  1.0  0.1826
  C  C7449  1  0.685590  0.656980  0.579080  1.0  0.3971
  C  C7450  1  0.749410  0.675220  0.626110  1.0  0.2666
  C  C7451  1  0.840280  0.030110  0.102580  1.0  0.1797
  C  C7452  1  0.822580  0.042500  0.099140  1.0  -0.1398
  C  C7453  1  0.804770  0.038620  0.110720  1.0  -0.055
  C  C7454  1  0.805140  0.021900  0.124820  1.0  -0.1423
  C  C7455  1  0.823140  0.010930  0.127580  1.0  0.1826
  C  C7456  1  0.852260  0.154670  0.033380  1.0  0.2672
  C  C7457  1  0.888520  0.081570  0.013210  1.0  0.1862
  C  C7458  1  0.887400  0.063340  0.024620  1.0  -0.1672
  C  C7459  1  0.872210  0.061420  0.040070  1.0  -0.0367
  C  C7460  1  0.857900  0.077740  0.042490  1.0  -0.1763
  C  C7461  1  0.859740  0.095280  0.030010  1.0  0.187
  C  C7462  1  0.841320  0.077180  0.058770  1.0  0.3888
  C  C7463  1  0.824330  0.060300  0.084610  1.0  0.3113
  C  C7464  1  0.814890  0.093160  0.075890  1.0  0.4458
  C  C7465  1  0.787680  0.111780  0.096010  1.0  0.1992
  C  C7466  1  0.802210  0.111850  0.079520  1.0  -0.1749
  C  C7467  1  0.804110  0.129600  0.067350  1.0  -0.0492
  C  C7468  1  0.791090  0.146420  0.071920  1.0  -0.1536
  C  C7469  1  0.777460  0.145110  0.088600  1.0  0.1649
  C  C7470  1  0.732370  0.111380  0.083010  1.0  0.166
  C  C7471  1  0.720600  0.111660  0.065400  1.0  -0.1791
  C  C7472  1  0.704700  0.126670  0.063600  1.0  -0.0545
  C  C7473  1  0.702170  0.140760  0.079840  1.0  -0.1591
  C  C7474  1  0.714980  0.139150  0.097310  1.0  0.1826
  C  C7475  1  0.685590  0.156980  0.079080  1.0  0.3971
  C  C7476  1  0.749410  0.175220  0.126110  1.0  0.2666
  C  C7477  1  0.340280  0.530110  0.102580  1.0  0.1797
  C  C7478  1  0.322580  0.542500  0.099140  1.0  -0.1398
  C  C7479  1  0.304770  0.538620  0.110720  1.0  -0.055
  C  C7480  1  0.305140  0.521900  0.124820  1.0  -0.1423
  C  C7481  1  0.323140  0.510930  0.127580  1.0  0.1826
  C  C7482  1  0.352260  0.654670  0.033380  1.0  0.2672
  C  C7483  1  0.388520  0.581570  0.013210  1.0  0.1862
  C  C7484  1  0.387400  0.563340  0.024620  1.0  -0.1672
  C  C7485  1  0.372210  0.561420  0.040070  1.0  -0.0367
  C  C7486  1  0.357900  0.577740  0.042490  1.0  -0.1763
  C  C7487  1  0.359740  0.595280  0.030010  1.0  0.187
  C  C7488  1  0.341320  0.577180  0.058770  1.0  0.3888
  C  C7489  1  0.324330  0.560300  0.084610  1.0  0.3113
  C  C7490  1  0.314890  0.593160  0.075890  1.0  0.4458
  C  C7491  1  0.287680  0.611780  0.096010  1.0  0.1992
  C  C7492  1  0.302210  0.611850  0.079520  1.0  -0.1749
  C  C7493  1  0.304110  0.629600  0.067350  1.0  -0.0492
  C  C7494  1  0.291090  0.646420  0.071920  1.0  -0.1536
  C  C7495  1  0.277460  0.645110  0.088600  1.0  0.1649
  C  C7496  1  0.232370  0.611380  0.083010  1.0  0.166
  C  C7497  1  0.220600  0.611660  0.065400  1.0  -0.1791
  C  C7498  1  0.204700  0.626670  0.063600  1.0  -0.0545
  C  C7499  1  0.202170  0.640760  0.079840  1.0  -0.1591
  C  C7500  1  0.214980  0.639150  0.097310  1.0  0.1826
  C  C7501  1  0.185590  0.656980  0.079080  1.0  0.3971
  C  C7502  1  0.249410  0.675220  0.126110  1.0  0.2666
  C  C7503  1  0.340280  0.030110  0.602580  1.0  0.1797
  C  C7504  1  0.322580  0.042500  0.599140  1.0  -0.1398
  C  C7505  1  0.304770  0.038620  0.610720  1.0  -0.055
  C  C7506  1  0.305140  0.021900  0.624820  1.0  -0.1423
  C  C7507  1  0.323140  0.010930  0.627580  1.0  0.1826
  C  C7508  1  0.352260  0.154670  0.533380  1.0  0.2672
  C  C7509  1  0.388520  0.081570  0.513210  1.0  0.1862
  C  C7510  1  0.387400  0.063340  0.524620  1.0  -0.1672
  C  C7511  1  0.372210  0.061420  0.540070  1.0  -0.0367
  C  C7512  1  0.357900  0.077740  0.542490  1.0  -0.1763
  C  C7513  1  0.359740  0.095280  0.530010  1.0  0.187
  C  C7514  1  0.341320  0.077180  0.558770  1.0  0.3888
  C  C7515  1  0.324330  0.060300  0.584610  1.0  0.3113
  C  C7516  1  0.314890  0.093160  0.575890  1.0  0.4458
  C  C7517  1  0.287680  0.111780  0.596010  1.0  0.1992
  C  C7518  1  0.302210  0.111850  0.579520  1.0  -0.1749
  C  C7519  1  0.304110  0.129600  0.567350  1.0  -0.0492
  C  C7520  1  0.291090  0.146420  0.571920  1.0  -0.1536
  C  C7521  1  0.277460  0.145110  0.588600  1.0  0.1649
  C  C7522  1  0.232370  0.111380  0.583010  1.0  0.166
  C  C7523  1  0.220600  0.111660  0.565400  1.0  -0.1791
  C  C7524  1  0.204700  0.126670  0.563600  1.0  -0.0545
  C  C7525  1  0.202170  0.140760  0.579840  1.0  -0.1591
  C  C7526  1  0.214980  0.139150  0.597310  1.0  0.1826
  C  C7527  1  0.185590  0.156980  0.579080  1.0  0.3971
  C  C7528  1  0.249410  0.175220  0.626110  1.0  0.2666
  C  C7529  1  0.409720  0.030110  0.147420  1.0  0.1788
  C  C7530  1  0.427420  0.042500  0.150860  1.0  -0.1423
  C  C7531  1  0.445230  0.038620  0.139280  1.0  -0.0535
  C  C7532  1  0.444860  0.021900  0.125180  1.0  -0.1418
  C  C7533  1  0.426860  0.010930  0.122420  1.0  0.1832
  C  C7534  1  0.397740  0.154670  0.216620  1.0  0.2685
  C  C7535  1  0.361480  0.081570  0.236790  1.0  0.1868
  C  C7536  1  0.362600  0.063340  0.225380  1.0  -0.1679
  C  C7537  1  0.377790  0.061420  0.209930  1.0  -0.0357
  C  C7538  1  0.392100  0.077740  0.207510  1.0  -0.1775
  C  C7539  1  0.390260  0.095280  0.219990  1.0  0.1875
  C  C7540  1  0.408680  0.077180  0.191230  1.0  0.389
  C  C7541  1  0.425670  0.060300  0.165390  1.0  0.3108
  C  C7542  1  0.435110  0.093160  0.174110  1.0  0.4468
  C  C7543  1  0.462320  0.111780  0.153990  1.0  0.1995
  C  C7544  1  0.447790  0.111850  0.170480  1.0  -0.1756
  C  C7545  1  0.445890  0.129600  0.182650  1.0  -0.0491
  C  C7546  1  0.458910  0.146420  0.178080  1.0  -0.1536
  C  C7547  1  0.472540  0.145110  0.161400  1.0  0.1647
  C  C7548  1  0.517630  0.111380  0.166990  1.0  0.1687
  C  C7549  1  0.529400  0.111660  0.184600  1.0  -0.182
  C  C7550  1  0.545300  0.126670  0.186400  1.0  -0.0538
  C  C7551  1  0.547830  0.140760  0.170160  1.0  -0.1596
  C  C7552  1  0.535020  0.139150  0.152690  1.0  0.1832
  C  C7553  1  0.564410  0.156980  0.170920  1.0  0.3967
  C  C7554  1  0.500590  0.175220  0.123890  1.0  0.2664
  C  C7555  1  0.409720  0.530110  0.647420  1.0  0.1788
  C  C7556  1  0.427420  0.542500  0.650860  1.0  -0.1423
  C  C7557  1  0.445230  0.538620  0.639280  1.0  -0.0535
  C  C7558  1  0.444860  0.521900  0.625180  1.0  -0.1418
  C  C7559  1  0.426860  0.510930  0.622420  1.0  0.1832
  C  C7560  1  0.397740  0.654670  0.716620  1.0  0.2685
  C  C7561  1  0.361480  0.581570  0.736790  1.0  0.1868
  C  C7562  1  0.362600  0.563340  0.725380  1.0  -0.1679
  C  C7563  1  0.377790  0.561420  0.709930  1.0  -0.0357
  C  C7564  1  0.392100  0.577740  0.707510  1.0  -0.1775
  C  C7565  1  0.390260  0.595280  0.719990  1.0  0.1875
  C  C7566  1  0.408680  0.577180  0.691230  1.0  0.389
  C  C7567  1  0.425670  0.560300  0.665390  1.0  0.3108
  C  C7568  1  0.435110  0.593160  0.674110  1.0  0.4468
  C  C7569  1  0.462320  0.611780  0.653990  1.0  0.1995
  C  C7570  1  0.447790  0.611850  0.670480  1.0  -0.1756
  C  C7571  1  0.445890  0.629600  0.682650  1.0  -0.0491
  C  C7572  1  0.458910  0.646420  0.678080  1.0  -0.1536
  C  C7573  1  0.472540  0.645110  0.661400  1.0  0.1647
  C  C7574  1  0.517630  0.611380  0.666990  1.0  0.1687
  C  C7575  1  0.529400  0.611660  0.684600  1.0  -0.182
  C  C7576  1  0.545300  0.626670  0.686400  1.0  -0.0538
  C  C7577  1  0.547830  0.640760  0.670160  1.0  -0.1596
  C  C7578  1  0.535020  0.639150  0.652690  1.0  0.1832
  C  C7579  1  0.564410  0.656980  0.670920  1.0  0.3967
  C  C7580  1  0.500590  0.675220  0.623890  1.0  0.2664
  C  C7581  1  0.909720  0.030110  0.647420  1.0  0.1788
  C  C7582  1  0.927420  0.042500  0.650860  1.0  -0.1423
  C  C7583  1  0.945230  0.038620  0.639280  1.0  -0.0535
  C  C7584  1  0.944860  0.021900  0.625180  1.0  -0.1418
  C  C7585  1  0.926860  0.010930  0.622420  1.0  0.1832
  C  C7586  1  0.897740  0.154670  0.716620  1.0  0.2685
  C  C7587  1  0.861480  0.081570  0.736790  1.0  0.1868
  C  C7588  1  0.862600  0.063340  0.725380  1.0  -0.1679
  C  C7589  1  0.877790  0.061420  0.709930  1.0  -0.0357
  C  C7590  1  0.892100  0.077740  0.707510  1.0  -0.1775
  C  C7591  1  0.890260  0.095280  0.719990  1.0  0.1875
  C  C7592  1  0.908680  0.077180  0.691230  1.0  0.389
  C  C7593  1  0.925670  0.060300  0.665390  1.0  0.3108
  C  C7594  1  0.935110  0.093160  0.674110  1.0  0.4468
  C  C7595  1  0.962320  0.111780  0.653990  1.0  0.1995
  C  C7596  1  0.947790  0.111850  0.670480  1.0  -0.1756
  C  C7597  1  0.945890  0.129600  0.682650  1.0  -0.0491
  C  C7598  1  0.958910  0.146420  0.678080  1.0  -0.1536
  C  C7599  1  0.972540  0.145110  0.661400  1.0  0.1647
  C  C7600  1  0.017630  0.111380  0.666990  1.0  0.1687
  C  C7601  1  0.029400  0.111660  0.684600  1.0  -0.182
  C  C7602  1  0.045300  0.126670  0.686400  1.0  -0.0538
  C  C7603  1  0.047830  0.140760  0.670160  1.0  -0.1596
  C  C7604  1  0.035020  0.139150  0.652690  1.0  0.1832
  C  C7605  1  0.064410  0.156980  0.670920  1.0  0.3967
  C  C7606  1  0.000590  0.175220  0.623890  1.0  0.2664
  C  C7607  1  0.909720  0.530110  0.147420  1.0  0.1788
  C  C7608  1  0.927420  0.542500  0.150860  1.0  -0.1423
  C  C7609  1  0.945230  0.538620  0.139280  1.0  -0.0535
  C  C7610  1  0.944860  0.521900  0.125180  1.0  -0.1418
  C  C7611  1  0.926860  0.510930  0.122420  1.0  0.1832
  C  C7612  1  0.897740  0.654670  0.216620  1.0  0.2685
  C  C7613  1  0.861480  0.581570  0.236790  1.0  0.1868
  C  C7614  1  0.862600  0.563340  0.225380  1.0  -0.1679
  C  C7615  1  0.877790  0.561420  0.209930  1.0  -0.0357
  C  C7616  1  0.892100  0.577740  0.207510  1.0  -0.1775
  C  C7617  1  0.890260  0.595280  0.219990  1.0  0.1875
  C  C7618  1  0.908680  0.577180  0.191230  1.0  0.389
  C  C7619  1  0.925670  0.560300  0.165390  1.0  0.3108
  C  C7620  1  0.935110  0.593160  0.174110  1.0  0.4468
  C  C7621  1  0.962320  0.611780  0.153990  1.0  0.1995
  C  C7622  1  0.947790  0.611850  0.170480  1.0  -0.1756
  C  C7623  1  0.945890  0.629600  0.182650  1.0  -0.0491
  C  C7624  1  0.958910  0.646420  0.178080  1.0  -0.1536
  C  C7625  1  0.972540  0.645110  0.161400  1.0  0.1647
  C  C7626  1  0.017630  0.611380  0.166990  1.0  0.1687
  C  C7627  1  0.029400  0.611660  0.184600  1.0  -0.182
  C  C7628  1  0.045300  0.626670  0.186400  1.0  -0.0538
  C  C7629  1  0.047830  0.640760  0.170160  1.0  -0.1596
  C  C7630  1  0.035020  0.639150  0.152690  1.0  0.1832
  C  C7631  1  0.064410  0.656980  0.170920  1.0  0.3967
  C  C7632  1  0.000590  0.675220  0.123890  1.0  0.2664
  C  C7633  1  0.909720  0.719890  0.102580  1.0  0.1794
  C  C7634  1  0.927420  0.707500  0.099140  1.0  -0.1414
  C  C7635  1  0.945230  0.711380  0.110720  1.0  -0.054
  C  C7636  1  0.944860  0.728100  0.124820  1.0  -0.1411
  C  C7637  1  0.926860  0.739070  0.127580  1.0  0.1836
  C  C7638  1  0.897740  0.595330  0.033380  1.0  0.2655
  C  C7639  1  0.861480  0.668430  0.013210  1.0  0.1854
  C  C7640  1  0.862600  0.686660  0.024620  1.0  -0.168
  C  C7641  1  0.877790  0.688580  0.040070  1.0  -0.0348
  C  C7642  1  0.892100  0.672260  0.042490  1.0  -0.1776
  C  C7643  1  0.890260  0.654720  0.030010  1.0  0.1875
  C  C7644  1  0.908680  0.672820  0.058770  1.0  0.3893
  C  C7645  1  0.925670  0.689700  0.084610  1.0  0.3108
  C  C7646  1  0.935110  0.656840  0.075890  1.0  0.4462
  C  C7647  1  0.962320  0.638220  0.096010  1.0  0.1983
  C  C7648  1  0.947790  0.638150  0.079520  1.0  -0.1747
  C  C7649  1  0.945890  0.620400  0.067350  1.0  -0.0486
  C  C7650  1  0.958910  0.603580  0.071920  1.0  -0.1522
  C  C7651  1  0.972540  0.604890  0.088600  1.0  0.1648
  C  C7652  1  0.017630  0.638620  0.083010  1.0  0.1674
  C  C7653  1  0.029400  0.638340  0.065400  1.0  -0.1795
  C  C7654  1  0.045300  0.623330  0.063600  1.0  -0.0555
  C  C7655  1  0.047830  0.609240  0.079840  1.0  -0.1594
  C  C7656  1  0.035020  0.610850  0.097310  1.0  0.1852
  C  C7657  1  0.064410  0.593020  0.079080  1.0  0.3971
  C  C7658  1  0.000590  0.574780  0.126110  1.0  0.2614
  C  C7659  1  0.909720  0.219890  0.602580  1.0  0.1794
  C  C7660  1  0.927420  0.207500  0.599140  1.0  -0.1414
  C  C7661  1  0.945230  0.211380  0.610720  1.0  -0.054
  C  C7662  1  0.944860  0.228100  0.624820  1.0  -0.1411
  C  C7663  1  0.926860  0.239070  0.627580  1.0  0.1836
  C  C7664  1  0.897740  0.095330  0.533380  1.0  0.2655
  C  C7665  1  0.861480  0.168430  0.513210  1.0  0.1854
  C  C7666  1  0.862600  0.186660  0.524620  1.0  -0.168
  C  C7667  1  0.877790  0.188580  0.540070  1.0  -0.0348
  C  C7668  1  0.892100  0.172260  0.542490  1.0  -0.1776
  C  C7669  1  0.890260  0.154720  0.530010  1.0  0.1875
  C  C7670  1  0.908680  0.172820  0.558770  1.0  0.3893
  C  C7671  1  0.925670  0.189700  0.584610  1.0  0.3108
  C  C7672  1  0.935110  0.156840  0.575890  1.0  0.4462
  C  C7673  1  0.962320  0.138220  0.596010  1.0  0.1983
  C  C7674  1  0.947790  0.138150  0.579520  1.0  -0.1747
  C  C7675  1  0.945890  0.120400  0.567350  1.0  -0.0486
  C  C7676  1  0.958910  0.103580  0.571920  1.0  -0.1522
  C  C7677  1  0.972540  0.104890  0.588600  1.0  0.1648
  C  C7678  1  0.017630  0.138620  0.583010  1.0  0.1674
  C  C7679  1  0.029400  0.138340  0.565400  1.0  -0.1795
  C  C7680  1  0.045300  0.123330  0.563600  1.0  -0.0555
  C  C7681  1  0.047830  0.109240  0.579840  1.0  -0.1594
  C  C7682  1  0.035020  0.110850  0.597310  1.0  0.1852
  C  C7683  1  0.064410  0.093020  0.579080  1.0  0.3971
  C  C7684  1  0.000590  0.074780  0.626110  1.0  0.2614
  C  C7685  1  0.409720  0.719890  0.602580  1.0  0.1794
  C  C7686  1  0.427420  0.707500  0.599140  1.0  -0.1414
  C  C7687  1  0.445230  0.711380  0.610720  1.0  -0.054
  C  C7688  1  0.444860  0.728100  0.624820  1.0  -0.1411
  C  C7689  1  0.426860  0.739070  0.627580  1.0  0.1836
  C  C7690  1  0.397740  0.595330  0.533380  1.0  0.2655
  C  C7691  1  0.361480  0.668430  0.513210  1.0  0.1854
  C  C7692  1  0.362600  0.686660  0.524620  1.0  -0.168
  C  C7693  1  0.377790  0.688580  0.540070  1.0  -0.0348
  C  C7694  1  0.392100  0.672260  0.542490  1.0  -0.1776
  C  C7695  1  0.390260  0.654720  0.530010  1.0  0.1875
  C  C7696  1  0.408680  0.672820  0.558770  1.0  0.3893
  C  C7697  1  0.425670  0.689700  0.584610  1.0  0.3108
  C  C7698  1  0.435110  0.656840  0.575890  1.0  0.4462
  C  C7699  1  0.462320  0.638220  0.596010  1.0  0.1983
  C  C7700  1  0.447790  0.638150  0.579520  1.0  -0.1747
  C  C7701  1  0.445890  0.620400  0.567350  1.0  -0.0486
  C  C7702  1  0.458910  0.603580  0.571920  1.0  -0.1522
  C  C7703  1  0.472540  0.604890  0.588600  1.0  0.1648
  C  C7704  1  0.517630  0.638620  0.583010  1.0  0.1674
  C  C7705  1  0.529400  0.638340  0.565400  1.0  -0.1795
  C  C7706  1  0.545300  0.623330  0.563600  1.0  -0.0555
  C  C7707  1  0.547830  0.609240  0.579840  1.0  -0.1594
  C  C7708  1  0.535020  0.610850  0.597310  1.0  0.1852
  C  C7709  1  0.564410  0.593020  0.579080  1.0  0.3971
  C  C7710  1  0.500590  0.574780  0.626110  1.0  0.2614
  C  C7711  1  0.409720  0.219890  0.102580  1.0  0.1794
  C  C7712  1  0.427420  0.207500  0.099140  1.0  -0.1414
  C  C7713  1  0.445230  0.211380  0.110720  1.0  -0.054
  C  C7714  1  0.444860  0.228100  0.124820  1.0  -0.1411
  C  C7715  1  0.426860  0.239070  0.127580  1.0  0.1836
  C  C7716  1  0.397740  0.095330  0.033380  1.0  0.2655
  C  C7717  1  0.361480  0.168430  0.013210  1.0  0.1854
  C  C7718  1  0.362600  0.186660  0.024620  1.0  -0.168
  C  C7719  1  0.377790  0.188580  0.040070  1.0  -0.0348
  C  C7720  1  0.392100  0.172260  0.042490  1.0  -0.1776
  C  C7721  1  0.390260  0.154720  0.030010  1.0  0.1875
  C  C7722  1  0.408680  0.172820  0.058770  1.0  0.3893
  C  C7723  1  0.425670  0.189700  0.084610  1.0  0.3108
  C  C7724  1  0.435110  0.156840  0.075890  1.0  0.4462
  C  C7725  1  0.462320  0.138220  0.096010  1.0  0.1983
  C  C7726  1  0.447790  0.138150  0.079520  1.0  -0.1747
  C  C7727  1  0.445890  0.120400  0.067350  1.0  -0.0486
  C  C7728  1  0.458910  0.103580  0.071920  1.0  -0.1522
  C  C7729  1  0.472540  0.104890  0.088600  1.0  0.1648
  C  C7730  1  0.517630  0.138620  0.083010  1.0  0.1674
  C  C7731  1  0.529400  0.138340  0.065400  1.0  -0.1795
  C  C7732  1  0.545300  0.123330  0.063600  1.0  -0.0555
  C  C7733  1  0.547830  0.109240  0.079840  1.0  -0.1594
  C  C7734  1  0.535020  0.110850  0.097310  1.0  0.1852
  C  C7735  1  0.564410  0.093020  0.079080  1.0  0.3971
  C  C7736  1  0.500590  0.074780  0.126110  1.0  0.2614
  C  C7737  1  0.340280  0.219890  0.647420  1.0  0.1793
  C  C7738  1  0.322580  0.207500  0.650860  1.0  -0.1412
  C  C7739  1  0.304770  0.211380  0.639280  1.0  -0.0547
  C  C7740  1  0.305140  0.228100  0.625180  1.0  -0.1418
  C  C7741  1  0.323140  0.239070  0.622420  1.0  0.182
  C  C7742  1  0.352260  0.095330  0.716620  1.0  0.2697
  C  C7743  1  0.388520  0.168430  0.736790  1.0  0.1851
  C  C7744  1  0.387400  0.186660  0.725380  1.0  -0.1653
  C  C7745  1  0.372210  0.188580  0.709930  1.0  -0.0357
  C  C7746  1  0.357900  0.172260  0.707510  1.0  -0.1757
  C  C7747  1  0.359740  0.154720  0.719990  1.0  0.1881
  C  C7748  1  0.341320  0.172820  0.691230  1.0  0.3891
  C  C7749  1  0.324330  0.189700  0.665390  1.0  0.3112
  C  C7750  1  0.314890  0.156840  0.674110  1.0  0.4459
  C  C7751  1  0.287680  0.138220  0.653990  1.0  0.1983
  C  C7752  1  0.302210  0.138150  0.670480  1.0  -0.1751
  C  C7753  1  0.304110  0.120400  0.682650  1.0  -0.0487
  C  C7754  1  0.291090  0.103580  0.678080  1.0  -0.1534
  C  C7755  1  0.277460  0.104890  0.661400  1.0  0.1647
  C  C7756  1  0.232370  0.138620  0.666990  1.0  0.1669
  C  C7757  1  0.220600  0.138340  0.684600  1.0  -0.1792
  C  C7758  1  0.204700  0.123330  0.686400  1.0  -0.0542
  C  C7759  1  0.202170  0.109240  0.670160  1.0  -0.1593
  C  C7760  1  0.214980  0.110850  0.652690  1.0  0.1826
  C  C7761  1  0.185590  0.093020  0.670920  1.0  0.3971
  C  C7762  1  0.249410  0.074780  0.623890  1.0  0.2617
  C  C7763  1  0.340280  0.719890  0.147420  1.0  0.1793
  C  C7764  1  0.322580  0.707500  0.150860  1.0  -0.1412
  C  C7765  1  0.304770  0.711380  0.139280  1.0  -0.0547
  C  C7766  1  0.305140  0.728100  0.125180  1.0  -0.1418
  C  C7767  1  0.323140  0.739070  0.122420  1.0  0.182
  C  C7768  1  0.352260  0.595330  0.216620  1.0  0.2697
  C  C7769  1  0.388520  0.668430  0.236790  1.0  0.1851
  C  C7770  1  0.387400  0.686660  0.225380  1.0  -0.1653
  C  C7771  1  0.372210  0.688580  0.209930  1.0  -0.0357
  C  C7772  1  0.357900  0.672260  0.207510  1.0  -0.1757
  C  C7773  1  0.359740  0.654720  0.219990  1.0  0.1881
  C  C7774  1  0.341320  0.672820  0.191230  1.0  0.3891
  C  C7775  1  0.324330  0.689700  0.165390  1.0  0.3112
  C  C7776  1  0.314890  0.656840  0.174110  1.0  0.4459
  C  C7777  1  0.287680  0.638220  0.153990  1.0  0.1983
  C  C7778  1  0.302210  0.638150  0.170480  1.0  -0.1751
  C  C7779  1  0.304110  0.620400  0.182650  1.0  -0.0487
  C  C7780  1  0.291090  0.603580  0.178080  1.0  -0.1534
  C  C7781  1  0.277460  0.604890  0.161400  1.0  0.1647
  C  C7782  1  0.232370  0.638620  0.166990  1.0  0.1669
  C  C7783  1  0.220600  0.638340  0.184600  1.0  -0.1792
  C  C7784  1  0.204700  0.623330  0.186400  1.0  -0.0542
  C  C7785  1  0.202170  0.609240  0.170160  1.0  -0.1593
  C  C7786  1  0.214980  0.610850  0.152690  1.0  0.1826
  C  C7787  1  0.185590  0.593020  0.170920  1.0  0.3971
  C  C7788  1  0.249410  0.574780  0.123890  1.0  0.2617
  C  C7789  1  0.840280  0.219890  0.147420  1.0  0.1793
  C  C7790  1  0.822580  0.207500  0.150860  1.0  -0.1412
  C  C7791  1  0.804770  0.211380  0.139280  1.0  -0.0547
  C  C7792  1  0.805140  0.228100  0.125180  1.0  -0.1418
  C  C7793  1  0.823140  0.239070  0.122420  1.0  0.182
  C  C7794  1  0.852260  0.095330  0.216620  1.0  0.2697
  C  C7795  1  0.888520  0.168430  0.236790  1.0  0.1851
  C  C7796  1  0.887400  0.186660  0.225380  1.0  -0.1653
  C  C7797  1  0.872210  0.188580  0.209930  1.0  -0.0357
  C  C7798  1  0.857900  0.172260  0.207510  1.0  -0.1757
  C  C7799  1  0.859740  0.154720  0.219990  1.0  0.1881
  C  C7800  1  0.841320  0.172820  0.191230  1.0  0.3891
  C  C7801  1  0.824330  0.189700  0.165390  1.0  0.3112
  C  C7802  1  0.814890  0.156840  0.174110  1.0  0.4459
  C  C7803  1  0.787680  0.138220  0.153990  1.0  0.1983
  C  C7804  1  0.802210  0.138150  0.170480  1.0  -0.1751
  C  C7805  1  0.804110  0.120400  0.182650  1.0  -0.0487
  C  C7806  1  0.791090  0.103580  0.178080  1.0  -0.1534
  C  C7807  1  0.777460  0.104890  0.161400  1.0  0.1647
  C  C7808  1  0.732370  0.138620  0.166990  1.0  0.1669
  C  C7809  1  0.720600  0.138340  0.184600  1.0  -0.1792
  C  C7810  1  0.704700  0.123330  0.186400  1.0  -0.0542
  C  C7811  1  0.702170  0.109240  0.170160  1.0  -0.1593
  C  C7812  1  0.714980  0.110850  0.152690  1.0  0.1826
  C  C7813  1  0.685590  0.093020  0.170920  1.0  0.3971
  C  C7814  1  0.749410  0.074780  0.123890  1.0  0.2617
  C  C7815  1  0.840280  0.719890  0.647420  1.0  0.1793
  C  C7816  1  0.822580  0.707500  0.650860  1.0  -0.1412
  C  C7817  1  0.804770  0.711380  0.639280  1.0  -0.0547
  C  C7818  1  0.805140  0.728100  0.625180  1.0  -0.1418
  C  C7819  1  0.823140  0.739070  0.622420  1.0  0.182
  C  C7820  1  0.852260  0.595330  0.716620  1.0  0.2697
  C  C7821  1  0.888520  0.668430  0.736790  1.0  0.1851
  C  C7822  1  0.887400  0.686660  0.725380  1.0  -0.1653
  C  C7823  1  0.872210  0.688580  0.709930  1.0  -0.0357
  C  C7824  1  0.857900  0.672260  0.707510  1.0  -0.1757
  C  C7825  1  0.859740  0.654720  0.719990  1.0  0.1881
  C  C7826  1  0.841320  0.672820  0.691230  1.0  0.3891
  C  C7827  1  0.824330  0.689700  0.665390  1.0  0.3112
  C  C7828  1  0.814890  0.656840  0.674110  1.0  0.4459
  C  C7829  1  0.787680  0.638220  0.653990  1.0  0.1983
  C  C7830  1  0.802210  0.638150  0.670480  1.0  -0.1751
  C  C7831  1  0.804110  0.620400  0.682650  1.0  -0.0487
  C  C7832  1  0.791090  0.603580  0.678080  1.0  -0.1534
  C  C7833  1  0.777460  0.604890  0.661400  1.0  0.1647
  C  C7834  1  0.732370  0.638620  0.666990  1.0  0.1669
  C  C7835  1  0.720600  0.638340  0.684600  1.0  -0.1792
  C  C7836  1  0.704700  0.623330  0.686400  1.0  -0.0542
  C  C7837  1  0.702170  0.609240  0.670160  1.0  -0.1593
  C  C7838  1  0.714980  0.610850  0.652690  1.0  0.1826
  C  C7839  1  0.685590  0.593020  0.670920  1.0  0.3971
  C  C7840  1  0.749410  0.574780  0.623890  1.0  0.2617
  C  C7841  1  0.030110  0.147420  0.409720  1.0  0.1817
  C  C7842  1  0.042500  0.150860  0.427420  1.0  -0.1391
  C  C7843  1  0.038620  0.139280  0.445230  1.0  -0.0538
  C  C7844  1  0.021900  0.125180  0.444860  1.0  -0.1393
  C  C7845  1  0.010930  0.122420  0.426860  1.0  0.1805
  C  C7846  1  0.154670  0.216620  0.397740  1.0  0.2685
  C  C7847  1  0.081570  0.236790  0.361480  1.0  0.1864
  C  C7848  1  0.063340  0.225380  0.362600  1.0  -0.1656
  C  C7849  1  0.061420  0.209930  0.377790  1.0  -0.0366
  C  C7850  1  0.077740  0.207510  0.392100  1.0  -0.1783
  C  C7851  1  0.095280  0.219990  0.390260  1.0  0.1874
  C  C7852  1  0.077180  0.191230  0.408680  1.0  0.3889
  C  C7853  1  0.060300  0.165390  0.425670  1.0  0.3111
  C  C7854  1  0.093160  0.174110  0.435110  1.0  0.4462
  C  C7855  1  0.111780  0.153990  0.462320  1.0  0.2003
  C  C7856  1  0.111850  0.170480  0.447790  1.0  -0.1734
  C  C7857  1  0.129600  0.182650  0.445890  1.0  -0.0511
  C  C7858  1  0.146420  0.178080  0.458910  1.0  -0.1525
  C  C7859  1  0.145110  0.161400  0.472540  1.0  0.1679
  C  C7860  1  0.111380  0.166990  0.517630  1.0  0.1705
  C  C7861  1  0.111660  0.184600  0.529400  1.0  -0.1816
  C  C7862  1  0.126670  0.186400  0.545300  1.0  -0.0532
  C  C7863  1  0.140760  0.170160  0.547830  1.0  -0.1598
  C  C7864  1  0.139150  0.152690  0.535020  1.0  0.1825
  C  C7865  1  0.156980  0.170920  0.564410  1.0  0.3968
  C  C7866  1  0.175220  0.123890  0.500590  1.0  0.272
  C  C7867  1  0.030110  0.647420  0.909720  1.0  0.1817
  C  C7868  1  0.042500  0.650860  0.927420  1.0  -0.1391
  C  C7869  1  0.038620  0.639280  0.945230  1.0  -0.0538
  C  C7870  1  0.021900  0.625180  0.944860  1.0  -0.1393
  C  C7871  1  0.010930  0.622420  0.926860  1.0  0.1805
  C  C7872  1  0.154670  0.716620  0.897740  1.0  0.2685
  C  C7873  1  0.081570  0.736790  0.861480  1.0  0.1864
  C  C7874  1  0.063340  0.725380  0.862600  1.0  -0.1656
  C  C7875  1  0.061420  0.709930  0.877790  1.0  -0.0366
  C  C7876  1  0.077740  0.707510  0.892100  1.0  -0.1783
  C  C7877  1  0.095280  0.719990  0.890260  1.0  0.1874
  C  C7878  1  0.077180  0.691230  0.908680  1.0  0.3889
  C  C7879  1  0.060300  0.665390  0.925670  1.0  0.3111
  C  C7880  1  0.093160  0.674110  0.935110  1.0  0.4462
  C  C7881  1  0.111780  0.653990  0.962320  1.0  0.2003
  C  C7882  1  0.111850  0.670480  0.947790  1.0  -0.1734
  C  C7883  1  0.129600  0.682650  0.945890  1.0  -0.0511
  C  C7884  1  0.146420  0.678080  0.958910  1.0  -0.1525
  C  C7885  1  0.145110  0.661400  0.972540  1.0  0.1679
  C  C7886  1  0.111380  0.666990  0.017630  1.0  0.1705
  C  C7887  1  0.111660  0.684600  0.029400  1.0  -0.1816
  C  C7888  1  0.126670  0.686400  0.045300  1.0  -0.0532
  C  C7889  1  0.140760  0.670160  0.047830  1.0  -0.1598
  C  C7890  1  0.139150  0.652690  0.035020  1.0  0.1825
  C  C7891  1  0.156980  0.670920  0.064410  1.0  0.3968
  C  C7892  1  0.175220  0.623890  0.000590  1.0  0.272
  C  C7893  1  0.530110  0.147420  0.909720  1.0  0.1817
  C  C7894  1  0.542500  0.150860  0.927420  1.0  -0.1391
  C  C7895  1  0.538620  0.139280  0.945230  1.0  -0.0538
  C  C7896  1  0.521900  0.125180  0.944860  1.0  -0.1393
  C  C7897  1  0.510930  0.122420  0.926860  1.0  0.1805
  C  C7898  1  0.654670  0.216620  0.897740  1.0  0.2685
  C  C7899  1  0.581570  0.236790  0.861480  1.0  0.1864
  C  C7900  1  0.563340  0.225380  0.862600  1.0  -0.1656
  C  C7901  1  0.561420  0.209930  0.877790  1.0  -0.0366
  C  C7902  1  0.577740  0.207510  0.892100  1.0  -0.1783
  C  C7903  1  0.595280  0.219990  0.890260  1.0  0.1874
  C  C7904  1  0.577180  0.191230  0.908680  1.0  0.3889
  C  C7905  1  0.560300  0.165390  0.925670  1.0  0.3111
  C  C7906  1  0.593160  0.174110  0.935110  1.0  0.4462
  C  C7907  1  0.611780  0.153990  0.962320  1.0  0.2003
  C  C7908  1  0.611850  0.170480  0.947790  1.0  -0.1734
  C  C7909  1  0.629600  0.182650  0.945890  1.0  -0.0511
  C  C7910  1  0.646420  0.178080  0.958910  1.0  -0.1525
  C  C7911  1  0.645110  0.161400  0.972540  1.0  0.1679
  C  C7912  1  0.611380  0.166990  0.017630  1.0  0.1705
  C  C7913  1  0.611660  0.184600  0.029400  1.0  -0.1816
  C  C7914  1  0.626670  0.186400  0.045300  1.0  -0.0532
  C  C7915  1  0.640760  0.170160  0.047830  1.0  -0.1598
  C  C7916  1  0.639150  0.152690  0.035020  1.0  0.1825
  C  C7917  1  0.656980  0.170920  0.064410  1.0  0.3968
  C  C7918  1  0.675220  0.123890  0.000590  1.0  0.272
  C  C7919  1  0.530110  0.647420  0.409720  1.0  0.1817
  C  C7920  1  0.542500  0.650860  0.427420  1.0  -0.1391
  C  C7921  1  0.538620  0.639280  0.445230  1.0  -0.0538
  C  C7922  1  0.521900  0.625180  0.444860  1.0  -0.1393
  C  C7923  1  0.510930  0.622420  0.426860  1.0  0.1805
  C  C7924  1  0.654670  0.716620  0.397740  1.0  0.2685
  C  C7925  1  0.581570  0.736790  0.361480  1.0  0.1864
  C  C7926  1  0.563340  0.725380  0.362600  1.0  -0.1656
  C  C7927  1  0.561420  0.709930  0.377790  1.0  -0.0366
  C  C7928  1  0.577740  0.707510  0.392100  1.0  -0.1783
  C  C7929  1  0.595280  0.719990  0.390260  1.0  0.1874
  C  C7930  1  0.577180  0.691230  0.408680  1.0  0.3889
  C  C7931  1  0.560300  0.665390  0.425670  1.0  0.3111
  C  C7932  1  0.593160  0.674110  0.435110  1.0  0.4462
  C  C7933  1  0.611780  0.653990  0.462320  1.0  0.2003
  C  C7934  1  0.611850  0.670480  0.447790  1.0  -0.1734
  C  C7935  1  0.629600  0.682650  0.445890  1.0  -0.0511
  C  C7936  1  0.646420  0.678080  0.458910  1.0  -0.1525
  C  C7937  1  0.645110  0.661400  0.472540  1.0  0.1679
  C  C7938  1  0.611380  0.666990  0.517630  1.0  0.1705
  C  C7939  1  0.611660  0.684600  0.529400  1.0  -0.1816
  C  C7940  1  0.626670  0.686400  0.545300  1.0  -0.0532
  C  C7941  1  0.640760  0.670160  0.547830  1.0  -0.1598
  C  C7942  1  0.639150  0.652690  0.535020  1.0  0.1825
  C  C7943  1  0.656980  0.670920  0.564410  1.0  0.3968
  C  C7944  1  0.675220  0.623890  0.500590  1.0  0.272
  C  C7945  1  0.530110  0.602580  0.840280  1.0  0.1814
  C  C7946  1  0.542500  0.599140  0.822580  1.0  -0.1402
  C  C7947  1  0.538620  0.610720  0.804770  1.0  -0.0576
  C  C7948  1  0.521900  0.624820  0.805140  1.0  -0.1409
  C  C7949  1  0.510930  0.627580  0.823140  1.0  0.1811
  C  C7950  1  0.654670  0.533380  0.852260  1.0  0.2664
  C  C7951  1  0.581570  0.513210  0.888520  1.0  0.187
  C  C7952  1  0.563340  0.524620  0.887400  1.0  -0.1665
  C  C7953  1  0.561420  0.540070  0.872210  1.0  -0.0367
  C  C7954  1  0.577740  0.542490  0.857900  1.0  -0.1786
  C  C7955  1  0.595280  0.530010  0.859740  1.0  0.1882
  C  C7956  1  0.577180  0.558770  0.841320  1.0  0.3888
  C  C7957  1  0.560300  0.584610  0.824330  1.0  0.3111
  C  C7958  1  0.593160  0.575890  0.814890  1.0  0.4456
  C  C7959  1  0.611780  0.596010  0.787680  1.0  0.1997
  C  C7960  1  0.611850  0.579520  0.802210  1.0  -0.1723
  C  C7961  1  0.629600  0.567350  0.804110  1.0  -0.0504
  C  C7962  1  0.646420  0.571920  0.791090  1.0  -0.1516
  C  C7963  1  0.645110  0.588600  0.777460  1.0  0.1679
  C  C7964  1  0.611380  0.583010  0.732370  1.0  0.1705
  C  C7965  1  0.611660  0.565400  0.720600  1.0  -0.1837
  C  C7966  1  0.626670  0.563600  0.704700  1.0  -0.0536
  C  C7967  1  0.640760  0.579840  0.702170  1.0  -0.1588
  C  C7968  1  0.639150  0.597310  0.714980  1.0  0.182
  C  C7969  1  0.656980  0.579080  0.685590  1.0  0.3972
  C  C7970  1  0.675220  0.626110  0.749410  1.0  0.272
  C  C7971  1  0.530110  0.102580  0.340280  1.0  0.1814
  C  C7972  1  0.542500  0.099140  0.322580  1.0  -0.1402
  C  C7973  1  0.538620  0.110720  0.304770  1.0  -0.0576
  C  C7974  1  0.521900  0.124820  0.305140  1.0  -0.1409
  C  C7975  1  0.510930  0.127580  0.323140  1.0  0.1811
  C  C7976  1  0.654670  0.033380  0.352260  1.0  0.2664
  C  C7977  1  0.581570  0.013210  0.388520  1.0  0.187
  C  C7978  1  0.563340  0.024620  0.387400  1.0  -0.1665
  C  C7979  1  0.561420  0.040070  0.372210  1.0  -0.0367
  C  C7980  1  0.577740  0.042490  0.357900  1.0  -0.1786
  C  C7981  1  0.595280  0.030010  0.359740  1.0  0.1882
  C  C7982  1  0.577180  0.058770  0.341320  1.0  0.3888
  C  C7983  1  0.560300  0.084610  0.324330  1.0  0.3111
  C  C7984  1  0.593160  0.075890  0.314890  1.0  0.4456
  C  C7985  1  0.611780  0.096010  0.287680  1.0  0.1997
  C  C7986  1  0.611850  0.079520  0.302210  1.0  -0.1723
  C  C7987  1  0.629600  0.067350  0.304110  1.0  -0.0504
  C  C7988  1  0.646420  0.071920  0.291090  1.0  -0.1516
  C  C7989  1  0.645110  0.088600  0.277460  1.0  0.1679
  C  C7990  1  0.611380  0.083010  0.232370  1.0  0.1705
  C  C7991  1  0.611660  0.065400  0.220600  1.0  -0.1837
  C  C7992  1  0.626670  0.063600  0.204700  1.0  -0.0536
  C  C7993  1  0.640760  0.079840  0.202170  1.0  -0.1588
  C  C7994  1  0.639150  0.097310  0.214980  1.0  0.182
  C  C7995  1  0.656980  0.079080  0.185590  1.0  0.3972
  C  C7996  1  0.675220  0.126110  0.249410  1.0  0.272
  C  C7997  1  0.030110  0.602580  0.340280  1.0  0.1814
  C  C7998  1  0.042500  0.599140  0.322580  1.0  -0.1402
  C  C7999  1  0.038620  0.610720  0.304770  1.0  -0.0576
  C  C8000  1  0.021900  0.624820  0.305140  1.0  -0.1409
  C  C8001  1  0.010930  0.627580  0.323140  1.0  0.1811
  C  C8002  1  0.154670  0.533380  0.352260  1.0  0.2664
  C  C8003  1  0.081570  0.513210  0.388520  1.0  0.187
  C  C8004  1  0.063340  0.524620  0.387400  1.0  -0.1665
  C  C8005  1  0.061420  0.540070  0.372210  1.0  -0.0367
  C  C8006  1  0.077740  0.542490  0.357900  1.0  -0.1786
  C  C8007  1  0.095280  0.530010  0.359740  1.0  0.1882
  C  C8008  1  0.077180  0.558770  0.341320  1.0  0.3888
  C  C8009  1  0.060300  0.584610  0.324330  1.0  0.3111
  C  C8010  1  0.093160  0.575890  0.314890  1.0  0.4456
  C  C8011  1  0.111780  0.596010  0.287680  1.0  0.1997
  C  C8012  1  0.111850  0.579520  0.302210  1.0  -0.1723
  C  C8013  1  0.129600  0.567350  0.304110  1.0  -0.0504
  C  C8014  1  0.146420  0.571920  0.291090  1.0  -0.1516
  C  C8015  1  0.145110  0.588600  0.277460  1.0  0.1679
  C  C8016  1  0.111380  0.583010  0.232370  1.0  0.1705
  C  C8017  1  0.111660  0.565400  0.220600  1.0  -0.1837
  C  C8018  1  0.126670  0.563600  0.204700  1.0  -0.0536
  C  C8019  1  0.140760  0.579840  0.202170  1.0  -0.1588
  C  C8020  1  0.139150  0.597310  0.214980  1.0  0.182
  C  C8021  1  0.156980  0.579080  0.185590  1.0  0.3972
  C  C8022  1  0.175220  0.626110  0.249410  1.0  0.272
  C  C8023  1  0.030110  0.102580  0.840280  1.0  0.1814
  C  C8024  1  0.042500  0.099140  0.822580  1.0  -0.1402
  C  C8025  1  0.038620  0.110720  0.804770  1.0  -0.0576
  C  C8026  1  0.021900  0.124820  0.805140  1.0  -0.1409
  C  C8027  1  0.010930  0.127580  0.823140  1.0  0.1811
  C  C8028  1  0.154670  0.033380  0.852260  1.0  0.2664
  C  C8029  1  0.081570  0.013210  0.888520  1.0  0.187
  C  C8030  1  0.063340  0.024620  0.887400  1.0  -0.1665
  C  C8031  1  0.061420  0.040070  0.872210  1.0  -0.0367
  C  C8032  1  0.077740  0.042490  0.857900  1.0  -0.1786
  C  C8033  1  0.095280  0.030010  0.859740  1.0  0.1882
  C  C8034  1  0.077180  0.058770  0.841320  1.0  0.3888
  C  C8035  1  0.060300  0.084610  0.824330  1.0  0.3111
  C  C8036  1  0.093160  0.075890  0.814890  1.0  0.4456
  C  C8037  1  0.111780  0.096010  0.787680  1.0  0.1997
  C  C8038  1  0.111850  0.079520  0.802210  1.0  -0.1723
  C  C8039  1  0.129600  0.067350  0.804110  1.0  -0.0504
  C  C8040  1  0.146420  0.071920  0.791090  1.0  -0.1516
  C  C8041  1  0.145110  0.088600  0.777460  1.0  0.1679
  C  C8042  1  0.111380  0.083010  0.732370  1.0  0.1705
  C  C8043  1  0.111660  0.065400  0.720600  1.0  -0.1837
  C  C8044  1  0.126670  0.063600  0.704700  1.0  -0.0536
  C  C8045  1  0.140760  0.079840  0.702170  1.0  -0.1588
  C  C8046  1  0.139150  0.097310  0.714980  1.0  0.182
  C  C8047  1  0.156980  0.079080  0.685590  1.0  0.3972
  C  C8048  1  0.175220  0.126110  0.749410  1.0  0.272
  C  C8049  1  0.219890  0.647420  0.340280  1.0  0.1812
  C  C8050  1  0.207500  0.650860  0.322580  1.0  -0.1386
  C  C8051  1  0.211380  0.639280  0.304770  1.0  -0.0579
  C  C8052  1  0.228100  0.625180  0.305140  1.0  -0.1403
  C  C8053  1  0.239070  0.622420  0.323140  1.0  0.1808
  C  C8054  1  0.095330  0.716620  0.352260  1.0  0.2691
  C  C8055  1  0.168430  0.736790  0.388520  1.0  0.1872
  C  C8056  1  0.186660  0.725380  0.387400  1.0  -0.1629
  C  C8057  1  0.188580  0.709930  0.372210  1.0  -0.038
  C  C8058  1  0.172260  0.707510  0.357900  1.0  -0.1772
  C  C8059  1  0.154720  0.719990  0.359740  1.0  0.1871
  C  C8060  1  0.172820  0.691230  0.341320  1.0  0.3896
  C  C8061  1  0.189700  0.665390  0.324330  1.0  0.3109
  C  C8062  1  0.156840  0.674110  0.314890  1.0  0.4457
  C  C8063  1  0.138220  0.653990  0.287680  1.0  0.1988
  C  C8064  1  0.138150  0.670480  0.302210  1.0  -0.1723
  C  C8065  1  0.120400  0.682650  0.304110  1.0  -0.0507
  C  C8066  1  0.103580  0.678080  0.291090  1.0  -0.1537
  C  C8067  1  0.104890  0.661400  0.277460  1.0  0.1674
  C  C8068  1  0.138620  0.666990  0.232370  1.0  0.1697
  C  C8069  1  0.138340  0.684600  0.220600  1.0  -0.1812
  C  C8070  1  0.123330  0.686400  0.204700  1.0  -0.0532
  C  C8071  1  0.109240  0.670160  0.202170  1.0  -0.159
  C  C8072  1  0.110850  0.652690  0.214980  1.0  0.1841
  C  C8073  1  0.093020  0.670920  0.185590  1.0  0.3973
  C  C8074  1  0.074780  0.623890  0.249410  1.0  0.2641
  C  C8075  1  0.219890  0.147420  0.840280  1.0  0.1812
  C  C8076  1  0.207500  0.150860  0.822580  1.0  -0.1386
  C  C8077  1  0.211380  0.139280  0.804770  1.0  -0.0579
  C  C8078  1  0.228100  0.125180  0.805140  1.0  -0.1403
  C  C8079  1  0.239070  0.122420  0.823140  1.0  0.1808
  C  C8080  1  0.095330  0.216620  0.852260  1.0  0.2691
  C  C8081  1  0.168430  0.236790  0.888520  1.0  0.1872
  C  C8082  1  0.186660  0.225380  0.887400  1.0  -0.1629
  C  C8083  1  0.188580  0.209930  0.872210  1.0  -0.038
  C  C8084  1  0.172260  0.207510  0.857900  1.0  -0.1772
  C  C8085  1  0.154720  0.219990  0.859740  1.0  0.1871
  C  C8086  1  0.172820  0.191230  0.841320  1.0  0.3896
  C  C8087  1  0.189700  0.165390  0.824330  1.0  0.3109
  C  C8088  1  0.156840  0.174110  0.814890  1.0  0.4457
  C  C8089  1  0.138220  0.153990  0.787680  1.0  0.1988
  C  C8090  1  0.138150  0.170480  0.802210  1.0  -0.1723
  C  C8091  1  0.120400  0.182650  0.804110  1.0  -0.0507
  C  C8092  1  0.103580  0.178080  0.791090  1.0  -0.1537
  C  C8093  1  0.104890  0.161400  0.777460  1.0  0.1674
  C  C8094  1  0.138620  0.166990  0.732370  1.0  0.1697
  C  C8095  1  0.138340  0.184600  0.720600  1.0  -0.1812
  C  C8096  1  0.123330  0.186400  0.704700  1.0  -0.0532
  C  C8097  1  0.109240  0.170160  0.702170  1.0  -0.159
  C  C8098  1  0.110850  0.152690  0.714980  1.0  0.1841
  C  C8099  1  0.093020  0.170920  0.685590  1.0  0.3973
  C  C8100  1  0.074780  0.123890  0.749410  1.0  0.2641
  C  C8101  1  0.719890  0.647420  0.840280  1.0  0.1812
  C  C8102  1  0.707500  0.650860  0.822580  1.0  -0.1386
  C  C8103  1  0.711380  0.639280  0.804770  1.0  -0.0579
  C  C8104  1  0.728100  0.625180  0.805140  1.0  -0.1403
  C  C8105  1  0.739070  0.622420  0.823140  1.0  0.1808
  C  C8106  1  0.595330  0.716620  0.852260  1.0  0.2691
  C  C8107  1  0.668430  0.736790  0.888520  1.0  0.1872
  C  C8108  1  0.686660  0.725380  0.887400  1.0  -0.1629
  C  C8109  1  0.688580  0.709930  0.872210  1.0  -0.038
  C  C8110  1  0.672260  0.707510  0.857900  1.0  -0.1772
  C  C8111  1  0.654720  0.719990  0.859740  1.0  0.1871
  C  C8112  1  0.672820  0.691230  0.841320  1.0  0.3896
  C  C8113  1  0.689700  0.665390  0.824330  1.0  0.3109
  C  C8114  1  0.656840  0.674110  0.814890  1.0  0.4457
  C  C8115  1  0.638220  0.653990  0.787680  1.0  0.1988
  C  C8116  1  0.638150  0.670480  0.802210  1.0  -0.1723
  C  C8117  1  0.620400  0.682650  0.804110  1.0  -0.0507
  C  C8118  1  0.603580  0.678080  0.791090  1.0  -0.1537
  C  C8119  1  0.604890  0.661400  0.777460  1.0  0.1674
  C  C8120  1  0.638620  0.666990  0.732370  1.0  0.1697
  C  C8121  1  0.638340  0.684600  0.720600  1.0  -0.1812
  C  C8122  1  0.623330  0.686400  0.704700  1.0  -0.0532
  C  C8123  1  0.609240  0.670160  0.702170  1.0  -0.159
  C  C8124  1  0.610850  0.652690  0.714980  1.0  0.1841
  C  C8125  1  0.593020  0.670920  0.685590  1.0  0.3973
  C  C8126  1  0.574780  0.623890  0.749410  1.0  0.2641
  C  C8127  1  0.719890  0.147420  0.340280  1.0  0.1812
  C  C8128  1  0.707500  0.150860  0.322580  1.0  -0.1386
  C  C8129  1  0.711380  0.139280  0.304770  1.0  -0.0579
  C  C8130  1  0.728100  0.125180  0.305140  1.0  -0.1403
  C  C8131  1  0.739070  0.122420  0.323140  1.0  0.1808
  C  C8132  1  0.595330  0.216620  0.352260  1.0  0.2691
  C  C8133  1  0.668430  0.236790  0.388520  1.0  0.1872
  C  C8134  1  0.686660  0.225380  0.387400  1.0  -0.1629
  C  C8135  1  0.688580  0.209930  0.372210  1.0  -0.038
  C  C8136  1  0.672260  0.207510  0.357900  1.0  -0.1772
  C  C8137  1  0.654720  0.219990  0.359740  1.0  0.1871
  C  C8138  1  0.672820  0.191230  0.341320  1.0  0.3896
  C  C8139  1  0.689700  0.165390  0.324330  1.0  0.3109
  C  C8140  1  0.656840  0.174110  0.314890  1.0  0.4457
  C  C8141  1  0.638220  0.153990  0.287680  1.0  0.1988
  C  C8142  1  0.638150  0.170480  0.302210  1.0  -0.1723
  C  C8143  1  0.620400  0.182650  0.304110  1.0  -0.0507
  C  C8144  1  0.603580  0.178080  0.291090  1.0  -0.1537
  C  C8145  1  0.604890  0.161400  0.277460  1.0  0.1674
  C  C8146  1  0.638620  0.166990  0.232370  1.0  0.1697
  C  C8147  1  0.638340  0.184600  0.220600  1.0  -0.1812
  C  C8148  1  0.623330  0.186400  0.204700  1.0  -0.0532
  C  C8149  1  0.609240  0.170160  0.202170  1.0  -0.159
  C  C8150  1  0.610850  0.152690  0.214980  1.0  0.1841
  C  C8151  1  0.593020  0.170920  0.185590  1.0  0.3973
  C  C8152  1  0.574780  0.123890  0.249410  1.0  0.2641
  C  C8153  1  0.719890  0.102580  0.909720  1.0  0.1803
  C  C8154  1  0.707500  0.099140  0.927420  1.0  -0.139
  C  C8155  1  0.711380  0.110720  0.945230  1.0  -0.0546
  C  C8156  1  0.728100  0.124820  0.944860  1.0  -0.1398
  C  C8157  1  0.739070  0.127580  0.926860  1.0  0.1807
  C  C8158  1  0.595330  0.033380  0.897740  1.0  0.2686
  C  C8159  1  0.668430  0.013210  0.861480  1.0  0.1872
  C  C8160  1  0.686660  0.024620  0.862600  1.0  -0.1637
  C  C8161  1  0.688580  0.040070  0.877790  1.0  -0.0376
  C  C8162  1  0.672260  0.042490  0.892100  1.0  -0.178
  C  C8163  1  0.654720  0.030010  0.890260  1.0  0.1867
  C  C8164  1  0.672820  0.058770  0.908680  1.0  0.3889
  C  C8165  1  0.689700  0.084610  0.925670  1.0  0.3114
  C  C8166  1  0.656840  0.075890  0.935110  1.0  0.4455
  C  C8167  1  0.638220  0.096010  0.962320  1.0  0.1999
  C  C8168  1  0.638150  0.079520  0.947790  1.0  -0.1736
  C  C8169  1  0.620400  0.067350  0.945890  1.0  -0.0512
  C  C8170  1  0.603580  0.071920  0.958910  1.0  -0.1517
  C  C8171  1  0.604890  0.088600  0.972540  1.0  0.1671
  C  C8172  1  0.638620  0.083010  0.017630  1.0  0.1703
  C  C8173  1  0.638340  0.065400  0.029400  1.0  -0.1818
  C  C8174  1  0.623330  0.063600  0.045300  1.0  -0.0547
  C  C8175  1  0.609240  0.079840  0.047830  1.0  -0.1601
  C  C8176  1  0.610850  0.097310  0.035020  1.0  0.1821
  C  C8177  1  0.593020  0.079080  0.064410  1.0  0.3967
  C  C8178  1  0.574780  0.126110  0.000590  1.0  0.2645
  C  C8179  1  0.719890  0.602580  0.409720  1.0  0.1803
  C  C8180  1  0.707500  0.599140  0.427420  1.0  -0.139
  C  C8181  1  0.711380  0.610720  0.445230  1.0  -0.0546
  C  C8182  1  0.728100  0.624820  0.444860  1.0  -0.1398
  C  C8183  1  0.739070  0.627580  0.426860  1.0  0.1807
  C  C8184  1  0.595330  0.533380  0.397740  1.0  0.2686
  C  C8185  1  0.668430  0.513210  0.361480  1.0  0.1872
  C  C8186  1  0.686660  0.524620  0.362600  1.0  -0.1637
  C  C8187  1  0.688580  0.540070  0.377790  1.0  -0.0376
  C  C8188  1  0.672260  0.542490  0.392100  1.0  -0.178
  C  C8189  1  0.654720  0.530010  0.390260  1.0  0.1867
  C  C8190  1  0.672820  0.558770  0.408680  1.0  0.3889
  C  C8191  1  0.689700  0.584610  0.425670  1.0  0.3114
  C  C8192  1  0.656840  0.575890  0.435110  1.0  0.4455
  C  C8193  1  0.638220  0.596010  0.462320  1.0  0.1999
  C  C8194  1  0.638150  0.579520  0.447790  1.0  -0.1736
  C  C8195  1  0.620400  0.567350  0.445890  1.0  -0.0512
  C  C8196  1  0.603580  0.571920  0.458910  1.0  -0.1517
  C  C8197  1  0.604890  0.588600  0.472540  1.0  0.1671
  C  C8198  1  0.638620  0.583010  0.517630  1.0  0.1703
  C  C8199  1  0.638340  0.565400  0.529400  1.0  -0.1818
  C  C8200  1  0.623330  0.563600  0.545300  1.0  -0.0547
  C  C8201  1  0.609240  0.579840  0.547830  1.0  -0.1601
  C  C8202  1  0.610850  0.597310  0.535020  1.0  0.1821
  C  C8203  1  0.593020  0.579080  0.564410  1.0  0.3967
  C  C8204  1  0.574780  0.626110  0.500590  1.0  0.2645
  C  C8205  1  0.219890  0.102580  0.409720  1.0  0.1803
  C  C8206  1  0.207500  0.099140  0.427420  1.0  -0.139
  C  C8207  1  0.211380  0.110720  0.445230  1.0  -0.0546
  C  C8208  1  0.228100  0.124820  0.444860  1.0  -0.1398
  C  C8209  1  0.239070  0.127580  0.426860  1.0  0.1807
  C  C8210  1  0.095330  0.033380  0.397740  1.0  0.2686
  C  C8211  1  0.168430  0.013210  0.361480  1.0  0.1872
  C  C8212  1  0.186660  0.024620  0.362600  1.0  -0.1637
  C  C8213  1  0.188580  0.040070  0.377790  1.0  -0.0376
  C  C8214  1  0.172260  0.042490  0.392100  1.0  -0.178
  C  C8215  1  0.154720  0.030010  0.390260  1.0  0.1867
  C  C8216  1  0.172820  0.058770  0.408680  1.0  0.3889
  C  C8217  1  0.189700  0.084610  0.425670  1.0  0.3114
  C  C8218  1  0.156840  0.075890  0.435110  1.0  0.4455
  C  C8219  1  0.138220  0.096010  0.462320  1.0  0.1999
  C  C8220  1  0.138150  0.079520  0.447790  1.0  -0.1736
  C  C8221  1  0.120400  0.067350  0.445890  1.0  -0.0512
  C  C8222  1  0.103580  0.071920  0.458910  1.0  -0.1517
  C  C8223  1  0.104890  0.088600  0.472540  1.0  0.1671
  C  C8224  1  0.138620  0.083010  0.517630  1.0  0.1703
  C  C8225  1  0.138340  0.065400  0.529400  1.0  -0.1818
  C  C8226  1  0.123330  0.063600  0.545300  1.0  -0.0547
  C  C8227  1  0.109240  0.079840  0.547830  1.0  -0.1601
  C  C8228  1  0.110850  0.097310  0.535020  1.0  0.1821
  C  C8229  1  0.093020  0.079080  0.564410  1.0  0.3967
  C  C8230  1  0.074780  0.126110  0.500590  1.0  0.2645
  C  C8231  1  0.219890  0.602580  0.909720  1.0  0.1803
  C  C8232  1  0.207500  0.599140  0.927420  1.0  -0.139
  C  C8233  1  0.211380  0.610720  0.945230  1.0  -0.0546
  C  C8234  1  0.228100  0.624820  0.944860  1.0  -0.1398
  C  C8235  1  0.239070  0.627580  0.926860  1.0  0.1807
  C  C8236  1  0.095330  0.533380  0.897740  1.0  0.2686
  C  C8237  1  0.168430  0.513210  0.861480  1.0  0.1872
  C  C8238  1  0.186660  0.524620  0.862600  1.0  -0.1637
  C  C8239  1  0.188580  0.540070  0.877790  1.0  -0.0376
  C  C8240  1  0.172260  0.542490  0.892100  1.0  -0.178
  C  C8241  1  0.154720  0.530010  0.890260  1.0  0.1867
  C  C8242  1  0.172820  0.558770  0.908680  1.0  0.3889
  C  C8243  1  0.189700  0.584610  0.925670  1.0  0.3114
  C  C8244  1  0.156840  0.575890  0.935110  1.0  0.4455
  C  C8245  1  0.138220  0.596010  0.962320  1.0  0.1999
  C  C8246  1  0.138150  0.579520  0.947790  1.0  -0.1736
  C  C8247  1  0.120400  0.567350  0.945890  1.0  -0.0512
  C  C8248  1  0.103580  0.571920  0.958910  1.0  -0.1517
  C  C8249  1  0.104890  0.588600  0.972540  1.0  0.1671
  C  C8250  1  0.138620  0.583010  0.017630  1.0  0.1703
  C  C8251  1  0.138340  0.565400  0.029400  1.0  -0.1818
  C  C8252  1  0.123330  0.563600  0.045300  1.0  -0.0547
  C  C8253  1  0.109240  0.579840  0.047830  1.0  -0.1601
  C  C8254  1  0.110850  0.597310  0.035020  1.0  0.1821
  C  C8255  1  0.093020  0.579080  0.064410  1.0  0.3967
  C  C8256  1  0.074780  0.626110  0.000590  1.0  0.2645
  S  S8257  1  0.413040  0.544630  0.078120  1.0  -0.3117
  S  S8258  1  0.502160  0.623460  0.049280  1.0  -0.2174
  S  S8259  1  0.413040  0.044630  0.578120  1.0  -0.3117
  S  S8260  1  0.502160  0.123460  0.549280  1.0  -0.2174
  S  S8261  1  0.913040  0.544630  0.578120  1.0  -0.3117
  S  S8262  1  0.002160  0.623460  0.549280  1.0  -0.2174
  S  S8263  1  0.913040  0.044630  0.078120  1.0  -0.3117
  S  S8264  1  0.002160  0.123460  0.049280  1.0  -0.2174
  S  S8265  1  0.836960  0.205370  0.578120  1.0  -0.3119
  S  S8266  1  0.747840  0.126540  0.549280  1.0  -0.2175
  S  S8267  1  0.836960  0.705370  0.078120  1.0  -0.3119
  S  S8268  1  0.747840  0.626540  0.049280  1.0  -0.2175
  S  S8269  1  0.336960  0.205370  0.078120  1.0  -0.3119
  S  S8270  1  0.247840  0.126540  0.049280  1.0  -0.2175
  S  S8271  1  0.336960  0.705370  0.578120  1.0  -0.3119
  S  S8272  1  0.247840  0.626540  0.549280  1.0  -0.2175
  S  S8273  1  0.336960  0.044630  0.171880  1.0  -0.3126
  S  S8274  1  0.247840  0.123460  0.200720  1.0  -0.2188
  S  S8275  1  0.336960  0.544630  0.671880  1.0  -0.3126
  S  S8276  1  0.247840  0.623460  0.700720  1.0  -0.2188
  S  S8277  1  0.836960  0.044630  0.671880  1.0  -0.3126
  S  S8278  1  0.747840  0.123460  0.700720  1.0  -0.2188
  S  S8279  1  0.836960  0.544630  0.171880  1.0  -0.3126
  S  S8280  1  0.747840  0.623460  0.200720  1.0  -0.2188
  S  S8281  1  0.913040  0.705370  0.671880  1.0  -0.312
  S  S8282  1  0.002160  0.626540  0.700720  1.0  -0.219
  S  S8283  1  0.913040  0.205370  0.171880  1.0  -0.312
  S  S8284  1  0.002160  0.126540  0.200720  1.0  -0.219
  S  S8285  1  0.413040  0.705370  0.171880  1.0  -0.312
  S  S8286  1  0.502160  0.626540  0.200720  1.0  -0.219
  S  S8287  1  0.413040  0.205370  0.671880  1.0  -0.312
  S  S8288  1  0.502160  0.126540  0.700720  1.0  -0.219
  S  S8289  1  0.078120  0.413040  0.544630  1.0  -0.3123
  S  S8290  1  0.049280  0.502160  0.623460  1.0  -0.2202
  S  S8291  1  0.078120  0.913040  0.044630  1.0  -0.3123
  S  S8292  1  0.049280  0.002160  0.123460  1.0  -0.2202
  S  S8293  1  0.578120  0.413040  0.044630  1.0  -0.3123
  S  S8294  1  0.549280  0.502160  0.123460  1.0  -0.2202
  S  S8295  1  0.578120  0.913040  0.544630  1.0  -0.3123
  S  S8296  1  0.549280  0.002160  0.623460  1.0  -0.2202
  S  S8297  1  0.578120  0.836960  0.205370  1.0  -0.3113
  S  S8298  1  0.549280  0.747840  0.126540  1.0  -0.22
  S  S8299  1  0.578120  0.336960  0.705370  1.0  -0.3113
  S  S8300  1  0.549280  0.247840  0.626540  1.0  -0.22
  S  S8301  1  0.078120  0.836960  0.705370  1.0  -0.3113
  S  S8302  1  0.049280  0.747840  0.626540  1.0  -0.22
  S  S8303  1  0.078120  0.336960  0.205370  1.0  -0.3113
  S  S8304  1  0.049280  0.247840  0.126540  1.0  -0.22
  S  S8305  1  0.171880  0.336960  0.044630  1.0  -0.3108
  S  S8306  1  0.200720  0.247840  0.123460  1.0  -0.2178
  S  S8307  1  0.171880  0.836960  0.544630  1.0  -0.3108
  S  S8308  1  0.200720  0.747840  0.623460  1.0  -0.2178
  S  S8309  1  0.671880  0.336960  0.544630  1.0  -0.3108
  S  S8310  1  0.700720  0.247840  0.623460  1.0  -0.2178
  S  S8311  1  0.671880  0.836960  0.044630  1.0  -0.3108
  S  S8312  1  0.700720  0.747840  0.123460  1.0  -0.2178
  S  S8313  1  0.671880  0.913040  0.705370  1.0  -0.3107
  S  S8314  1  0.700720  0.002160  0.626540  1.0  -0.2177
  S  S8315  1  0.671880  0.413040  0.205370  1.0  -0.3107
  S  S8316  1  0.700720  0.502160  0.126540  1.0  -0.2177
  S  S8317  1  0.171880  0.913040  0.205370  1.0  -0.3107
  S  S8318  1  0.200720  0.002160  0.126540  1.0  -0.2177
  S  S8319  1  0.171880  0.413040  0.705370  1.0  -0.3107
  S  S8320  1  0.200720  0.502160  0.626540  1.0  -0.2177
  S  S8321  1  0.544630  0.078120  0.413040  1.0  -0.3126
  S  S8322  1  0.623460  0.049280  0.502160  1.0  -0.2193
  S  S8323  1  0.544630  0.578120  0.913040  1.0  -0.3126
  S  S8324  1  0.623460  0.549280  0.002160  1.0  -0.2193
  S  S8325  1  0.044630  0.078120  0.913040  1.0  -0.3126
  S  S8326  1  0.123460  0.049280  0.002160  1.0  -0.2193
  S  S8327  1  0.044630  0.578120  0.413040  1.0  -0.3126
  S  S8328  1  0.123460  0.549280  0.502160  1.0  -0.2193
  S  S8329  1  0.205370  0.578120  0.836960  1.0  -0.3112
  S  S8330  1  0.126540  0.549280  0.747840  1.0  -0.2199
  S  S8331  1  0.205370  0.078120  0.336960  1.0  -0.3112
  S  S8332  1  0.126540  0.049280  0.247840  1.0  -0.2199
  S  S8333  1  0.705370  0.578120  0.336960  1.0  -0.3112
  S  S8334  1  0.626540  0.549280  0.247840  1.0  -0.2199
  S  S8335  1  0.705370  0.078120  0.836960  1.0  -0.3112
  S  S8336  1  0.626540  0.049280  0.747840  1.0  -0.2199
  S  S8337  1  0.044630  0.171880  0.336960  1.0  -0.3117
  S  S8338  1  0.123460  0.200720  0.247840  1.0  -0.2192
  S  S8339  1  0.044630  0.671880  0.836960  1.0  -0.3117
  S  S8340  1  0.123460  0.700720  0.747840  1.0  -0.2192
  S  S8341  1  0.544630  0.171880  0.836960  1.0  -0.3117
  S  S8342  1  0.623460  0.200720  0.747840  1.0  -0.2192
  S  S8343  1  0.544630  0.671880  0.336960  1.0  -0.3117
  S  S8344  1  0.623460  0.700720  0.247840  1.0  -0.2192
  S  S8345  1  0.705370  0.671880  0.913040  1.0  -0.312
  S  S8346  1  0.626540  0.700720  0.002160  1.0  -0.22
  S  S8347  1  0.705370  0.171880  0.413040  1.0  -0.312
  S  S8348  1  0.626540  0.200720  0.502160  1.0  -0.22
  S  S8349  1  0.205370  0.671880  0.413040  1.0  -0.312
  S  S8350  1  0.126540  0.700720  0.502160  1.0  -0.22
  S  S8351  1  0.205370  0.171880  0.913040  1.0  -0.312
  S  S8352  1  0.126540  0.200720  0.002160  1.0  -0.22
  S  S8353  1  0.294630  0.663040  0.921880  1.0  -0.3118
  S  S8354  1  0.373460  0.752160  0.950720  1.0  -0.2193
  S  S8355  1  0.294630  0.163040  0.421880  1.0  -0.3118
  S  S8356  1  0.373460  0.252160  0.450720  1.0  -0.2193
  S  S8357  1  0.794630  0.663040  0.421880  1.0  -0.3118
  S  S8358  1  0.873460  0.752160  0.450720  1.0  -0.2193
  S  S8359  1  0.794630  0.163040  0.921880  1.0  -0.3118
  S  S8360  1  0.873460  0.252160  0.950720  1.0  -0.2193
  S  S8361  1  0.955370  0.086960  0.421880  1.0  -0.3119
  S  S8362  1  0.876540  0.997840  0.450720  1.0  -0.2195
  S  S8363  1  0.955370  0.586960  0.921880  1.0  -0.3119
  S  S8364  1  0.876540  0.497840  0.950720  1.0  -0.2195
  S  S8365  1  0.455370  0.086960  0.921880  1.0  -0.3119
  S  S8366  1  0.376540  0.997840  0.950720  1.0  -0.2195
  S  S8367  1  0.455370  0.586960  0.421880  1.0  -0.3119
  S  S8368  1  0.376540  0.497840  0.450720  1.0  -0.2195
  S  S8369  1  0.794630  0.586960  0.828120  1.0  -0.3114
  S  S8370  1  0.873460  0.497840  0.799280  1.0  -0.2177
  S  S8371  1  0.794630  0.086960  0.328120  1.0  -0.3114
  S  S8372  1  0.873460  0.997840  0.299280  1.0  -0.2177
  S  S8373  1  0.294630  0.586960  0.328120  1.0  -0.3114
  S  S8374  1  0.373460  0.497840  0.299280  1.0  -0.2177
  S  S8375  1  0.294630  0.086960  0.828120  1.0  -0.3114
  S  S8376  1  0.373460  0.997840  0.799280  1.0  -0.2177
  S  S8377  1  0.455370  0.163040  0.328120  1.0  -0.3124
  S  S8378  1  0.376540  0.252160  0.299280  1.0  -0.2183
  S  S8379  1  0.455370  0.663040  0.828120  1.0  -0.3124
  S  S8380  1  0.376540  0.752160  0.799280  1.0  -0.2183
  S  S8381  1  0.955370  0.163040  0.828120  1.0  -0.3124
  S  S8382  1  0.876540  0.252160  0.799280  1.0  -0.2183
  S  S8383  1  0.955370  0.663040  0.328120  1.0  -0.3124
  S  S8384  1  0.876540  0.752160  0.299280  1.0  -0.2183
  S  S8385  1  0.163040  0.328120  0.455370  1.0  -0.3118
  S  S8386  1  0.252160  0.299280  0.376540  1.0  -0.2192
  S  S8387  1  0.163040  0.828120  0.955370  1.0  -0.3118
  S  S8388  1  0.252160  0.799280  0.876540  1.0  -0.2192
  S  S8389  1  0.663040  0.328120  0.955370  1.0  -0.3118
  S  S8390  1  0.752160  0.299280  0.876540  1.0  -0.2192
  S  S8391  1  0.663040  0.828120  0.455370  1.0  -0.3118
  S  S8392  1  0.752160  0.799280  0.376540  1.0  -0.2192
  S  S8393  1  0.586960  0.828120  0.794630  1.0  -0.3126
  S  S8394  1  0.497840  0.799280  0.873460  1.0  -0.2193
  S  S8395  1  0.586960  0.328120  0.294630  1.0  -0.3126
  S  S8396  1  0.497840  0.299280  0.373460  1.0  -0.2193
  S  S8397  1  0.086960  0.828120  0.294630  1.0  -0.3126
  S  S8398  1  0.997840  0.799280  0.373460  1.0  -0.2193
  S  S8399  1  0.086960  0.328120  0.794630  1.0  -0.3126
  S  S8400  1  0.997840  0.299280  0.873460  1.0  -0.2193
  S  S8401  1  0.086960  0.421880  0.955370  1.0  -0.3124
  S  S8402  1  0.997840  0.450720  0.876540  1.0  -0.2195
  S  S8403  1  0.086960  0.921880  0.455370  1.0  -0.3124
  S  S8404  1  0.997840  0.950720  0.376540  1.0  -0.2195
  S  S8405  1  0.586960  0.421880  0.455370  1.0  -0.3124
  S  S8406  1  0.497840  0.450720  0.376540  1.0  -0.2195
  S  S8407  1  0.586960  0.921880  0.955370  1.0  -0.3124
  S  S8408  1  0.497840  0.950720  0.876540  1.0  -0.2195
  S  S8409  1  0.663040  0.921880  0.294630  1.0  -0.3111
  S  S8410  1  0.752160  0.950720  0.373460  1.0  -0.2189
  S  S8411  1  0.663040  0.421880  0.794630  1.0  -0.3111
  S  S8412  1  0.752160  0.450720  0.873460  1.0  -0.2189
  S  S8413  1  0.163040  0.921880  0.794630  1.0  -0.3111
  S  S8414  1  0.252160  0.950720  0.873460  1.0  -0.2189
  S  S8415  1  0.163040  0.421880  0.294630  1.0  -0.3111
  S  S8416  1  0.252160  0.450720  0.373460  1.0  -0.2189
  S  S8417  1  0.828120  0.794630  0.586960  1.0  -0.3116
  S  S8418  1  0.799280  0.873460  0.497840  1.0  -0.22
  S  S8419  1  0.828120  0.294630  0.086960  1.0  -0.3116
  S  S8420  1  0.799280  0.373460  0.997840  1.0  -0.22
  S  S8421  1  0.328120  0.794630  0.086960  1.0  -0.3116
  S  S8422  1  0.299280  0.873460  0.997840  1.0  -0.22
  S  S8423  1  0.328120  0.294630  0.586960  1.0  -0.3116
  S  S8424  1  0.299280  0.373460  0.497840  1.0  -0.22
  S  S8425  1  0.328120  0.455370  0.163040  1.0  -0.312
  S  S8426  1  0.299280  0.376540  0.252160  1.0  -0.2198
  S  S8427  1  0.328120  0.955370  0.663040  1.0  -0.312
  S  S8428  1  0.299280  0.876540  0.752160  1.0  -0.2198
  S  S8429  1  0.828120  0.455370  0.663040  1.0  -0.312
  S  S8430  1  0.799280  0.376540  0.752160  1.0  -0.2198
  S  S8431  1  0.828120  0.955370  0.163040  1.0  -0.312
  S  S8432  1  0.799280  0.876540  0.252160  1.0  -0.2198
  S  S8433  1  0.921880  0.294630  0.663040  1.0  -0.3107
  S  S8434  1  0.950720  0.373460  0.752160  1.0  -0.2175
  S  S8435  1  0.921880  0.794630  0.163040  1.0  -0.3107
  S  S8436  1  0.950720  0.873460  0.252160  1.0  -0.2175
  S  S8437  1  0.421880  0.294630  0.163040  1.0  -0.3107
  S  S8438  1  0.450720  0.373460  0.252160  1.0  -0.2175
  S  S8439  1  0.421880  0.794630  0.663040  1.0  -0.3107
  S  S8440  1  0.450720  0.873460  0.752160  1.0  -0.2175
  S  S8441  1  0.421880  0.955370  0.086960  1.0  -0.3101
  S  S8442  1  0.450720  0.876540  0.997840  1.0  -0.2176
  S  S8443  1  0.421880  0.455370  0.586960  1.0  -0.3101
  S  S8444  1  0.450720  0.376540  0.497840  1.0  -0.2176
  S  S8445  1  0.921880  0.955370  0.586960  1.0  -0.3101
  S  S8446  1  0.950720  0.876540  0.497840  1.0  -0.2176
  S  S8447  1  0.921880  0.455370  0.086960  1.0  -0.3101
  S  S8448  1  0.950720  0.376540  0.997840  1.0  -0.2176
  S  S8449  1  0.586960  0.455370  0.921880  1.0  -0.3127
  S  S8450  1  0.497840  0.376540  0.950720  1.0  -0.219
  S  S8451  1  0.586960  0.955370  0.421880  1.0  -0.3127
  S  S8452  1  0.497840  0.876540  0.450720  1.0  -0.219
  S  S8453  1  0.086960  0.455370  0.421880  1.0  -0.3127
  S  S8454  1  0.997840  0.376540  0.450720  1.0  -0.219
  S  S8455  1  0.086960  0.955370  0.921880  1.0  -0.3127
  S  S8456  1  0.997840  0.876540  0.950720  1.0  -0.219
  S  S8457  1  0.163040  0.794630  0.421880  1.0  -0.3115
  S  S8458  1  0.252160  0.873460  0.450720  1.0  -0.2187
  S  S8459  1  0.163040  0.294630  0.921880  1.0  -0.3115
  S  S8460  1  0.252160  0.373460  0.950720  1.0  -0.2187
  S  S8461  1  0.663040  0.794630  0.921880  1.0  -0.3115
  S  S8462  1  0.752160  0.873460  0.950720  1.0  -0.2187
  S  S8463  1  0.663040  0.294630  0.421880  1.0  -0.3115
  S  S8464  1  0.752160  0.373460  0.450720  1.0  -0.2187
  S  S8465  1  0.663040  0.955370  0.828120  1.0  -0.3116
  S  S8466  1  0.752160  0.876540  0.799280  1.0  -0.2174
  S  S8467  1  0.663040  0.455370  0.328120  1.0  -0.3116
  S  S8468  1  0.752160  0.376540  0.299280  1.0  -0.2174
  S  S8469  1  0.163040  0.955370  0.328120  1.0  -0.3116
  S  S8470  1  0.252160  0.876540  0.299280  1.0  -0.2174
  S  S8471  1  0.163040  0.455370  0.828120  1.0  -0.3116
  S  S8472  1  0.252160  0.376540  0.799280  1.0  -0.2174
  S  S8473  1  0.086960  0.294630  0.328120  1.0  -0.3123
  S  S8474  1  0.997840  0.373460  0.299280  1.0  -0.2175
  S  S8475  1  0.086960  0.794630  0.828120  1.0  -0.3123
  S  S8476  1  0.997840  0.873460  0.799280  1.0  -0.2175
  S  S8477  1  0.586960  0.294630  0.828120  1.0  -0.3123
  S  S8478  1  0.497840  0.373460  0.799280  1.0  -0.2175
  S  S8479  1  0.586960  0.794630  0.328120  1.0  -0.3123
  S  S8480  1  0.497840  0.873460  0.299280  1.0  -0.2175
  S  S8481  1  0.921880  0.586960  0.455370  1.0  -0.3103
  S  S8482  1  0.950720  0.497840  0.376540  1.0  -0.2178
  S  S8483  1  0.921880  0.086960  0.955370  1.0  -0.3103
  S  S8484  1  0.950720  0.997840  0.876540  1.0  -0.2178
  S  S8485  1  0.421880  0.586960  0.955370  1.0  -0.3103
  S  S8486  1  0.450720  0.497840  0.876540  1.0  -0.2178
  S  S8487  1  0.421880  0.086960  0.455370  1.0  -0.3103
  S  S8488  1  0.450720  0.997840  0.376540  1.0  -0.2178
  S  S8489  1  0.421880  0.163040  0.794630  1.0  -0.3105
  S  S8490  1  0.450720  0.252160  0.873460  1.0  -0.2176
  S  S8491  1  0.421880  0.663040  0.294630  1.0  -0.3105
  S  S8492  1  0.450720  0.752160  0.373460  1.0  -0.2176
  S  S8493  1  0.921880  0.163040  0.294630  1.0  -0.3105
  S  S8494  1  0.950720  0.252160  0.373460  1.0  -0.2176
  S  S8495  1  0.921880  0.663040  0.794630  1.0  -0.3105
  S  S8496  1  0.950720  0.752160  0.873460  1.0  -0.2176
  S  S8497  1  0.828120  0.663040  0.955370  1.0  -0.3123
  S  S8498  1  0.799280  0.752160  0.876540  1.0  -0.2202
  S  S8499  1  0.828120  0.163040  0.455370  1.0  -0.3123
  S  S8500  1  0.799280  0.252160  0.376540  1.0  -0.2202
  S  S8501  1  0.328120  0.663040  0.455370  1.0  -0.3123
  S  S8502  1  0.299280  0.752160  0.376540  1.0  -0.2202
  S  S8503  1  0.328120  0.163040  0.955370  1.0  -0.3123
  S  S8504  1  0.299280  0.252160  0.876540  1.0  -0.2202
  S  S8505  1  0.328120  0.086960  0.294630  1.0  -0.3116
  S  S8506  1  0.299280  0.997840  0.373460  1.0  -0.2202
  S  S8507  1  0.328120  0.586960  0.794630  1.0  -0.3116
  S  S8508  1  0.299280  0.497840  0.873460  1.0  -0.2202
  S  S8509  1  0.828120  0.086960  0.794630  1.0  -0.3116
  S  S8510  1  0.799280  0.997840  0.873460  1.0  -0.2202
  S  S8511  1  0.828120  0.586960  0.294630  1.0  -0.3116
  S  S8512  1  0.799280  0.497840  0.373460  1.0  -0.2202
  S  S8513  1  0.455370  0.921880  0.586960  1.0  -0.3117
  S  S8514  1  0.376540  0.950720  0.497840  1.0  -0.2197
  S  S8515  1  0.455370  0.421880  0.086960  1.0  -0.3117
  S  S8516  1  0.376540  0.450720  0.997840  1.0  -0.2197
  S  S8517  1  0.955370  0.921880  0.086960  1.0  -0.3117
  S  S8518  1  0.876540  0.950720  0.997840  1.0  -0.2197
  S  S8519  1  0.955370  0.421880  0.586960  1.0  -0.3117
  S  S8520  1  0.876540  0.450720  0.497840  1.0  -0.2197
  S  S8521  1  0.794630  0.421880  0.163040  1.0  -0.3118
  S  S8522  1  0.873460  0.450720  0.252160  1.0  -0.2195
  S  S8523  1  0.794630  0.921880  0.663040  1.0  -0.3118
  S  S8524  1  0.873460  0.950720  0.752160  1.0  -0.2195
  S  S8525  1  0.294630  0.421880  0.663040  1.0  -0.3118
  S  S8526  1  0.373460  0.450720  0.752160  1.0  -0.2195
  S  S8527  1  0.294630  0.921880  0.163040  1.0  -0.3118
  S  S8528  1  0.373460  0.950720  0.252160  1.0  -0.2195
  S  S8529  1  0.955370  0.828120  0.663040  1.0  -0.3119
  S  S8530  1  0.876540  0.799280  0.752160  1.0  -0.2198
  S  S8531  1  0.955370  0.328120  0.163040  1.0  -0.3119
  S  S8532  1  0.876540  0.299280  0.252160  1.0  -0.2198
  S  S8533  1  0.455370  0.828120  0.163040  1.0  -0.3119
  S  S8534  1  0.376540  0.799280  0.252160  1.0  -0.2198
  S  S8535  1  0.455370  0.328120  0.663040  1.0  -0.3119
  S  S8536  1  0.376540  0.299280  0.752160  1.0  -0.2198
  S  S8537  1  0.294630  0.328120  0.086960  1.0  -0.3117
  S  S8538  1  0.373460  0.299280  0.997840  1.0  -0.2194
  S  S8539  1  0.294630  0.828120  0.586960  1.0  -0.3117
  S  S8540  1  0.373460  0.799280  0.497840  1.0  -0.2194
  S  S8541  1  0.794630  0.328120  0.586960  1.0  -0.3117
  S  S8542  1  0.873460  0.299280  0.497840  1.0  -0.2194
  S  S8543  1  0.794630  0.828120  0.086960  1.0  -0.3117
  S  S8544  1  0.873460  0.799280  0.997840  1.0  -0.2194
  S  S8545  1  0.705370  0.336960  0.078120  1.0  -0.3109
  S  S8546  1  0.626540  0.247840  0.049280  1.0  -0.2183
  S  S8547  1  0.705370  0.836960  0.578120  1.0  -0.3109
  S  S8548  1  0.626540  0.747840  0.549280  1.0  -0.2183
  S  S8549  1  0.205370  0.336960  0.578120  1.0  -0.3109
  S  S8550  1  0.126540  0.247840  0.549280  1.0  -0.2183
  S  S8551  1  0.205370  0.836960  0.078120  1.0  -0.3109
  S  S8552  1  0.126540  0.747840  0.049280  1.0  -0.2183
  S  S8553  1  0.044630  0.913040  0.578120  1.0  -0.3125
  S  S8554  1  0.123460  0.002160  0.549280  1.0  -0.2178
  S  S8555  1  0.044630  0.413040  0.078120  1.0  -0.3125
  S  S8556  1  0.123460  0.502160  0.049280  1.0  -0.2178
  S  S8557  1  0.544630  0.913040  0.078120  1.0  -0.3125
  S  S8558  1  0.623460  0.002160  0.049280  1.0  -0.2178
  S  S8559  1  0.544630  0.413040  0.578120  1.0  -0.3125
  S  S8560  1  0.623460  0.502160  0.549280  1.0  -0.2178
  S  S8561  1  0.205370  0.413040  0.171880  1.0  -0.3124
  S  S8562  1  0.126540  0.502160  0.200720  1.0  -0.22
  S  S8563  1  0.205370  0.913040  0.671880  1.0  -0.3124
  S  S8564  1  0.126540  0.002160  0.700720  1.0  -0.22
  S  S8565  1  0.705370  0.413040  0.671880  1.0  -0.3124
  S  S8566  1  0.626540  0.502160  0.700720  1.0  -0.22
  S  S8567  1  0.705370  0.913040  0.171880  1.0  -0.3124
  S  S8568  1  0.626540  0.002160  0.200720  1.0  -0.22
  S  S8569  1  0.544630  0.836960  0.671880  1.0  -0.3121
  S  S8570  1  0.623460  0.747840  0.700720  1.0  -0.2189
  S  S8571  1  0.544630  0.336960  0.171880  1.0  -0.3121
  S  S8572  1  0.623460  0.247840  0.200720  1.0  -0.2189
  S  S8573  1  0.044630  0.836960  0.171880  1.0  -0.3121
  S  S8574  1  0.123460  0.747840  0.200720  1.0  -0.2189
  S  S8575  1  0.044630  0.336960  0.671880  1.0  -0.3121
  S  S8576  1  0.123460  0.247840  0.700720  1.0  -0.2189
  S  S8577  1  0.836960  0.671880  0.544630  1.0  -0.3125
  S  S8578  1  0.747840  0.700720  0.623460  1.0  -0.219
  S  S8579  1  0.836960  0.171880  0.044630  1.0  -0.3125
  S  S8580  1  0.747840  0.200720  0.123460  1.0  -0.219
  S  S8581  1  0.336960  0.671880  0.044630  1.0  -0.3125
  S  S8582  1  0.247840  0.700720  0.123460  1.0  -0.219
  S  S8583  1  0.336960  0.171880  0.544630  1.0  -0.3125
  S  S8584  1  0.247840  0.200720  0.623460  1.0  -0.219
  S  S8585  1  0.413040  0.171880  0.205370  1.0  -0.3114
  S  S8586  1  0.502160  0.200720  0.126540  1.0  -0.2193
  S  S8587  1  0.413040  0.671880  0.705370  1.0  -0.3114
  S  S8588  1  0.502160  0.700720  0.626540  1.0  -0.2193
  S  S8589  1  0.913040  0.171880  0.705370  1.0  -0.3114
  S  S8590  1  0.002160  0.200720  0.626540  1.0  -0.2193
  S  S8591  1  0.913040  0.671880  0.205370  1.0  -0.3114
  S  S8592  1  0.002160  0.700720  0.126540  1.0  -0.2193
  S  S8593  1  0.913040  0.578120  0.044630  1.0  -0.3121
  S  S8594  1  0.002160  0.549280  0.123460  1.0  -0.2192
  S  S8595  1  0.913040  0.078120  0.544630  1.0  -0.3121
  S  S8596  1  0.002160  0.049280  0.623460  1.0  -0.2192
  S  S8597  1  0.413040  0.578120  0.544630  1.0  -0.3121
  S  S8598  1  0.502160  0.549280  0.623460  1.0  -0.2192
  S  S8599  1  0.413040  0.078120  0.044630  1.0  -0.3121
  S  S8600  1  0.502160  0.049280  0.123460  1.0  -0.2192
  S  S8601  1  0.336960  0.078120  0.705370  1.0  -0.312
  S  S8602  1  0.247840  0.049280  0.626540  1.0  -0.2193
  S  S8603  1  0.336960  0.578120  0.205370  1.0  -0.312
  S  S8604  1  0.247840  0.549280  0.126540  1.0  -0.2193
  S  S8605  1  0.836960  0.078120  0.205370  1.0  -0.312
  S  S8606  1  0.747840  0.049280  0.126540  1.0  -0.2193
  S  S8607  1  0.836960  0.578120  0.705370  1.0  -0.312
  S  S8608  1  0.747840  0.549280  0.626540  1.0  -0.2193
  S  S8609  1  0.171880  0.205370  0.413040  1.0  -0.311
  S  S8610  1  0.200720  0.126540  0.502160  1.0  -0.2174
  S  S8611  1  0.171880  0.705370  0.913040  1.0  -0.311
  S  S8612  1  0.200720  0.626540  0.002160  1.0  -0.2174
  S  S8613  1  0.671880  0.205370  0.913040  1.0  -0.311
  S  S8614  1  0.700720  0.126540  0.002160  1.0  -0.2174
  S  S8615  1  0.671880  0.705370  0.413040  1.0  -0.311
  S  S8616  1  0.700720  0.626540  0.502160  1.0  -0.2174
  S  S8617  1  0.671880  0.544630  0.836960  1.0  -0.3102
  S  S8618  1  0.700720  0.623460  0.747840  1.0  -0.2177
  S  S8619  1  0.671880  0.044630  0.336960  1.0  -0.3102
  S  S8620  1  0.700720  0.123460  0.247840  1.0  -0.2177
  S  S8621  1  0.171880  0.544630  0.336960  1.0  -0.3102
  S  S8622  1  0.200720  0.623460  0.247840  1.0  -0.2177
  S  S8623  1  0.171880  0.044630  0.836960  1.0  -0.3102
  S  S8624  1  0.200720  0.123460  0.747840  1.0  -0.2177
  S  S8625  1  0.078120  0.705370  0.336960  1.0  -0.3114
  S  S8626  1  0.049280  0.626540  0.247840  1.0  -0.22
  S  S8627  1  0.078120  0.205370  0.836960  1.0  -0.3114
  S  S8628  1  0.049280  0.126540  0.747840  1.0  -0.22
  S  S8629  1  0.578120  0.705370  0.836960  1.0  -0.3114
  S  S8630  1  0.549280  0.626540  0.747840  1.0  -0.22
  S  S8631  1  0.578120  0.205370  0.336960  1.0  -0.3114
  S  S8632  1  0.549280  0.126540  0.247840  1.0  -0.22
  S  S8633  1  0.578120  0.044630  0.913040  1.0  -0.3122
  S  S8634  1  0.549280  0.123460  0.002160  1.0  -0.2198
  S  S8635  1  0.578120  0.544630  0.413040  1.0  -0.3122
  S  S8636  1  0.549280  0.623460  0.502160  1.0  -0.2198
  S  S8637  1  0.078120  0.044630  0.413040  1.0  -0.3122
  S  S8638  1  0.049280  0.123460  0.502160  1.0  -0.2198
  S  S8639  1  0.078120  0.544630  0.913040  1.0  -0.3122
  S  S8640  1  0.049280  0.623460  0.002160  1.0  -0.2198
  N  N8641  1  0.409040  0.616920  0.235250  1.0  -0.3289
  N  N8642  1  0.387150  0.524460  0.106990  1.0  -0.4341
  N  N8643  1  0.374970  0.515510  0.152420  1.0  -0.3417
  N  N8644  1  0.420400  0.560910  0.155820  1.0  -0.4421
  N  N8645  1  0.410340  0.570250  0.190290  1.0  -0.3978
  N  N8646  1  0.438870  0.587630  0.173870  1.0  -0.4509
  N  N8647  1  0.474320  0.600750  0.121850  1.0  -0.3103
  N  N8648  1  0.498810  0.626760  0.092380  1.0  -0.3796
  N  N8649  1  0.520090  0.598970  0.125240  1.0  -0.3147
  N  N8650  1  0.578310  0.563970  0.094280  1.0  -0.4643
  N  N8651  1  0.409040  0.116920  0.735250  1.0  -0.3289
  N  N8652  1  0.387150  0.024460  0.606990  1.0  -0.4341
  N  N8653  1  0.374970  0.015510  0.652420  1.0  -0.3417
  N  N8654  1  0.420400  0.060910  0.655820  1.0  -0.4421
  N  N8655  1  0.410340  0.070250  0.690290  1.0  -0.3978
  N  N8656  1  0.438870  0.087630  0.673870  1.0  -0.4509
  N  N8657  1  0.474320  0.100750  0.621850  1.0  -0.3103
  N  N8658  1  0.498810  0.126760  0.592380  1.0  -0.3796
  N  N8659  1  0.520090  0.098970  0.625240  1.0  -0.3147
  N  N8660  1  0.578310  0.063970  0.594280  1.0  -0.4643
  N  N8661  1  0.909040  0.616920  0.735250  1.0  -0.3289
  N  N8662  1  0.887150  0.524460  0.606990  1.0  -0.4341
  N  N8663  1  0.874970  0.515510  0.652420  1.0  -0.3417
  N  N8664  1  0.920400  0.560910  0.655820  1.0  -0.4421
  N  N8665  1  0.910340  0.570250  0.690290  1.0  -0.3978
  N  N8666  1  0.938870  0.587630  0.673870  1.0  -0.4509
  N  N8667  1  0.974320  0.600750  0.621850  1.0  -0.3103
  N  N8668  1  0.998810  0.626760  0.592380  1.0  -0.3796
  N  N8669  1  0.020090  0.598970  0.625240  1.0  -0.3147
  N  N8670  1  0.078310  0.563970  0.594280  1.0  -0.4643
  N  N8671  1  0.909040  0.116920  0.235250  1.0  -0.3289
  N  N8672  1  0.887150  0.024460  0.106990  1.0  -0.4341
  N  N8673  1  0.874970  0.015510  0.152420  1.0  -0.3417
  N  N8674  1  0.920400  0.060910  0.155820  1.0  -0.4421
  N  N8675  1  0.910340  0.070250  0.190290  1.0  -0.3978
  N  N8676  1  0.938870  0.087630  0.173870  1.0  -0.4509
  N  N8677  1  0.974320  0.100750  0.121850  1.0  -0.3103
  N  N8678  1  0.998810  0.126760  0.092380  1.0  -0.3796
  N  N8679  1  0.020090  0.098970  0.125240  1.0  -0.3147
  N  N8680  1  0.078310  0.063970  0.094280  1.0  -0.4643
  N  N8681  1  0.840960  0.133080  0.735250  1.0  -0.3287
  N  N8682  1  0.862850  0.225540  0.606990  1.0  -0.4334
  N  N8683  1  0.875030  0.234490  0.652420  1.0  -0.3406
  N  N8684  1  0.829600  0.189090  0.655820  1.0  -0.4426
  N  N8685  1  0.839660  0.179750  0.690290  1.0  -0.398
  N  N8686  1  0.811130  0.162370  0.673870  1.0  -0.4498
  N  N8687  1  0.775680  0.149250  0.621850  1.0  -0.312
  N  N8688  1  0.751190  0.123240  0.592380  1.0  -0.3795
  N  N8689  1  0.729910  0.151030  0.625240  1.0  -0.3141
  N  N8690  1  0.671690  0.186030  0.594280  1.0  -0.4645
  N  N8691  1  0.840960  0.633080  0.235250  1.0  -0.3287
  N  N8692  1  0.862850  0.725540  0.106990  1.0  -0.4334
  N  N8693  1  0.875030  0.734490  0.152420  1.0  -0.3406
  N  N8694  1  0.829600  0.689090  0.155820  1.0  -0.4426
  N  N8695  1  0.839660  0.679750  0.190290  1.0  -0.398
  N  N8696  1  0.811130  0.662370  0.173870  1.0  -0.4498
  N  N8697  1  0.775680  0.649250  0.121850  1.0  -0.312
  N  N8698  1  0.751190  0.623240  0.092380  1.0  -0.3795
  N  N8699  1  0.729910  0.651030  0.125240  1.0  -0.3141
  N  N8700  1  0.671690  0.686030  0.094280  1.0  -0.4645
  N  N8701  1  0.340960  0.133080  0.235250  1.0  -0.3287
  N  N8702  1  0.362850  0.225540  0.106990  1.0  -0.4334
  N  N8703  1  0.375030  0.234490  0.152420  1.0  -0.3406
  N  N8704  1  0.329600  0.189090  0.155820  1.0  -0.4426
  N  N8705  1  0.339660  0.179750  0.190290  1.0  -0.398
  N  N8706  1  0.311130  0.162370  0.173870  1.0  -0.4498
  N  N8707  1  0.275680  0.149250  0.121850  1.0  -0.312
  N  N8708  1  0.251190  0.123240  0.092380  1.0  -0.3795
  N  N8709  1  0.229910  0.151030  0.125240  1.0  -0.3141
  N  N8710  1  0.171690  0.186030  0.094280  1.0  -0.4645
  N  N8711  1  0.340960  0.633080  0.735250  1.0  -0.3287
  N  N8712  1  0.362850  0.725540  0.606990  1.0  -0.4334
  N  N8713  1  0.375030  0.734490  0.652420  1.0  -0.3406
  N  N8714  1  0.329600  0.689090  0.655820  1.0  -0.4426
  N  N8715  1  0.339660  0.679750  0.690290  1.0  -0.398
  N  N8716  1  0.311130  0.662370  0.673870  1.0  -0.4498
  N  N8717  1  0.275680  0.649250  0.621850  1.0  -0.312
  N  N8718  1  0.251190  0.623240  0.592380  1.0  -0.3795
  N  N8719  1  0.229910  0.651030  0.625240  1.0  -0.3141
  N  N8720  1  0.171690  0.686030  0.594280  1.0  -0.4645
  N  N8721  1  0.340960  0.116920  0.014750  1.0  -0.3286
  N  N8722  1  0.362850  0.024460  0.143010  1.0  -0.4322
  N  N8723  1  0.375030  0.015510  0.097580  1.0  -0.3413
  N  N8724  1  0.329600  0.060910  0.094180  1.0  -0.4418
  N  N8725  1  0.339660  0.070250  0.059710  1.0  -0.4006
  N  N8726  1  0.311130  0.087630  0.076130  1.0  -0.45
  N  N8727  1  0.275680  0.100750  0.128150  1.0  -0.3103
  N  N8728  1  0.251190  0.126760  0.157620  1.0  -0.379
  N  N8729  1  0.229910  0.098970  0.124760  1.0  -0.3136
  N  N8730  1  0.171690  0.063970  0.155720  1.0  -0.4648
  N  N8731  1  0.340960  0.616920  0.514750  1.0  -0.3286
  N  N8732  1  0.362850  0.524460  0.643010  1.0  -0.4322
  N  N8733  1  0.375030  0.515510  0.597580  1.0  -0.3413
  N  N8734  1  0.329600  0.560910  0.594180  1.0  -0.4418
  N  N8735  1  0.339660  0.570250  0.559710  1.0  -0.4006
  N  N8736  1  0.311130  0.587630  0.576130  1.0  -0.45
  N  N8737  1  0.275680  0.600750  0.628150  1.0  -0.3103
  N  N8738  1  0.251190  0.626760  0.657620  1.0  -0.379
  N  N8739  1  0.229910  0.598970  0.624760  1.0  -0.3136
  N  N8740  1  0.171690  0.563970  0.655720  1.0  -0.4648
  N  N8741  1  0.840960  0.116920  0.514750  1.0  -0.3286
  N  N8742  1  0.862850  0.024460  0.643010  1.0  -0.4322
  N  N8743  1  0.875030  0.015510  0.597580  1.0  -0.3413
  N  N8744  1  0.829600  0.060910  0.594180  1.0  -0.4418
  N  N8745  1  0.839660  0.070250  0.559710  1.0  -0.4006
  N  N8746  1  0.811130  0.087630  0.576130  1.0  -0.45
  N  N8747  1  0.775680  0.100750  0.628150  1.0  -0.3103
  N  N8748  1  0.751190  0.126760  0.657620  1.0  -0.379
  N  N8749  1  0.729910  0.098970  0.624760  1.0  -0.3136
  N  N8750  1  0.671690  0.063970  0.655720  1.0  -0.4648
  N  N8751  1  0.840960  0.616920  0.014750  1.0  -0.3286
  N  N8752  1  0.862850  0.524460  0.143010  1.0  -0.4322
  N  N8753  1  0.875030  0.515510  0.097580  1.0  -0.3413
  N  N8754  1  0.829600  0.560910  0.094180  1.0  -0.4418
  N  N8755  1  0.839660  0.570250  0.059710  1.0  -0.4006
  N  N8756  1  0.811130  0.587630  0.076130  1.0  -0.45
  N  N8757  1  0.775680  0.600750  0.128150  1.0  -0.3103
  N  N8758  1  0.751190  0.626760  0.157620  1.0  -0.379
  N  N8759  1  0.729910  0.598970  0.124760  1.0  -0.3136
  N  N8760  1  0.671690  0.563970  0.155720  1.0  -0.4648
  N  N8761  1  0.909040  0.633080  0.514750  1.0  -0.3293
  N  N8762  1  0.887150  0.725540  0.643010  1.0  -0.4346
  N  N8763  1  0.874970  0.734490  0.597580  1.0  -0.3415
  N  N8764  1  0.920400  0.689090  0.594180  1.0  -0.4413
  N  N8765  1  0.910340  0.679750  0.559710  1.0  -0.3995
  N  N8766  1  0.938870  0.662370  0.576130  1.0  -0.4503
  N  N8767  1  0.974320  0.649250  0.628150  1.0  -0.3112
  N  N8768  1  0.998810  0.623240  0.657620  1.0  -0.3787
  N  N8769  1  0.020090  0.651030  0.624760  1.0  -0.3154
  N  N8770  1  0.078310  0.686030  0.655720  1.0  -0.4642
  N  N8771  1  0.909040  0.133080  0.014750  1.0  -0.3293
  N  N8772  1  0.887150  0.225540  0.143010  1.0  -0.4346
  N  N8773  1  0.874970  0.234490  0.097580  1.0  -0.3415
  N  N8774  1  0.920400  0.189090  0.094180  1.0  -0.4413
  N  N8775  1  0.910340  0.179750  0.059710  1.0  -0.3995
  N  N8776  1  0.938870  0.162370  0.076130  1.0  -0.4503
  N  N8777  1  0.974320  0.149250  0.128150  1.0  -0.3112
  N  N8778  1  0.998810  0.123240  0.157620  1.0  -0.3787
  N  N8779  1  0.020090  0.151030  0.124760  1.0  -0.3154
  N  N8780  1  0.078310  0.186030  0.155720  1.0  -0.4642
  N  N8781  1  0.409040  0.633080  0.014750  1.0  -0.3293
  N  N8782  1  0.387150  0.725540  0.143010  1.0  -0.4346
  N  N8783  1  0.374970  0.734490  0.097580  1.0  -0.3415
  N  N8784  1  0.420400  0.689090  0.094180  1.0  -0.4413
  N  N8785  1  0.410340  0.679750  0.059710  1.0  -0.3995
  N  N8786  1  0.438870  0.662370  0.076130  1.0  -0.4503
  N  N8787  1  0.474320  0.649250  0.128150  1.0  -0.3112
  N  N8788  1  0.498810  0.623240  0.157620  1.0  -0.3787
  N  N8789  1  0.520090  0.651030  0.124760  1.0  -0.3154
  N  N8790  1  0.578310  0.686030  0.155720  1.0  -0.4642
  N  N8791  1  0.409040  0.133080  0.514750  1.0  -0.3293
  N  N8792  1  0.387150  0.225540  0.643010  1.0  -0.4346
  N  N8793  1  0.374970  0.234490  0.597580  1.0  -0.3415
  N  N8794  1  0.420400  0.189090  0.594180  1.0  -0.4413
  N  N8795  1  0.410340  0.179750  0.559710  1.0  -0.3995
  N  N8796  1  0.438870  0.162370  0.576130  1.0  -0.4503
  N  N8797  1  0.474320  0.149250  0.628150  1.0  -0.3112
  N  N8798  1  0.498810  0.123240  0.657620  1.0  -0.3787
  N  N8799  1  0.520090  0.151030  0.624760  1.0  -0.3154
  N  N8800  1  0.578310  0.186030  0.655720  1.0  -0.4642
  N  N8801  1  0.235250  0.409040  0.616920  1.0  -0.3303
  N  N8802  1  0.106990  0.387150  0.524460  1.0  -0.4332
  N  N8803  1  0.152420  0.374970  0.515510  1.0  -0.3387
  N  N8804  1  0.155820  0.420400  0.560910  1.0  -0.4432
  N  N8805  1  0.190290  0.410340  0.570250  1.0  -0.3995
  N  N8806  1  0.173870  0.438870  0.587630  1.0  -0.4517
  N  N8807  1  0.121850  0.474320  0.600750  1.0  -0.3133
  N  N8808  1  0.092380  0.498810  0.626760  1.0  -0.3872
  N  N8809  1  0.125240  0.520090  0.598970  1.0  -0.317
  N  N8810  1  0.094280  0.578310  0.563970  1.0  -0.4657
  N  N8811  1  0.235250  0.909040  0.116920  1.0  -0.3303
  N  N8812  1  0.106990  0.887150  0.024460  1.0  -0.4332
  N  N8813  1  0.152420  0.874970  0.015510  1.0  -0.3387
  N  N8814  1  0.155820  0.920400  0.060910  1.0  -0.4432
  N  N8815  1  0.190290  0.910340  0.070250  1.0  -0.3995
  N  N8816  1  0.173870  0.938870  0.087630  1.0  -0.4517
  N  N8817  1  0.121850  0.974320  0.100750  1.0  -0.3133
  N  N8818  1  0.092380  0.998810  0.126760  1.0  -0.3872
  N  N8819  1  0.125240  0.020090  0.098970  1.0  -0.317
  N  N8820  1  0.094280  0.078310  0.063970  1.0  -0.4657
  N  N8821  1  0.735250  0.409040  0.116920  1.0  -0.3303
  N  N8822  1  0.606990  0.387150  0.024460  1.0  -0.4332
  N  N8823  1  0.652420  0.374970  0.015510  1.0  -0.3387
  N  N8824  1  0.655820  0.420400  0.060910  1.0  -0.4432
  N  N8825  1  0.690290  0.410340  0.070250  1.0  -0.3995
  N  N8826  1  0.673870  0.438870  0.087630  1.0  -0.4517
  N  N8827  1  0.621850  0.474320  0.100750  1.0  -0.3133
  N  N8828  1  0.592380  0.498810  0.126760  1.0  -0.3872
  N  N8829  1  0.625240  0.520090  0.098970  1.0  -0.317
  N  N8830  1  0.594280  0.578310  0.063970  1.0  -0.4657
  N  N8831  1  0.735250  0.909040  0.616920  1.0  -0.3303
  N  N8832  1  0.606990  0.887150  0.524460  1.0  -0.4332
  N  N8833  1  0.652420  0.874970  0.515510  1.0  -0.3387
  N  N8834  1  0.655820  0.920400  0.560910  1.0  -0.4432
  N  N8835  1  0.690290  0.910340  0.570250  1.0  -0.3995
  N  N8836  1  0.673870  0.938870  0.587630  1.0  -0.4517
  N  N8837  1  0.621850  0.974320  0.600750  1.0  -0.3133
  N  N8838  1  0.592380  0.998810  0.626760  1.0  -0.3872
  N  N8839  1  0.625240  0.020090  0.598970  1.0  -0.317
  N  N8840  1  0.594280  0.078310  0.563970  1.0  -0.4657
  N  N8841  1  0.735250  0.840960  0.133080  1.0  -0.3299
  N  N8842  1  0.606990  0.862850  0.225540  1.0  -0.4321
  N  N8843  1  0.652420  0.875030  0.234490  1.0  -0.3382
  N  N8844  1  0.655820  0.829600  0.189090  1.0  -0.4428
  N  N8845  1  0.690290  0.839660  0.179750  1.0  -0.3992
  N  N8846  1  0.673870  0.811130  0.162370  1.0  -0.4502
  N  N8847  1  0.621850  0.775680  0.149250  1.0  -0.3139
  N  N8848  1  0.592380  0.751190  0.123240  1.0  -0.3876
  N  N8849  1  0.625240  0.729910  0.151030  1.0  -0.3175
  N  N8850  1  0.594280  0.671690  0.186030  1.0  -0.4656
  N  N8851  1  0.735250  0.340960  0.633080  1.0  -0.3299
  N  N8852  1  0.606990  0.362850  0.725540  1.0  -0.4321
  N  N8853  1  0.652420  0.375030  0.734490  1.0  -0.3382
  N  N8854  1  0.655820  0.329600  0.689090  1.0  -0.4428
  N  N8855  1  0.690290  0.339660  0.679750  1.0  -0.3992
  N  N8856  1  0.673870  0.311130  0.662370  1.0  -0.4502
  N  N8857  1  0.621850  0.275680  0.649250  1.0  -0.3139
  N  N8858  1  0.592380  0.251190  0.623240  1.0  -0.3876
  N  N8859  1  0.625240  0.229910  0.651030  1.0  -0.3175
  N  N8860  1  0.594280  0.171690  0.686030  1.0  -0.4656
  N  N8861  1  0.235250  0.840960  0.633080  1.0  -0.3299
  N  N8862  1  0.106990  0.862850  0.725540  1.0  -0.4321
  N  N8863  1  0.152420  0.875030  0.734490  1.0  -0.3382
  N  N8864  1  0.155820  0.829600  0.689090  1.0  -0.4428
  N  N8865  1  0.190290  0.839660  0.679750  1.0  -0.3992
  N  N8866  1  0.173870  0.811130  0.662370  1.0  -0.4502
  N  N8867  1  0.121850  0.775680  0.649250  1.0  -0.3139
  N  N8868  1  0.092380  0.751190  0.623240  1.0  -0.3876
  N  N8869  1  0.125240  0.729910  0.651030  1.0  -0.3175
  N  N8870  1  0.094280  0.671690  0.686030  1.0  -0.4656
  N  N8871  1  0.235250  0.340960  0.133080  1.0  -0.3299
  N  N8872  1  0.106990  0.362850  0.225540  1.0  -0.4321
  N  N8873  1  0.152420  0.375030  0.234490  1.0  -0.3382
  N  N8874  1  0.155820  0.329600  0.189090  1.0  -0.4428
  N  N8875  1  0.190290  0.339660  0.179750  1.0  -0.3992
  N  N8876  1  0.173870  0.311130  0.162370  1.0  -0.4502
  N  N8877  1  0.121850  0.275680  0.149250  1.0  -0.3139
  N  N8878  1  0.092380  0.251190  0.123240  1.0  -0.3876
  N  N8879  1  0.125240  0.229910  0.151030  1.0  -0.3175
  N  N8880  1  0.094280  0.171690  0.186030  1.0  -0.4656
  N  N8881  1  0.014750  0.340960  0.116920  1.0  -0.3295
  N  N8882  1  0.143010  0.362850  0.024460  1.0  -0.4331
  N  N8883  1  0.097580  0.375030  0.015510  1.0  -0.3391
  N  N8884  1  0.094180  0.329600  0.060910  1.0  -0.4455
  N  N8885  1  0.059710  0.339660  0.070250  1.0  -0.3991
  N  N8886  1  0.076130  0.311130  0.087630  1.0  -0.4497
  N  N8887  1  0.128150  0.275680  0.100750  1.0  -0.3128
  N  N8888  1  0.157620  0.251190  0.126760  1.0  -0.3857
  N  N8889  1  0.124760  0.229910  0.098970  1.0  -0.3171
  N  N8890  1  0.155720  0.171690  0.063970  1.0  -0.464
  N  N8891  1  0.014750  0.840960  0.616920  1.0  -0.3295
  N  N8892  1  0.143010  0.862850  0.524460  1.0  -0.4331
  N  N8893  1  0.097580  0.875030  0.515510  1.0  -0.3391
  N  N8894  1  0.094180  0.829600  0.560910  1.0  -0.4455
  N  N8895  1  0.059710  0.839660  0.570250  1.0  -0.3991
  N  N8896  1  0.076130  0.811130  0.587630  1.0  -0.4497
  N  N8897  1  0.128150  0.775680  0.600750  1.0  -0.3128
  N  N8898  1  0.157620  0.751190  0.626760  1.0  -0.3857
  N  N8899  1  0.124760  0.729910  0.598970  1.0  -0.3171
  N  N8900  1  0.155720  0.671690  0.563970  1.0  -0.464
  N  N8901  1  0.514750  0.340960  0.616920  1.0  -0.3295
  N  N8902  1  0.643010  0.362850  0.524460  1.0  -0.4331
  N  N8903  1  0.597580  0.375030  0.515510  1.0  -0.3391
  N  N8904  1  0.594180  0.329600  0.560910  1.0  -0.4455
  N  N8905  1  0.559710  0.339660  0.570250  1.0  -0.3991
  N  N8906  1  0.576130  0.311130  0.587630  1.0  -0.4497
  N  N8907  1  0.628150  0.275680  0.600750  1.0  -0.3128
  N  N8908  1  0.657620  0.251190  0.626760  1.0  -0.3857
  N  N8909  1  0.624760  0.229910  0.598970  1.0  -0.3171
  N  N8910  1  0.655720  0.171690  0.563970  1.0  -0.464
  N  N8911  1  0.514750  0.840960  0.116920  1.0  -0.3295
  N  N8912  1  0.643010  0.862850  0.024460  1.0  -0.4331
  N  N8913  1  0.597580  0.875030  0.015510  1.0  -0.3391
  N  N8914  1  0.594180  0.829600  0.060910  1.0  -0.4455
  N  N8915  1  0.559710  0.839660  0.070250  1.0  -0.3991
  N  N8916  1  0.576130  0.811130  0.087630  1.0  -0.4497
  N  N8917  1  0.628150  0.775680  0.100750  1.0  -0.3128
  N  N8918  1  0.657620  0.751190  0.126760  1.0  -0.3857
  N  N8919  1  0.624760  0.729910  0.098970  1.0  -0.3171
  N  N8920  1  0.655720  0.671690  0.063970  1.0  -0.464
  N  N8921  1  0.514750  0.909040  0.633080  1.0  -0.3294
  N  N8922  1  0.643010  0.887150  0.725540  1.0  -0.4332
  N  N8923  1  0.597580  0.874970  0.734490  1.0  -0.3382
  N  N8924  1  0.594180  0.920400  0.689090  1.0  -0.4451
  N  N8925  1  0.559710  0.910340  0.679750  1.0  -0.399
  N  N8926  1  0.576130  0.938870  0.662370  1.0  -0.4517
  N  N8927  1  0.628150  0.974320  0.649250  1.0  -0.3134
  N  N8928  1  0.657620  0.998810  0.623240  1.0  -0.3851
  N  N8929  1  0.624760  0.020090  0.651030  1.0  -0.318
  N  N8930  1  0.655720  0.078310  0.686030  1.0  -0.4637
  N  N8931  1  0.514750  0.409040  0.133080  1.0  -0.3294
  N  N8932  1  0.643010  0.387150  0.225540  1.0  -0.4332
  N  N8933  1  0.597580  0.374970  0.234490  1.0  -0.3382
  N  N8934  1  0.594180  0.420400  0.189090  1.0  -0.4451
  N  N8935  1  0.559710  0.410340  0.179750  1.0  -0.399
  N  N8936  1  0.576130  0.438870  0.162370  1.0  -0.4517
  N  N8937  1  0.628150  0.474320  0.149250  1.0  -0.3134
  N  N8938  1  0.657620  0.498810  0.123240  1.0  -0.3851
  N  N8939  1  0.624760  0.520090  0.151030  1.0  -0.318
  N  N8940  1  0.655720  0.578310  0.186030  1.0  -0.4637
  N  N8941  1  0.014750  0.909040  0.133080  1.0  -0.3294
  N  N8942  1  0.143010  0.887150  0.225540  1.0  -0.4332
  N  N8943  1  0.097580  0.874970  0.234490  1.0  -0.3382
  N  N8944  1  0.094180  0.920400  0.189090  1.0  -0.4451
  N  N8945  1  0.059710  0.910340  0.179750  1.0  -0.399
  N  N8946  1  0.076130  0.938870  0.162370  1.0  -0.4517
  N  N8947  1  0.128150  0.974320  0.149250  1.0  -0.3134
  N  N8948  1  0.157620  0.998810  0.123240  1.0  -0.3851
  N  N8949  1  0.124760  0.020090  0.151030  1.0  -0.318
  N  N8950  1  0.155720  0.078310  0.186030  1.0  -0.4637
  N  N8951  1  0.014750  0.409040  0.633080  1.0  -0.3294
  N  N8952  1  0.143010  0.387150  0.725540  1.0  -0.4332
  N  N8953  1  0.097580  0.374970  0.734490  1.0  -0.3382
  N  N8954  1  0.094180  0.420400  0.689090  1.0  -0.4451
  N  N8955  1  0.059710  0.410340  0.679750  1.0  -0.399
  N  N8956  1  0.076130  0.438870  0.662370  1.0  -0.4517
  N  N8957  1  0.128150  0.474320  0.649250  1.0  -0.3134
  N  N8958  1  0.157620  0.498810  0.623240  1.0  -0.3851
  N  N8959  1  0.124760  0.520090  0.651030  1.0  -0.318
  N  N8960  1  0.155720  0.578310  0.686030  1.0  -0.4637
  N  N8961  1  0.616920  0.235250  0.409040  1.0  -0.3349
  N  N8962  1  0.524460  0.106990  0.387150  1.0  -0.4319
  N  N8963  1  0.515510  0.152420  0.374970  1.0  -0.3388
  N  N8964  1  0.560910  0.155820  0.420400  1.0  -0.4408
  N  N8965  1  0.570250  0.190290  0.410340  1.0  -0.3987
  N  N8966  1  0.587630  0.173870  0.438870  1.0  -0.451
  N  N8967  1  0.600750  0.121850  0.474320  1.0  -0.3099
  N  N8968  1  0.626760  0.092380  0.498810  1.0  -0.3812
  N  N8969  1  0.598970  0.125240  0.520090  1.0  -0.3133
  N  N8970  1  0.563970  0.094280  0.578310  1.0  -0.4653
  N  N8971  1  0.616920  0.735250  0.909040  1.0  -0.3349
  N  N8972  1  0.524460  0.606990  0.887150  1.0  -0.4319
  N  N8973  1  0.515510  0.652420  0.874970  1.0  -0.3388
  N  N8974  1  0.560910  0.655820  0.920400  1.0  -0.4408
  N  N8975  1  0.570250  0.690290  0.910340  1.0  -0.3987
  N  N8976  1  0.587630  0.673870  0.938870  1.0  -0.451
  N  N8977  1  0.600750  0.621850  0.974320  1.0  -0.3099
  N  N8978  1  0.626760  0.592380  0.998810  1.0  -0.3812
  N  N8979  1  0.598970  0.625240  0.020090  1.0  -0.3133
  N  N8980  1  0.563970  0.594280  0.078310  1.0  -0.4653
  N  N8981  1  0.116920  0.235250  0.909040  1.0  -0.3349
  N  N8982  1  0.024460  0.106990  0.887150  1.0  -0.4319
  N  N8983  1  0.015510  0.152420  0.874970  1.0  -0.3388
  N  N8984  1  0.060910  0.155820  0.920400  1.0  -0.4408
  N  N8985  1  0.070250  0.190290  0.910340  1.0  -0.3987
  N  N8986  1  0.087630  0.173870  0.938870  1.0  -0.451
  N  N8987  1  0.100750  0.121850  0.974320  1.0  -0.3099
  N  N8988  1  0.126760  0.092380  0.998810  1.0  -0.3812
  N  N8989  1  0.098970  0.125240  0.020090  1.0  -0.3133
  N  N8990  1  0.063970  0.094280  0.078310  1.0  -0.4653
  N  N8991  1  0.116920  0.735250  0.409040  1.0  -0.3349
  N  N8992  1  0.024460  0.606990  0.387150  1.0  -0.4319
  N  N8993  1  0.015510  0.652420  0.374970  1.0  -0.3388
  N  N8994  1  0.060910  0.655820  0.420400  1.0  -0.4408
  N  N8995  1  0.070250  0.690290  0.410340  1.0  -0.3987
  N  N8996  1  0.087630  0.673870  0.438870  1.0  -0.451
  N  N8997  1  0.100750  0.621850  0.474320  1.0  -0.3099
  N  N8998  1  0.126760  0.592380  0.498810  1.0  -0.3812
  N  N8999  1  0.098970  0.625240  0.520090  1.0  -0.3133
  N  N9000  1  0.063970  0.594280  0.578310  1.0  -0.4653
  N  N9001  1  0.133080  0.735250  0.840960  1.0  -0.3337
  N  N9002  1  0.225540  0.606990  0.862850  1.0  -0.4327
  N  N9003  1  0.234490  0.652420  0.875030  1.0  -0.3397
  N  N9004  1  0.189090  0.655820  0.829600  1.0  -0.4403
  N  N9005  1  0.179750  0.690290  0.839660  1.0  -0.3984
  N  N9006  1  0.162370  0.673870  0.811130  1.0  -0.4508
  N  N9007  1  0.149250  0.621850  0.775680  1.0  -0.3108
  N  N9008  1  0.123240  0.592380  0.751190  1.0  -0.3807
  N  N9009  1  0.151030  0.625240  0.729910  1.0  -0.3139
  N  N9010  1  0.186030  0.594280  0.671690  1.0  -0.4651
  N  N9011  1  0.133080  0.235250  0.340960  1.0  -0.3337
  N  N9012  1  0.225540  0.106990  0.362850  1.0  -0.4327
  N  N9013  1  0.234490  0.152420  0.375030  1.0  -0.3397
  N  N9014  1  0.189090  0.155820  0.329600  1.0  -0.4403
  N  N9015  1  0.179750  0.190290  0.339660  1.0  -0.3984
  N  N9016  1  0.162370  0.173870  0.311130  1.0  -0.4508
  N  N9017  1  0.149250  0.121850  0.275680  1.0  -0.3108
  N  N9018  1  0.123240  0.092380  0.251190  1.0  -0.3807
  N  N9019  1  0.151030  0.125240  0.229910  1.0  -0.3139
  N  N9020  1  0.186030  0.094280  0.171690  1.0  -0.4651
  N  N9021  1  0.633080  0.735250  0.340960  1.0  -0.3337
  N  N9022  1  0.725540  0.606990  0.362850  1.0  -0.4327
  N  N9023  1  0.734490  0.652420  0.375030  1.0  -0.3397
  N  N9024  1  0.689090  0.655820  0.329600  1.0  -0.4403
  N  N9025  1  0.679750  0.690290  0.339660  1.0  -0.3984
  N  N9026  1  0.662370  0.673870  0.311130  1.0  -0.4508
  N  N9027  1  0.649250  0.621850  0.275680  1.0  -0.3108
  N  N9028  1  0.623240  0.592380  0.251190  1.0  -0.3807
  N  N9029  1  0.651030  0.625240  0.229910  1.0  -0.3139
  N  N9030  1  0.686030  0.594280  0.171690  1.0  -0.4651
  N  N9031  1  0.633080  0.235250  0.840960  1.0  -0.3337
  N  N9032  1  0.725540  0.106990  0.862850  1.0  -0.4327
  N  N9033  1  0.734490  0.152420  0.875030  1.0  -0.3397
  N  N9034  1  0.689090  0.155820  0.829600  1.0  -0.4403
  N  N9035  1  0.679750  0.190290  0.839660  1.0  -0.3984
  N  N9036  1  0.662370  0.173870  0.811130  1.0  -0.4508
  N  N9037  1  0.649250  0.121850  0.775680  1.0  -0.3108
  N  N9038  1  0.623240  0.092380  0.751190  1.0  -0.3807
  N  N9039  1  0.651030  0.125240  0.729910  1.0  -0.3139
  N  N9040  1  0.686030  0.094280  0.671690  1.0  -0.4651
  N  N9041  1  0.116920  0.014750  0.340960  1.0  -0.334
  N  N9042  1  0.024460  0.143010  0.362850  1.0  -0.4332
  N  N9043  1  0.015510  0.097580  0.375030  1.0  -0.3394
  N  N9044  1  0.060910  0.094180  0.329600  1.0  -0.4406
  N  N9045  1  0.070250  0.059710  0.339660  1.0  -0.3977
  N  N9046  1  0.087630  0.076130  0.311130  1.0  -0.4514
  N  N9047  1  0.100750  0.128150  0.275680  1.0  -0.3109
  N  N9048  1  0.126760  0.157620  0.251190  1.0  -0.378
  N  N9049  1  0.098970  0.124760  0.229910  1.0  -0.3135
  N  N9050  1  0.063970  0.155720  0.171690  1.0  -0.4641
  N  N9051  1  0.116920  0.514750  0.840960  1.0  -0.334
  N  N9052  1  0.024460  0.643010  0.862850  1.0  -0.4332
  N  N9053  1  0.015510  0.597580  0.875030  1.0  -0.3394
  N  N9054  1  0.060910  0.594180  0.829600  1.0  -0.4406
  N  N9055  1  0.070250  0.559710  0.839660  1.0  -0.3977
  N  N9056  1  0.087630  0.576130  0.811130  1.0  -0.4514
  N  N9057  1  0.100750  0.628150  0.775680  1.0  -0.3109
  N  N9058  1  0.126760  0.657620  0.751190  1.0  -0.378
  N  N9059  1  0.098970  0.624760  0.729910  1.0  -0.3135
  N  N9060  1  0.063970  0.655720  0.671690  1.0  -0.4641
  N  N9061  1  0.616920  0.014750  0.840960  1.0  -0.334
  N  N9062  1  0.524460  0.143010  0.862850  1.0  -0.4332
  N  N9063  1  0.515510  0.097580  0.875030  1.0  -0.3394
  N  N9064  1  0.560910  0.094180  0.829600  1.0  -0.4406
  N  N9065  1  0.570250  0.059710  0.839660  1.0  -0.3977
  N  N9066  1  0.587630  0.076130  0.811130  1.0  -0.4514
  N  N9067  1  0.600750  0.128150  0.775680  1.0  -0.3109
  N  N9068  1  0.626760  0.157620  0.751190  1.0  -0.378
  N  N9069  1  0.598970  0.124760  0.729910  1.0  -0.3135
  N  N9070  1  0.563970  0.155720  0.671690  1.0  -0.4641
  N  N9071  1  0.616920  0.514750  0.340960  1.0  -0.334
  N  N9072  1  0.524460  0.643010  0.362850  1.0  -0.4332
  N  N9073  1  0.515510  0.597580  0.375030  1.0  -0.3394
  N  N9074  1  0.560910  0.594180  0.329600  1.0  -0.4406
  N  N9075  1  0.570250  0.559710  0.339660  1.0  -0.3977
  N  N9076  1  0.587630  0.576130  0.311130  1.0  -0.4514
  N  N9077  1  0.600750  0.628150  0.275680  1.0  -0.3109
  N  N9078  1  0.626760  0.657620  0.251190  1.0  -0.378
  N  N9079  1  0.598970  0.624760  0.229910  1.0  -0.3135
  N  N9080  1  0.563970  0.655720  0.171690  1.0  -0.4641
  N  N9081  1  0.633080  0.514750  0.909040  1.0  -0.336
  N  N9082  1  0.725540  0.643010  0.887150  1.0  -0.4327
  N  N9083  1  0.734490  0.597580  0.874970  1.0  -0.3402
  N  N9084  1  0.689090  0.594180  0.920400  1.0  -0.4405
  N  N9085  1  0.679750  0.559710  0.910340  1.0  -0.3997
  N  N9086  1  0.662370  0.576130  0.938870  1.0  -0.4495
  N  N9087  1  0.649250  0.628150  0.974320  1.0  -0.3104
  N  N9088  1  0.623240  0.657620  0.998810  1.0  -0.3799
  N  N9089  1  0.651030  0.624760  0.020090  1.0  -0.3135
  N  N9090  1  0.686030  0.655720  0.078310  1.0  -0.4642
  N  N9091  1  0.633080  0.014750  0.409040  1.0  -0.336
  N  N9092  1  0.725540  0.143010  0.387150  1.0  -0.4327
  N  N9093  1  0.734490  0.097580  0.374970  1.0  -0.3402
  N  N9094  1  0.689090  0.094180  0.420400  1.0  -0.4405
  N  N9095  1  0.679750  0.059710  0.410340  1.0  -0.3997
  N  N9096  1  0.662370  0.076130  0.438870  1.0  -0.4495
  N  N9097  1  0.649250  0.128150  0.474320  1.0  -0.3104
  N  N9098  1  0.623240  0.157620  0.498810  1.0  -0.3799
  N  N9099  1  0.651030  0.124760  0.520090  1.0  -0.3135
  N  N9100  1  0.686030  0.155720  0.578310  1.0  -0.4642
  N  N9101  1  0.133080  0.514750  0.409040  1.0  -0.336
  N  N9102  1  0.225540  0.643010  0.387150  1.0  -0.4327
  N  N9103  1  0.234490  0.597580  0.374970  1.0  -0.3402
  N  N9104  1  0.189090  0.594180  0.420400  1.0  -0.4405
  N  N9105  1  0.179750  0.559710  0.410340  1.0  -0.3997
  N  N9106  1  0.162370  0.576130  0.438870  1.0  -0.4495
  N  N9107  1  0.149250  0.628150  0.474320  1.0  -0.3104
  N  N9108  1  0.123240  0.657620  0.498810  1.0  -0.3799
  N  N9109  1  0.151030  0.624760  0.520090  1.0  -0.3135
  N  N9110  1  0.186030  0.655720  0.578310  1.0  -0.4642
  N  N9111  1  0.133080  0.014750  0.909040  1.0  -0.336
  N  N9112  1  0.225540  0.143010  0.887150  1.0  -0.4327
  N  N9113  1  0.234490  0.097580  0.874970  1.0  -0.3402
  N  N9114  1  0.189090  0.094180  0.920400  1.0  -0.4405
  N  N9115  1  0.179750  0.059710  0.910340  1.0  -0.3997
  N  N9116  1  0.162370  0.076130  0.938870  1.0  -0.4495
  N  N9117  1  0.149250  0.128150  0.974320  1.0  -0.3104
  N  N9118  1  0.123240  0.157620  0.998810  1.0  -0.3799
  N  N9119  1  0.151030  0.124760  0.020090  1.0  -0.3135
  N  N9120  1  0.186030  0.155720  0.078310  1.0  -0.4642
  N  N9121  1  0.366920  0.659040  0.764750  1.0  -0.3332
  N  N9122  1  0.274460  0.637150  0.893010  1.0  -0.4334
  N  N9123  1  0.265510  0.624970  0.847580  1.0  -0.3395
  N  N9124  1  0.310910  0.670400  0.844180  1.0  -0.4413
  N  N9125  1  0.320250  0.660340  0.809710  1.0  -0.4002
  N  N9126  1  0.337630  0.688870  0.826130  1.0  -0.4505
  N  N9127  1  0.350750  0.724320  0.878150  1.0  -0.3111
  N  N9128  1  0.376760  0.748810  0.907620  1.0  -0.3782
  N  N9129  1  0.348970  0.770090  0.874760  1.0  -0.3143
  N  N9130  1  0.313970  0.828310  0.905720  1.0  -0.4644
  N  N9131  1  0.366920  0.159040  0.264750  1.0  -0.3332
  N  N9132  1  0.274460  0.137150  0.393010  1.0  -0.4334
  N  N9133  1  0.265510  0.124970  0.347580  1.0  -0.3395
  N  N9134  1  0.310910  0.170400  0.344180  1.0  -0.4413
  N  N9135  1  0.320250  0.160340  0.309710  1.0  -0.4002
  N  N9136  1  0.337630  0.188870  0.326130  1.0  -0.4505
  N  N9137  1  0.350750  0.224320  0.378150  1.0  -0.3111
  N  N9138  1  0.376760  0.248810  0.407620  1.0  -0.3782
  N  N9139  1  0.348970  0.270090  0.374760  1.0  -0.3143
  N  N9140  1  0.313970  0.328310  0.405720  1.0  -0.4644
  N  N9141  1  0.866920  0.659040  0.264750  1.0  -0.3332
  N  N9142  1  0.774460  0.637150  0.393010  1.0  -0.4334
  N  N9143  1  0.765510  0.624970  0.347580  1.0  -0.3395
  N  N9144  1  0.810910  0.670400  0.344180  1.0  -0.4413
  N  N9145  1  0.820250  0.660340  0.309710  1.0  -0.4002
  N  N9146  1  0.837630  0.688870  0.326130  1.0  -0.4505
  N  N9147  1  0.850750  0.724320  0.378150  1.0  -0.3111
  N  N9148  1  0.876760  0.748810  0.407620  1.0  -0.3782
  N  N9149  1  0.848970  0.770090  0.374760  1.0  -0.3143
  N  N9150  1  0.813970  0.828310  0.405720  1.0  -0.4644
  N  N9151  1  0.866920  0.159040  0.764750  1.0  -0.3332
  N  N9152  1  0.774460  0.137150  0.893010  1.0  -0.4334
  N  N9153  1  0.765510  0.124970  0.847580  1.0  -0.3395
  N  N9154  1  0.810910  0.170400  0.844180  1.0  -0.4413
  N  N9155  1  0.820250  0.160340  0.809710  1.0  -0.4002
  N  N9156  1  0.837630  0.188870  0.826130  1.0  -0.4505
  N  N9157  1  0.850750  0.224320  0.878150  1.0  -0.3111
  N  N9158  1  0.876760  0.248810  0.907620  1.0  -0.3782
  N  N9159  1  0.848970  0.270090  0.874760  1.0  -0.3143
  N  N9160  1  0.813970  0.328310  0.905720  1.0  -0.4644
  N  N9161  1  0.883080  0.090960  0.264750  1.0  -0.3332
  N  N9162  1  0.975540  0.112850  0.393010  1.0  -0.4332
  N  N9163  1  0.984490  0.125030  0.347580  1.0  -0.3401
  N  N9164  1  0.939090  0.079600  0.344180  1.0  -0.4415
  N  N9165  1  0.929750  0.089660  0.309710  1.0  -0.4005
  N  N9166  1  0.912370  0.061130  0.326130  1.0  -0.4485
  N  N9167  1  0.899250  0.025680  0.378150  1.0  -0.3112
  N  N9168  1  0.873240  0.001190  0.407620  1.0  -0.3794
  N  N9169  1  0.901030  0.979910  0.374760  1.0  -0.3147
  N  N9170  1  0.936030  0.921690  0.405720  1.0  -0.4653
  N  N9171  1  0.883080  0.590960  0.764750  1.0  -0.3332
  N  N9172  1  0.975540  0.612850  0.893010  1.0  -0.4332
  N  N9173  1  0.984490  0.625030  0.847580  1.0  -0.3401
  N  N9174  1  0.939090  0.579600  0.844180  1.0  -0.4415
  N  N9175  1  0.929750  0.589660  0.809710  1.0  -0.4005
  N  N9176  1  0.912370  0.561130  0.826130  1.0  -0.4485
  N  N9177  1  0.899250  0.525680  0.878150  1.0  -0.3112
  N  N9178  1  0.873240  0.501190  0.907620  1.0  -0.3794
  N  N9179  1  0.901030  0.479910  0.874760  1.0  -0.3147
  N  N9180  1  0.936030  0.421690  0.905720  1.0  -0.4653
  N  N9181  1  0.383080  0.090960  0.764750  1.0  -0.3332
  N  N9182  1  0.475540  0.112850  0.893010  1.0  -0.4332
  N  N9183  1  0.484490  0.125030  0.847580  1.0  -0.3401
  N  N9184  1  0.439090  0.079600  0.844180  1.0  -0.4415
  N  N9185  1  0.429750  0.089660  0.809710  1.0  -0.4005
  N  N9186  1  0.412370  0.061130  0.826130  1.0  -0.4485
  N  N9187  1  0.399250  0.025680  0.878150  1.0  -0.3112
  N  N9188  1  0.373240  0.001190  0.907620  1.0  -0.3794
  N  N9189  1  0.401030  0.979910  0.874760  1.0  -0.3147
  N  N9190  1  0.436030  0.921690  0.905720  1.0  -0.4653
  N  N9191  1  0.383080  0.590960  0.264750  1.0  -0.3332
  N  N9192  1  0.475540  0.612850  0.393010  1.0  -0.4332
  N  N9193  1  0.484490  0.625030  0.347580  1.0  -0.3401
  N  N9194  1  0.439090  0.579600  0.344180  1.0  -0.4415
  N  N9195  1  0.429750  0.589660  0.309710  1.0  -0.4005
  N  N9196  1  0.412370  0.561130  0.326130  1.0  -0.4485
  N  N9197  1  0.399250  0.525680  0.378150  1.0  -0.3112
  N  N9198  1  0.373240  0.501190  0.407620  1.0  -0.3794
  N  N9199  1  0.401030  0.479910  0.374760  1.0  -0.3147
  N  N9200  1  0.436030  0.421690  0.405720  1.0  -0.4653
  N  N9201  1  0.866920  0.590960  0.985250  1.0  -0.3331
  N  N9202  1  0.774460  0.612850  0.856990  1.0  -0.4337
  N  N9203  1  0.765510  0.625030  0.902420  1.0  -0.3385
  N  N9204  1  0.810910  0.579600  0.905820  1.0  -0.442
  N  N9205  1  0.820250  0.589660  0.940290  1.0  -0.3981
  N  N9206  1  0.837630  0.561130  0.923870  1.0  -0.4486
  N  N9207  1  0.850750  0.525680  0.871850  1.0  -0.3113
  N  N9208  1  0.876760  0.501190  0.842380  1.0  -0.3787
  N  N9209  1  0.848970  0.479910  0.875240  1.0  -0.3139
  N  N9210  1  0.813970  0.421690  0.844280  1.0  -0.4648
  N  N9211  1  0.866920  0.090960  0.485250  1.0  -0.3331
  N  N9212  1  0.774460  0.112850  0.356990  1.0  -0.4337
  N  N9213  1  0.765510  0.125030  0.402420  1.0  -0.3385
  N  N9214  1  0.810910  0.079600  0.405820  1.0  -0.442
  N  N9215  1  0.820250  0.089660  0.440290  1.0  -0.3981
  N  N9216  1  0.837630  0.061130  0.423870  1.0  -0.4486
  N  N9217  1  0.850750  0.025680  0.371850  1.0  -0.3113
  N  N9218  1  0.876760  0.001190  0.342380  1.0  -0.3787
  N  N9219  1  0.848970  0.979910  0.375240  1.0  -0.3139
  N  N9220  1  0.813970  0.921690  0.344280  1.0  -0.4648
  N  N9221  1  0.366920  0.590960  0.485250  1.0  -0.3331
  N  N9222  1  0.274460  0.612850  0.356990  1.0  -0.4337
  N  N9223  1  0.265510  0.625030  0.402420  1.0  -0.3385
  N  N9224  1  0.310910  0.579600  0.405820  1.0  -0.442
  N  N9225  1  0.320250  0.589660  0.440290  1.0  -0.3981
  N  N9226  1  0.337630  0.561130  0.423870  1.0  -0.4486
  N  N9227  1  0.350750  0.525680  0.371850  1.0  -0.3113
  N  N9228  1  0.376760  0.501190  0.342380  1.0  -0.3787
  N  N9229  1  0.348970  0.479910  0.375240  1.0  -0.3139
  N  N9230  1  0.313970  0.421690  0.344280  1.0  -0.4648
  N  N9231  1  0.366920  0.090960  0.985250  1.0  -0.3331
  N  N9232  1  0.274460  0.112850  0.856990  1.0  -0.4337
  N  N9233  1  0.265510  0.125030  0.902420  1.0  -0.3385
  N  N9234  1  0.310910  0.079600  0.905820  1.0  -0.442
  N  N9235  1  0.320250  0.089660  0.940290  1.0  -0.3981
  N  N9236  1  0.337630  0.061130  0.923870  1.0  -0.4486
  N  N9237  1  0.350750  0.025680  0.871850  1.0  -0.3113
  N  N9238  1  0.376760  0.001190  0.842380  1.0  -0.3787
  N  N9239  1  0.348970  0.979910  0.875240  1.0  -0.3139
  N  N9240  1  0.313970  0.921690  0.844280  1.0  -0.4648
  N  N9241  1  0.383080  0.159040  0.485250  1.0  -0.3333
  N  N9242  1  0.475540  0.137150  0.356990  1.0  -0.4336
  N  N9243  1  0.484490  0.124970  0.402420  1.0  -0.3397
  N  N9244  1  0.439090  0.170400  0.405820  1.0  -0.4422
  N  N9245  1  0.429750  0.160340  0.440290  1.0  -0.3989
  N  N9246  1  0.412370  0.188870  0.423870  1.0  -0.4496
  N  N9247  1  0.399250  0.224320  0.371850  1.0  -0.3115
  N  N9248  1  0.373240  0.248810  0.342380  1.0  -0.3796
  N  N9249  1  0.401030  0.270090  0.375240  1.0  -0.3149
  N  N9250  1  0.436030  0.328310  0.344280  1.0  -0.465
  N  N9251  1  0.383080  0.659040  0.985250  1.0  -0.3333
  N  N9252  1  0.475540  0.637150  0.856990  1.0  -0.4336
  N  N9253  1  0.484490  0.624970  0.902420  1.0  -0.3397
  N  N9254  1  0.439090  0.670400  0.905820  1.0  -0.4422
  N  N9255  1  0.429750  0.660340  0.940290  1.0  -0.3989
  N  N9256  1  0.412370  0.688870  0.923870  1.0  -0.4496
  N  N9257  1  0.399250  0.724320  0.871850  1.0  -0.3115
  N  N9258  1  0.373240  0.748810  0.842380  1.0  -0.3796
  N  N9259  1  0.401030  0.770090  0.875240  1.0  -0.3149
  N  N9260  1  0.436030  0.828310  0.844280  1.0  -0.465
  N  N9261  1  0.883080  0.159040  0.985250  1.0  -0.3333
  N  N9262  1  0.975540  0.137150  0.856990  1.0  -0.4336
  N  N9263  1  0.984490  0.124970  0.902420  1.0  -0.3397
  N  N9264  1  0.939090  0.170400  0.905820  1.0  -0.4422
  N  N9265  1  0.929750  0.160340  0.940290  1.0  -0.3989
  N  N9266  1  0.912370  0.188870  0.923870  1.0  -0.4496
  N  N9267  1  0.899250  0.224320  0.871850  1.0  -0.3115
  N  N9268  1  0.873240  0.248810  0.842380  1.0  -0.3796
  N  N9269  1  0.901030  0.270090  0.875240  1.0  -0.3149
  N  N9270  1  0.936030  0.328310  0.844280  1.0  -0.465
  N  N9271  1  0.883080  0.659040  0.485250  1.0  -0.3333
  N  N9272  1  0.975540  0.637150  0.356990  1.0  -0.4336
  N  N9273  1  0.984490  0.624970  0.402420  1.0  -0.3397
  N  N9274  1  0.939090  0.670400  0.405820  1.0  -0.4422
  N  N9275  1  0.929750  0.660340  0.440290  1.0  -0.3989
  N  N9276  1  0.912370  0.688870  0.423870  1.0  -0.4496
  N  N9277  1  0.899250  0.724320  0.371850  1.0  -0.3115
  N  N9278  1  0.873240  0.748810  0.342380  1.0  -0.3796
  N  N9279  1  0.901030  0.770090  0.375240  1.0  -0.3149
  N  N9280  1  0.936030  0.828310  0.344280  1.0  -0.465
  N  N9281  1  0.159040  0.485250  0.383080  1.0  -0.3277
  N  N9282  1  0.137150  0.356990  0.475540  1.0  -0.4341
  N  N9283  1  0.124970  0.402420  0.484490  1.0  -0.3415
  N  N9284  1  0.170400  0.405820  0.439090  1.0  -0.4403
  N  N9285  1  0.160340  0.440290  0.429750  1.0  -0.3979
  N  N9286  1  0.188870  0.423870  0.412370  1.0  -0.4513
  N  N9287  1  0.224320  0.371850  0.399250  1.0  -0.311
  N  N9288  1  0.248810  0.342380  0.373240  1.0  -0.3808
  N  N9289  1  0.270090  0.375240  0.401030  1.0  -0.3158
  N  N9290  1  0.328310  0.344280  0.436030  1.0  -0.4644
  N  N9291  1  0.159040  0.985250  0.883080  1.0  -0.3277
  N  N9292  1  0.137150  0.856990  0.975540  1.0  -0.4341
  N  N9293  1  0.124970  0.902420  0.984490  1.0  -0.3415
  N  N9294  1  0.170400  0.905820  0.939090  1.0  -0.4403
  N  N9295  1  0.160340  0.940290  0.929750  1.0  -0.3979
  N  N9296  1  0.188870  0.923870  0.912370  1.0  -0.4513
  N  N9297  1  0.224320  0.871850  0.899250  1.0  -0.311
  N  N9298  1  0.248810  0.842380  0.873240  1.0  -0.3808
  N  N9299  1  0.270090  0.875240  0.901030  1.0  -0.3158
  N  N9300  1  0.328310  0.844280  0.936030  1.0  -0.4644
  N  N9301  1  0.659040  0.485250  0.883080  1.0  -0.3277
  N  N9302  1  0.637150  0.356990  0.975540  1.0  -0.4341
  N  N9303  1  0.624970  0.402420  0.984490  1.0  -0.3415
  N  N9304  1  0.670400  0.405820  0.939090  1.0  -0.4403
  N  N9305  1  0.660340  0.440290  0.929750  1.0  -0.3979
  N  N9306  1  0.688870  0.423870  0.912370  1.0  -0.4513
  N  N9307  1  0.724320  0.371850  0.899250  1.0  -0.311
  N  N9308  1  0.748810  0.342380  0.873240  1.0  -0.3808
  N  N9309  1  0.770090  0.375240  0.901030  1.0  -0.3158
  N  N9310  1  0.828310  0.344280  0.936030  1.0  -0.4644
  N  N9311  1  0.659040  0.985250  0.383080  1.0  -0.3277
  N  N9312  1  0.637150  0.856990  0.475540  1.0  -0.4341
  N  N9313  1  0.624970  0.902420  0.484490  1.0  -0.3415
  N  N9314  1  0.670400  0.905820  0.439090  1.0  -0.4403
  N  N9315  1  0.660340  0.940290  0.429750  1.0  -0.3979
  N  N9316  1  0.688870  0.923870  0.412370  1.0  -0.4513
  N  N9317  1  0.724320  0.871850  0.399250  1.0  -0.311
  N  N9318  1  0.748810  0.842380  0.373240  1.0  -0.3808
  N  N9319  1  0.770090  0.875240  0.401030  1.0  -0.3158
  N  N9320  1  0.828310  0.844280  0.436030  1.0  -0.4644
  N  N9321  1  0.590960  0.985250  0.866920  1.0  -0.3275
  N  N9322  1  0.612850  0.856990  0.774460  1.0  -0.4327
  N  N9323  1  0.625030  0.902420  0.765510  1.0  -0.3421
  N  N9324  1  0.579600  0.905820  0.810910  1.0  -0.4422
  N  N9325  1  0.589660  0.940290  0.820250  1.0  -0.3979
  N  N9326  1  0.561130  0.923870  0.837630  1.0  -0.4503
  N  N9327  1  0.525680  0.871850  0.850750  1.0  -0.3104
  N  N9328  1  0.501190  0.842380  0.876760  1.0  -0.3811
  N  N9329  1  0.479910  0.875240  0.848970  1.0  -0.3142
  N  N9330  1  0.421690  0.844280  0.813970  1.0  -0.4644
  N  N9331  1  0.590960  0.485250  0.366920  1.0  -0.3275
  N  N9332  1  0.612850  0.356990  0.274460  1.0  -0.4327
  N  N9333  1  0.625030  0.402420  0.265510  1.0  -0.3421
  N  N9334  1  0.579600  0.405820  0.310910  1.0  -0.4422
  N  N9335  1  0.589660  0.440290  0.320250  1.0  -0.3979
  N  N9336  1  0.561130  0.423870  0.337630  1.0  -0.4503
  N  N9337  1  0.525680  0.371850  0.350750  1.0  -0.3104
  N  N9338  1  0.501190  0.342380  0.376760  1.0  -0.3811
  N  N9339  1  0.479910  0.375240  0.348970  1.0  -0.3142
  N  N9340  1  0.421690  0.344280  0.313970  1.0  -0.4644
  N  N9341  1  0.090960  0.985250  0.366920  1.0  -0.3275
  N  N9342  1  0.112850  0.856990  0.274460  1.0  -0.4327
  N  N9343  1  0.125030  0.902420  0.265510  1.0  -0.3421
  N  N9344  1  0.079600  0.905820  0.310910  1.0  -0.4422
  N  N9345  1  0.089660  0.940290  0.320250  1.0  -0.3979
  N  N9346  1  0.061130  0.923870  0.337630  1.0  -0.4503
  N  N9347  1  0.025680  0.871850  0.350750  1.0  -0.3104
  N  N9348  1  0.001190  0.842380  0.376760  1.0  -0.3811
  N  N9349  1  0.979910  0.875240  0.348970  1.0  -0.3142
  N  N9350  1  0.921690  0.844280  0.313970  1.0  -0.4644
  N  N9351  1  0.090960  0.485250  0.866920  1.0  -0.3275
  N  N9352  1  0.112850  0.356990  0.774460  1.0  -0.4327
  N  N9353  1  0.125030  0.402420  0.765510  1.0  -0.3421
  N  N9354  1  0.079600  0.405820  0.810910  1.0  -0.4422
  N  N9355  1  0.089660  0.440290  0.820250  1.0  -0.3979
  N  N9356  1  0.061130  0.423870  0.837630  1.0  -0.4503
  N  N9357  1  0.025680  0.371850  0.850750  1.0  -0.3104
  N  N9358  1  0.001190  0.342380  0.876760  1.0  -0.3811
  N  N9359  1  0.979910  0.375240  0.848970  1.0  -0.3142
  N  N9360  1  0.921690  0.344280  0.813970  1.0  -0.4644
  N  N9361  1  0.090960  0.264750  0.883080  1.0  -0.3278
  N  N9362  1  0.112850  0.393010  0.975540  1.0  -0.4326
  N  N9363  1  0.125030  0.347580  0.984490  1.0  -0.3416
  N  N9364  1  0.079600  0.344180  0.939090  1.0  -0.4416
  N  N9365  1  0.089660  0.309710  0.929750  1.0  -0.398
  N  N9366  1  0.061130  0.326130  0.912370  1.0  -0.4501
  N  N9367  1  0.025680  0.378150  0.899250  1.0  -0.3115
  N  N9368  1  0.001190  0.407620  0.873240  1.0  -0.3791
  N  N9369  1  0.979910  0.374760  0.901030  1.0  -0.3149
  N  N9370  1  0.921690  0.405720  0.936030  1.0  -0.4636
  N  N9371  1  0.090960  0.764750  0.383080  1.0  -0.3278
  N  N9372  1  0.112850  0.893010  0.475540  1.0  -0.4326
  N  N9373  1  0.125030  0.847580  0.484490  1.0  -0.3416
  N  N9374  1  0.079600  0.844180  0.439090  1.0  -0.4416
  N  N9375  1  0.089660  0.809710  0.429750  1.0  -0.398
  N  N9376  1  0.061130  0.826130  0.412370  1.0  -0.4501
  N  N9377  1  0.025680  0.878150  0.399250  1.0  -0.3115
  N  N9378  1  0.001190  0.907620  0.373240  1.0  -0.3791
  N  N9379  1  0.979910  0.874760  0.401030  1.0  -0.3149
  N  N9380  1  0.921690  0.905720  0.436030  1.0  -0.4636
  N  N9381  1  0.590960  0.264750  0.383080  1.0  -0.3278
  N  N9382  1  0.612850  0.393010  0.475540  1.0  -0.4326
  N  N9383  1  0.625030  0.347580  0.484490  1.0  -0.3416
  N  N9384  1  0.579600  0.344180  0.439090  1.0  -0.4416
  N  N9385  1  0.589660  0.309710  0.429750  1.0  -0.398
  N  N9386  1  0.561130  0.326130  0.412370  1.0  -0.4501
  N  N9387  1  0.525680  0.378150  0.399250  1.0  -0.3115
  N  N9388  1  0.501190  0.407620  0.373240  1.0  -0.3791
  N  N9389  1  0.479910  0.374760  0.401030  1.0  -0.3149
  N  N9390  1  0.421690  0.405720  0.436030  1.0  -0.4636
  N  N9391  1  0.590960  0.764750  0.883080  1.0  -0.3278
  N  N9392  1  0.612850  0.893010  0.975540  1.0  -0.4326
  N  N9393  1  0.625030  0.847580  0.984490  1.0  -0.3416
  N  N9394  1  0.579600  0.844180  0.939090  1.0  -0.4416
  N  N9395  1  0.589660  0.809710  0.929750  1.0  -0.398
  N  N9396  1  0.561130  0.826130  0.912370  1.0  -0.4501
  N  N9397  1  0.525680  0.878150  0.899250  1.0  -0.3115
  N  N9398  1  0.501190  0.907620  0.873240  1.0  -0.3791
  N  N9399  1  0.479910  0.874760  0.901030  1.0  -0.3149
  N  N9400  1  0.421690  0.905720  0.936030  1.0  -0.4636
  N  N9401  1  0.659040  0.764750  0.366920  1.0  -0.3283
  N  N9402  1  0.637150  0.893010  0.274460  1.0  -0.4341
  N  N9403  1  0.624970  0.847580  0.265510  1.0  -0.3424
  N  N9404  1  0.670400  0.844180  0.310910  1.0  -0.4414
  N  N9405  1  0.660340  0.809710  0.320250  1.0  -0.3992
  N  N9406  1  0.688870  0.826130  0.337630  1.0  -0.4509
  N  N9407  1  0.724320  0.878150  0.350750  1.0  -0.3106
  N  N9408  1  0.748810  0.907620  0.376760  1.0  -0.3794
  N  N9409  1  0.770090  0.874760  0.348970  1.0  -0.3149
  N  N9410  1  0.828310  0.905720  0.313970  1.0  -0.464
  N  N9411  1  0.659040  0.264750  0.866920  1.0  -0.3283
  N  N9412  1  0.637150  0.393010  0.774460  1.0  -0.4341
  N  N9413  1  0.624970  0.347580  0.765510  1.0  -0.3424
  N  N9414  1  0.670400  0.344180  0.810910  1.0  -0.4414
  N  N9415  1  0.660340  0.309710  0.820250  1.0  -0.3992
  N  N9416  1  0.688870  0.326130  0.837630  1.0  -0.4509
  N  N9417  1  0.724320  0.378150  0.850750  1.0  -0.3106
  N  N9418  1  0.748810  0.407620  0.876760  1.0  -0.3794
  N  N9419  1  0.770090  0.374760  0.848970  1.0  -0.3149
  N  N9420  1  0.828310  0.405720  0.813970  1.0  -0.464
  N  N9421  1  0.159040  0.764750  0.866920  1.0  -0.3283
  N  N9422  1  0.137150  0.893010  0.774460  1.0  -0.4341
  N  N9423  1  0.124970  0.847580  0.765510  1.0  -0.3424
  N  N9424  1  0.170400  0.844180  0.810910  1.0  -0.4414
  N  N9425  1  0.160340  0.809710  0.820250  1.0  -0.3992
  N  N9426  1  0.188870  0.826130  0.837630  1.0  -0.4509
  N  N9427  1  0.224320  0.878150  0.850750  1.0  -0.3106
  N  N9428  1  0.248810  0.907620  0.876760  1.0  -0.3794
  N  N9429  1  0.270090  0.874760  0.848970  1.0  -0.3149
  N  N9430  1  0.328310  0.905720  0.813970  1.0  -0.464
  N  N9431  1  0.159040  0.264750  0.366920  1.0  -0.3283
  N  N9432  1  0.137150  0.393010  0.274460  1.0  -0.4341
  N  N9433  1  0.124970  0.347580  0.265510  1.0  -0.3424
  N  N9434  1  0.170400  0.344180  0.310910  1.0  -0.4414
  N  N9435  1  0.160340  0.309710  0.320250  1.0  -0.3992
  N  N9436  1  0.188870  0.326130  0.337630  1.0  -0.4509
  N  N9437  1  0.224320  0.378150  0.350750  1.0  -0.3106
  N  N9438  1  0.248810  0.407620  0.376760  1.0  -0.3794
  N  N9439  1  0.270090  0.374760  0.348970  1.0  -0.3149
  N  N9440  1  0.328310  0.405720  0.313970  1.0  -0.464
  N  N9441  1  0.985250  0.866920  0.590960  1.0  -0.3316
  N  N9442  1  0.856990  0.774460  0.612850  1.0  -0.4327
  N  N9443  1  0.902420  0.765510  0.625030  1.0  -0.3379
  N  N9444  1  0.905820  0.810910  0.579600  1.0  -0.4428
  N  N9445  1  0.940290  0.820250  0.589660  1.0  -0.398
  N  N9446  1  0.923870  0.837630  0.561130  1.0  -0.4522
  N  N9447  1  0.871850  0.850750  0.525680  1.0  -0.3114
  N  N9448  1  0.842380  0.876760  0.501190  1.0  -0.3872
  N  N9449  1  0.875240  0.848970  0.479910  1.0  -0.3165
  N  N9450  1  0.844280  0.813970  0.421690  1.0  -0.4654
  N  N9451  1  0.985250  0.366920  0.090960  1.0  -0.3316
  N  N9452  1  0.856990  0.274460  0.112850  1.0  -0.4327
  N  N9453  1  0.902420  0.265510  0.125030  1.0  -0.3379
  N  N9454  1  0.905820  0.310910  0.079600  1.0  -0.4428
  N  N9455  1  0.940290  0.320250  0.089660  1.0  -0.398
  N  N9456  1  0.923870  0.337630  0.061130  1.0  -0.4522
  N  N9457  1  0.871850  0.350750  0.025680  1.0  -0.3114
  N  N9458  1  0.842380  0.376760  0.001190  1.0  -0.3872
  N  N9459  1  0.875240  0.348970  0.979910  1.0  -0.3165
  N  N9460  1  0.844280  0.313970  0.921690  1.0  -0.4654
  N  N9461  1  0.485250  0.866920  0.090960  1.0  -0.3316
  N  N9462  1  0.356990  0.774460  0.112850  1.0  -0.4327
  N  N9463  1  0.402420  0.765510  0.125030  1.0  -0.3379
  N  N9464  1  0.405820  0.810910  0.079600  1.0  -0.4428
  N  N9465  1  0.440290  0.820250  0.089660  1.0  -0.398
  N  N9466  1  0.423870  0.837630  0.061130  1.0  -0.4522
  N  N9467  1  0.371850  0.850750  0.025680  1.0  -0.3114
  N  N9468  1  0.342380  0.876760  0.001190  1.0  -0.3872
  N  N9469  1  0.375240  0.848970  0.979910  1.0  -0.3165
  N  N9470  1  0.344280  0.813970  0.921690  1.0  -0.4654
  N  N9471  1  0.485250  0.366920  0.590960  1.0  -0.3316
  N  N9472  1  0.356990  0.274460  0.612850  1.0  -0.4327
  N  N9473  1  0.402420  0.265510  0.625030  1.0  -0.3379
  N  N9474  1  0.405820  0.310910  0.579600  1.0  -0.4428
  N  N9475  1  0.440290  0.320250  0.589660  1.0  -0.398
  N  N9476  1  0.423870  0.337630  0.561130  1.0  -0.4522
  N  N9477  1  0.371850  0.350750  0.525680  1.0  -0.3114
  N  N9478  1  0.342380  0.376760  0.501190  1.0  -0.3872
  N  N9479  1  0.375240  0.348970  0.479910  1.0  -0.3165
  N  N9480  1  0.344280  0.313970  0.421690  1.0  -0.4654
  N  N9481  1  0.485250  0.383080  0.159040  1.0  -0.3336
  N  N9482  1  0.356990  0.475540  0.137150  1.0  -0.4318
  N  N9483  1  0.402420  0.484490  0.124970  1.0  -0.3376
  N  N9484  1  0.405820  0.439090  0.170400  1.0  -0.4425
  N  N9485  1  0.440290  0.429750  0.160340  1.0  -0.3999
  N  N9486  1  0.423870  0.412370  0.188870  1.0  -0.4511
  N  N9487  1  0.371850  0.399250  0.224320  1.0  -0.3127
  N  N9488  1  0.342380  0.373240  0.248810  1.0  -0.3881
  N  N9489  1  0.375240  0.401030  0.270090  1.0  -0.3165
  N  N9490  1  0.344280  0.436030  0.328310  1.0  -0.4658
  N  N9491  1  0.485250  0.883080  0.659040  1.0  -0.3336
  N  N9492  1  0.356990  0.975540  0.637150  1.0  -0.4318
  N  N9493  1  0.402420  0.984490  0.624970  1.0  -0.3376
  N  N9494  1  0.405820  0.939090  0.670400  1.0  -0.4425
  N  N9495  1  0.440290  0.929750  0.660340  1.0  -0.3999
  N  N9496  1  0.423870  0.912370  0.688870  1.0  -0.4511
  N  N9497  1  0.371850  0.899250  0.724320  1.0  -0.3127
  N  N9498  1  0.342380  0.873240  0.748810  1.0  -0.3881
  N  N9499  1  0.375240  0.901030  0.770090  1.0  -0.3165
  N  N9500  1  0.344280  0.936030  0.828310  1.0  -0.4658
  N  N9501  1  0.985250  0.383080  0.659040  1.0  -0.3336
  N  N9502  1  0.856990  0.475540  0.637150  1.0  -0.4318
  N  N9503  1  0.902420  0.484490  0.624970  1.0  -0.3376
  N  N9504  1  0.905820  0.439090  0.670400  1.0  -0.4425
  N  N9505  1  0.940290  0.429750  0.660340  1.0  -0.3999
  N  N9506  1  0.923870  0.412370  0.688870  1.0  -0.4511
  N  N9507  1  0.871850  0.399250  0.724320  1.0  -0.3127
  N  N9508  1  0.842380  0.373240  0.748810  1.0  -0.3881
  N  N9509  1  0.875240  0.401030  0.770090  1.0  -0.3165
  N  N9510  1  0.844280  0.436030  0.828310  1.0  -0.4658
  N  N9511  1  0.985250  0.883080  0.159040  1.0  -0.3336
  N  N9512  1  0.856990  0.975540  0.137150  1.0  -0.4318
  N  N9513  1  0.902420  0.984490  0.124970  1.0  -0.3376
  N  N9514  1  0.905820  0.939090  0.170400  1.0  -0.4425
  N  N9515  1  0.940290  0.929750  0.160340  1.0  -0.3999
  N  N9516  1  0.923870  0.912370  0.188870  1.0  -0.4511
  N  N9517  1  0.871850  0.899250  0.224320  1.0  -0.3127
  N  N9518  1  0.842380  0.873240  0.248810  1.0  -0.3881
  N  N9519  1  0.875240  0.901030  0.270090  1.0  -0.3165
  N  N9520  1  0.844280  0.936030  0.328310  1.0  -0.4658
  N  N9521  1  0.764750  0.366920  0.659040  1.0  -0.3321
  N  N9522  1  0.893010  0.274460  0.637150  1.0  -0.4315
  N  N9523  1  0.847580  0.265510  0.624970  1.0  -0.338
  N  N9524  1  0.844180  0.310910  0.670400  1.0  -0.4447
  N  N9525  1  0.809710  0.320250  0.660340  1.0  -0.3994
  N  N9526  1  0.826130  0.337630  0.688870  1.0  -0.4522
  N  N9527  1  0.878150  0.350750  0.724320  1.0  -0.3113
  N  N9528  1  0.907620  0.376760  0.748810  1.0  -0.3859
  N  N9529  1  0.874760  0.348970  0.770090  1.0  -0.3155
  N  N9530  1  0.905720  0.313970  0.828310  1.0  -0.4644
  N  N9531  1  0.764750  0.866920  0.159040  1.0  -0.3321
  N  N9532  1  0.893010  0.774460  0.137150  1.0  -0.4315
  N  N9533  1  0.847580  0.765510  0.124970  1.0  -0.338
  N  N9534  1  0.844180  0.810910  0.170400  1.0  -0.4447
  N  N9535  1  0.809710  0.820250  0.160340  1.0  -0.3994
  N  N9536  1  0.826130  0.837630  0.188870  1.0  -0.4522
  N  N9537  1  0.878150  0.850750  0.224320  1.0  -0.3113
  N  N9538  1  0.907620  0.876760  0.248810  1.0  -0.3859
  N  N9539  1  0.874760  0.848970  0.270090  1.0  -0.3155
  N  N9540  1  0.905720  0.813970  0.328310  1.0  -0.4644
  N  N9541  1  0.264750  0.366920  0.159040  1.0  -0.3321
  N  N9542  1  0.393010  0.274460  0.137150  1.0  -0.4315
  N  N9543  1  0.347580  0.265510  0.124970  1.0  -0.338
  N  N9544  1  0.344180  0.310910  0.170400  1.0  -0.4447
  N  N9545  1  0.309710  0.320250  0.160340  1.0  -0.3994
  N  N9546  1  0.326130  0.337630  0.188870  1.0  -0.4522
  N  N9547  1  0.378150  0.350750  0.224320  1.0  -0.3113
  N  N9548  1  0.407620  0.376760  0.248810  1.0  -0.3859
  N  N9549  1  0.374760  0.348970  0.270090  1.0  -0.3155
  N  N9550  1  0.405720  0.313970  0.328310  1.0  -0.4644
  N  N9551  1  0.264750  0.866920  0.659040  1.0  -0.3321
  N  N9552  1  0.393010  0.774460  0.637150  1.0  -0.4315
  N  N9553  1  0.347580  0.765510  0.624970  1.0  -0.338
  N  N9554  1  0.344180  0.810910  0.670400  1.0  -0.4447
  N  N9555  1  0.309710  0.820250  0.660340  1.0  -0.3994
  N  N9556  1  0.326130  0.837630  0.688870  1.0  -0.4522
  N  N9557  1  0.378150  0.850750  0.724320  1.0  -0.3113
  N  N9558  1  0.407620  0.876760  0.748810  1.0  -0.3859
  N  N9559  1  0.374760  0.848970  0.770090  1.0  -0.3155
  N  N9560  1  0.405720  0.813970  0.828310  1.0  -0.4644
  N  N9561  1  0.264750  0.883080  0.090960  1.0  -0.3314
  N  N9562  1  0.393010  0.975540  0.112850  1.0  -0.4336
  N  N9563  1  0.347580  0.984490  0.125030  1.0  -0.3379
  N  N9564  1  0.344180  0.939090  0.079600  1.0  -0.4451
  N  N9565  1  0.309710  0.929750  0.089660  1.0  -0.3984
  N  N9566  1  0.326130  0.912370  0.061130  1.0  -0.4524
  N  N9567  1  0.378150  0.899250  0.025680  1.0  -0.3132
  N  N9568  1  0.407620  0.873240  0.001190  1.0  -0.3853
  N  N9569  1  0.374760  0.901030  0.979910  1.0  -0.3162
  N  N9570  1  0.405720  0.936030  0.921690  1.0  -0.4642
  N  N9571  1  0.264750  0.383080  0.590960  1.0  -0.3314
  N  N9572  1  0.393010  0.475540  0.612850  1.0  -0.4336
  N  N9573  1  0.347580  0.484490  0.625030  1.0  -0.3379
  N  N9574  1  0.344180  0.439090  0.579600  1.0  -0.4451
  N  N9575  1  0.309710  0.429750  0.589660  1.0  -0.3984
  N  N9576  1  0.326130  0.412370  0.561130  1.0  -0.4524
  N  N9577  1  0.378150  0.399250  0.525680  1.0  -0.3132
  N  N9578  1  0.407620  0.373240  0.501190  1.0  -0.3853
  N  N9579  1  0.374760  0.401030  0.479910  1.0  -0.3162
  N  N9580  1  0.405720  0.436030  0.421690  1.0  -0.4642
  N  N9581  1  0.764750  0.883080  0.590960  1.0  -0.3314
  N  N9582  1  0.893010  0.975540  0.612850  1.0  -0.4336
  N  N9583  1  0.847580  0.984490  0.625030  1.0  -0.3379
  N  N9584  1  0.844180  0.939090  0.579600  1.0  -0.4451
  N  N9585  1  0.809710  0.929750  0.589660  1.0  -0.3984
  N  N9586  1  0.826130  0.912370  0.561130  1.0  -0.4524
  N  N9587  1  0.878150  0.899250  0.525680  1.0  -0.3132
  N  N9588  1  0.907620  0.873240  0.501190  1.0  -0.3853
  N  N9589  1  0.874760  0.901030  0.479910  1.0  -0.3162
  N  N9590  1  0.905720  0.936030  0.421690  1.0  -0.4642
  N  N9591  1  0.764750  0.383080  0.090960  1.0  -0.3314
  N  N9592  1  0.893010  0.475540  0.112850  1.0  -0.4336
  N  N9593  1  0.847580  0.484490  0.125030  1.0  -0.3379
  N  N9594  1  0.844180  0.439090  0.079600  1.0  -0.4451
  N  N9595  1  0.809710  0.429750  0.089660  1.0  -0.3984
  N  N9596  1  0.826130  0.412370  0.061130  1.0  -0.4524
  N  N9597  1  0.878150  0.399250  0.025680  1.0  -0.3132
  N  N9598  1  0.907620  0.373240  0.001190  1.0  -0.3853
  N  N9599  1  0.874760  0.401030  0.979910  1.0  -0.3162
  N  N9600  1  0.905720  0.436030  0.921690  1.0  -0.4642
  N  N9601  1  0.590960  0.383080  0.764750  1.0  -0.3289
  N  N9602  1  0.612850  0.475540  0.893010  1.0  -0.4329
  N  N9603  1  0.625030  0.484490  0.847580  1.0  -0.3414
  N  N9604  1  0.579600  0.439090  0.844180  1.0  -0.442
  N  N9605  1  0.589660  0.429750  0.809710  1.0  -0.4002
  N  N9606  1  0.561130  0.412370  0.826130  1.0  -0.4499
  N  N9607  1  0.525680  0.399250  0.878150  1.0  -0.3118
  N  N9608  1  0.501190  0.373240  0.907620  1.0  -0.3792
  N  N9609  1  0.479910  0.401030  0.874760  1.0  -0.3142
  N  N9610  1  0.421690  0.436030  0.905720  1.0  -0.4644
  N  N9611  1  0.590960  0.883080  0.264750  1.0  -0.3289
  N  N9612  1  0.612850  0.975540  0.393010  1.0  -0.4329
  N  N9613  1  0.625030  0.984490  0.347580  1.0  -0.3414
  N  N9614  1  0.579600  0.939090  0.344180  1.0  -0.442
  N  N9615  1  0.589660  0.929750  0.309710  1.0  -0.4002
  N  N9616  1  0.561130  0.912370  0.326130  1.0  -0.4499
  N  N9617  1  0.525680  0.899250  0.378150  1.0  -0.3118
  N  N9618  1  0.501190  0.873240  0.407620  1.0  -0.3792
  N  N9619  1  0.479910  0.901030  0.374760  1.0  -0.3142
  N  N9620  1  0.421690  0.936030  0.405720  1.0  -0.4644
  N  N9621  1  0.090960  0.383080  0.264750  1.0  -0.3289
  N  N9622  1  0.112850  0.475540  0.393010  1.0  -0.4329
  N  N9623  1  0.125030  0.484490  0.347580  1.0  -0.3414
  N  N9624  1  0.079600  0.439090  0.344180  1.0  -0.442
  N  N9625  1  0.089660  0.429750  0.309710  1.0  -0.4002
  N  N9626  1  0.061130  0.412370  0.326130  1.0  -0.4499
  N  N9627  1  0.025680  0.399250  0.378150  1.0  -0.3118
  N  N9628  1  0.001190  0.373240  0.407620  1.0  -0.3792
  N  N9629  1  0.979910  0.401030  0.374760  1.0  -0.3142
  N  N9630  1  0.921690  0.436030  0.405720  1.0  -0.4644
  N  N9631  1  0.090960  0.883080  0.764750  1.0  -0.3289
  N  N9632  1  0.112850  0.975540  0.893010  1.0  -0.4329
  N  N9633  1  0.125030  0.984490  0.847580  1.0  -0.3414
  N  N9634  1  0.079600  0.939090  0.844180  1.0  -0.442
  N  N9635  1  0.089660  0.929750  0.809710  1.0  -0.4002
  N  N9636  1  0.061130  0.912370  0.826130  1.0  -0.4499
  N  N9637  1  0.025680  0.899250  0.878150  1.0  -0.3118
  N  N9638  1  0.001190  0.873240  0.907620  1.0  -0.3792
  N  N9639  1  0.979910  0.901030  0.874760  1.0  -0.3142
  N  N9640  1  0.921690  0.936030  0.905720  1.0  -0.4644
  N  N9641  1  0.159040  0.866920  0.264750  1.0  -0.329
  N  N9642  1  0.137150  0.774460  0.393010  1.0  -0.4335
  N  N9643  1  0.124970  0.765510  0.347580  1.0  -0.3414
  N  N9644  1  0.170400  0.810910  0.344180  1.0  -0.4411
  N  N9645  1  0.160340  0.820250  0.309710  1.0  -0.4
  N  N9646  1  0.188870  0.837630  0.326130  1.0  -0.4512
  N  N9647  1  0.224320  0.850750  0.378150  1.0  -0.31
  N  N9648  1  0.248810  0.876760  0.407620  1.0  -0.3785
  N  N9649  1  0.270090  0.848970  0.374760  1.0  -0.3145
  N  N9650  1  0.328310  0.813970  0.405720  1.0  -0.4644
  N  N9651  1  0.159040  0.366920  0.764750  1.0  -0.329
  N  N9652  1  0.137150  0.274460  0.893010  1.0  -0.4335
  N  N9653  1  0.124970  0.265510  0.847580  1.0  -0.3414
  N  N9654  1  0.170400  0.310910  0.844180  1.0  -0.4411
  N  N9655  1  0.160340  0.320250  0.809710  1.0  -0.4
  N  N9656  1  0.188870  0.337630  0.826130  1.0  -0.4512
  N  N9657  1  0.224320  0.350750  0.878150  1.0  -0.31
  N  N9658  1  0.248810  0.376760  0.907620  1.0  -0.3785
  N  N9659  1  0.270090  0.348970  0.874760  1.0  -0.3145
  N  N9660  1  0.328310  0.313970  0.905720  1.0  -0.4644
  N  N9661  1  0.659040  0.866920  0.764750  1.0  -0.329
  N  N9662  1  0.637150  0.774460  0.893010  1.0  -0.4335
  N  N9663  1  0.624970  0.765510  0.847580  1.0  -0.3414
  N  N9664  1  0.670400  0.810910  0.844180  1.0  -0.4411
  N  N9665  1  0.660340  0.820250  0.809710  1.0  -0.4
  N  N9666  1  0.688870  0.837630  0.826130  1.0  -0.4512
  N  N9667  1  0.724320  0.850750  0.878150  1.0  -0.31
  N  N9668  1  0.748810  0.876760  0.907620  1.0  -0.3785
  N  N9669  1  0.770090  0.848970  0.874760  1.0  -0.3145
  N  N9670  1  0.828310  0.813970  0.905720  1.0  -0.4644
  N  N9671  1  0.659040  0.366920  0.264750  1.0  -0.329
  N  N9672  1  0.637150  0.274460  0.393010  1.0  -0.4335
  N  N9673  1  0.624970  0.265510  0.347580  1.0  -0.3414
  N  N9674  1  0.670400  0.310910  0.344180  1.0  -0.4411
  N  N9675  1  0.660340  0.320250  0.309710  1.0  -0.4
  N  N9676  1  0.688870  0.337630  0.326130  1.0  -0.4512
  N  N9677  1  0.724320  0.350750  0.378150  1.0  -0.31
  N  N9678  1  0.748810  0.376760  0.407620  1.0  -0.3785
  N  N9679  1  0.770090  0.348970  0.374760  1.0  -0.3145
  N  N9680  1  0.828310  0.313970  0.405720  1.0  -0.4644
  N  N9681  1  0.659040  0.883080  0.985250  1.0  -0.3291
  N  N9682  1  0.637150  0.975540  0.856990  1.0  -0.4348
  N  N9683  1  0.624970  0.984490  0.902420  1.0  -0.3409
  N  N9684  1  0.670400  0.939090  0.905820  1.0  -0.4418
  N  N9685  1  0.660340  0.929750  0.940290  1.0  -0.3983
  N  N9686  1  0.688870  0.912370  0.923870  1.0  -0.4502
  N  N9687  1  0.724320  0.899250  0.871850  1.0  -0.3115
  N  N9688  1  0.748810  0.873240  0.842380  1.0  -0.3796
  N  N9689  1  0.770090  0.901030  0.875240  1.0  -0.3153
  N  N9690  1  0.828310  0.936030  0.844280  1.0  -0.4646
  N  N9691  1  0.659040  0.383080  0.485250  1.0  -0.3291
  N  N9692  1  0.637150  0.475540  0.356990  1.0  -0.4348
  N  N9693  1  0.624970  0.484490  0.402420  1.0  -0.3409
  N  N9694  1  0.670400  0.439090  0.405820  1.0  -0.4418
  N  N9695  1  0.660340  0.429750  0.440290  1.0  -0.3983
  N  N9696  1  0.688870  0.412370  0.423870  1.0  -0.4502
  N  N9697  1  0.724320  0.399250  0.371850  1.0  -0.3115
  N  N9698  1  0.748810  0.373240  0.342380  1.0  -0.3796
  N  N9699  1  0.770090  0.401030  0.375240  1.0  -0.3153
  N  N9700  1  0.828310  0.436030  0.344280  1.0  -0.4646
  N  N9701  1  0.159040  0.883080  0.485250  1.0  -0.3291
  N  N9702  1  0.137150  0.975540  0.356990  1.0  -0.4348
  N  N9703  1  0.124970  0.984490  0.402420  1.0  -0.3409
  N  N9704  1  0.170400  0.939090  0.405820  1.0  -0.4418
  N  N9705  1  0.160340  0.929750  0.440290  1.0  -0.3983
  N  N9706  1  0.188870  0.912370  0.423870  1.0  -0.4502
  N  N9707  1  0.224320  0.899250  0.371850  1.0  -0.3115
  N  N9708  1  0.248810  0.873240  0.342380  1.0  -0.3796
  N  N9709  1  0.270090  0.901030  0.375240  1.0  -0.3153
  N  N9710  1  0.328310  0.936030  0.344280  1.0  -0.4646
  N  N9711  1  0.159040  0.383080  0.985250  1.0  -0.3291
  N  N9712  1  0.137150  0.475540  0.856990  1.0  -0.4348
  N  N9713  1  0.124970  0.484490  0.902420  1.0  -0.3409
  N  N9714  1  0.170400  0.439090  0.905820  1.0  -0.4418
  N  N9715  1  0.160340  0.429750  0.940290  1.0  -0.3983
  N  N9716  1  0.188870  0.412370  0.923870  1.0  -0.4502
  N  N9717  1  0.224320  0.399250  0.871850  1.0  -0.3115
  N  N9718  1  0.248810  0.373240  0.842380  1.0  -0.3796
  N  N9719  1  0.270090  0.401030  0.875240  1.0  -0.3153
  N  N9720  1  0.328310  0.436030  0.844280  1.0  -0.4646
  N  N9721  1  0.090960  0.366920  0.485250  1.0  -0.3286
  N  N9722  1  0.112850  0.274460  0.356990  1.0  -0.4333
  N  N9723  1  0.125030  0.265510  0.402420  1.0  -0.3416
  N  N9724  1  0.079600  0.310910  0.405820  1.0  -0.4429
  N  N9725  1  0.089660  0.320250  0.440290  1.0  -0.3975
  N  N9726  1  0.061130  0.337630  0.423870  1.0  -0.4498
  N  N9727  1  0.025680  0.350750  0.371850  1.0  -0.3106
  N  N9728  1  0.001190  0.376760  0.342380  1.0  -0.3794
  N  N9729  1  0.979910  0.348970  0.375240  1.0  -0.3136
  N  N9730  1  0.921690  0.313970  0.344280  1.0  -0.4645
  N  N9731  1  0.090960  0.866920  0.985250  1.0  -0.3286
  N  N9732  1  0.112850  0.774460  0.856990  1.0  -0.4333
  N  N9733  1  0.125030  0.765510  0.902420  1.0  -0.3416
  N  N9734  1  0.079600  0.810910  0.905820  1.0  -0.4429
  N  N9735  1  0.089660  0.820250  0.940290  1.0  -0.3975
  N  N9736  1  0.061130  0.837630  0.923870  1.0  -0.4498
  N  N9737  1  0.025680  0.850750  0.871850  1.0  -0.3106
  N  N9738  1  0.001190  0.876760  0.842380  1.0  -0.3794
  N  N9739  1  0.979910  0.848970  0.875240  1.0  -0.3136
  N  N9740  1  0.921690  0.813970  0.844280  1.0  -0.4645
  N  N9741  1  0.590960  0.366920  0.985250  1.0  -0.3286
  N  N9742  1  0.612850  0.274460  0.856990  1.0  -0.4333
  N  N9743  1  0.625030  0.265510  0.902420  1.0  -0.3416
  N  N9744  1  0.579600  0.310910  0.905820  1.0  -0.4429
  N  N9745  1  0.589660  0.320250  0.940290  1.0  -0.3975
  N  N9746  1  0.561130  0.337630  0.923870  1.0  -0.4498
  N  N9747  1  0.525680  0.350750  0.871850  1.0  -0.3106
  N  N9748  1  0.501190  0.376760  0.842380  1.0  -0.3794
  N  N9749  1  0.479910  0.348970  0.875240  1.0  -0.3136
  N  N9750  1  0.421690  0.313970  0.844280  1.0  -0.4645
  N  N9751  1  0.590960  0.866920  0.485250  1.0  -0.3286
  N  N9752  1  0.612850  0.774460  0.356990  1.0  -0.4333
  N  N9753  1  0.625030  0.765510  0.402420  1.0  -0.3416
  N  N9754  1  0.579600  0.810910  0.405820  1.0  -0.4429
  N  N9755  1  0.589660  0.820250  0.440290  1.0  -0.3975
  N  N9756  1  0.561130  0.837630  0.423870  1.0  -0.4498
  N  N9757  1  0.525680  0.850750  0.371850  1.0  -0.3106
  N  N9758  1  0.501190  0.876760  0.342380  1.0  -0.3794
  N  N9759  1  0.479910  0.848970  0.375240  1.0  -0.3136
  N  N9760  1  0.421690  0.813970  0.344280  1.0  -0.4645
  N  N9761  1  0.764750  0.590960  0.383080  1.0  -0.3291
  N  N9762  1  0.893010  0.612850  0.475540  1.0  -0.433
  N  N9763  1  0.847580  0.625030  0.484490  1.0  -0.3382
  N  N9764  1  0.844180  0.579600  0.439090  1.0  -0.4454
  N  N9765  1  0.809710  0.589660  0.429750  1.0  -0.3989
  N  N9766  1  0.826130  0.561130  0.412370  1.0  -0.4503
  N  N9767  1  0.878150  0.525680  0.399250  1.0  -0.3136
  N  N9768  1  0.907620  0.501190  0.373240  1.0  -0.3853
  N  N9769  1  0.874760  0.479910  0.401030  1.0  -0.3173
  N  N9770  1  0.905720  0.421690  0.436030  1.0  -0.4639
  N  N9771  1  0.764750  0.090960  0.883080  1.0  -0.3291
  N  N9772  1  0.893010  0.112850  0.975540  1.0  -0.433
  N  N9773  1  0.847580  0.125030  0.984490  1.0  -0.3382
  N  N9774  1  0.844180  0.079600  0.939090  1.0  -0.4454
  N  N9775  1  0.809710  0.089660  0.929750  1.0  -0.3989
  N  N9776  1  0.826130  0.061130  0.912370  1.0  -0.4503
  N  N9777  1  0.878150  0.025680  0.899250  1.0  -0.3136
  N  N9778  1  0.907620  0.001190  0.873240  1.0  -0.3853
  N  N9779  1  0.874760  0.979910  0.901030  1.0  -0.3173
  N  N9780  1  0.905720  0.921690  0.936030  1.0  -0.4639
  N  N9781  1  0.264750  0.590960  0.883080  1.0  -0.3291
  N  N9782  1  0.393010  0.612850  0.975540  1.0  -0.433
  N  N9783  1  0.347580  0.625030  0.984490  1.0  -0.3382
  N  N9784  1  0.344180  0.579600  0.939090  1.0  -0.4454
  N  N9785  1  0.309710  0.589660  0.929750  1.0  -0.3989
  N  N9786  1  0.326130  0.561130  0.912370  1.0  -0.4503
  N  N9787  1  0.378150  0.525680  0.899250  1.0  -0.3136
  N  N9788  1  0.407620  0.501190  0.873240  1.0  -0.3853
  N  N9789  1  0.374760  0.479910  0.901030  1.0  -0.3173
  N  N9790  1  0.405720  0.421690  0.936030  1.0  -0.4639
  N  N9791  1  0.264750  0.090960  0.383080  1.0  -0.3291
  N  N9792  1  0.393010  0.112850  0.475540  1.0  -0.433
  N  N9793  1  0.347580  0.125030  0.484490  1.0  -0.3382
  N  N9794  1  0.344180  0.079600  0.439090  1.0  -0.4454
  N  N9795  1  0.309710  0.089660  0.429750  1.0  -0.3989
  N  N9796  1  0.326130  0.061130  0.412370  1.0  -0.4503
  N  N9797  1  0.378150  0.025680  0.399250  1.0  -0.3136
  N  N9798  1  0.407620  0.001190  0.373240  1.0  -0.3853
  N  N9799  1  0.374760  0.979910  0.401030  1.0  -0.3173
  N  N9800  1  0.405720  0.921690  0.436030  1.0  -0.4639
  N  N9801  1  0.264750  0.159040  0.866920  1.0  -0.3297
  N  N9802  1  0.393010  0.137150  0.774460  1.0  -0.4332
  N  N9803  1  0.347580  0.124970  0.765510  1.0  -0.339
  N  N9804  1  0.344180  0.170400  0.810910  1.0  -0.4455
  N  N9805  1  0.309710  0.160340  0.820250  1.0  -0.3996
  N  N9806  1  0.326130  0.188870  0.837630  1.0  -0.4521
  N  N9807  1  0.378150  0.224320  0.850750  1.0  -0.3127
  N  N9808  1  0.407620  0.248810  0.876760  1.0  -0.3855
  N  N9809  1  0.374760  0.270090  0.848970  1.0  -0.3174
  N  N9810  1  0.405720  0.328310  0.813970  1.0  -0.4639
  N  N9811  1  0.264750  0.659040  0.366920  1.0  -0.3297
  N  N9812  1  0.393010  0.637150  0.274460  1.0  -0.4332
  N  N9813  1  0.347580  0.624970  0.265510  1.0  -0.339
  N  N9814  1  0.344180  0.670400  0.310910  1.0  -0.4455
  N  N9815  1  0.309710  0.660340  0.320250  1.0  -0.3996
  N  N9816  1  0.326130  0.688870  0.337630  1.0  -0.4521
  N  N9817  1  0.378150  0.724320  0.350750  1.0  -0.3127
  N  N9818  1  0.407620  0.748810  0.376760  1.0  -0.3855
  N  N9819  1  0.374760  0.770090  0.348970  1.0  -0.3174
  N  N9820  1  0.405720  0.828310  0.313970  1.0  -0.4639
  N  N9821  1  0.764750  0.159040  0.366920  1.0  -0.3297
  N  N9822  1  0.893010  0.137150  0.274460  1.0  -0.4332
  N  N9823  1  0.847580  0.124970  0.265510  1.0  -0.339
  N  N9824  1  0.844180  0.170400  0.310910  1.0  -0.4455
  N  N9825  1  0.809710  0.160340  0.320250  1.0  -0.3996
  N  N9826  1  0.826130  0.188870  0.337630  1.0  -0.4521
  N  N9827  1  0.878150  0.224320  0.350750  1.0  -0.3127
  N  N9828  1  0.907620  0.248810  0.376760  1.0  -0.3855
  N  N9829  1  0.874760  0.270090  0.348970  1.0  -0.3174
  N  N9830  1  0.905720  0.328310  0.313970  1.0  -0.4639
  N  N9831  1  0.764750  0.659040  0.866920  1.0  -0.3297
  N  N9832  1  0.893010  0.637150  0.774460  1.0  -0.4332
  N  N9833  1  0.847580  0.624970  0.765510  1.0  -0.339
  N  N9834  1  0.844180  0.670400  0.810910  1.0  -0.4455
  N  N9835  1  0.809710  0.660340  0.820250  1.0  -0.3996
  N  N9836  1  0.826130  0.688870  0.837630  1.0  -0.4521
  N  N9837  1  0.878150  0.724320  0.850750  1.0  -0.3127
  N  N9838  1  0.907620  0.748810  0.876760  1.0  -0.3855
  N  N9839  1  0.874760  0.770090  0.848970  1.0  -0.3174
  N  N9840  1  0.905720  0.828310  0.813970  1.0  -0.4639
  N  N9841  1  0.985250  0.659040  0.883080  1.0  -0.33
  N  N9842  1  0.856990  0.637150  0.975540  1.0  -0.4326
  N  N9843  1  0.902420  0.624970  0.984490  1.0  -0.3381
  N  N9844  1  0.905820  0.670400  0.939090  1.0  -0.4426
  N  N9845  1  0.940290  0.660340  0.929750  1.0  -0.399
  N  N9846  1  0.923870  0.688870  0.912370  1.0  -0.4516
  N  N9847  1  0.871850  0.724320  0.899250  1.0  -0.3135
  N  N9848  1  0.842380  0.748810  0.873240  1.0  -0.3872
  N  N9849  1  0.875240  0.770090  0.901030  1.0  -0.3182
  N  N9850  1  0.844280  0.828310  0.936030  1.0  -0.4655
  N  N9851  1  0.985250  0.159040  0.383080  1.0  -0.33
  N  N9852  1  0.856990  0.137150  0.475540  1.0  -0.4326
  N  N9853  1  0.902420  0.124970  0.484490  1.0  -0.3381
  N  N9854  1  0.905820  0.170400  0.439090  1.0  -0.4426
  N  N9855  1  0.940290  0.160340  0.429750  1.0  -0.399
  N  N9856  1  0.923870  0.188870  0.412370  1.0  -0.4516
  N  N9857  1  0.871850  0.224320  0.399250  1.0  -0.3135
  N  N9858  1  0.842380  0.248810  0.373240  1.0  -0.3872
  N  N9859  1  0.875240  0.270090  0.401030  1.0  -0.3182
  N  N9860  1  0.844280  0.328310  0.436030  1.0  -0.4655
  N  N9861  1  0.485250  0.659040  0.383080  1.0  -0.33
  N  N9862  1  0.356990  0.637150  0.475540  1.0  -0.4326
  N  N9863  1  0.402420  0.624970  0.484490  1.0  -0.3381
  N  N9864  1  0.405820  0.670400  0.439090  1.0  -0.4426
  N  N9865  1  0.440290  0.660340  0.429750  1.0  -0.399
  N  N9866  1  0.423870  0.688870  0.412370  1.0  -0.4516
  N  N9867  1  0.371850  0.724320  0.399250  1.0  -0.3135
  N  N9868  1  0.342380  0.748810  0.373240  1.0  -0.3872
  N  N9869  1  0.375240  0.770090  0.401030  1.0  -0.3182
  N  N9870  1  0.344280  0.828310  0.436030  1.0  -0.4655
  N  N9871  1  0.485250  0.159040  0.883080  1.0  -0.33
  N  N9872  1  0.356990  0.137150  0.975540  1.0  -0.4326
  N  N9873  1  0.402420  0.124970  0.984490  1.0  -0.3381
  N  N9874  1  0.405820  0.170400  0.939090  1.0  -0.4426
  N  N9875  1  0.440290  0.160340  0.929750  1.0  -0.399
  N  N9876  1  0.423870  0.188870  0.912370  1.0  -0.4516
  N  N9877  1  0.371850  0.224320  0.899250  1.0  -0.3135
  N  N9878  1  0.342380  0.248810  0.873240  1.0  -0.3872
  N  N9879  1  0.375240  0.270090  0.901030  1.0  -0.3182
  N  N9880  1  0.344280  0.328310  0.936030  1.0  -0.4655
  N  N9881  1  0.485250  0.090960  0.366920  1.0  -0.3303
  N  N9882  1  0.356990  0.112850  0.274460  1.0  -0.4327
  N  N9883  1  0.402420  0.125030  0.265510  1.0  -0.3389
  N  N9884  1  0.405820  0.079600  0.310910  1.0  -0.4432
  N  N9885  1  0.440290  0.089660  0.320250  1.0  -0.3993
  N  N9886  1  0.423870  0.061130  0.337630  1.0  -0.4495
  N  N9887  1  0.371850  0.025680  0.350750  1.0  -0.3132
  N  N9888  1  0.342380  0.001190  0.376760  1.0  -0.3877
  N  N9889  1  0.375240  0.979910  0.348970  1.0  -0.3166
  N  N9890  1  0.344280  0.921690  0.313970  1.0  -0.4658
  N  N9891  1  0.485250  0.590960  0.866920  1.0  -0.3303
  N  N9892  1  0.356990  0.612850  0.774460  1.0  -0.4327
  N  N9893  1  0.402420  0.625030  0.765510  1.0  -0.3389
  N  N9894  1  0.405820  0.579600  0.810910  1.0  -0.4432
  N  N9895  1  0.440290  0.589660  0.820250  1.0  -0.3993
  N  N9896  1  0.423870  0.561130  0.837630  1.0  -0.4495
  N  N9897  1  0.371850  0.525680  0.850750  1.0  -0.3132
  N  N9898  1  0.342380  0.501190  0.876760  1.0  -0.3877
  N  N9899  1  0.375240  0.479910  0.848970  1.0  -0.3166
  N  N9900  1  0.344280  0.421690  0.813970  1.0  -0.4658
  N  N9901  1  0.985250  0.090960  0.866920  1.0  -0.3303
  N  N9902  1  0.856990  0.112850  0.774460  1.0  -0.4327
  N  N9903  1  0.902420  0.125030  0.765510  1.0  -0.3389
  N  N9904  1  0.905820  0.079600  0.810910  1.0  -0.4432
  N  N9905  1  0.940290  0.089660  0.820250  1.0  -0.3993
  N  N9906  1  0.923870  0.061130  0.837630  1.0  -0.4495
  N  N9907  1  0.871850  0.025680  0.850750  1.0  -0.3132
  N  N9908  1  0.842380  0.001190  0.876760  1.0  -0.3877
  N  N9909  1  0.875240  0.979910  0.848970  1.0  -0.3166
  N  N9910  1  0.844280  0.921690  0.813970  1.0  -0.4658
  N  N9911  1  0.985250  0.590960  0.366920  1.0  -0.3303
  N  N9912  1  0.856990  0.612850  0.274460  1.0  -0.4327
  N  N9913  1  0.902420  0.625030  0.265510  1.0  -0.3389
  N  N9914  1  0.905820  0.579600  0.310910  1.0  -0.4432
  N  N9915  1  0.940290  0.589660  0.320250  1.0  -0.3993
  N  N9916  1  0.923870  0.561130  0.337630  1.0  -0.4495
  N  N9917  1  0.871850  0.525680  0.350750  1.0  -0.3132
  N  N9918  1  0.842380  0.501190  0.376760  1.0  -0.3877
  N  N9919  1  0.875240  0.479910  0.348970  1.0  -0.3166
  N  N9920  1  0.844280  0.421690  0.313970  1.0  -0.4658
  N  N9921  1  0.383080  0.764750  0.590960  1.0  -0.3341
  N  N9922  1  0.475540  0.893010  0.612850  1.0  -0.4325
  N  N9923  1  0.484490  0.847580  0.625030  1.0  -0.34
  N  N9924  1  0.439090  0.844180  0.579600  1.0  -0.4405
  N  N9925  1  0.429750  0.809710  0.589660  1.0  -0.3984
  N  N9926  1  0.412370  0.826130  0.561130  1.0  -0.4507
  N  N9927  1  0.399250  0.878150  0.525680  1.0  -0.3111
  N  N9928  1  0.373240  0.907620  0.501190  1.0  -0.3788
  N  N9929  1  0.401030  0.874760  0.479910  1.0  -0.3139
  N  N9930  1  0.436030  0.905720  0.421690  1.0  -0.4644
  N  N9931  1  0.383080  0.264750  0.090960  1.0  -0.3341
  N  N9932  1  0.475540  0.393010  0.112850  1.0  -0.4325
  N  N9933  1  0.484490  0.347580  0.125030  1.0  -0.34
  N  N9934  1  0.439090  0.344180  0.079600  1.0  -0.4405
  N  N9935  1  0.429750  0.309710  0.089660  1.0  -0.3984
  N  N9936  1  0.412370  0.326130  0.061130  1.0  -0.4507
  N  N9937  1  0.399250  0.378150  0.025680  1.0  -0.3111
  N  N9938  1  0.373240  0.407620  0.001190  1.0  -0.3788
  N  N9939  1  0.401030  0.374760  0.979910  1.0  -0.3139
  N  N9940  1  0.436030  0.405720  0.921690  1.0  -0.4644
  N  N9941  1  0.883080  0.764750  0.090960  1.0  -0.3341
  N  N9942  1  0.975540  0.893010  0.112850  1.0  -0.4325
  N  N9943  1  0.984490  0.847580  0.125030  1.0  -0.34
  N  N9944  1  0.939090  0.844180  0.079600  1.0  -0.4405
  N  N9945  1  0.929750  0.809710  0.089660  1.0  -0.3984
  N  N9946  1  0.912370  0.826130  0.061130  1.0  -0.4507
  N  N9947  1  0.899250  0.878150  0.025680  1.0  -0.3111
  N  N9948  1  0.873240  0.907620  0.001190  1.0  -0.3788
  N  N9949  1  0.901030  0.874760  0.979910  1.0  -0.3139
  N  N9950  1  0.936030  0.905720  0.921690  1.0  -0.4644
  N  N9951  1  0.883080  0.264750  0.590960  1.0  -0.3341
  N  N9952  1  0.975540  0.393010  0.612850  1.0  -0.4325
  N  N9953  1  0.984490  0.347580  0.625030  1.0  -0.34
  N  N9954  1  0.939090  0.344180  0.579600  1.0  -0.4405
  N  N9955  1  0.929750  0.309710  0.589660  1.0  -0.3984
  N  N9956  1  0.912370  0.326130  0.561130  1.0  -0.4507
  N  N9957  1  0.899250  0.378150  0.525680  1.0  -0.3111
  N  N9958  1  0.873240  0.407620  0.501190  1.0  -0.3788
  N  N9959  1  0.901030  0.374760  0.479910  1.0  -0.3139
  N  N9960  1  0.936030  0.405720  0.421690  1.0  -0.4644
  N  N9961  1  0.866920  0.264750  0.159040  1.0  -0.3359
  N  N9962  1  0.774460  0.393010  0.137150  1.0  -0.4322
  N  N9963  1  0.765510  0.347580  0.124970  1.0  -0.3395
  N  N9964  1  0.810910  0.344180  0.170400  1.0  -0.4405
  N  N9965  1  0.820250  0.309710  0.160340  1.0  -0.3992
  N  N9966  1  0.837630  0.326130  0.188870  1.0  -0.4507
  N  N9967  1  0.850750  0.378150  0.224320  1.0  -0.3103
  N  N9968  1  0.876760  0.407620  0.248810  1.0  -0.3792
  N  N9969  1  0.848970  0.374760  0.270090  1.0  -0.3132
  N  N9970  1  0.813970  0.405720  0.328310  1.0  -0.4642
  N  N9971  1  0.866920  0.764750  0.659040  1.0  -0.3359
  N  N9972  1  0.774460  0.893010  0.637150  1.0  -0.4322
  N  N9973  1  0.765510  0.847580  0.624970  1.0  -0.3395
  N  N9974  1  0.810910  0.844180  0.670400  1.0  -0.4405
  N  N9975  1  0.820250  0.809710  0.660340  1.0  -0.3992
  N  N9976  1  0.837630  0.826130  0.688870  1.0  -0.4507
  N  N9977  1  0.850750  0.878150  0.724320  1.0  -0.3103
  N  N9978  1  0.876760  0.907620  0.748810  1.0  -0.3792
  N  N9979  1  0.848970  0.874760  0.770090  1.0  -0.3132
  N  N9980  1  0.813970  0.905720  0.828310  1.0  -0.4642
  N  N9981  1  0.366920  0.264750  0.659040  1.0  -0.3359
  N  N9982  1  0.274460  0.393010  0.637150  1.0  -0.4322
  N  N9983  1  0.265510  0.347580  0.624970  1.0  -0.3395
  N  N9984  1  0.310910  0.344180  0.670400  1.0  -0.4405
  N  N9985  1  0.320250  0.309710  0.660340  1.0  -0.3992
  N  N9986  1  0.337630  0.326130  0.688870  1.0  -0.4507
  N  N9987  1  0.350750  0.378150  0.724320  1.0  -0.3103
  N  N9988  1  0.376760  0.407620  0.748810  1.0  -0.3792
  N  N9989  1  0.348970  0.374760  0.770090  1.0  -0.3132
  N  N9990  1  0.313970  0.405720  0.828310  1.0  -0.4642
  N  N9991  1  0.366920  0.764750  0.159040  1.0  -0.3359
  N  N9992  1  0.274460  0.893010  0.137150  1.0  -0.4322
  N  N9993  1  0.265510  0.847580  0.124970  1.0  -0.3395
  N  N9994  1  0.310910  0.844180  0.170400  1.0  -0.4405
  N  N9995  1  0.320250  0.809710  0.160340  1.0  -0.3992
  N  N9996  1  0.337630  0.826130  0.188870  1.0  -0.4507
  N  N9997  1  0.350750  0.878150  0.224320  1.0  -0.3103
  N  N9998  1  0.376760  0.907620  0.248810  1.0  -0.3792
  N  N9999  1  0.348970  0.874760  0.270090  1.0  -0.3132
  N  N10000  1  0.313970  0.905720  0.328310  1.0  -0.4642
  N  N10001  1  0.883080  0.985250  0.659040  1.0  -0.335
  N  N10002  1  0.975540  0.856990  0.637150  1.0  -0.4324
  N  N10003  1  0.984490  0.902420  0.624970  1.0  -0.3398
  N  N10004  1  0.939090  0.905820  0.670400  1.0  -0.4405
  N  N10005  1  0.929750  0.940290  0.660340  1.0  -0.3995
  N  N10006  1  0.912370  0.923870  0.688870  1.0  -0.4499
  N  N10007  1  0.899250  0.871850  0.724320  1.0  -0.3101
  N  N10008  1  0.873240  0.842380  0.748810  1.0  -0.3815
  N  N10009  1  0.901030  0.875240  0.770090  1.0  -0.3135
  N  N10010  1  0.936030  0.844280  0.828310  1.0  -0.465
  N  N10011  1  0.883080  0.485250  0.159040  1.0  -0.335
  N  N10012  1  0.975540  0.356990  0.137150  1.0  -0.4324
  N  N10013  1  0.984490  0.402420  0.124970  1.0  -0.3398
  N  N10014  1  0.939090  0.405820  0.170400  1.0  -0.4405
  N  N10015  1  0.929750  0.440290  0.160340  1.0  -0.3995
  N  N10016  1  0.912370  0.423870  0.188870  1.0  -0.4499
  N  N10017  1  0.899250  0.371850  0.224320  1.0  -0.3101
  N  N10018  1  0.873240  0.342380  0.248810  1.0  -0.3815
  N  N10019  1  0.901030  0.375240  0.270090  1.0  -0.3135
  N  N10020  1  0.936030  0.344280  0.328310  1.0  -0.465
  N  N10021  1  0.383080  0.985250  0.159040  1.0  -0.335
  N  N10022  1  0.475540  0.856990  0.137150  1.0  -0.4324
  N  N10023  1  0.484490  0.902420  0.124970  1.0  -0.3398
  N  N10024  1  0.439090  0.905820  0.170400  1.0  -0.4405
  N  N10025  1  0.429750  0.940290  0.160340  1.0  -0.3995
  N  N10026  1  0.412370  0.923870  0.188870  1.0  -0.4499
  N  N10027  1  0.399250  0.871850  0.224320  1.0  -0.3101
  N  N10028  1  0.373240  0.842380  0.248810  1.0  -0.3815
  N  N10029  1  0.401030  0.875240  0.270090  1.0  -0.3135
  N  N10030  1  0.436030  0.844280  0.328310  1.0  -0.465
  N  N10031  1  0.383080  0.485250  0.659040  1.0  -0.335
  N  N10032  1  0.475540  0.356990  0.637150  1.0  -0.4324
  N  N10033  1  0.484490  0.402420  0.624970  1.0  -0.3398
  N  N10034  1  0.439090  0.405820  0.670400  1.0  -0.4405
  N  N10035  1  0.429750  0.440290  0.660340  1.0  -0.3995
  N  N10036  1  0.412370  0.423870  0.688870  1.0  -0.4499
  N  N10037  1  0.399250  0.371850  0.724320  1.0  -0.3101
  N  N10038  1  0.373240  0.342380  0.748810  1.0  -0.3815
  N  N10039  1  0.401030  0.375240  0.770090  1.0  -0.3135
  N  N10040  1  0.436030  0.344280  0.828310  1.0  -0.465
  N  N10041  1  0.366920  0.485250  0.090960  1.0  -0.3335
  N  N10042  1  0.274460  0.356990  0.112850  1.0  -0.4331
  N  N10043  1  0.265510  0.402420  0.125030  1.0  -0.3387
  N  N10044  1  0.310910  0.405820  0.079600  1.0  -0.4408
  N  N10045  1  0.320250  0.440290  0.089660  1.0  -0.3974
  N  N10046  1  0.337630  0.423870  0.061130  1.0  -0.4515
  N  N10047  1  0.350750  0.371850  0.025680  1.0  -0.3102
  N  N10048  1  0.376760  0.342380  0.001190  1.0  -0.3804
  N  N10049  1  0.348970  0.375240  0.979910  1.0  -0.3136
  N  N10050  1  0.313970  0.344280  0.921690  1.0  -0.4652
  N  N10051  1  0.366920  0.985250  0.590960  1.0  -0.3335
  N  N10052  1  0.274460  0.856990  0.612850  1.0  -0.4331
  N  N10053  1  0.265510  0.902420  0.625030  1.0  -0.3387
  N  N10054  1  0.310910  0.905820  0.579600  1.0  -0.4408
  N  N10055  1  0.320250  0.940290  0.589660  1.0  -0.3974
  N  N10056  1  0.337630  0.923870  0.561130  1.0  -0.4515
  N  N10057  1  0.350750  0.871850  0.525680  1.0  -0.3102
  N  N10058  1  0.376760  0.842380  0.501190  1.0  -0.3804
  N  N10059  1  0.348970  0.875240  0.479910  1.0  -0.3136
  N  N10060  1  0.313970  0.844280  0.421690  1.0  -0.4652
  N  N10061  1  0.866920  0.485250  0.590960  1.0  -0.3335
  N  N10062  1  0.774460  0.356990  0.612850  1.0  -0.4331
  N  N10063  1  0.765510  0.402420  0.625030  1.0  -0.3387
  N  N10064  1  0.810910  0.405820  0.579600  1.0  -0.4408
  N  N10065  1  0.820250  0.440290  0.589660  1.0  -0.3974
  N  N10066  1  0.837630  0.423870  0.561130  1.0  -0.4515
  N  N10067  1  0.850750  0.371850  0.525680  1.0  -0.3102
  N  N10068  1  0.876760  0.342380  0.501190  1.0  -0.3804
  N  N10069  1  0.848970  0.375240  0.479910  1.0  -0.3136
  N  N10070  1  0.813970  0.344280  0.421690  1.0  -0.4652
  N  N10071  1  0.866920  0.985250  0.090960  1.0  -0.3335
  N  N10072  1  0.774460  0.856990  0.112850  1.0  -0.4331
  N  N10073  1  0.765510  0.902420  0.125030  1.0  -0.3387
  N  N10074  1  0.810910  0.905820  0.079600  1.0  -0.4408
  N  N10075  1  0.820250  0.940290  0.089660  1.0  -0.3974
  N  N10076  1  0.837630  0.923870  0.061130  1.0  -0.4515
  N  N10077  1  0.850750  0.871850  0.025680  1.0  -0.3102
  N  N10078  1  0.876760  0.842380  0.001190  1.0  -0.3804
  N  N10079  1  0.848970  0.875240  0.979910  1.0  -0.3136
  N  N10080  1  0.813970  0.844280  0.921690  1.0  -0.4652
  N  N10081  1  0.633080  0.340960  0.235250  1.0  -0.3334
  N  N10082  1  0.725540  0.362850  0.106990  1.0  -0.4334
  N  N10083  1  0.734490  0.375030  0.152420  1.0  -0.3398
  N  N10084  1  0.689090  0.329600  0.155820  1.0  -0.4423
  N  N10085  1  0.679750  0.339660  0.190290  1.0  -0.3991
  N  N10086  1  0.662370  0.311130  0.173870  1.0  -0.4483
  N  N10087  1  0.649250  0.275680  0.121850  1.0  -0.3114
  N  N10088  1  0.623240  0.251190  0.092380  1.0  -0.3792
  N  N10089  1  0.651030  0.229910  0.125240  1.0  -0.3147
  N  N10090  1  0.686030  0.171690  0.094280  1.0  -0.4651
  N  N10091  1  0.633080  0.840960  0.735250  1.0  -0.3334
  N  N10092  1  0.725540  0.862850  0.606990  1.0  -0.4334
  N  N10093  1  0.734490  0.875030  0.652420  1.0  -0.3398
  N  N10094  1  0.689090  0.829600  0.655820  1.0  -0.4423
  N  N10095  1  0.679750  0.839660  0.690290  1.0  -0.3991
  N  N10096  1  0.662370  0.811130  0.673870  1.0  -0.4483
  N  N10097  1  0.649250  0.775680  0.621850  1.0  -0.3114
  N  N10098  1  0.623240  0.751190  0.592380  1.0  -0.3792
  N  N10099  1  0.651030  0.729910  0.625240  1.0  -0.3147
  N  N10100  1  0.686030  0.671690  0.594280  1.0  -0.4651
  N  N10101  1  0.133080  0.340960  0.735250  1.0  -0.3334
  N  N10102  1  0.225540  0.362850  0.606990  1.0  -0.4334
  N  N10103  1  0.234490  0.375030  0.652420  1.0  -0.3398
  N  N10104  1  0.189090  0.329600  0.655820  1.0  -0.4423
  N  N10105  1  0.179750  0.339660  0.690290  1.0  -0.3991
  N  N10106  1  0.162370  0.311130  0.673870  1.0  -0.4483
  N  N10107  1  0.149250  0.275680  0.621850  1.0  -0.3114
  N  N10108  1  0.123240  0.251190  0.592380  1.0  -0.3792
  N  N10109  1  0.151030  0.229910  0.625240  1.0  -0.3147
  N  N10110  1  0.186030  0.171690  0.594280  1.0  -0.4651
  N  N10111  1  0.133080  0.840960  0.235250  1.0  -0.3334
  N  N10112  1  0.225540  0.862850  0.106990  1.0  -0.4334
  N  N10113  1  0.234490  0.875030  0.152420  1.0  -0.3398
  N  N10114  1  0.189090  0.829600  0.155820  1.0  -0.4423
  N  N10115  1  0.179750  0.839660  0.190290  1.0  -0.3991
  N  N10116  1  0.162370  0.811130  0.173870  1.0  -0.4483
  N  N10117  1  0.149250  0.775680  0.121850  1.0  -0.3114
  N  N10118  1  0.123240  0.751190  0.092380  1.0  -0.3792
  N  N10119  1  0.151030  0.729910  0.125240  1.0  -0.3147
  N  N10120  1  0.186030  0.671690  0.094280  1.0  -0.4651
  N  N10121  1  0.116920  0.909040  0.735250  1.0  -0.3333
  N  N10122  1  0.024460  0.887150  0.606990  1.0  -0.434
  N  N10123  1  0.015510  0.874970  0.652420  1.0  -0.3385
  N  N10124  1  0.060910  0.920400  0.655820  1.0  -0.442
  N  N10125  1  0.070250  0.910340  0.690290  1.0  -0.398
  N  N10126  1  0.087630  0.938870  0.673870  1.0  -0.4505
  N  N10127  1  0.100750  0.974320  0.621850  1.0  -0.3114
  N  N10128  1  0.126760  0.998810  0.592380  1.0  -0.3791
  N  N10129  1  0.098970  0.020090  0.625240  1.0  -0.3142
  N  N10130  1  0.063970  0.078310  0.594280  1.0  -0.4646
  N  N10131  1  0.116920  0.409040  0.235250  1.0  -0.3333
  N  N10132  1  0.024460  0.387150  0.106990  1.0  -0.434
  N  N10133  1  0.015510  0.374970  0.152420  1.0  -0.3385
  N  N10134  1  0.060910  0.420400  0.155820  1.0  -0.442
  N  N10135  1  0.070250  0.410340  0.190290  1.0  -0.398
  N  N10136  1  0.087630  0.438870  0.173870  1.0  -0.4505
  N  N10137  1  0.100750  0.474320  0.121850  1.0  -0.3114
  N  N10138  1  0.126760  0.498810  0.092380  1.0  -0.3791
  N  N10139  1  0.098970  0.520090  0.125240  1.0  -0.3142
  N  N10140  1  0.063970  0.578310  0.094280  1.0  -0.4646
  N  N10141  1  0.616920  0.909040  0.235250  1.0  -0.3333
  N  N10142  1  0.524460  0.887150  0.106990  1.0  -0.434
  N  N10143  1  0.515510  0.874970  0.152420  1.0  -0.3385
  N  N10144  1  0.560910  0.920400  0.155820  1.0  -0.442
  N  N10145  1  0.570250  0.910340  0.190290  1.0  -0.398
  N  N10146  1  0.587630  0.938870  0.173870  1.0  -0.4505
  N  N10147  1  0.600750  0.974320  0.121850  1.0  -0.3114
  N  N10148  1  0.626760  0.998810  0.092380  1.0  -0.3791
  N  N10149  1  0.598970  0.020090  0.125240  1.0  -0.3142
  N  N10150  1  0.563970  0.078310  0.094280  1.0  -0.4646
  N  N10151  1  0.616920  0.409040  0.735250  1.0  -0.3333
  N  N10152  1  0.524460  0.387150  0.606990  1.0  -0.434
  N  N10153  1  0.515510  0.374970  0.652420  1.0  -0.3385
  N  N10154  1  0.560910  0.420400  0.655820  1.0  -0.442
  N  N10155  1  0.570250  0.410340  0.690290  1.0  -0.398
  N  N10156  1  0.587630  0.438870  0.673870  1.0  -0.4505
  N  N10157  1  0.600750  0.474320  0.621850  1.0  -0.3114
  N  N10158  1  0.626760  0.498810  0.592380  1.0  -0.3791
  N  N10159  1  0.598970  0.520090  0.625240  1.0  -0.3142
  N  N10160  1  0.563970  0.578310  0.594280  1.0  -0.4646
  N  N10161  1  0.133080  0.409040  0.014750  1.0  -0.3334
  N  N10162  1  0.225540  0.387150  0.143010  1.0  -0.4331
  N  N10163  1  0.234490  0.374970  0.097580  1.0  -0.3401
  N  N10164  1  0.189090  0.420400  0.094180  1.0  -0.4411
  N  N10165  1  0.179750  0.410340  0.059710  1.0  -0.4009
  N  N10166  1  0.162370  0.438870  0.076130  1.0  -0.4496
  N  N10167  1  0.149250  0.474320  0.128150  1.0  -0.3111
  N  N10168  1  0.123240  0.498810  0.157620  1.0  -0.3788
  N  N10169  1  0.151030  0.520090  0.124760  1.0  -0.315
  N  N10170  1  0.186030  0.578310  0.155720  1.0  -0.4652
  N  N10171  1  0.133080  0.909040  0.514750  1.0  -0.3334
  N  N10172  1  0.225540  0.887150  0.643010  1.0  -0.4331
  N  N10173  1  0.234490  0.874970  0.597580  1.0  -0.3401
  N  N10174  1  0.189090  0.920400  0.594180  1.0  -0.4411
  N  N10175  1  0.179750  0.910340  0.559710  1.0  -0.4009
  N  N10176  1  0.162370  0.938870  0.576130  1.0  -0.4496
  N  N10177  1  0.149250  0.974320  0.628150  1.0  -0.3111
  N  N10178  1  0.123240  0.998810  0.657620  1.0  -0.3788
  N  N10179  1  0.151030  0.020090  0.624760  1.0  -0.315
  N  N10180  1  0.186030  0.078310  0.655720  1.0  -0.4652
  N  N10181  1  0.633080  0.409040  0.514750  1.0  -0.3334
  N  N10182  1  0.725540  0.387150  0.643010  1.0  -0.4331
  N  N10183  1  0.734490  0.374970  0.597580  1.0  -0.3401
  N  N10184  1  0.689090  0.420400  0.594180  1.0  -0.4411
  N  N10185  1  0.679750  0.410340  0.559710  1.0  -0.4009
  N  N10186  1  0.662370  0.438870  0.576130  1.0  -0.4496
  N  N10187  1  0.649250  0.474320  0.628150  1.0  -0.3111
  N  N10188  1  0.623240  0.498810  0.657620  1.0  -0.3788
  N  N10189  1  0.651030  0.520090  0.624760  1.0  -0.315
  N  N10190  1  0.686030  0.578310  0.655720  1.0  -0.4652
  N  N10191  1  0.633080  0.909040  0.014750  1.0  -0.3334
  N  N10192  1  0.725540  0.887150  0.143010  1.0  -0.4331
  N  N10193  1  0.734490  0.874970  0.097580  1.0  -0.3401
  N  N10194  1  0.689090  0.920400  0.094180  1.0  -0.4411
  N  N10195  1  0.679750  0.910340  0.059710  1.0  -0.4009
  N  N10196  1  0.662370  0.938870  0.076130  1.0  -0.4496
  N  N10197  1  0.649250  0.974320  0.128150  1.0  -0.3111
  N  N10198  1  0.623240  0.998810  0.157620  1.0  -0.3788
  N  N10199  1  0.651030  0.020090  0.124760  1.0  -0.315
  N  N10200  1  0.686030  0.078310  0.155720  1.0  -0.4652
  N  N10201  1  0.616920  0.840960  0.514750  1.0  -0.3329
  N  N10202  1  0.524460  0.862850  0.643010  1.0  -0.4335
  N  N10203  1  0.515510  0.875030  0.597580  1.0  -0.3395
  N  N10204  1  0.560910  0.829600  0.594180  1.0  -0.4415
  N  N10205  1  0.570250  0.839660  0.559710  1.0  -0.3996
  N  N10206  1  0.587630  0.811130  0.576130  1.0  -0.4488
  N  N10207  1  0.600750  0.775680  0.628150  1.0  -0.311
  N  N10208  1  0.626760  0.751190  0.657620  1.0  -0.3787
  N  N10209  1  0.598970  0.729910  0.624760  1.0  -0.3139
  N  N10210  1  0.563970  0.671690  0.655720  1.0  -0.4646
  N  N10211  1  0.616920  0.340960  0.014750  1.0  -0.3329
  N  N10212  1  0.524460  0.362850  0.143010  1.0  -0.4335
  N  N10213  1  0.515510  0.375030  0.097580  1.0  -0.3395
  N  N10214  1  0.560910  0.329600  0.094180  1.0  -0.4415
  N  N10215  1  0.570250  0.339660  0.059710  1.0  -0.3996
  N  N10216  1  0.587630  0.311130  0.076130  1.0  -0.4488
  N  N10217  1  0.600750  0.275680  0.128150  1.0  -0.311
  N  N10218  1  0.626760  0.251190  0.157620  1.0  -0.3787
  N  N10219  1  0.598970  0.229910  0.124760  1.0  -0.3139
  N  N10220  1  0.563970  0.171690  0.155720  1.0  -0.4646
  N  N10221  1  0.116920  0.840960  0.014750  1.0  -0.3329
  N  N10222  1  0.024460  0.862850  0.143010  1.0  -0.4335
  N  N10223  1  0.015510  0.875030  0.097580  1.0  -0.3395
  N  N10224  1  0.060910  0.829600  0.094180  1.0  -0.4415
  N  N10225  1  0.070250  0.839660  0.059710  1.0  -0.3996
  N  N10226  1  0.087630  0.811130  0.076130  1.0  -0.4488
  N  N10227  1  0.100750  0.775680  0.128150  1.0  -0.311
  N  N10228  1  0.126760  0.751190  0.157620  1.0  -0.3787
  N  N10229  1  0.098970  0.729910  0.124760  1.0  -0.3139
  N  N10230  1  0.063970  0.671690  0.155720  1.0  -0.4646
  N  N10231  1  0.116920  0.340960  0.514750  1.0  -0.3329
  N  N10232  1  0.024460  0.362850  0.643010  1.0  -0.4335
  N  N10233  1  0.015510  0.375030  0.597580  1.0  -0.3395
  N  N10234  1  0.060910  0.329600  0.594180  1.0  -0.4415
  N  N10235  1  0.070250  0.339660  0.559710  1.0  -0.3996
  N  N10236  1  0.087630  0.311130  0.576130  1.0  -0.4488
  N  N10237  1  0.100750  0.275680  0.628150  1.0  -0.311
  N  N10238  1  0.126760  0.251190  0.657620  1.0  -0.3787
  N  N10239  1  0.098970  0.229910  0.624760  1.0  -0.3139
  N  N10240  1  0.063970  0.171690  0.655720  1.0  -0.4646
  N  N10241  1  0.840960  0.514750  0.616920  1.0  -0.3279
  N  N10242  1  0.862850  0.643010  0.524460  1.0  -0.4329
  N  N10243  1  0.875030  0.597580  0.515510  1.0  -0.3422
  N  N10244  1  0.829600  0.594180  0.560910  1.0  -0.4421
  N  N10245  1  0.839660  0.559710  0.570250  1.0  -0.3987
  N  N10246  1  0.811130  0.576130  0.587630  1.0  -0.4499
  N  N10247  1  0.775680  0.628150  0.600750  1.0  -0.3109
  N  N10248  1  0.751190  0.657620  0.626760  1.0  -0.3795
  N  N10249  1  0.729910  0.624760  0.598970  1.0  -0.3139
  N  N10250  1  0.671690  0.655720  0.563970  1.0  -0.4645
  N  N10251  1  0.840960  0.014750  0.116920  1.0  -0.3279
  N  N10252  1  0.862850  0.143010  0.024460  1.0  -0.4329
  N  N10253  1  0.875030  0.097580  0.015510  1.0  -0.3422
  N  N10254  1  0.829600  0.094180  0.060910  1.0  -0.4421
  N  N10255  1  0.839660  0.059710  0.070250  1.0  -0.3987
  N  N10256  1  0.811130  0.076130  0.087630  1.0  -0.4499
  N  N10257  1  0.775680  0.128150  0.100750  1.0  -0.3109
  N  N10258  1  0.751190  0.157620  0.126760  1.0  -0.3795
  N  N10259  1  0.729910  0.124760  0.098970  1.0  -0.3139
  N  N10260  1  0.671690  0.155720  0.063970  1.0  -0.4645
  N  N10261  1  0.340960  0.514750  0.116920  1.0  -0.3279
  N  N10262  1  0.362850  0.643010  0.024460  1.0  -0.4329
  N  N10263  1  0.375030  0.597580  0.015510  1.0  -0.3422
  N  N10264  1  0.329600  0.594180  0.060910  1.0  -0.4421
  N  N10265  1  0.339660  0.559710  0.070250  1.0  -0.3987
  N  N10266  1  0.311130  0.576130  0.087630  1.0  -0.4499
  N  N10267  1  0.275680  0.628150  0.100750  1.0  -0.3109
  N  N10268  1  0.251190  0.657620  0.126760  1.0  -0.3795
  N  N10269  1  0.229910  0.624760  0.098970  1.0  -0.3139
  N  N10270  1  0.171690  0.655720  0.063970  1.0  -0.4645
  N  N10271  1  0.340960  0.014750  0.616920  1.0  -0.3279
  N  N10272  1  0.362850  0.143010  0.524460  1.0  -0.4329
  N  N10273  1  0.375030  0.097580  0.515510  1.0  -0.3422
  N  N10274  1  0.329600  0.094180  0.560910  1.0  -0.4421
  N  N10275  1  0.339660  0.059710  0.570250  1.0  -0.3987
  N  N10276  1  0.311130  0.076130  0.587630  1.0  -0.4499
  N  N10277  1  0.275680  0.128150  0.600750  1.0  -0.3109
  N  N10278  1  0.251190  0.157620  0.626760  1.0  -0.3795
  N  N10279  1  0.229910  0.124760  0.598970  1.0  -0.3139
  N  N10280  1  0.171690  0.155720  0.563970  1.0  -0.4645
  N  N10281  1  0.409040  0.014750  0.133080  1.0  -0.3281
  N  N10282  1  0.387150  0.143010  0.225540  1.0  -0.4342
  N  N10283  1  0.374970  0.097580  0.234490  1.0  -0.3416
  N  N10284  1  0.420400  0.094180  0.189090  1.0  -0.4407
  N  N10285  1  0.410340  0.059710  0.179750  1.0  -0.3985
  N  N10286  1  0.438870  0.076130  0.162370  1.0  -0.4511
  N  N10287  1  0.474320  0.128150  0.149250  1.0  -0.3112
  N  N10288  1  0.498810  0.157620  0.123240  1.0  -0.3791
  N  N10289  1  0.520090  0.124760  0.151030  1.0  -0.3155
  N  N10290  1  0.578310  0.155720  0.186030  1.0  -0.4632
  N  N10291  1  0.409040  0.514750  0.633080  1.0  -0.3281
  N  N10292  1  0.387150  0.643010  0.725540  1.0  -0.4342
  N  N10293  1  0.374970  0.597580  0.734490  1.0  -0.3416
  N  N10294  1  0.420400  0.594180  0.689090  1.0  -0.4407
  N  N10295  1  0.410340  0.559710  0.679750  1.0  -0.3985
  N  N10296  1  0.438870  0.576130  0.662370  1.0  -0.4511
  N  N10297  1  0.474320  0.628150  0.649250  1.0  -0.3112
  N  N10298  1  0.498810  0.657620  0.623240  1.0  -0.3791
  N  N10299  1  0.520090  0.624760  0.651030  1.0  -0.3155
  N  N10300  1  0.578310  0.655720  0.686030  1.0  -0.4632
  N  N10301  1  0.909040  0.014750  0.633080  1.0  -0.3281
  N  N10302  1  0.887150  0.143010  0.725540  1.0  -0.4342
  N  N10303  1  0.874970  0.097580  0.734490  1.0  -0.3416
  N  N10304  1  0.920400  0.094180  0.689090  1.0  -0.4407
  N  N10305  1  0.910340  0.059710  0.679750  1.0  -0.3985
  N  N10306  1  0.938870  0.076130  0.662370  1.0  -0.4511
  N  N10307  1  0.974320  0.128150  0.649250  1.0  -0.3112
  N  N10308  1  0.998810  0.157620  0.623240  1.0  -0.3791
  N  N10309  1  0.020090  0.124760  0.651030  1.0  -0.3155
  N  N10310  1  0.078310  0.155720  0.686030  1.0  -0.4632
  N  N10311  1  0.909040  0.514750  0.133080  1.0  -0.3281
  N  N10312  1  0.887150  0.643010  0.225540  1.0  -0.4342
  N  N10313  1  0.874970  0.597580  0.234490  1.0  -0.3416
  N  N10314  1  0.920400  0.594180  0.189090  1.0  -0.4407
  N  N10315  1  0.910340  0.559710  0.179750  1.0  -0.3985
  N  N10316  1  0.938870  0.576130  0.162370  1.0  -0.4511
  N  N10317  1  0.974320  0.628150  0.149250  1.0  -0.3112
  N  N10318  1  0.998810  0.657620  0.123240  1.0  -0.3791
  N  N10319  1  0.020090  0.624760  0.151030  1.0  -0.3155
  N  N10320  1  0.078310  0.655720  0.186030  1.0  -0.4632
  N  N10321  1  0.909040  0.735250  0.116920  1.0  -0.3279
  N  N10322  1  0.887150  0.606990  0.024460  1.0  -0.434
  N  N10323  1  0.874970  0.652420  0.015510  1.0  -0.3422
  N  N10324  1  0.920400  0.655820  0.060910  1.0  -0.4416
  N  N10325  1  0.910340  0.690290  0.070250  1.0  -0.3979
  N  N10326  1  0.938870  0.673870  0.087630  1.0  -0.4512
  N  N10327  1  0.974320  0.621850  0.100750  1.0  -0.3101
  N  N10328  1  0.998810  0.592380  0.126760  1.0  -0.3812
  N  N10329  1  0.020090  0.625240  0.098970  1.0  -0.3151
  N  N10330  1  0.078310  0.594280  0.063970  1.0  -0.4643
  N  N10331  1  0.909040  0.235250  0.616920  1.0  -0.3279
  N  N10332  1  0.887150  0.106990  0.524460  1.0  -0.434
  N  N10333  1  0.874970  0.152420  0.515510  1.0  -0.3422
  N  N10334  1  0.920400  0.155820  0.560910  1.0  -0.4416
  N  N10335  1  0.910340  0.190290  0.570250  1.0  -0.3979
  N  N10336  1  0.938870  0.173870  0.587630  1.0  -0.4512
  N  N10337  1  0.974320  0.121850  0.600750  1.0  -0.3101
  N  N10338  1  0.998810  0.092380  0.626760  1.0  -0.3812
  N  N10339  1  0.020090  0.125240  0.598970  1.0  -0.3151
  N  N10340  1  0.078310  0.094280  0.563970  1.0  -0.4643
  N  N10341  1  0.409040  0.735250  0.616920  1.0  -0.3279
  N  N10342  1  0.387150  0.606990  0.524460  1.0  -0.434
  N  N10343  1  0.374970  0.652420  0.515510  1.0  -0.3422
  N  N10344  1  0.420400  0.655820  0.560910  1.0  -0.4416
  N  N10345  1  0.410340  0.690290  0.570250  1.0  -0.3979
  N  N10346  1  0.438870  0.673870  0.587630  1.0  -0.4512
  N  N10347  1  0.474320  0.621850  0.600750  1.0  -0.3101
  N  N10348  1  0.498810  0.592380  0.626760  1.0  -0.3812
  N  N10349  1  0.520090  0.625240  0.598970  1.0  -0.3151
  N  N10350  1  0.578310  0.594280  0.563970  1.0  -0.4643
  N  N10351  1  0.409040  0.235250  0.116920  1.0  -0.3279
  N  N10352  1  0.387150  0.106990  0.024460  1.0  -0.434
  N  N10353  1  0.374970  0.152420  0.015510  1.0  -0.3422
  N  N10354  1  0.420400  0.155820  0.060910  1.0  -0.4416
  N  N10355  1  0.410340  0.190290  0.070250  1.0  -0.3979
  N  N10356  1  0.438870  0.173870  0.087630  1.0  -0.4512
  N  N10357  1  0.474320  0.121850  0.100750  1.0  -0.3101
  N  N10358  1  0.498810  0.092380  0.126760  1.0  -0.3812
  N  N10359  1  0.520090  0.125240  0.098970  1.0  -0.3151
  N  N10360  1  0.578310  0.094280  0.063970  1.0  -0.4643
  N  N10361  1  0.340960  0.235250  0.633080  1.0  -0.3274
  N  N10362  1  0.362850  0.106990  0.725540  1.0  -0.4324
  N  N10363  1  0.375030  0.152420  0.734490  1.0  -0.3413
  N  N10364  1  0.329600  0.155820  0.689090  1.0  -0.441
  N  N10365  1  0.339660  0.190290  0.679750  1.0  -0.398
  N  N10366  1  0.311130  0.173870  0.662370  1.0  -0.4505
  N  N10367  1  0.275680  0.121850  0.649250  1.0  -0.3113
  N  N10368  1  0.251190  0.092380  0.623240  1.0  -0.3808
  N  N10369  1  0.229910  0.125240  0.651030  1.0  -0.3153
  N  N10370  1  0.171690  0.094280  0.686030  1.0  -0.4643
  N  N10371  1  0.340960  0.735250  0.133080  1.0  -0.3274
  N  N10372  1  0.362850  0.606990  0.225540  1.0  -0.4324
  N  N10373  1  0.375030  0.652420  0.234490  1.0  -0.3413
  N  N10374  1  0.329600  0.655820  0.189090  1.0  -0.441
  N  N10375  1  0.339660  0.690290  0.179750  1.0  -0.398
  N  N10376  1  0.311130  0.673870  0.162370  1.0  -0.4505
  N  N10377  1  0.275680  0.621850  0.149250  1.0  -0.3113
  N  N10378  1  0.251190  0.592380  0.123240  1.0  -0.3808
  N  N10379  1  0.229910  0.625240  0.151030  1.0  -0.3153
  N  N10380  1  0.171690  0.594280  0.186030  1.0  -0.4643
  N  N10381  1  0.840960  0.235250  0.133080  1.0  -0.3274
  N  N10382  1  0.862850  0.106990  0.225540  1.0  -0.4324
  N  N10383  1  0.875030  0.152420  0.234490  1.0  -0.3413
  N  N10384  1  0.829600  0.155820  0.189090  1.0  -0.441
  N  N10385  1  0.839660  0.190290  0.179750  1.0  -0.398
  N  N10386  1  0.811130  0.173870  0.162370  1.0  -0.4505
  N  N10387  1  0.775680  0.121850  0.149250  1.0  -0.3113
  N  N10388  1  0.751190  0.092380  0.123240  1.0  -0.3808
  N  N10389  1  0.729910  0.125240  0.151030  1.0  -0.3153
  N  N10390  1  0.671690  0.094280  0.186030  1.0  -0.4643
  N  N10391  1  0.840960  0.735250  0.633080  1.0  -0.3274
  N  N10392  1  0.862850  0.606990  0.725540  1.0  -0.4324
  N  N10393  1  0.875030  0.652420  0.734490  1.0  -0.3413
  N  N10394  1  0.829600  0.655820  0.689090  1.0  -0.441
  N  N10395  1  0.839660  0.690290  0.679750  1.0  -0.398
  N  N10396  1  0.811130  0.673870  0.662370  1.0  -0.4505
  N  N10397  1  0.775680  0.621850  0.649250  1.0  -0.3113
  N  N10398  1  0.751190  0.592380  0.623240  1.0  -0.3808
  N  N10399  1  0.729910  0.625240  0.651030  1.0  -0.3153
  N  N10400  1  0.671690  0.594280  0.686030  1.0  -0.4643
  N  N10401  1  0.014750  0.133080  0.409040  1.0  -0.3326
  N  N10402  1  0.143010  0.225540  0.387150  1.0  -0.4321
  N  N10403  1  0.097580  0.234490  0.374970  1.0  -0.338
  N  N10404  1  0.094180  0.189090  0.420400  1.0  -0.4451
  N  N10405  1  0.059710  0.179750  0.410340  1.0  -0.3991
  N  N10406  1  0.076130  0.162370  0.438870  1.0  -0.4514
  N  N10407  1  0.128150  0.149250  0.474320  1.0  -0.3125
  N  N10408  1  0.157620  0.123240  0.498810  1.0  -0.3858
  N  N10409  1  0.124760  0.151030  0.520090  1.0  -0.3163
  N  N10410  1  0.155720  0.186030  0.578310  1.0  -0.4644
  N  N10411  1  0.014750  0.633080  0.909040  1.0  -0.3326
  N  N10412  1  0.143010  0.725540  0.887150  1.0  -0.4321
  N  N10413  1  0.097580  0.734490  0.874970  1.0  -0.338
  N  N10414  1  0.094180  0.689090  0.920400  1.0  -0.4451
  N  N10415  1  0.059710  0.679750  0.910340  1.0  -0.3991
  N  N10416  1  0.076130  0.662370  0.938870  1.0  -0.4514
  N  N10417  1  0.128150  0.649250  0.974320  1.0  -0.3125
  N  N10418  1  0.157620  0.623240  0.998810  1.0  -0.3858
  N  N10419  1  0.124760  0.651030  0.020090  1.0  -0.3163
  N  N10420  1  0.155720  0.686030  0.078310  1.0  -0.4644
  N  N10421  1  0.514750  0.133080  0.909040  1.0  -0.3326
  N  N10422  1  0.643010  0.225540  0.887150  1.0  -0.4321
  N  N10423  1  0.597580  0.234490  0.874970  1.0  -0.338
  N  N10424  1  0.594180  0.189090  0.920400  1.0  -0.4451
  N  N10425  1  0.559710  0.179750  0.910340  1.0  -0.3991
  N  N10426  1  0.576130  0.162370  0.938870  1.0  -0.4514
  N  N10427  1  0.628150  0.149250  0.974320  1.0  -0.3125
  N  N10428  1  0.657620  0.123240  0.998810  1.0  -0.3858
  N  N10429  1  0.624760  0.151030  0.020090  1.0  -0.3163
  N  N10430  1  0.655720  0.186030  0.078310  1.0  -0.4644
  N  N10431  1  0.514750  0.633080  0.409040  1.0  -0.3326
  N  N10432  1  0.643010  0.725540  0.387150  1.0  -0.4321
  N  N10433  1  0.597580  0.734490  0.374970  1.0  -0.338
  N  N10434  1  0.594180  0.689090  0.420400  1.0  -0.4451
  N  N10435  1  0.559710  0.679750  0.410340  1.0  -0.3991
  N  N10436  1  0.576130  0.662370  0.438870  1.0  -0.4514
  N  N10437  1  0.628150  0.649250  0.474320  1.0  -0.3125
  N  N10438  1  0.657620  0.623240  0.498810  1.0  -0.3858
  N  N10439  1  0.624760  0.651030  0.520090  1.0  -0.3163
  N  N10440  1  0.655720  0.686030  0.578310  1.0  -0.4644
  N  N10441  1  0.514750  0.616920  0.840960  1.0  -0.331
  N  N10442  1  0.643010  0.524460  0.862850  1.0  -0.4325
  N  N10443  1  0.597580  0.515510  0.875030  1.0  -0.338
  N  N10444  1  0.594180  0.560910  0.829600  1.0  -0.4446
  N  N10445  1  0.559710  0.570250  0.839660  1.0  -0.3983
  N  N10446  1  0.576130  0.587630  0.811130  1.0  -0.4522
  N  N10447  1  0.628150  0.600750  0.775680  1.0  -0.3115
  N  N10448  1  0.657620  0.626760  0.751190  1.0  -0.3853
  N  N10449  1  0.624760  0.598970  0.729910  1.0  -0.3162
  N  N10450  1  0.655720  0.563970  0.671690  1.0  -0.4642
  N  N10451  1  0.514750  0.116920  0.340960  1.0  -0.331
  N  N10452  1  0.643010  0.024460  0.362850  1.0  -0.4325
  N  N10453  1  0.597580  0.015510  0.375030  1.0  -0.338
  N  N10454  1  0.594180  0.060910  0.329600  1.0  -0.4446
  N  N10455  1  0.559710  0.070250  0.339660  1.0  -0.3983
  N  N10456  1  0.576130  0.087630  0.311130  1.0  -0.4522
  N  N10457  1  0.628150  0.100750  0.275680  1.0  -0.3115
  N  N10458  1  0.657620  0.126760  0.251190  1.0  -0.3853
  N  N10459  1  0.624760  0.098970  0.229910  1.0  -0.3162
  N  N10460  1  0.655720  0.063970  0.171690  1.0  -0.4642
  N  N10461  1  0.014750  0.616920  0.340960  1.0  -0.331
  N  N10462  1  0.143010  0.524460  0.362850  1.0  -0.4325
  N  N10463  1  0.097580  0.515510  0.375030  1.0  -0.338
  N  N10464  1  0.094180  0.560910  0.329600  1.0  -0.4446
  N  N10465  1  0.059710  0.570250  0.339660  1.0  -0.3983
  N  N10466  1  0.076130  0.587630  0.311130  1.0  -0.4522
  N  N10467  1  0.128150  0.600750  0.275680  1.0  -0.3115
  N  N10468  1  0.157620  0.626760  0.251190  1.0  -0.3853
  N  N10469  1  0.124760  0.598970  0.229910  1.0  -0.3162
  N  N10470  1  0.155720  0.563970  0.171690  1.0  -0.4642
  N  N10471  1  0.014750  0.116920  0.840960  1.0  -0.331
  N  N10472  1  0.143010  0.024460  0.862850  1.0  -0.4325
  N  N10473  1  0.097580  0.015510  0.875030  1.0  -0.338
  N  N10474  1  0.094180  0.060910  0.829600  1.0  -0.4446
  N  N10475  1  0.059710  0.070250  0.839660  1.0  -0.3983
  N  N10476  1  0.076130  0.087630  0.811130  1.0  -0.4522
  N  N10477  1  0.128150  0.100750  0.775680  1.0  -0.3115
  N  N10478  1  0.157620  0.126760  0.751190  1.0  -0.3853
  N  N10479  1  0.124760  0.098970  0.729910  1.0  -0.3162
  N  N10480  1  0.155720  0.063970  0.671690  1.0  -0.4642
  N  N10481  1  0.235250  0.633080  0.340960  1.0  -0.3318
  N  N10482  1  0.106990  0.725540  0.362850  1.0  -0.4326
  N  N10483  1  0.152420  0.734490  0.375030  1.0  -0.3374
  N  N10484  1  0.155820  0.689090  0.329600  1.0  -0.4426
  N  N10485  1  0.190290  0.679750  0.339660  1.0  -0.3986
  N  N10486  1  0.173870  0.662370  0.311130  1.0  -0.4524
  N  N10487  1  0.121850  0.649250  0.275680  1.0  -0.3133
  N  N10488  1  0.092380  0.623240  0.251190  1.0  -0.3871
  N  N10489  1  0.125240  0.651030  0.229910  1.0  -0.3163
  N  N10490  1  0.094280  0.686030  0.171690  1.0  -0.4657
  N  N10491  1  0.235250  0.133080  0.840960  1.0  -0.3318
  N  N10492  1  0.106990  0.225540  0.862850  1.0  -0.4326
  N  N10493  1  0.152420  0.234490  0.875030  1.0  -0.3374
  N  N10494  1  0.155820  0.189090  0.829600  1.0  -0.4426
  N  N10495  1  0.190290  0.179750  0.839660  1.0  -0.3986
  N  N10496  1  0.173870  0.162370  0.811130  1.0  -0.4524
  N  N10497  1  0.121850  0.149250  0.775680  1.0  -0.3133
  N  N10498  1  0.092380  0.123240  0.751190  1.0  -0.3871
  N  N10499  1  0.125240  0.151030  0.729910  1.0  -0.3163
  N  N10500  1  0.094280  0.186030  0.671690  1.0  -0.4657
  N  N10501  1  0.735250  0.633080  0.840960  1.0  -0.3318
  N  N10502  1  0.606990  0.725540  0.862850  1.0  -0.4326
  N  N10503  1  0.652420  0.734490  0.875030  1.0  -0.3374
  N  N10504  1  0.655820  0.689090  0.829600  1.0  -0.4426
  N  N10505  1  0.690290  0.679750  0.839660  1.0  -0.3986
  N  N10506  1  0.673870  0.662370  0.811130  1.0  -0.4524
  N  N10507  1  0.621850  0.649250  0.775680  1.0  -0.3133
  N  N10508  1  0.592380  0.623240  0.751190  1.0  -0.3871
  N  N10509  1  0.625240  0.651030  0.729910  1.0  -0.3163
  N  N10510  1  0.594280  0.686030  0.671690  1.0  -0.4657
  N  N10511  1  0.735250  0.133080  0.340960  1.0  -0.3318
  N  N10512  1  0.606990  0.225540  0.362850  1.0  -0.4326
  N  N10513  1  0.652420  0.234490  0.375030  1.0  -0.3374
  N  N10514  1  0.655820  0.189090  0.329600  1.0  -0.4426
  N  N10515  1  0.690290  0.179750  0.339660  1.0  -0.3986
  N  N10516  1  0.673870  0.162370  0.311130  1.0  -0.4524
  N  N10517  1  0.621850  0.149250  0.275680  1.0  -0.3133
  N  N10518  1  0.592380  0.123240  0.251190  1.0  -0.3871
  N  N10519  1  0.625240  0.151030  0.229910  1.0  -0.3163
  N  N10520  1  0.594280  0.186030  0.171690  1.0  -0.4657
  N  N10521  1  0.735250  0.116920  0.909040  1.0  -0.3331
  N  N10522  1  0.606990  0.024460  0.887150  1.0  -0.4321
  N  N10523  1  0.652420  0.015510  0.874970  1.0  -0.3379
  N  N10524  1  0.655820  0.060910  0.920400  1.0  -0.4427
  N  N10525  1  0.690290  0.070250  0.910340  1.0  -0.4
  N  N10526  1  0.673870  0.087630  0.938870  1.0  -0.4518
  N  N10527  1  0.621850  0.100750  0.974320  1.0  -0.3116
  N  N10528  1  0.592380  0.126760  0.998810  1.0  -0.3881
  N  N10529  1  0.625240  0.098970  0.020090  1.0  -0.3158
  N  N10530  1  0.594280  0.063970  0.078310  1.0  -0.4655
  N  N10531  1  0.735250  0.616920  0.409040  1.0  -0.3331
  N  N10532  1  0.606990  0.524460  0.387150  1.0  -0.4321
  N  N10533  1  0.652420  0.515510  0.374970  1.0  -0.3379
  N  N10534  1  0.655820  0.560910  0.420400  1.0  -0.4427
  N  N10535  1  0.690290  0.570250  0.410340  1.0  -0.4
  N  N10536  1  0.673870  0.587630  0.438870  1.0  -0.4518
  N  N10537  1  0.621850  0.600750  0.474320  1.0  -0.3116
  N  N10538  1  0.592380  0.626760  0.498810  1.0  -0.3881
  N  N10539  1  0.625240  0.598970  0.520090  1.0  -0.3158
  N  N10540  1  0.594280  0.563970  0.578310  1.0  -0.4655
  N  N10541  1  0.235250  0.116920  0.409040  1.0  -0.3331
  N  N10542  1  0.106990  0.024460  0.387150  1.0  -0.4321
  N  N10543  1  0.152420  0.015510  0.374970  1.0  -0.3379
  N  N10544  1  0.155820  0.060910  0.420400  1.0  -0.4427
  N  N10545  1  0.190290  0.070250  0.410340  1.0  -0.4
  N  N10546  1  0.173870  0.087630  0.438870  1.0  -0.4518
  N  N10547  1  0.121850  0.100750  0.474320  1.0  -0.3116
  N  N10548  1  0.092380  0.126760  0.498810  1.0  -0.3881
  N  N10549  1  0.125240  0.098970  0.520090  1.0  -0.3158
  N  N10550  1  0.094280  0.063970  0.578310  1.0  -0.4655
  N  N10551  1  0.235250  0.616920  0.909040  1.0  -0.3331
  N  N10552  1  0.106990  0.524460  0.887150  1.0  -0.4321
  N  N10553  1  0.152420  0.515510  0.874970  1.0  -0.3379
  N  N10554  1  0.155820  0.560910  0.920400  1.0  -0.4427
  N  N10555  1  0.190290  0.570250  0.910340  1.0  -0.4
  N  N10556  1  0.173870  0.587630  0.938870  1.0  -0.4518
  N  N10557  1  0.121850  0.600750  0.974320  1.0  -0.3116
  N  N10558  1  0.092380  0.626760  0.998810  1.0  -0.3881
  N  N10559  1  0.125240  0.598970  0.020090  1.0  -0.3158
  N  N10560  1  0.094280  0.563970  0.078310  1.0  -0.4655
