# generated using pymatgen
data_CoH16C26(SN5)2
_symmetry_space_group_name_H-M   'P 1'
_cell_length_a   45.19830000
_cell_length_b   45.19830000
_cell_length_c   45.19830000
_cell_angle_alpha   60.00000000
_cell_angle_beta   60.00000000
_cell_angle_gamma   60.00000000
_symmetry_Int_Tables_number   1
_chemical_formula_structural   CoH16C26(SN5)2
_chemical_formula_sum   'Co48 H768 C1248 S96 N480'
_cell_volume   65290.69678340
_cell_formula_units_Z   48
loop_
 _symmetry_equiv_pos_site_id
 _symmetry_equiv_pos_as_xyz
  1  'x, y, z'
loop_
 _atom_site_type_symbol
 _atom_site_label
 _atom_site_symmetry_multiplicity
 _atom_site_fract_x
 _atom_site_fract_y
 _atom_site_fract_z
 _atom_site_occupancy
 _atom_site_charge
  Co  Co1  1  0.250000  0.750000  0.509440  1.0  0.7117
  Co  Co2  1  0.750000  0.250000  0.990560  1.0  0.7127
  Co  Co3  1  0.509440  0.990560  0.250000  1.0  0.7124
  Co  Co4  1  0.990560  0.509440  0.750000  1.0  0.7107
  Co  Co5  1  0.509440  0.250000  0.750000  1.0  0.7121
  Co  Co6  1  0.990560  0.750000  0.250000  1.0  0.7116
  Co  Co7  1  0.250000  0.509440  0.990560  1.0  0.7121
  Co  Co8  1  0.750000  0.990560  0.509440  1.0  0.712
  Co  Co9  1  0.750000  0.509440  0.250000  1.0  0.7123
  Co  Co10  1  0.250000  0.990560  0.750000  1.0  0.7117
  Co  Co11  1  0.990560  0.250000  0.509440  1.0  0.712
  Co  Co12  1  0.509440  0.750000  0.990560  1.0  0.7117
  Co  Co13  1  0.750000  0.250000  0.490560  1.0  0.7127
  Co  Co14  1  0.250000  0.750000  0.009440  1.0  0.7117
  Co  Co15  1  0.490560  0.009440  0.750000  1.0  0.7107
  Co  Co16  1  0.009440  0.490560  0.250000  1.0  0.7124
  Co  Co17  1  0.490560  0.750000  0.250000  1.0  0.7116
  Co  Co18  1  0.009440  0.250000  0.750000  1.0  0.7121
  Co  Co19  1  0.750000  0.490560  0.009440  1.0  0.712
  Co  Co20  1  0.250000  0.009440  0.490560  1.0  0.7121
  Co  Co21  1  0.250000  0.490560  0.750000  1.0  0.7117
  Co  Co22  1  0.750000  0.009440  0.250000  1.0  0.7123
  Co  Co23  1  0.009440  0.750000  0.490560  1.0  0.7117
  Co  Co24  1  0.490560  0.250000  0.009440  1.0  0.712
  Co  Co25  1  0.497900  0.752100  0.497900  1.0  0.6076
  Co  Co26  1  0.752100  0.497900  0.752100  1.0  0.6076
  Co  Co27  1  0.497900  0.497900  0.752100  1.0  0.6076
  Co  Co28  1  0.752100  0.752100  0.497900  1.0  0.6047
  Co  Co29  1  0.752100  0.497900  0.497900  1.0  0.607
  Co  Co30  1  0.497900  0.752100  0.752100  1.0  0.6079
  Co  Co31  1  0.002100  0.747900  0.747900  1.0  0.607
  Co  Co32  1  0.747900  0.002100  0.002100  1.0  0.6079
  Co  Co33  1  0.002100  0.002100  0.747900  1.0  0.6047
  Co  Co34  1  0.747900  0.747900  0.002100  1.0  0.6076
  Co  Co35  1  0.747900  0.002100  0.747900  1.0  0.6076
  Co  Co36  1  0.002100  0.747900  0.002100  1.0  0.6076
  Co  Co37  1  0.502100  0.247900  0.502100  1.0  0.6076
  Co  Co38  1  0.247900  0.502100  0.247900  1.0  0.6076
  Co  Co39  1  0.502100  0.502100  0.247900  1.0  0.6047
  Co  Co40  1  0.247900  0.247900  0.502100  1.0  0.6076
  Co  Co41  1  0.247900  0.502100  0.502100  1.0  0.6079
  Co  Co42  1  0.502100  0.247900  0.247900  1.0  0.607
  Co  Co43  1  0.997900  0.252100  0.252100  1.0  0.6079
  Co  Co44  1  0.252100  0.997900  0.997900  1.0  0.607
  Co  Co45  1  0.997900  0.997900  0.252100  1.0  0.6076
  Co  Co46  1  0.252100  0.252100  0.997900  1.0  0.6047
  Co  Co47  1  0.252100  0.997900  0.252100  1.0  0.6076
  Co  Co48  1  0.997900  0.252100  0.997900  1.0  0.6076
  H  H49  1  0.313100  0.686300  0.544100  1.0  0.0748
  H  H50  1  0.355700  0.680300  0.562300  1.0  0.1217
  H  H51  1  0.360500  0.732100  0.557500  1.0  0.1335
  H  H52  1  0.274700  0.791500  0.521100  1.0  0.0876
  H  H53  1  0.287300  0.926700  0.512300  1.0  0.0773
  H  H54  1  0.230900  0.876700  0.518300  1.0  0.1138
  H  H55  1  0.183600  0.931400  0.512400  1.0  0.1154
  H  H56  1  0.189900  0.983300  0.503900  1.0  0.0923
  H  H57  1  0.417200  0.782600  0.509800  1.0  0.0874
  H  H58  1  0.481900  0.834500  0.478700  1.0  0.0977
  H  H59  1  0.434100  0.888500  0.477900  1.0  0.1206
  H  H60  1  0.375800  0.890400  0.491400  1.0  0.117
  H  H61  1  0.543600  0.756000  0.528400  1.0  0.0923
  H  H62  1  0.481900  0.771900  0.625100  1.0  0.1176
  H  H63  1  0.433500  0.771300  0.620900  1.0  0.1205
  H  H64  1  0.441800  0.758800  0.572800  1.0  0.0943
  H  H65  1  0.686300  0.313100  0.956500  1.0  0.0729
  H  H66  1  0.680300  0.355700  0.901700  1.0  0.1212
  H  H67  1  0.732100  0.360500  0.849900  1.0  0.1316
  H  H68  1  0.791500  0.274700  0.912700  1.0  0.0874
  H  H69  1  0.926700  0.287300  0.773700  1.0  0.0776
  H  H70  1  0.876700  0.230900  0.874100  1.0  0.1137
  H  H71  1  0.931400  0.183600  0.872600  1.0  0.1195
  H  H72  1  0.983300  0.189900  0.822900  1.0  0.0923
  H  H73  1  0.782600  0.417200  0.790400  1.0  0.0869
  H  H74  1  0.834500  0.481900  0.704900  1.0  0.0976
  H  H75  1  0.888500  0.434100  0.699500  1.0  0.1204
  H  H76  1  0.890400  0.375800  0.742400  1.0  0.1166
  H  H77  1  0.756000  0.543600  0.672000  1.0  0.0937
  H  H78  1  0.771900  0.481900  0.621100  1.0  0.1176
  H  H79  1  0.771300  0.433500  0.674300  1.0  0.1234
  H  H80  1  0.758800  0.441800  0.726600  1.0  0.0941
  H  H81  1  0.544100  0.956500  0.313100  1.0  0.0744
  H  H82  1  0.562300  0.901700  0.355700  1.0  0.1189
  H  H83  1  0.557500  0.849900  0.360500  1.0  0.1305
  H  H84  1  0.521100  0.912700  0.274700  1.0  0.0886
  H  H85  1  0.512300  0.773700  0.287300  1.0  0.0784
  H  H86  1  0.518300  0.874100  0.230900  1.0  0.114
  H  H87  1  0.512400  0.872600  0.183600  1.0  0.1168
  H  H88  1  0.503900  0.822900  0.189900  1.0  0.0935
  H  H89  1  0.509800  0.790400  0.417200  1.0  0.0881
  H  H90  1  0.478700  0.704900  0.481900  1.0  0.0964
  H  H91  1  0.477900  0.699500  0.434100  1.0  0.1206
  H  H92  1  0.491400  0.742400  0.375800  1.0  0.118
  H  H93  1  0.528400  0.672000  0.543600  1.0  0.0927
  H  H94  1  0.625100  0.621100  0.481900  1.0  0.1175
  H  H95  1  0.620900  0.674300  0.433500  1.0  0.1209
  H  H96  1  0.572800  0.726600  0.441800  1.0  0.0943
  H  H97  1  0.956500  0.544100  0.686300  1.0  0.0751
  H  H98  1  0.901700  0.562300  0.680300  1.0  0.1192
  H  H99  1  0.849900  0.557500  0.732100  1.0  0.1323
  H  H100  1  0.912700  0.521100  0.791500  1.0  0.0886
  H  H101  1  0.773700  0.512300  0.926700  1.0  0.0774
  H  H102  1  0.874100  0.518300  0.876700  1.0  0.1136
  H  H103  1  0.872600  0.512400  0.931400  1.0  0.1145
  H  H104  1  0.822900  0.503900  0.983300  1.0  0.093
  H  H105  1  0.790400  0.509800  0.782600  1.0  0.0872
  H  H106  1  0.704900  0.478700  0.834500  1.0  0.0958
  H  H107  1  0.699500  0.477900  0.888500  1.0  0.1206
  H  H108  1  0.742400  0.491400  0.890400  1.0  0.1179
  H  H109  1  0.672000  0.528400  0.756000  1.0  0.0928
  H  H110  1  0.621100  0.625100  0.771900  1.0  0.1186
  H  H111  1  0.674300  0.620900  0.771300  1.0  0.1227
  H  H112  1  0.726600  0.572800  0.758800  1.0  0.095
  H  H113  1  0.544100  0.313100  0.686300  1.0  0.0754
  H  H114  1  0.562300  0.355700  0.680300  1.0  0.1205
  H  H115  1  0.557500  0.360500  0.732100  1.0  0.1313
  H  H116  1  0.521100  0.274700  0.791500  1.0  0.0869
  H  H117  1  0.512300  0.287300  0.926700  1.0  0.0769
  H  H118  1  0.518300  0.230900  0.876700  1.0  0.1146
  H  H119  1  0.512400  0.183600  0.931400  1.0  0.1176
  H  H120  1  0.503900  0.189900  0.983300  1.0  0.0926
  H  H121  1  0.509800  0.417200  0.782600  1.0  0.0895
  H  H122  1  0.478700  0.481900  0.834500  1.0  0.0993
  H  H123  1  0.477900  0.434100  0.888500  1.0  0.1195
  H  H124  1  0.491400  0.375800  0.890400  1.0  0.1169
  H  H125  1  0.528400  0.543600  0.756000  1.0  0.0945
  H  H126  1  0.625100  0.481900  0.771900  1.0  0.1161
  H  H127  1  0.620900  0.433500  0.771300  1.0  0.1231
  H  H128  1  0.572800  0.441800  0.758800  1.0  0.0925
  H  H129  1  0.956500  0.686300  0.313100  1.0  0.0755
  H  H130  1  0.901700  0.680300  0.355700  1.0  0.1209
  H  H131  1  0.849900  0.732100  0.360500  1.0  0.1328
  H  H132  1  0.912700  0.791500  0.274700  1.0  0.0877
  H  H133  1  0.773700  0.926700  0.287300  1.0  0.0766
  H  H134  1  0.874100  0.876700  0.230900  1.0  0.1142
  H  H135  1  0.872600  0.931400  0.183600  1.0  0.1163
  H  H136  1  0.822900  0.983300  0.189900  1.0  0.0918
  H  H137  1  0.790400  0.782600  0.417200  1.0  0.0877
  H  H138  1  0.704900  0.834500  0.481900  1.0  0.0979
  H  H139  1  0.699500  0.888500  0.434100  1.0  0.12
  H  H140  1  0.742400  0.890400  0.375800  1.0  0.1167
  H  H141  1  0.672000  0.756000  0.543600  1.0  0.0956
  H  H142  1  0.621100  0.771900  0.481900  1.0  0.1182
  H  H143  1  0.674300  0.771300  0.433500  1.0  0.1197
  H  H144  1  0.726600  0.758800  0.441800  1.0  0.0948
  H  H145  1  0.313100  0.544100  0.956500  1.0  0.0749
  H  H146  1  0.355700  0.562300  0.901700  1.0  0.1197
  H  H147  1  0.360500  0.557500  0.849900  1.0  0.1323
  H  H148  1  0.274700  0.521100  0.912700  1.0  0.086
  H  H149  1  0.287300  0.512300  0.773700  1.0  0.0764
  H  H150  1  0.230900  0.518300  0.874100  1.0  0.1139
  H  H151  1  0.183600  0.512400  0.872600  1.0  0.1158
  H  H152  1  0.189900  0.503900  0.822900  1.0  0.0917
  H  H153  1  0.417200  0.509800  0.790400  1.0  0.0896
  H  H154  1  0.481900  0.478700  0.704900  1.0  0.0986
  H  H155  1  0.434100  0.477900  0.699500  1.0  0.1186
  H  H156  1  0.375800  0.491400  0.742400  1.0  0.1171
  H  H157  1  0.543600  0.528400  0.672000  1.0  0.0924
  H  H158  1  0.481900  0.625100  0.621100  1.0  0.1171
  H  H159  1  0.433500  0.620900  0.674300  1.0  0.1221
  H  H160  1  0.441800  0.572800  0.726600  1.0  0.0945
  H  H161  1  0.686300  0.956500  0.544100  1.0  0.0747
  H  H162  1  0.680300  0.901700  0.562300  1.0  0.1185
  H  H163  1  0.732100  0.849900  0.557500  1.0  0.1317
  H  H164  1  0.791500  0.912700  0.521100  1.0  0.0869
  H  H165  1  0.926700  0.773700  0.512300  1.0  0.0767
  H  H166  1  0.876700  0.874100  0.518300  1.0  0.1151
  H  H167  1  0.931400  0.872600  0.512400  1.0  0.1155
  H  H168  1  0.983300  0.822900  0.503900  1.0  0.0926
  H  H169  1  0.782600  0.790400  0.509800  1.0  0.0889
  H  H170  1  0.834500  0.704900  0.478700  1.0  0.0973
  H  H171  1  0.888500  0.699500  0.477900  1.0  0.1209
  H  H172  1  0.890400  0.742400  0.491400  1.0  0.1171
  H  H173  1  0.756000  0.672000  0.528400  1.0  0.0948
  H  H174  1  0.771900  0.621100  0.625100  1.0  0.1169
  H  H175  1  0.771300  0.674300  0.620900  1.0  0.1218
  H  H176  1  0.758800  0.726600  0.572800  1.0  0.0961
  H  H177  1  0.686300  0.544100  0.313100  1.0  0.0732
  H  H178  1  0.680300  0.562300  0.355700  1.0  0.1198
  H  H179  1  0.732100  0.557500  0.360500  1.0  0.132
  H  H180  1  0.791500  0.521100  0.274700  1.0  0.0851
  H  H181  1  0.926700  0.512300  0.287300  1.0  0.0795
  H  H182  1  0.876700  0.518300  0.230900  1.0  0.1143
  H  H183  1  0.931400  0.512400  0.183600  1.0  0.1149
  H  H184  1  0.983300  0.503900  0.189900  1.0  0.0923
  H  H185  1  0.782600  0.509800  0.417200  1.0  0.0882
  H  H186  1  0.834500  0.478700  0.481900  1.0  0.0957
  H  H187  1  0.888500  0.477900  0.434100  1.0  0.1202
  H  H188  1  0.890400  0.491400  0.375800  1.0  0.1169
  H  H189  1  0.756000  0.528400  0.543600  1.0  0.0944
  H  H190  1  0.771900  0.625100  0.481900  1.0  0.1171
  H  H191  1  0.771300  0.620900  0.433500  1.0  0.1224
  H  H192  1  0.758800  0.572800  0.441800  1.0  0.0949
  H  H193  1  0.313100  0.956500  0.686300  1.0  0.0737
  H  H194  1  0.355700  0.901700  0.680300  1.0  0.1196
  H  H195  1  0.360500  0.849900  0.732100  1.0  0.1329
  H  H196  1  0.274700  0.912700  0.791500  1.0  0.0863
  H  H197  1  0.287300  0.773700  0.926700  1.0  0.0776
  H  H198  1  0.230900  0.874100  0.876700  1.0  0.1139
  H  H199  1  0.183600  0.872600  0.931400  1.0  0.1173
  H  H200  1  0.189900  0.822900  0.983300  1.0  0.0914
  H  H201  1  0.417200  0.790400  0.782600  1.0  0.0875
  H  H202  1  0.481900  0.704900  0.834500  1.0  0.1006
  H  H203  1  0.434100  0.699500  0.888500  1.0  0.1214
  H  H204  1  0.375800  0.742400  0.890400  1.0  0.1169
  H  H205  1  0.543600  0.672000  0.756000  1.0  0.0928
  H  H206  1  0.481900  0.621100  0.771900  1.0  0.1169
  H  H207  1  0.433500  0.674300  0.771300  1.0  0.1194
  H  H208  1  0.441800  0.726600  0.758800  1.0  0.0936
  H  H209  1  0.956500  0.313100  0.544100  1.0  0.0728
  H  H210  1  0.901700  0.355700  0.562300  1.0  0.1202
  H  H211  1  0.849900  0.360500  0.557500  1.0  0.1323
  H  H212  1  0.912700  0.274700  0.521100  1.0  0.0868
  H  H213  1  0.773700  0.287300  0.512300  1.0  0.0778
  H  H214  1  0.874100  0.230900  0.518300  1.0  0.1136
  H  H215  1  0.872600  0.183600  0.512400  1.0  0.1183
  H  H216  1  0.822900  0.189900  0.503900  1.0  0.0917
  H  H217  1  0.790400  0.417200  0.509800  1.0  0.0873
  H  H218  1  0.704900  0.481900  0.478700  1.0  0.0972
  H  H219  1  0.699500  0.434100  0.477900  1.0  0.12
  H  H220  1  0.742400  0.375800  0.491400  1.0  0.1169
  H  H221  1  0.672000  0.543600  0.528400  1.0  0.094
  H  H222  1  0.621100  0.481900  0.625100  1.0  0.1179
  H  H223  1  0.674300  0.433500  0.620900  1.0  0.1244
  H  H224  1  0.726600  0.441800  0.572800  1.0  0.0938
  H  H225  1  0.544100  0.686300  0.956500  1.0  0.0757
  H  H226  1  0.562300  0.680300  0.901700  1.0  0.1215
  H  H227  1  0.557500  0.732100  0.849900  1.0  0.1324
  H  H228  1  0.521100  0.791500  0.912700  1.0  0.0866
  H  H229  1  0.512300  0.926700  0.773700  1.0  0.0788
  H  H230  1  0.518300  0.876700  0.874100  1.0  0.1144
  H  H231  1  0.512400  0.931400  0.872600  1.0  0.1148
  H  H232  1  0.503900  0.983300  0.822900  1.0  0.0926
  H  H233  1  0.509800  0.782600  0.790400  1.0  0.0883
  H  H234  1  0.478700  0.834500  0.704900  1.0  0.0993
  H  H235  1  0.477900  0.888500  0.699500  1.0  0.1203
  H  H236  1  0.491400  0.890400  0.742400  1.0  0.1163
  H  H237  1  0.528400  0.756000  0.672000  1.0  0.0931
  H  H238  1  0.625100  0.771900  0.621100  1.0  0.1168
  H  H239  1  0.620900  0.771300  0.674300  1.0  0.1208
  H  H240  1  0.572800  0.758800  0.726600  1.0  0.0942
  H  H241  1  0.186900  0.813700  0.543500  1.0  0.0749
  H  H242  1  0.144300  0.819700  0.598300  1.0  0.1213
  H  H243  1  0.139500  0.767900  0.650100  1.0  0.133
  H  H244  1  0.225300  0.708500  0.587300  1.0  0.0875
  H  H245  1  0.212700  0.573300  0.726300  1.0  0.0772
  H  H246  1  0.269100  0.623300  0.625900  1.0  0.1139
  H  H247  1  0.316400  0.568600  0.627400  1.0  0.1151
  H  H248  1  0.310100  0.516700  0.677100  1.0  0.0925
  H  H249  1  0.082800  0.717400  0.709600  1.0  0.0877
  H  H250  1  0.018100  0.665500  0.795100  1.0  0.0976
  H  H251  1  0.065900  0.611500  0.800500  1.0  0.1216
  H  H252  1  0.124200  0.609600  0.757600  1.0  0.1171
  H  H253  1  0.956400  0.744000  0.828000  1.0  0.092
  H  H254  1  0.018100  0.728100  0.878900  1.0  0.1174
  H  H255  1  0.066500  0.728700  0.825700  1.0  0.1207
  H  H256  1  0.058200  0.741200  0.773400  1.0  0.094
  H  H257  1  0.813700  0.186900  0.955900  1.0  0.0727
  H  H258  1  0.819700  0.144300  0.937700  1.0  0.1207
  H  H259  1  0.767900  0.139500  0.942500  1.0  0.1313
  H  H260  1  0.708500  0.225300  0.978900  1.0  0.0874
  H  H261  1  0.573300  0.212700  0.987700  1.0  0.0775
  H  H262  1  0.623300  0.269100  0.981700  1.0  0.1131
  H  H263  1  0.568600  0.316400  0.987600  1.0  0.1168
  H  H264  1  0.516700  0.310100  0.996100  1.0  0.0923
  H  H265  1  0.717400  0.082800  0.990200  1.0  0.0869
  H  H266  1  0.665500  0.018100  0.021300  1.0  0.0973
  H  H267  1  0.611500  0.065900  0.022100  1.0  0.1204
  H  H268  1  0.609600  0.124200  0.008600  1.0  0.1162
  H  H269  1  0.744000  0.956400  0.971600  1.0  0.0936
  H  H270  1  0.728100  0.018100  0.874900  1.0  0.1177
  H  H271  1  0.728700  0.066500  0.879100  1.0  0.1234
  H  H272  1  0.741200  0.058200  0.927200  1.0  0.0951
  H  H273  1  0.955900  0.543500  0.813700  1.0  0.0748
  H  H274  1  0.937700  0.598300  0.819700  1.0  0.1193
  H  H275  1  0.942500  0.650100  0.767900  1.0  0.1312
  H  H276  1  0.978900  0.587300  0.708500  1.0  0.0889
  H  H277  1  0.987700  0.726300  0.573300  1.0  0.0777
  H  H278  1  0.981700  0.625900  0.623300  1.0  0.1142
  H  H279  1  0.987600  0.627400  0.568600  1.0  0.1161
  H  H280  1  0.996100  0.677100  0.516700  1.0  0.0936
  H  H281  1  0.990200  0.709600  0.717400  1.0  0.0878
  H  H282  1  0.021300  0.795100  0.665500  1.0  0.0965
  H  H283  1  0.022100  0.800500  0.611500  1.0  0.1208
  H  H284  1  0.008600  0.757600  0.609600  1.0  0.1178
  H  H285  1  0.971600  0.828000  0.744000  1.0  0.0926
  H  H286  1  0.874900  0.878900  0.728100  1.0  0.1178
  H  H287  1  0.879100  0.825700  0.728700  1.0  0.1201
  H  H288  1  0.927200  0.773400  0.741200  1.0  0.0943
  H  H289  1  0.543500  0.955900  0.186900  1.0  0.0758
  H  H290  1  0.598300  0.937700  0.144300  1.0  0.1192
  H  H291  1  0.650100  0.942500  0.139500  1.0  0.1324
  H  H292  1  0.587300  0.978900  0.225300  1.0  0.0883
  H  H293  1  0.726300  0.987700  0.212700  1.0  0.0774
  H  H294  1  0.625900  0.981700  0.269100  1.0  0.1139
  H  H295  1  0.627400  0.987600  0.316400  1.0  0.1146
  H  H296  1  0.677100  0.996100  0.310100  1.0  0.0939
  H  H297  1  0.709600  0.990200  0.082800  1.0  0.0868
  H  H298  1  0.795100  0.021300  0.018100  1.0  0.0957
  H  H299  1  0.800500  0.022100  0.065900  1.0  0.1206
  H  H300  1  0.757600  0.008600  0.124200  1.0  0.1175
  H  H301  1  0.828000  0.971600  0.956400  1.0  0.0934
  H  H302  1  0.878900  0.874900  0.018100  1.0  0.1184
  H  H303  1  0.825700  0.879100  0.066500  1.0  0.1231
  H  H304  1  0.773400  0.927200  0.058200  1.0  0.0945
  H  H305  1  0.955900  0.186900  0.543500  1.0  0.0755
  H  H306  1  0.937700  0.144300  0.598300  1.0  0.1195
  H  H307  1  0.942500  0.139500  0.650100  1.0  0.1315
  H  H308  1  0.978900  0.225300  0.587300  1.0  0.088
  H  H309  1  0.987700  0.212700  0.726300  1.0  0.0773
  H  H310  1  0.981700  0.269100  0.625900  1.0  0.1147
  H  H311  1  0.987600  0.316400  0.627400  1.0  0.117
  H  H312  1  0.996100  0.310100  0.677100  1.0  0.0928
  H  H313  1  0.990200  0.082800  0.709600  1.0  0.0895
  H  H314  1  0.021300  0.018100  0.795100  1.0  0.0992
  H  H315  1  0.022100  0.065900  0.800500  1.0  0.12
  H  H316  1  0.008600  0.124200  0.757600  1.0  0.1161
  H  H317  1  0.971600  0.956400  0.828000  1.0  0.094
  H  H318  1  0.874900  0.018100  0.878900  1.0  0.1162
  H  H319  1  0.879100  0.066500  0.825700  1.0  0.1228
  H  H320  1  0.927200  0.058200  0.773400  1.0  0.0927
  H  H321  1  0.543500  0.813700  0.955900  1.0  0.0753
  H  H322  1  0.598300  0.819700  0.937700  1.0  0.1206
  H  H323  1  0.650100  0.767900  0.942500  1.0  0.1321
  H  H324  1  0.587300  0.708500  0.978900  1.0  0.0877
  H  H325  1  0.726300  0.573300  0.987700  1.0  0.0768
  H  H326  1  0.625900  0.623300  0.981700  1.0  0.1144
  H  H327  1  0.627400  0.568600  0.987600  1.0  0.1143
  H  H328  1  0.677100  0.516700  0.996100  1.0  0.0913
  H  H329  1  0.709600  0.717400  0.990200  1.0  0.0879
  H  H330  1  0.795100  0.665500  0.021300  1.0  0.0977
  H  H331  1  0.800500  0.611500  0.022100  1.0  0.1204
  H  H332  1  0.757600  0.609600  0.008600  1.0  0.1167
  H  H333  1  0.828000  0.744000  0.971600  1.0  0.0956
  H  H334  1  0.878900  0.728100  0.874900  1.0  0.117
  H  H335  1  0.825700  0.728700  0.879100  1.0  0.1197
  H  H336  1  0.773400  0.741200  0.927200  1.0  0.0951
  H  H337  1  0.186900  0.955900  0.813700  1.0  0.0759
  H  H338  1  0.144300  0.937700  0.819700  1.0  0.1197
  H  H339  1  0.139500  0.942500  0.767900  1.0  0.1321
  H  H340  1  0.225300  0.978900  0.708500  1.0  0.0861
  H  H341  1  0.212700  0.987700  0.573300  1.0  0.0761
  H  H342  1  0.269100  0.981700  0.623300  1.0  0.1144
  H  H343  1  0.316400  0.987600  0.568600  1.0  0.1152
  H  H344  1  0.310100  0.996100  0.516700  1.0  0.0925
  H  H345  1  0.082800  0.990200  0.717400  1.0  0.0898
  H  H346  1  0.018100  0.021300  0.665500  1.0  0.0987
  H  H347  1  0.065900  0.022100  0.611500  1.0  0.119
  H  H348  1  0.124200  0.008600  0.609600  1.0  0.1163
  H  H349  1  0.956400  0.971600  0.744000  1.0  0.0924
  H  H350  1  0.018100  0.874900  0.728100  1.0  0.1168
  H  H351  1  0.066500  0.879100  0.728700  1.0  0.1219
  H  H352  1  0.058200  0.927200  0.741200  1.0  0.0939
  H  H353  1  0.813700  0.543500  0.186900  1.0  0.074
  H  H354  1  0.819700  0.598300  0.144300  1.0  0.1196
  H  H355  1  0.767900  0.650100  0.139500  1.0  0.1323
  H  H356  1  0.708500  0.587300  0.225300  1.0  0.0862
  H  H357  1  0.573300  0.726300  0.212700  1.0  0.077
  H  H358  1  0.623300  0.625900  0.269100  1.0  0.1154
  H  H359  1  0.568600  0.627400  0.316400  1.0  0.1172
  H  H360  1  0.516700  0.677100  0.310100  1.0  0.0928
  H  H361  1  0.717400  0.709600  0.082800  1.0  0.0886
  H  H362  1  0.665500  0.795100  0.018100  1.0  0.0968
  H  H363  1  0.611500  0.800500  0.065900  1.0  0.1213
  H  H364  1  0.609600  0.757600  0.124200  1.0  0.1171
  H  H365  1  0.744000  0.828000  0.956400  1.0  0.0949
  H  H366  1  0.728100  0.878900  0.018100  1.0  0.1168
  H  H367  1  0.728700  0.825700  0.066500  1.0  0.1214
  H  H368  1  0.741200  0.773400  0.058200  1.0  0.096
  H  H369  1  0.813700  0.955900  0.543500  1.0  0.0735
  H  H370  1  0.819700  0.937700  0.598300  1.0  0.1195
  H  H371  1  0.767900  0.942500  0.650100  1.0  0.1315
  H  H372  1  0.708500  0.978900  0.587300  1.0  0.085
  H  H373  1  0.573300  0.987700  0.726300  1.0  0.0797
  H  H374  1  0.623300  0.981700  0.625900  1.0  0.114
  H  H375  1  0.568600  0.987600  0.627400  1.0  0.1144
  H  H376  1  0.516700  0.996100  0.677100  1.0  0.0924
  H  H377  1  0.717400  0.990200  0.709600  1.0  0.0885
  H  H378  1  0.665500  0.021300  0.795100  1.0  0.0967
  H  H379  1  0.611500  0.022100  0.800500  1.0  0.1208
  H  H380  1  0.609600  0.008600  0.757600  1.0  0.1172
  H  H381  1  0.744000  0.971600  0.828000  1.0  0.0943
  H  H382  1  0.728100  0.874900  0.878900  1.0  0.1174
  H  H383  1  0.728700  0.879100  0.825700  1.0  0.1218
  H  H384  1  0.741200  0.927200  0.773400  1.0  0.0952
  H  H385  1  0.186900  0.543500  0.955900  1.0  0.0738
  H  H386  1  0.144300  0.598300  0.937700  1.0  0.1191
  H  H387  1  0.139500  0.650100  0.942500  1.0  0.1328
  H  H388  1  0.225300  0.587300  0.978900  1.0  0.087
  H  H389  1  0.212700  0.726300  0.987700  1.0  0.0777
  H  H390  1  0.269100  0.625900  0.981700  1.0  0.1137
  H  H391  1  0.316400  0.627400  0.987600  1.0  0.1167
  H  H392  1  0.310100  0.677100  0.996100  1.0  0.0926
  H  H393  1  0.082800  0.709600  0.990200  1.0  0.0874
  H  H394  1  0.018100  0.795100  0.021300  1.0  0.1006
  H  H395  1  0.065900  0.800500  0.022100  1.0  0.1214
  H  H396  1  0.124200  0.757600  0.008600  1.0  0.1163
  H  H397  1  0.956400  0.828000  0.971600  1.0  0.0923
  H  H398  1  0.018100  0.878900  0.874900  1.0  0.1168
  H  H399  1  0.066500  0.825700  0.879100  1.0  0.12
  H  H400  1  0.058200  0.773400  0.927200  1.0  0.0942
  H  H401  1  0.543500  0.186900  0.813700  1.0  0.0727
  H  H402  1  0.598300  0.144300  0.819700  1.0  0.1203
  H  H403  1  0.650100  0.139500  0.767900  1.0  0.1329
  H  H404  1  0.587300  0.225300  0.708500  1.0  0.0871
  H  H405  1  0.726300  0.212700  0.573300  1.0  0.0773
  H  H406  1  0.625900  0.269100  0.623300  1.0  0.1134
  H  H407  1  0.627400  0.316400  0.568600  1.0  0.1165
  H  H408  1  0.677100  0.310100  0.516700  1.0  0.0918
  H  H409  1  0.709600  0.082800  0.717400  1.0  0.0868
  H  H410  1  0.795100  0.018100  0.665500  1.0  0.0975
  H  H411  1  0.800500  0.065900  0.611500  1.0  0.1204
  H  H412  1  0.757600  0.124200  0.609600  1.0  0.1162
  H  H413  1  0.828000  0.956400  0.744000  1.0  0.0938
  H  H414  1  0.878900  0.018100  0.728100  1.0  0.1169
  H  H415  1  0.825700  0.066500  0.728700  1.0  0.1233
  H  H416  1  0.773400  0.058200  0.741200  1.0  0.0943
  H  H417  1  0.955900  0.813700  0.186900  1.0  0.0758
  H  H418  1  0.937700  0.819700  0.144300  1.0  0.1214
  H  H419  1  0.942500  0.767900  0.139500  1.0  0.1321
  H  H420  1  0.978900  0.708500  0.225300  1.0  0.0872
  H  H421  1  0.987700  0.573300  0.212700  1.0  0.0791
  H  H422  1  0.981700  0.623300  0.269100  1.0  0.1139
  H  H423  1  0.987600  0.568600  0.316400  1.0  0.1148
  H  H424  1  0.996100  0.516700  0.310100  1.0  0.0933
  H  H425  1  0.990200  0.717400  0.082800  1.0  0.0882
  H  H426  1  0.021300  0.665500  0.018100  1.0  0.1
  H  H427  1  0.022100  0.611500  0.065900  1.0  0.1203
  H  H428  1  0.008600  0.609600  0.124200  1.0  0.1164
  H  H429  1  0.971600  0.744000  0.956400  1.0  0.0932
  H  H430  1  0.874900  0.728100  0.018100  1.0  0.1178
  H  H431  1  0.879100  0.728700  0.066500  1.0  0.1208
  H  H432  1  0.927200  0.741200  0.058200  1.0  0.095
  H  H433  1  0.686900  0.313700  0.455900  1.0  0.0746
  H  H434  1  0.644300  0.319700  0.437700  1.0  0.1218
  H  H435  1  0.639500  0.267900  0.442500  1.0  0.1328
  H  H436  1  0.725300  0.208500  0.478900  1.0  0.0879
  H  H437  1  0.712700  0.073300  0.487700  1.0  0.0772
  H  H438  1  0.769100  0.123300  0.481700  1.0  0.1135
  H  H439  1  0.816400  0.068600  0.487600  1.0  0.116
  H  H440  1  0.810100  0.016700  0.496100  1.0  0.0929
  H  H441  1  0.582800  0.217400  0.490200  1.0  0.0873
  H  H442  1  0.518100  0.165500  0.521300  1.0  0.0975
  H  H443  1  0.565900  0.111500  0.522100  1.0  0.1211
  H  H444  1  0.624200  0.109600  0.508600  1.0  0.117
  H  H445  1  0.456400  0.244000  0.471600  1.0  0.0922
  H  H446  1  0.518100  0.228100  0.374900  1.0  0.1175
  H  H447  1  0.566500  0.228700  0.379100  1.0  0.1207
  H  H448  1  0.558200  0.241200  0.427200  1.0  0.0948
  H  H449  1  0.313700  0.686900  0.043500  1.0  0.0728
  H  H450  1  0.319700  0.644300  0.098300  1.0  0.1206
  H  H451  1  0.267900  0.639500  0.150100  1.0  0.1314
  H  H452  1  0.208500  0.725300  0.087300  1.0  0.0871
  H  H453  1  0.073300  0.712700  0.226300  1.0  0.0779
  H  H454  1  0.123300  0.769100  0.125900  1.0  0.1135
  H  H455  1  0.068600  0.816400  0.127400  1.0  0.1187
  H  H456  1  0.016700  0.810100  0.177100  1.0  0.0922
  H  H457  1  0.217400  0.582800  0.209600  1.0  0.0872
  H  H458  1  0.165500  0.518100  0.295100  1.0  0.0976
  H  H459  1  0.111500  0.565900  0.300500  1.0  0.1203
  H  H460  1  0.109600  0.624200  0.257600  1.0  0.116
  H  H461  1  0.244000  0.456400  0.328000  1.0  0.093
  H  H462  1  0.228100  0.518100  0.378900  1.0  0.1176
  H  H463  1  0.228700  0.566500  0.325700  1.0  0.1232
  H  H464  1  0.241200  0.558200  0.273400  1.0  0.0943
  H  H465  1  0.455900  0.043500  0.686900  1.0  0.0756
  H  H466  1  0.437700  0.098300  0.644300  1.0  0.1194
  H  H467  1  0.442500  0.150100  0.639500  1.0  0.1316
  H  H468  1  0.478900  0.087300  0.725300  1.0  0.0887
  H  H469  1  0.487700  0.226300  0.712700  1.0  0.0778
  H  H470  1  0.481700  0.125900  0.769100  1.0  0.114
  H  H471  1  0.487600  0.127400  0.816400  1.0  0.1183
  H  H472  1  0.496100  0.177100  0.810100  1.0  0.0938
  H  H473  1  0.490200  0.209600  0.582800  1.0  0.0875
  H  H474  1  0.521300  0.295100  0.518100  1.0  0.0965
  H  H475  1  0.522100  0.300500  0.565900  1.0  0.1206
  H  H476  1  0.508600  0.257600  0.624200  1.0  0.1176
  H  H477  1  0.471600  0.328000  0.456400  1.0  0.0924
  H  H478  1  0.374900  0.378900  0.518100  1.0  0.1176
  H  H479  1  0.379100  0.325700  0.566500  1.0  0.1208
  H  H480  1  0.427200  0.273400  0.558200  1.0  0.0946
  H  H481  1  0.043500  0.455900  0.313700  1.0  0.0746
  H  H482  1  0.098300  0.437700  0.319700  1.0  0.1191
  H  H483  1  0.150100  0.442500  0.267900  1.0  0.1323
  H  H484  1  0.087300  0.478900  0.208500  1.0  0.0889
  H  H485  1  0.226300  0.487700  0.073300  1.0  0.0779
  H  H486  1  0.125900  0.481700  0.123300  1.0  0.1142
  H  H487  1  0.127400  0.487600  0.068600  1.0  0.1139
  H  H488  1  0.177100  0.496100  0.016700  1.0  0.0933
  H  H489  1  0.209600  0.490200  0.217400  1.0  0.0871
  H  H490  1  0.295100  0.521300  0.165500  1.0  0.0957
  H  H491  1  0.300500  0.522100  0.111500  1.0  0.1201
  H  H492  1  0.257600  0.508600  0.109600  1.0  0.1177
  H  H493  1  0.328000  0.471600  0.244000  1.0  0.0932
  H  H494  1  0.378900  0.374900  0.228100  1.0  0.1185
  H  H495  1  0.325700  0.379100  0.228700  1.0  0.1223
  H  H496  1  0.273400  0.427200  0.241200  1.0  0.0947
  H  H497  1  0.455900  0.686900  0.313700  1.0  0.0755
  H  H498  1  0.437700  0.644300  0.319700  1.0  0.1204
  H  H499  1  0.442500  0.639500  0.267900  1.0  0.1317
  H  H500  1  0.478900  0.725300  0.208500  1.0  0.0873
  H  H501  1  0.487700  0.712700  0.073300  1.0  0.0772
  H  H502  1  0.481700  0.769100  0.123300  1.0  0.1138
  H  H503  1  0.487600  0.816400  0.068600  1.0  0.1174
  H  H504  1  0.496100  0.810100  0.016700  1.0  0.093
  H  H505  1  0.490200  0.582800  0.217400  1.0  0.0893
  H  H506  1  0.521300  0.518100  0.165500  1.0  0.0989
  H  H507  1  0.522100  0.565900  0.111500  1.0  0.1188
  H  H508  1  0.508600  0.624200  0.109600  1.0  0.1164
  H  H509  1  0.471600  0.456400  0.244000  1.0  0.094
  H  H510  1  0.374900  0.518100  0.228100  1.0  0.1174
  H  H511  1  0.379100  0.566500  0.228700  1.0  0.123
  H  H512  1  0.427200  0.558200  0.241200  1.0  0.0927
  H  H513  1  0.043500  0.313700  0.686900  1.0  0.0752
  H  H514  1  0.098300  0.319700  0.644300  1.0  0.1206
  H  H515  1  0.150100  0.267900  0.639500  1.0  0.1329
  H  H516  1  0.087300  0.208500  0.725300  1.0  0.0878
  H  H517  1  0.226300  0.073300  0.712700  1.0  0.0769
  H  H518  1  0.125900  0.123300  0.769100  1.0  0.1146
  H  H519  1  0.127400  0.068600  0.816400  1.0  0.1162
  H  H520  1  0.177100  0.016700  0.810100  1.0  0.0922
  H  H521  1  0.209600  0.217400  0.582800  1.0  0.0882
  H  H522  1  0.295100  0.165500  0.518100  1.0  0.0974
  H  H523  1  0.300500  0.111500  0.565900  1.0  0.1207
  H  H524  1  0.257600  0.109600  0.624200  1.0  0.1164
  H  H525  1  0.328000  0.244000  0.456400  1.0  0.0958
  H  H526  1  0.378900  0.228100  0.518100  1.0  0.117
  H  H527  1  0.325700  0.228700  0.566500  1.0  0.1208
  H  H528  1  0.273400  0.241200  0.558200  1.0  0.096
  H  H529  1  0.686900  0.455900  0.043500  1.0  0.0753
  H  H530  1  0.644300  0.437700  0.098300  1.0  0.1192
  H  H531  1  0.639500  0.442500  0.150100  1.0  0.1318
  H  H532  1  0.725300  0.478900  0.087300  1.0  0.0866
  H  H533  1  0.712700  0.487700  0.226300  1.0  0.0762
  H  H534  1  0.769100  0.481700  0.125900  1.0  0.1152
  H  H535  1  0.816400  0.487600  0.127400  1.0  0.1158
  H  H536  1  0.810100  0.496100  0.177100  1.0  0.0931
  H  H537  1  0.582800  0.490200  0.209600  1.0  0.0905
  H  H538  1  0.518100  0.521300  0.295100  1.0  0.0992
  H  H539  1  0.565900  0.522100  0.300500  1.0  0.1193
  H  H540  1  0.624200  0.508600  0.257600  1.0  0.1162
  H  H541  1  0.456400  0.471600  0.328000  1.0  0.0926
  H  H542  1  0.518100  0.374900  0.378900  1.0  0.1162
  H  H543  1  0.566500  0.379100  0.325700  1.0  0.1214
  H  H544  1  0.558200  0.427200  0.273400  1.0  0.0943
  H  H545  1  0.313700  0.043500  0.455900  1.0  0.0741
  H  H546  1  0.319700  0.098300  0.437700  1.0  0.1194
  H  H547  1  0.267900  0.150100  0.442500  1.0  0.1317
  H  H548  1  0.208500  0.087300  0.478900  1.0  0.0861
  H  H549  1  0.073300  0.226300  0.487700  1.0  0.0767
  H  H550  1  0.123300  0.125900  0.481700  1.0  0.1152
  H  H551  1  0.068600  0.127400  0.487600  1.0  0.1162
  H  H552  1  0.016700  0.177100  0.496100  1.0  0.0926
  H  H553  1  0.217400  0.209600  0.490200  1.0  0.0881
  H  H554  1  0.165500  0.295100  0.521300  1.0  0.0975
  H  H555  1  0.111500  0.300500  0.522100  1.0  0.1202
  H  H556  1  0.109600  0.257600  0.508600  1.0  0.1175
  H  H557  1  0.244000  0.328000  0.471600  1.0  0.0948
  H  H558  1  0.228100  0.378900  0.374900  1.0  0.1173
  H  H559  1  0.228700  0.325700  0.379100  1.0  0.1197
  H  H560  1  0.241200  0.273400  0.427200  1.0  0.0955
  H  H561  1  0.313700  0.455900  0.686900  1.0  0.073
  H  H562  1  0.319700  0.437700  0.644300  1.0  0.1196
  H  H563  1  0.267900  0.442500  0.639500  1.0  0.1317
  H  H564  1  0.208500  0.478900  0.725300  1.0  0.0856
  H  H565  1  0.073300  0.487700  0.712700  1.0  0.0795
  H  H566  1  0.123300  0.481700  0.769100  1.0  0.1146
  H  H567  1  0.068600  0.487600  0.816400  1.0  0.1155
  H  H568  1  0.016700  0.496100  0.810100  1.0  0.0927
  H  H569  1  0.217400  0.490200  0.582800  1.0  0.0887
  H  H570  1  0.165500  0.521300  0.518100  1.0  0.0958
  H  H571  1  0.111500  0.522100  0.565900  1.0  0.1197
  H  H572  1  0.109600  0.508600  0.624200  1.0  0.1167
  H  H573  1  0.244000  0.471600  0.456400  1.0  0.094
  H  H574  1  0.228100  0.374900  0.518100  1.0  0.1174
  H  H575  1  0.228700  0.379100  0.566500  1.0  0.1227
  H  H576  1  0.241200  0.427200  0.558200  1.0  0.0947
  H  H577  1  0.686900  0.043500  0.313700  1.0  0.0737
  H  H578  1  0.644300  0.098300  0.319700  1.0  0.1198
  H  H579  1  0.639500  0.150100  0.267900  1.0  0.1323
  H  H580  1  0.725300  0.087300  0.208500  1.0  0.0871
  H  H581  1  0.712700  0.226300  0.073300  1.0  0.0776
  H  H582  1  0.769100  0.125900  0.123300  1.0  0.1136
  H  H583  1  0.816400  0.127400  0.068600  1.0  0.1181
  H  H584  1  0.810100  0.177100  0.016700  1.0  0.0924
  H  H585  1  0.582800  0.209600  0.217400  1.0  0.0872
  H  H586  1  0.518100  0.295100  0.165500  1.0  0.1005
  H  H587  1  0.565900  0.300500  0.111500  1.0  0.1205
  H  H588  1  0.624200  0.257600  0.109600  1.0  0.1166
  H  H589  1  0.456400  0.328000  0.244000  1.0  0.0926
  H  H590  1  0.518100  0.378900  0.228100  1.0  0.116
  H  H591  1  0.566500  0.325700  0.228700  1.0  0.1202
  H  H592  1  0.558200  0.273400  0.241200  1.0  0.0939
  H  H593  1  0.043500  0.686900  0.455900  1.0  0.0728
  H  H594  1  0.098300  0.644300  0.437700  1.0  0.1197
  H  H595  1  0.150100  0.639500  0.442500  1.0  0.1331
  H  H596  1  0.087300  0.725300  0.478900  1.0  0.0872
  H  H597  1  0.226300  0.712700  0.487700  1.0  0.0773
  H  H598  1  0.125900  0.769100  0.481700  1.0  0.1137
  H  H599  1  0.127400  0.816400  0.487600  1.0  0.117
  H  H600  1  0.177100  0.810100  0.496100  1.0  0.0921
  H  H601  1  0.209600  0.582800  0.490200  1.0  0.0872
  H  H602  1  0.295100  0.518100  0.521300  1.0  0.0975
  H  H603  1  0.300500  0.565900  0.522100  1.0  0.1202
  H  H604  1  0.257600  0.624200  0.508600  1.0  0.1158
  H  H605  1  0.328000  0.456400  0.471600  1.0  0.094
  H  H606  1  0.378900  0.518100  0.374900  1.0  0.1175
  H  H607  1  0.325700  0.566500  0.379100  1.0  0.1232
  H  H608  1  0.273400  0.558200  0.427200  1.0  0.0942
  H  H609  1  0.455900  0.313700  0.043500  1.0  0.0752
  H  H610  1  0.437700  0.319700  0.098300  1.0  0.1212
  H  H611  1  0.442500  0.267900  0.150100  1.0  0.1325
  H  H612  1  0.478900  0.208500  0.087300  1.0  0.0863
  H  H613  1  0.487700  0.073300  0.226300  1.0  0.0792
  H  H614  1  0.481700  0.123300  0.125900  1.0  0.114
  H  H615  1  0.487600  0.068600  0.127400  1.0  0.1147
  H  H616  1  0.496100  0.016700  0.177100  1.0  0.0929
  H  H617  1  0.490200  0.217400  0.209600  1.0  0.0885
  H  H618  1  0.521300  0.165500  0.295100  1.0  0.1001
  H  H619  1  0.522100  0.111500  0.300500  1.0  0.1213
  H  H620  1  0.508600  0.109600  0.257600  1.0  0.1167
  H  H621  1  0.471600  0.244000  0.328000  1.0  0.0939
  H  H622  1  0.374900  0.228100  0.378900  1.0  0.1176
  H  H623  1  0.379100  0.228700  0.325700  1.0  0.1202
  H  H624  1  0.427200  0.241200  0.273400  1.0  0.095
  H  H625  1  0.813100  0.186300  0.456500  1.0  0.0742
  H  H626  1  0.855700  0.180300  0.401700  1.0  0.1221
  H  H627  1  0.860500  0.232100  0.349900  1.0  0.1333
  H  H628  1  0.774700  0.291500  0.412700  1.0  0.0874
  H  H629  1  0.787300  0.426700  0.273700  1.0  0.0768
  H  H630  1  0.730900  0.376700  0.374100  1.0  0.1138
  H  H631  1  0.683600  0.431400  0.372600  1.0  0.1147
  H  H632  1  0.689900  0.483300  0.322900  1.0  0.0926
  H  H633  1  0.917200  0.282600  0.290400  1.0  0.0874
  H  H634  1  0.981900  0.334500  0.204900  1.0  0.0972
  H  H635  1  0.934100  0.388500  0.199500  1.0  0.1215
  H  H636  1  0.875800  0.390400  0.242400  1.0  0.1173
  H  H637  1  0.043600  0.256000  0.172000  1.0  0.0927
  H  H638  1  0.981900  0.271900  0.121100  1.0  0.118
  H  H639  1  0.933500  0.271300  0.174300  1.0  0.1204
  H  H640  1  0.941800  0.258800  0.226600  1.0  0.0938
  H  H641  1  0.186300  0.813100  0.044100  1.0  0.0732
  H  H642  1  0.180300  0.855700  0.062300  1.0  0.1207
  H  H643  1  0.232100  0.860500  0.057500  1.0  0.1314
  H  H644  1  0.291500  0.774700  0.021100  1.0  0.0873
  H  H645  1  0.426700  0.787300  0.012300  1.0  0.0775
  H  H646  1  0.376700  0.730900  0.018300  1.0  0.1136
  H  H647  1  0.431400  0.683600  0.012400  1.0  0.1173
  H  H648  1  0.483300  0.689900  0.003900  1.0  0.0922
  H  H649  1  0.282600  0.917200  0.009800  1.0  0.0868
  H  H650  1  0.334500  0.981900  0.978700  1.0  0.0975
  H  H651  1  0.388500  0.934100  0.977900  1.0  0.1201
  H  H652  1  0.390400  0.875800  0.991400  1.0  0.1166
  H  H653  1  0.256000  0.043600  0.028400  1.0  0.0935
  H  H654  1  0.271900  0.981900  0.125100  1.0  0.1177
  H  H655  1  0.271300  0.933500  0.120900  1.0  0.1241
  H  H656  1  0.258800  0.941800  0.072800  1.0  0.0943
  H  H657  1  0.044100  0.456500  0.186300  1.0  0.0753
  H  H658  1  0.062300  0.401700  0.180300  1.0  0.1195
  H  H659  1  0.057500  0.349900  0.232100  1.0  0.1309
  H  H660  1  0.021100  0.412700  0.291500  1.0  0.0885
  H  H661  1  0.012300  0.273700  0.426700  1.0  0.0782
  H  H662  1  0.018300  0.374100  0.376700  1.0  0.114
  H  H663  1  0.012400  0.372600  0.431400  1.0  0.1155
  H  H664  1  0.003900  0.322900  0.483300  1.0  0.0939
  H  H665  1  0.009800  0.290400  0.282600  1.0  0.0882
  H  H666  1  0.978700  0.204900  0.334500  1.0  0.0957
  H  H667  1  0.977900  0.199500  0.388500  1.0  0.1216
  H  H668  1  0.991400  0.242400  0.390400  1.0  0.1181
  H  H669  1  0.028400  0.172000  0.256000  1.0  0.0924
  H  H670  1  0.125100  0.121100  0.271900  1.0  0.1172
  H  H671  1  0.120900  0.174300  0.271300  1.0  0.1209
  H  H672  1  0.072800  0.226600  0.258800  1.0  0.094
  H  H673  1  0.456500  0.044100  0.813100  1.0  0.0743
  H  H674  1  0.401700  0.062300  0.855700  1.0  0.1192
  H  H675  1  0.349900  0.057500  0.860500  1.0  0.1322
  H  H676  1  0.412700  0.021100  0.774700  1.0  0.0885
  H  H677  1  0.273700  0.012300  0.787300  1.0  0.0774
  H  H678  1  0.374100  0.018300  0.730900  1.0  0.1139
  H  H679  1  0.372600  0.012400  0.683600  1.0  0.1149
  H  H680  1  0.322900  0.003900  0.689900  1.0  0.0937
  H  H681  1  0.290400  0.009800  0.917200  1.0  0.0872
  H  H682  1  0.204900  0.978700  0.981900  1.0  0.0962
  H  H683  1  0.199500  0.977900  0.934100  1.0  0.1203
  H  H684  1  0.242400  0.991400  0.875800  1.0  0.1181
  H  H685  1  0.172000  0.028400  0.043600  1.0  0.0935
  H  H686  1  0.121100  0.125100  0.981900  1.0  0.1187
  H  H687  1  0.174300  0.120900  0.933500  1.0  0.1227
  H  H688  1  0.226600  0.072800  0.941800  1.0  0.0945
  H  H689  1  0.044100  0.813100  0.456500  1.0  0.0758
  H  H690  1  0.062300  0.855700  0.401700  1.0  0.1199
  H  H691  1  0.057500  0.860500  0.349900  1.0  0.1319
  H  H692  1  0.021100  0.774700  0.412700  1.0  0.0867
  H  H693  1  0.012300  0.787300  0.273700  1.0  0.0773
  H  H694  1  0.018300  0.730900  0.374100  1.0  0.114
  H  H695  1  0.012400  0.683600  0.372600  1.0  0.118
  H  H696  1  0.003900  0.689900  0.322900  1.0  0.0932
  H  H697  1  0.009800  0.917200  0.290400  1.0  0.0895
  H  H698  1  0.978700  0.981900  0.204900  1.0  0.0987
  H  H699  1  0.977900  0.934100  0.199500  1.0  0.1197
  H  H700  1  0.991400  0.875800  0.242400  1.0  0.117
  H  H701  1  0.028400  0.043600  0.172000  1.0  0.0942
  H  H702  1  0.125100  0.981900  0.121100  1.0  0.1166
  H  H703  1  0.120900  0.933500  0.174300  1.0  0.1236
  H  H704  1  0.072800  0.941800  0.226600  1.0  0.0923
  H  H705  1  0.456500  0.186300  0.044100  1.0  0.0755
  H  H706  1  0.401700  0.180300  0.062300  1.0  0.1202
  H  H707  1  0.349900  0.232100  0.057500  1.0  0.1332
  H  H708  1  0.412700  0.291500  0.021100  1.0  0.0877
  H  H709  1  0.273700  0.426700  0.012300  1.0  0.0765
  H  H710  1  0.374100  0.376700  0.018300  1.0  0.1144
  H  H711  1  0.372600  0.431400  0.012400  1.0  0.1143
  H  H712  1  0.322900  0.483300  0.003900  1.0  0.0917
  H  H713  1  0.290400  0.282600  0.009800  1.0  0.0881
  H  H714  1  0.204900  0.334500  0.978700  1.0  0.0967
  H  H715  1  0.199500  0.388500  0.977900  1.0  0.1212
  H  H716  1  0.242400  0.390400  0.991400  1.0  0.1164
  H  H717  1  0.172000  0.256000  0.028400  1.0  0.0954
  H  H718  1  0.121100  0.271900  0.125100  1.0  0.1178
  H  H719  1  0.174300  0.271300  0.120900  1.0  0.121
  H  H720  1  0.226600  0.258800  0.072800  1.0  0.096
  H  H721  1  0.813100  0.044100  0.186300  1.0  0.0753
  H  H722  1  0.855700  0.062300  0.180300  1.0  0.1201
  H  H723  1  0.860500  0.057500  0.232100  1.0  0.1317
  H  H724  1  0.774700  0.021100  0.291500  1.0  0.0864
  H  H725  1  0.787300  0.012300  0.426700  1.0  0.0762
  H  H726  1  0.730900  0.018300  0.376700  1.0  0.1151
  H  H727  1  0.683600  0.012400  0.431400  1.0  0.1148
  H  H728  1  0.689900  0.003900  0.483300  1.0  0.0916
  H  H729  1  0.917200  0.009800  0.282600  1.0  0.0898
  H  H730  1  0.981900  0.978700  0.334500  1.0  0.0997
  H  H731  1  0.934100  0.977900  0.388500  1.0  0.1196
  H  H732  1  0.875800  0.991400  0.390400  1.0  0.1171
  H  H733  1  0.043600  0.028400  0.256000  1.0  0.0925
  H  H734  1  0.981900  0.125100  0.271900  1.0  0.116
  H  H735  1  0.933500  0.120900  0.271300  1.0  0.1218
  H  H736  1  0.941800  0.072800  0.258800  1.0  0.0943
  H  H737  1  0.186300  0.456500  0.813100  1.0  0.0747
  H  H738  1  0.180300  0.401700  0.855700  1.0  0.1189
  H  H739  1  0.232100  0.349900  0.860500  1.0  0.1312
  H  H740  1  0.291500  0.412700  0.774700  1.0  0.0868
  H  H741  1  0.426700  0.273700  0.787300  1.0  0.0771
  H  H742  1  0.376700  0.374100  0.730900  1.0  0.1149
  H  H743  1  0.431400  0.372600  0.683600  1.0  0.116
  H  H744  1  0.483300  0.322900  0.689900  1.0  0.0921
  H  H745  1  0.282600  0.290400  0.917200  1.0  0.0886
  H  H746  1  0.334500  0.204900  0.981900  1.0  0.0976
  H  H747  1  0.388500  0.199500  0.934100  1.0  0.1206
  H  H748  1  0.390400  0.242400  0.875800  1.0  0.1172
  H  H749  1  0.256000  0.172000  0.043600  1.0  0.0951
  H  H750  1  0.271900  0.121100  0.981900  1.0  0.1173
  H  H751  1  0.271300  0.174300  0.933500  1.0  0.1206
  H  H752  1  0.258800  0.226600  0.941800  1.0  0.0956
  H  H753  1  0.186300  0.044100  0.456500  1.0  0.073
  H  H754  1  0.180300  0.062300  0.401700  1.0  0.1199
  H  H755  1  0.232100  0.057500  0.349900  1.0  0.1315
  H  H756  1  0.291500  0.021100  0.412700  1.0  0.086
  H  H757  1  0.426700  0.012300  0.273700  1.0  0.0796
  H  H758  1  0.376700  0.018300  0.374100  1.0  0.1144
  H  H759  1  0.431400  0.012400  0.372600  1.0  0.1145
  H  H760  1  0.483300  0.003900  0.322900  1.0  0.0931
  H  H761  1  0.282600  0.009800  0.290400  1.0  0.0879
  H  H762  1  0.334500  0.978700  0.204900  1.0  0.0964
  H  H763  1  0.388500  0.977900  0.199500  1.0  0.1201
  H  H764  1  0.390400  0.991400  0.242400  1.0  0.1167
  H  H765  1  0.256000  0.028400  0.172000  1.0  0.0936
  H  H766  1  0.271900  0.125100  0.121100  1.0  0.1173
  H  H767  1  0.271300  0.120900  0.174300  1.0  0.1221
  H  H768  1  0.258800  0.072800  0.226600  1.0  0.0949
  H  H769  1  0.813100  0.456500  0.044100  1.0  0.0728
  H  H770  1  0.855700  0.401700  0.062300  1.0  0.1191
  H  H771  1  0.860500  0.349900  0.057500  1.0  0.1325
  H  H772  1  0.774700  0.412700  0.021100  1.0  0.0862
  H  H773  1  0.787300  0.273700  0.012300  1.0  0.0778
  H  H774  1  0.730900  0.374100  0.018300  1.0  0.1137
  H  H775  1  0.683600  0.372600  0.012400  1.0  0.116
  H  H776  1  0.689900  0.322900  0.003900  1.0  0.0915
  H  H777  1  0.917200  0.290400  0.009800  1.0  0.0871
  H  H778  1  0.981900  0.204900  0.978700  1.0  0.0999
  H  H779  1  0.934100  0.199500  0.977900  1.0  0.1211
  H  H780  1  0.875800  0.242400  0.991400  1.0  0.1171
  H  H781  1  0.043600  0.172000  0.028400  1.0  0.0927
  H  H782  1  0.981900  0.121100  0.125100  1.0  0.1165
  H  H783  1  0.933500  0.174300  0.120900  1.0  0.1196
  H  H784  1  0.941800  0.226600  0.072800  1.0  0.0937
  H  H785  1  0.456500  0.813100  0.186300  1.0  0.0728
  H  H786  1  0.401700  0.855700  0.180300  1.0  0.1202
  H  H787  1  0.349900  0.860500  0.232100  1.0  0.1327
  H  H788  1  0.412700  0.774700  0.291500  1.0  0.0872
  H  H789  1  0.273700  0.787300  0.426700  1.0  0.0779
  H  H790  1  0.374100  0.730900  0.376700  1.0  0.1134
  H  H791  1  0.372600  0.683600  0.431400  1.0  0.1176
  H  H792  1  0.322900  0.689900  0.483300  1.0  0.0922
  H  H793  1  0.290400  0.917200  0.282600  1.0  0.0873
  H  H794  1  0.204900  0.981900  0.334500  1.0  0.0979
  H  H795  1  0.199500  0.934100  0.388500  1.0  0.1206
  H  H796  1  0.242400  0.875800  0.390400  1.0  0.1165
  H  H797  1  0.172000  0.043600  0.256000  1.0  0.0939
  H  H798  1  0.121100  0.981900  0.271900  1.0  0.1183
  H  H799  1  0.174300  0.933500  0.271300  1.0  0.1236
  H  H800  1  0.226600  0.941800  0.258800  1.0  0.0936
  H  H801  1  0.044100  0.186300  0.813100  1.0  0.076
  H  H802  1  0.062300  0.180300  0.855700  1.0  0.1217
  H  H803  1  0.057500  0.232100  0.860500  1.0  0.1321
  H  H804  1  0.021100  0.291500  0.774700  1.0  0.0865
  H  H805  1  0.012300  0.426700  0.787300  1.0  0.079
  H  H806  1  0.018300  0.376700  0.730900  1.0  0.114
  H  H807  1  0.012400  0.431400  0.683600  1.0  0.1144
  H  H808  1  0.003900  0.483300  0.689900  1.0  0.093
  H  H809  1  0.009800  0.282600  0.917200  1.0  0.0883
  H  H810  1  0.978700  0.334500  0.981900  1.0  0.0998
  H  H811  1  0.977900  0.388500  0.934100  1.0  0.1207
  H  H812  1  0.991400  0.390400  0.875800  1.0  0.1168
  H  H813  1  0.028400  0.256000  0.043600  1.0  0.0939
  H  H814  1  0.125100  0.271900  0.981900  1.0  0.1166
  H  H815  1  0.120900  0.271300  0.933500  1.0  0.1209
  H  H816  1  0.072800  0.258800  0.941800  1.0  0.0947
  C  C817  1  0.226990  0.836110  0.476290  1.0  0.2544
  C  C818  1  0.314000  0.707580  0.542660  1.0  0.1658
  C  C819  1  0.339870  0.703710  0.553310  1.0  -0.1588
  C  C820  1  0.342680  0.734020  0.550780  1.0  -0.0776
  C  C821  1  0.318070  0.767670  0.537770  1.0  -0.1531
  C  C822  1  0.292010  0.768670  0.528850  1.0  0.1716
  C  C823  1  0.265960  0.927840  0.511880  1.0  0.2012
  C  C824  1  0.264250  0.896450  0.516770  1.0  -0.1316
  C  C825  1  0.232880  0.897820  0.516000  1.0  -0.0498
  C  C826  1  0.205490  0.930010  0.511910  1.0  -0.1349
  C  C827  1  0.209280  0.961060  0.507020  1.0  0.1556
  C  C828  1  0.295320  0.862260  0.519880  1.0  0.415
  C  C829  1  0.320490  0.801950  0.530870  1.0  0.29
  C  C830  1  0.354870  0.833810  0.514310  1.0  0.3685
  C  C831  1  0.390840  0.835840  0.503560  1.0  -0.1784
  C  C832  1  0.420660  0.804500  0.503220  1.0  0.1614
  C  C833  1  0.458340  0.834780  0.484920  1.0  0.1585
  C  C834  1  0.429940  0.867160  0.484220  1.0  -0.1465
  C  C835  1  0.395460  0.868240  0.492820  1.0  -0.0371
  C  C836  1  0.445920  0.704200  0.556840  1.0  0.2786
  C  C837  1  0.521270  0.758530  0.547690  1.0  0.1851
  C  C838  1  0.518530  0.764010  0.576590  1.0  -0.1492
  C  C839  1  0.484730  0.768350  0.604730  1.0  -0.0202
  C  C840  1  0.456630  0.767410  0.602510  1.0  -0.1505
  C  C841  1  0.461530  0.760710  0.573410  1.0  0.1466
  C  C842  1  0.550450  0.764390  0.577790  1.0  0.4213
  C  C843  1  0.836110  0.226990  0.960610  1.0  0.2566
  C  C844  1  0.707580  0.314000  0.935760  1.0  0.1692
  C  C845  1  0.703710  0.339870  0.903110  1.0  -0.1609
  C  C846  1  0.734020  0.342680  0.872520  1.0  -0.0794
  C  C847  1  0.767670  0.318070  0.876490  1.0  -0.1516
  C  C848  1  0.768670  0.292010  0.910470  1.0  0.1707
  C  C849  1  0.927840  0.265960  0.794320  1.0  0.2007
  C  C850  1  0.896450  0.264250  0.822530  1.0  -0.1323
  C  C851  1  0.897820  0.232880  0.853300  1.0  -0.0508
  C  C852  1  0.930010  0.205490  0.852590  1.0  -0.1403
  C  C853  1  0.961060  0.209280  0.822640  1.0  0.1524
  C  C854  1  0.862260  0.295320  0.822540  1.0  0.4149
  C  C855  1  0.801950  0.320490  0.846690  1.0  0.2905
  C  C856  1  0.833810  0.354870  0.797010  1.0  0.3693
  C  C857  1  0.835840  0.390840  0.769760  1.0  -0.1795
  C  C858  1  0.804500  0.420660  0.771620  1.0  0.1609
  C  C859  1  0.834780  0.458340  0.721960  1.0  0.1593
  C  C860  1  0.867160  0.429940  0.718680  1.0  -0.1442
  C  C861  1  0.868240  0.395460  0.743480  1.0  -0.0394
  C  C862  1  0.704200  0.445920  0.793040  1.0  0.2793
  C  C863  1  0.758530  0.521270  0.672510  1.0  0.1878
  C  C864  1  0.764010  0.518530  0.640870  1.0  -0.149
  C  C865  1  0.768350  0.484730  0.642190  1.0  -0.0207
  C  C866  1  0.767410  0.456630  0.673450  1.0  -0.1534
  C  C867  1  0.760710  0.461530  0.704350  1.0  0.1471
  C  C868  1  0.764390  0.550450  0.607370  1.0  0.4211
  C  C869  1  0.476290  0.960610  0.226990  1.0  0.2526
  C  C870  1  0.542660  0.935760  0.314000  1.0  0.1681
  C  C871  1  0.553310  0.903110  0.339870  1.0  -0.1578
  C  C872  1  0.550780  0.872520  0.342680  1.0  -0.0772
  C  C873  1  0.537770  0.876490  0.318070  1.0  -0.1543
  C  C874  1  0.528850  0.910470  0.292010  1.0  0.1736
  C  C875  1  0.511880  0.794320  0.265960  1.0  0.1989
  C  C876  1  0.516770  0.822530  0.264250  1.0  -0.132
  C  C877  1  0.516000  0.853300  0.232880  1.0  -0.0486
  C  C878  1  0.511910  0.852590  0.205490  1.0  -0.1374
  C  C879  1  0.507020  0.822640  0.209280  1.0  0.1527
  C  C880  1  0.519880  0.822540  0.295320  1.0  0.4155
  C  C881  1  0.530870  0.846690  0.320490  1.0  0.2916
  C  C882  1  0.514310  0.797010  0.354870  1.0  0.3683
  C  C883  1  0.503560  0.769760  0.390840  1.0  -0.1767
  C  C884  1  0.503220  0.771620  0.420660  1.0  0.1642
  C  C885  1  0.484920  0.721960  0.458340  1.0  0.1632
  C  C886  1  0.484220  0.718680  0.429940  1.0  -0.1486
  C  C887  1  0.492820  0.743480  0.395460  1.0  -0.0367
  C  C888  1  0.556840  0.793040  0.445920  1.0  0.2781
  C  C889  1  0.547690  0.672510  0.521270  1.0  0.1852
  C  C890  1  0.576590  0.640870  0.518530  1.0  -0.1531
  C  C891  1  0.604730  0.642190  0.484730  1.0  -0.02
  C  C892  1  0.602510  0.673450  0.456630  1.0  -0.1484
  C  C893  1  0.573410  0.704350  0.461530  1.0  0.146
  C  C894  1  0.577790  0.607370  0.550450  1.0  0.4218
  C  C895  1  0.960610  0.476290  0.836110  1.0  0.2513
  C  C896  1  0.935760  0.542660  0.707580  1.0  0.1697
  C  C897  1  0.903110  0.553310  0.703710  1.0  -0.1584
  C  C898  1  0.872520  0.550780  0.734020  1.0  -0.0782
  C  C899  1  0.876490  0.537770  0.767670  1.0  -0.1534
  C  C900  1  0.910470  0.528850  0.768670  1.0  0.1719
  C  C901  1  0.794320  0.511880  0.927840  1.0  0.2021
  C  C902  1  0.822530  0.516770  0.896450  1.0  -0.1308
  C  C903  1  0.853300  0.516000  0.897820  1.0  -0.047
  C  C904  1  0.852590  0.511910  0.930010  1.0  -0.1333
  C  C905  1  0.822640  0.507020  0.961060  1.0  0.1581
  C  C906  1  0.822540  0.519880  0.862260  1.0  0.4153
  C  C907  1  0.846690  0.530870  0.801950  1.0  0.2906
  C  C908  1  0.797010  0.514310  0.833810  1.0  0.3683
  C  C909  1  0.769760  0.503560  0.835840  1.0  -0.1756
  C  C910  1  0.771620  0.503220  0.804500  1.0  0.163
  C  C911  1  0.721960  0.484920  0.834780  1.0  0.1647
  C  C912  1  0.718680  0.484220  0.867160  1.0  -0.1466
  C  C913  1  0.743480  0.492820  0.868240  1.0  -0.0381
  C  C914  1  0.793040  0.556840  0.704200  1.0  0.2776
  C  C915  1  0.672510  0.547690  0.758530  1.0  0.187
  C  C916  1  0.640870  0.576590  0.764010  1.0  -0.1533
  C  C917  1  0.642190  0.604730  0.768350  1.0  -0.0194
  C  C918  1  0.673450  0.602510  0.767410  1.0  -0.1522
  C  C919  1  0.704350  0.573410  0.760710  1.0  0.1442
  C  C920  1  0.607370  0.577790  0.764390  1.0  0.4214
  C  C921  1  0.476290  0.226990  0.836110  1.0  0.2533
  C  C922  1  0.542660  0.314000  0.707580  1.0  0.1679
  C  C923  1  0.553310  0.339870  0.703710  1.0  -0.1591
  C  C924  1  0.550780  0.342680  0.734020  1.0  -0.0773
  C  C925  1  0.537770  0.318070  0.767670  1.0  -0.1554
  C  C926  1  0.528850  0.292010  0.768670  1.0  0.1697
  C  C927  1  0.511880  0.265960  0.927840  1.0  0.2034
  C  C928  1  0.516770  0.264250  0.896450  1.0  -0.1322
  C  C929  1  0.516000  0.232880  0.897820  1.0  -0.0455
  C  C930  1  0.511910  0.205490  0.930010  1.0  -0.1378
  C  C931  1  0.507020  0.209280  0.961060  1.0  0.156
  C  C932  1  0.519880  0.295320  0.862260  1.0  0.4153
  C  C933  1  0.530870  0.320490  0.801950  1.0  0.2907
  C  C934  1  0.514310  0.354870  0.833810  1.0  0.3686
  C  C935  1  0.503560  0.390840  0.835840  1.0  -0.1786
  C  C936  1  0.503220  0.420660  0.804500  1.0  0.1626
  C  C937  1  0.484920  0.458340  0.834780  1.0  0.1551
  C  C938  1  0.484220  0.429940  0.867160  1.0  -0.1462
  C  C939  1  0.492820  0.395460  0.868240  1.0  -0.0402
  C  C940  1  0.556840  0.445920  0.704200  1.0  0.2729
  C  C941  1  0.547690  0.521270  0.758530  1.0  0.1848
  C  C942  1  0.576590  0.518530  0.764010  1.0  -0.1549
  C  C943  1  0.604730  0.484730  0.768350  1.0  -0.0211
  C  C944  1  0.602510  0.456630  0.767410  1.0  -0.1518
  C  C945  1  0.573410  0.461530  0.760710  1.0  0.1448
  C  C946  1  0.577790  0.550450  0.764390  1.0  0.4213
  C  C947  1  0.960610  0.836110  0.226990  1.0  0.2526
  C  C948  1  0.935760  0.707580  0.314000  1.0  0.1666
  C  C949  1  0.903110  0.703710  0.339870  1.0  -0.1593
  C  C950  1  0.872520  0.734020  0.342680  1.0  -0.0792
  C  C951  1  0.876490  0.767670  0.318070  1.0  -0.1531
  C  C952  1  0.910470  0.768670  0.292010  1.0  0.1719
  C  C953  1  0.794320  0.927840  0.265960  1.0  0.2028
  C  C954  1  0.822530  0.896450  0.264250  1.0  -0.1309
  C  C955  1  0.853300  0.897820  0.232880  1.0  -0.047
  C  C956  1  0.852590  0.930010  0.205490  1.0  -0.1351
  C  C957  1  0.822640  0.961060  0.209280  1.0  0.1523
  C  C958  1  0.822540  0.862260  0.295320  1.0  0.4154
  C  C959  1  0.846690  0.801950  0.320490  1.0  0.2906
  C  C960  1  0.797010  0.833810  0.354870  1.0  0.3683
  C  C961  1  0.769760  0.835840  0.390840  1.0  -0.1788
  C  C962  1  0.771620  0.804500  0.420660  1.0  0.1614
  C  C963  1  0.721960  0.834780  0.458340  1.0  0.1596
  C  C964  1  0.718680  0.867160  0.429940  1.0  -0.1478
  C  C965  1  0.743480  0.868240  0.395460  1.0  -0.0356
  C  C966  1  0.793040  0.704200  0.445920  1.0  0.2738
  C  C967  1  0.672510  0.758530  0.521270  1.0  0.1875
  C  C968  1  0.640870  0.764010  0.518530  1.0  -0.1529
  C  C969  1  0.642190  0.768350  0.484730  1.0  -0.0219
  C  C970  1  0.673450  0.767410  0.456630  1.0  -0.1457
  C  C971  1  0.704350  0.760710  0.461530  1.0  0.1452
  C  C972  1  0.607370  0.764390  0.550450  1.0  0.4215
  C  C973  1  0.226990  0.476290  0.960610  1.0  0.2538
  C  C974  1  0.314000  0.542660  0.935760  1.0  0.1706
  C  C975  1  0.339870  0.553310  0.903110  1.0  -0.1599
  C  C976  1  0.342680  0.550780  0.872520  1.0  -0.0763
  C  C977  1  0.318070  0.537770  0.876490  1.0  -0.1537
  C  C978  1  0.292010  0.528850  0.910470  1.0  0.1707
  C  C979  1  0.265960  0.511880  0.794320  1.0  0.2023
  C  C980  1  0.264250  0.516770  0.822530  1.0  -0.13
  C  C981  1  0.232880  0.516000  0.853300  1.0  -0.0485
  C  C982  1  0.205490  0.511910  0.852590  1.0  -0.136
  C  C983  1  0.209280  0.507020  0.822640  1.0  0.1575
  C  C984  1  0.295320  0.519880  0.822540  1.0  0.4153
  C  C985  1  0.320490  0.530870  0.846690  1.0  0.2902
  C  C986  1  0.354870  0.514310  0.797010  1.0  0.3681
  C  C987  1  0.390840  0.503560  0.769760  1.0  -0.1788
  C  C988  1  0.420660  0.503220  0.771620  1.0  0.1642
  C  C989  1  0.458340  0.484920  0.721960  1.0  0.1586
  C  C990  1  0.429940  0.484220  0.718680  1.0  -0.1434
  C  C991  1  0.395460  0.492820  0.743480  1.0  -0.0394
  C  C992  1  0.445920  0.556840  0.793040  1.0  0.2736
  C  C993  1  0.521270  0.547690  0.672510  1.0  0.1864
  C  C994  1  0.518530  0.576590  0.640870  1.0  -0.1514
  C  C995  1  0.484730  0.604730  0.642190  1.0  -0.0206
  C  C996  1  0.456630  0.602510  0.673450  1.0  -0.1519
  C  C997  1  0.461530  0.573410  0.704350  1.0  0.144
  C  C998  1  0.550450  0.577790  0.607370  1.0  0.4215
  C  C999  1  0.836110  0.960610  0.476290  1.0  0.2568
  C  C1000  1  0.707580  0.935760  0.542660  1.0  0.1678
  C  C1001  1  0.703710  0.903110  0.553310  1.0  -0.159
  C  C1002  1  0.734020  0.872520  0.550780  1.0  -0.0773
  C  C1003  1  0.767670  0.876490  0.537770  1.0  -0.154
  C  C1004  1  0.768670  0.910470  0.528850  1.0  0.1726
  C  C1005  1  0.927840  0.794320  0.511880  1.0  0.1999
  C  C1006  1  0.896450  0.822530  0.516770  1.0  -0.1322
  C  C1007  1  0.897820  0.853300  0.516000  1.0  -0.0472
  C  C1008  1  0.930010  0.852590  0.511910  1.0  -0.1396
  C  C1009  1  0.961060  0.822640  0.507020  1.0  0.1529
  C  C1010  1  0.862260  0.822540  0.519880  1.0  0.4153
  C  C1011  1  0.801950  0.846690  0.530870  1.0  0.2914
  C  C1012  1  0.833810  0.797010  0.514310  1.0  0.3692
  C  C1013  1  0.835840  0.769760  0.503560  1.0  -0.1816
  C  C1014  1  0.804500  0.771620  0.503220  1.0  0.1605
  C  C1015  1  0.834780  0.721960  0.484920  1.0  0.1618
  C  C1016  1  0.867160  0.718680  0.484220  1.0  -0.1459
  C  C1017  1  0.868240  0.743480  0.492820  1.0  -0.0385
  C  C1018  1  0.704200  0.793040  0.556840  1.0  0.2759
  C  C1019  1  0.758530  0.672510  0.547690  1.0  0.1883
  C  C1020  1  0.764010  0.640870  0.576590  1.0  -0.152
  C  C1021  1  0.768350  0.642190  0.604730  1.0  -0.0225
  C  C1022  1  0.767410  0.673450  0.602510  1.0  -0.1464
  C  C1023  1  0.760710  0.704350  0.573410  1.0  0.1439
  C  C1024  1  0.764390  0.607370  0.577790  1.0  0.4218
  C  C1025  1  0.836110  0.476290  0.226990  1.0  0.2551
  C  C1026  1  0.707580  0.542660  0.314000  1.0  0.1715
  C  C1027  1  0.703710  0.553310  0.339870  1.0  -0.164
  C  C1028  1  0.734020  0.550780  0.342680  1.0  -0.078
  C  C1029  1  0.767670  0.537770  0.318070  1.0  -0.1509
  C  C1030  1  0.768670  0.528850  0.292010  1.0  0.1712
  C  C1031  1  0.927840  0.511880  0.265960  1.0  0.2014
  C  C1032  1  0.896450  0.516770  0.264250  1.0  -0.1323
  C  C1033  1  0.897820  0.516000  0.232880  1.0  -0.0464
  C  C1034  1  0.930010  0.511910  0.205490  1.0  -0.1329
  C  C1035  1  0.961060  0.507020  0.209280  1.0  0.1532
  C  C1036  1  0.862260  0.519880  0.295320  1.0  0.4152
  C  C1037  1  0.801950  0.530870  0.320490  1.0  0.2902
  C  C1038  1  0.833810  0.514310  0.354870  1.0  0.3688
  C  C1039  1  0.835840  0.503560  0.390840  1.0  -0.1804
  C  C1040  1  0.804500  0.503220  0.420660  1.0  0.1625
  C  C1041  1  0.834780  0.484920  0.458340  1.0  0.1615
  C  C1042  1  0.867160  0.484220  0.429940  1.0  -0.1466
  C  C1043  1  0.868240  0.492820  0.395460  1.0  -0.0379
  C  C1044  1  0.704200  0.556840  0.445920  1.0  0.2738
  C  C1045  1  0.758530  0.547690  0.521270  1.0  0.1872
  C  C1046  1  0.764010  0.576590  0.518530  1.0  -0.1532
  C  C1047  1  0.768350  0.604730  0.484730  1.0  -0.0191
  C  C1048  1  0.767410  0.602510  0.456630  1.0  -0.1516
  C  C1049  1  0.760710  0.573410  0.461530  1.0  0.1419
  C  C1050  1  0.764390  0.577790  0.550450  1.0  0.421
  C  C1051  1  0.226990  0.960610  0.836110  1.0  0.2528
  C  C1052  1  0.314000  0.935760  0.707580  1.0  0.167
  C  C1053  1  0.339870  0.903110  0.703710  1.0  -0.1576
  C  C1054  1  0.342680  0.872520  0.734020  1.0  -0.0807
  C  C1055  1  0.318070  0.876490  0.767670  1.0  -0.153
  C  C1056  1  0.292010  0.910470  0.768670  1.0  0.1712
  C  C1057  1  0.265960  0.794320  0.927840  1.0  0.2008
  C  C1058  1  0.264250  0.822530  0.896450  1.0  -0.1285
  C  C1059  1  0.232880  0.853300  0.897820  1.0  -0.048
  C  C1060  1  0.205490  0.852590  0.930010  1.0  -0.1395
  C  C1061  1  0.209280  0.822640  0.961060  1.0  0.154
  C  C1062  1  0.295320  0.822540  0.862260  1.0  0.4143
  C  C1063  1  0.320490  0.846690  0.801950  1.0  0.2905
  C  C1064  1  0.354870  0.797010  0.833810  1.0  0.3699
  C  C1065  1  0.390840  0.769760  0.835840  1.0  -0.1784
  C  C1066  1  0.420660  0.771620  0.804500  1.0  0.1617
  C  C1067  1  0.458340  0.721960  0.834780  1.0  0.1554
  C  C1068  1  0.429940  0.718680  0.867160  1.0  -0.1492
  C  C1069  1  0.395460  0.743480  0.868240  1.0  -0.0367
  C  C1070  1  0.445920  0.793040  0.704200  1.0  0.2751
  C  C1071  1  0.521270  0.672510  0.758530  1.0  0.1862
  C  C1072  1  0.518530  0.640870  0.764010  1.0  -0.1513
  C  C1073  1  0.484730  0.642190  0.768350  1.0  -0.02
  C  C1074  1  0.456630  0.673450  0.767410  1.0  -0.1479
  C  C1075  1  0.461530  0.704350  0.760710  1.0  0.1468
  C  C1076  1  0.550450  0.607370  0.764390  1.0  0.4218
  C  C1077  1  0.960610  0.226990  0.476290  1.0  0.2546
  C  C1078  1  0.935760  0.314000  0.542660  1.0  0.1678
  C  C1079  1  0.903110  0.339870  0.553310  1.0  -0.1589
  C  C1080  1  0.872520  0.342680  0.550780  1.0  -0.0791
  C  C1081  1  0.876490  0.318070  0.537770  1.0  -0.1528
  C  C1082  1  0.910470  0.292010  0.528850  1.0  0.1715
  C  C1083  1  0.794320  0.265960  0.511880  1.0  0.2015
  C  C1084  1  0.822530  0.264250  0.516770  1.0  -0.129
  C  C1085  1  0.853300  0.232880  0.516000  1.0  -0.0491
  C  C1086  1  0.852590  0.205490  0.511910  1.0  -0.1374
  C  C1087  1  0.822640  0.209280  0.507020  1.0  0.1512
  C  C1088  1  0.822540  0.295320  0.519880  1.0  0.4143
  C  C1089  1  0.846690  0.320490  0.530870  1.0  0.291
  C  C1090  1  0.797010  0.354870  0.514310  1.0  0.3689
  C  C1091  1  0.769760  0.390840  0.503560  1.0  -0.1779
  C  C1092  1  0.771620  0.420660  0.503220  1.0  0.1639
  C  C1093  1  0.721960  0.458340  0.484920  1.0  0.1583
  C  C1094  1  0.718680  0.429940  0.484220  1.0  -0.1474
  C  C1095  1  0.743480  0.395460  0.492820  1.0  -0.0378
  C  C1096  1  0.793040  0.445920  0.556840  1.0  0.2743
  C  C1097  1  0.672510  0.521270  0.547690  1.0  0.1858
  C  C1098  1  0.640870  0.518530  0.576590  1.0  -0.154
  C  C1099  1  0.642190  0.484730  0.604730  1.0  -0.0212
  C  C1100  1  0.673450  0.456630  0.602510  1.0  -0.1554
  C  C1101  1  0.704350  0.461530  0.573410  1.0  0.1421
  C  C1102  1  0.607370  0.550450  0.577790  1.0  0.4213
  C  C1103  1  0.476290  0.836110  0.960610  1.0  0.2543
  C  C1104  1  0.542660  0.707580  0.935760  1.0  0.1687
  C  C1105  1  0.553310  0.703710  0.903110  1.0  -0.1583
  C  C1106  1  0.550780  0.734020  0.872520  1.0  -0.0807
  C  C1107  1  0.537770  0.767670  0.876490  1.0  -0.1534
  C  C1108  1  0.528850  0.768670  0.910470  1.0  0.1734
  C  C1109  1  0.511880  0.927840  0.794320  1.0  0.2014
  C  C1110  1  0.516770  0.896450  0.822530  1.0  -0.1309
  C  C1111  1  0.516000  0.897820  0.853300  1.0  -0.0504
  C  C1112  1  0.511910  0.930010  0.852590  1.0  -0.1348
  C  C1113  1  0.507020  0.961060  0.822640  1.0  0.1533
  C  C1114  1  0.519880  0.862260  0.822540  1.0  0.416
  C  C1115  1  0.530870  0.801950  0.846690  1.0  0.2902
  C  C1116  1  0.514310  0.833810  0.797010  1.0  0.3686
  C  C1117  1  0.503560  0.835840  0.769760  1.0  -0.1799
  C  C1118  1  0.503220  0.804500  0.771620  1.0  0.1637
  C  C1119  1  0.484920  0.834780  0.721960  1.0  0.1585
  C  C1120  1  0.484220  0.867160  0.718680  1.0  -0.1461
  C  C1121  1  0.492820  0.868240  0.743480  1.0  -0.035
  C  C1122  1  0.556840  0.704200  0.793040  1.0  0.2726
  C  C1123  1  0.547690  0.758530  0.672510  1.0  0.1869
  C  C1124  1  0.576590  0.764010  0.640870  1.0  -0.1526
  C  C1125  1  0.604730  0.768350  0.642190  1.0  -0.0175
  C  C1126  1  0.602510  0.767410  0.673450  1.0  -0.1487
  C  C1127  1  0.573410  0.760710  0.704350  1.0  0.1432
  C  C1128  1  0.577790  0.764390  0.607370  1.0  0.4216
  C  C1129  1  0.273010  0.663890  0.539390  1.0  0.2552
  C  C1130  1  0.186000  0.792420  0.564240  1.0  0.1667
  C  C1131  1  0.160130  0.796290  0.596890  1.0  -0.1621
  C  C1132  1  0.157320  0.765980  0.627480  1.0  -0.0783
  C  C1133  1  0.181930  0.732330  0.623510  1.0  -0.1526
  C  C1134  1  0.207990  0.731330  0.589530  1.0  0.1711
  C  C1135  1  0.234040  0.572160  0.705680  1.0  0.2009
  C  C1136  1  0.235750  0.603550  0.677470  1.0  -0.1313
  C  C1137  1  0.267120  0.602180  0.646700  1.0  -0.0493
  C  C1138  1  0.294510  0.569990  0.647410  1.0  -0.134
  C  C1139  1  0.290720  0.538940  0.677360  1.0  0.1551
  C  C1140  1  0.204680  0.637740  0.677460  1.0  0.415
  C  C1141  1  0.179510  0.698050  0.653310  1.0  0.29
  C  C1142  1  0.145130  0.666190  0.702990  1.0  0.3686
  C  C1143  1  0.109160  0.664160  0.730240  1.0  -0.1799
  C  C1144  1  0.079340  0.695500  0.728380  1.0  0.1611
  C  C1145  1  0.041660  0.665220  0.778040  1.0  0.157
  C  C1146  1  0.070060  0.632840  0.781320  1.0  -0.1486
  C  C1147  1  0.104540  0.631760  0.756520  1.0  -0.0367
  C  C1148  1  0.054080  0.795800  0.706960  1.0  0.2775
  C  C1149  1  0.978730  0.741470  0.827490  1.0  0.1869
  C  C1150  1  0.981470  0.735990  0.859130  1.0  -0.1485
  C  C1151  1  0.015270  0.731650  0.857810  1.0  -0.0206
  C  C1152  1  0.043370  0.732590  0.826550  1.0  -0.1492
  C  C1153  1  0.038470  0.739290  0.795650  1.0  0.1477
  C  C1154  1  0.949550  0.735610  0.892630  1.0  0.4211
  C  C1155  1  0.663890  0.273010  0.023710  1.0  0.2571
  C  C1156  1  0.792420  0.186000  0.957340  1.0  0.168
  C  C1157  1  0.796290  0.160130  0.946690  1.0  -0.1579
  C  C1158  1  0.765980  0.157320  0.949220  1.0  -0.0814
  C  C1159  1  0.732330  0.181930  0.962230  1.0  -0.1528
  C  C1160  1  0.731330  0.207990  0.971150  1.0  0.1711
  C  C1161  1  0.572160  0.234040  0.988120  1.0  0.1992
  C  C1162  1  0.603550  0.235750  0.983230  1.0  -0.1313
  C  C1163  1  0.602180  0.267120  0.984000  1.0  -0.0494
  C  C1164  1  0.569990  0.294510  0.988090  1.0  -0.1365
  C  C1165  1  0.538940  0.290720  0.992980  1.0  0.1528
  C  C1166  1  0.637740  0.204680  0.980120  1.0  0.4161
  C  C1167  1  0.698050  0.179510  0.969130  1.0  0.2907
  C  C1168  1  0.666190  0.145130  0.985690  1.0  0.3689
  C  C1169  1  0.664160  0.109160  0.996440  1.0  -0.1784
  C  C1170  1  0.695500  0.079340  0.996780  1.0  0.1603
  C  C1171  1  0.665220  0.041660  0.015080  1.0  0.1589
  C  C1172  1  0.632840  0.070060  0.015780  1.0  -0.1446
  C  C1173  1  0.631760  0.104540  0.007180  1.0  -0.0384
  C  C1174  1  0.795800  0.054080  0.943160  1.0  0.2782
  C  C1175  1  0.741470  0.978730  0.952310  1.0  0.1886
  C  C1176  1  0.735990  0.981470  0.923410  1.0  -0.1495
  C  C1177  1  0.731650  0.015270  0.895270  1.0  -0.0194
  C  C1178  1  0.732590  0.043370  0.897490  1.0  -0.1525
  C  C1179  1  0.739290  0.038470  0.926590  1.0  0.1457
  C  C1180  1  0.735610  0.949550  0.922210  1.0  0.4216
  C  C1181  1  0.023710  0.539390  0.663890  1.0  0.2529
  C  C1182  1  0.957340  0.564240  0.792420  1.0  0.168
  C  C1183  1  0.946690  0.596890  0.796290  1.0  -0.16
  C  C1184  1  0.949220  0.627480  0.765980  1.0  -0.0776
  C  C1185  1  0.962230  0.623510  0.732330  1.0  -0.1539
  C  C1186  1  0.971150  0.589530  0.731330  1.0  0.1733
  C  C1187  1  0.988120  0.705680  0.572160  1.0  0.2004
  C  C1188  1  0.983230  0.677470  0.603550  1.0  -0.1313
  C  C1189  1  0.984000  0.646700  0.602180  1.0  -0.0491
  C  C1190  1  0.988090  0.647410  0.569990  1.0  -0.1404
  C  C1191  1  0.992980  0.677360  0.538940  1.0  0.1516
  C  C1192  1  0.980120  0.677460  0.637740  1.0  0.4153
  C  C1193  1  0.969130  0.653310  0.698050  1.0  0.2916
  C  C1194  1  0.985690  0.702990  0.666190  1.0  0.3683
  C  C1195  1  0.996440  0.730240  0.664160  1.0  -0.1777
  C  C1196  1  0.996780  0.728380  0.695500  1.0  0.1638
  C  C1197  1  0.015080  0.778040  0.665220  1.0  0.1614
  C  C1198  1  0.015780  0.781320  0.632840  1.0  -0.1476
  C  C1199  1  0.007180  0.756520  0.631760  1.0  -0.0387
  C  C1200  1  0.943160  0.706960  0.795800  1.0  0.2797
  C  C1201  1  0.952310  0.827490  0.741470  1.0  0.1854
  C  C1202  1  0.923410  0.859130  0.735990  1.0  -0.1532
  C  C1203  1  0.895270  0.857810  0.731650  1.0  -0.0191
  C  C1204  1  0.897490  0.826550  0.732590  1.0  -0.1487
  C  C1205  1  0.926590  0.795650  0.739290  1.0  0.1458
  C  C1206  1  0.922210  0.892630  0.735610  1.0  0.4215
  C  C1207  1  0.539390  0.023710  0.273010  1.0  0.2486
  C  C1208  1  0.564240  0.957340  0.186000  1.0  0.1698
  C  C1209  1  0.596890  0.946690  0.160130  1.0  -0.1578
  C  C1210  1  0.627480  0.949220  0.157320  1.0  -0.0774
  C  C1211  1  0.623510  0.962230  0.181930  1.0  -0.1539
  C  C1212  1  0.589530  0.971150  0.207990  1.0  0.1731
  C  C1213  1  0.705680  0.988120  0.234040  1.0  0.2017
  C  C1214  1  0.677470  0.983230  0.235750  1.0  -0.1318
  C  C1215  1  0.646700  0.984000  0.267120  1.0  -0.0479
  C  C1216  1  0.647410  0.988090  0.294510  1.0  -0.1369
  C  C1217  1  0.677360  0.992980  0.290720  1.0  0.1578
  C  C1218  1  0.677460  0.980120  0.204680  1.0  0.4151
  C  C1219  1  0.653310  0.969130  0.179510  1.0  0.291
  C  C1220  1  0.702990  0.985690  0.145130  1.0  0.3682
  C  C1221  1  0.730240  0.996440  0.109160  1.0  -0.1755
  C  C1222  1  0.728380  0.996780  0.079340  1.0  0.1623
  C  C1223  1  0.778040  0.015080  0.041660  1.0  0.1651
  C  C1224  1  0.781320  0.015780  0.070060  1.0  -0.1454
  C  C1225  1  0.756520  0.007180  0.104540  1.0  -0.0383
  C  C1226  1  0.706960  0.943160  0.054080  1.0  0.2782
  C  C1227  1  0.827490  0.952310  0.978730  1.0  0.1872
  C  C1228  1  0.859130  0.923410  0.981470  1.0  -0.1541
  C  C1229  1  0.857810  0.895270  0.015270  1.0  -0.0199
  C  C1230  1  0.826550  0.897490  0.043370  1.0  -0.1557
  C  C1231  1  0.795650  0.926590  0.038470  1.0  0.1446
  C  C1232  1  0.892630  0.922210  0.949550  1.0  0.4215
  C  C1233  1  0.023710  0.273010  0.539390  1.0  0.2534
  C  C1234  1  0.957340  0.186000  0.564240  1.0  0.1673
  C  C1235  1  0.946690  0.160130  0.596890  1.0  -0.1597
  C  C1236  1  0.949220  0.157320  0.627480  1.0  -0.0781
  C  C1237  1  0.962230  0.181930  0.623510  1.0  -0.1552
  C  C1238  1  0.971150  0.207990  0.589530  1.0  0.1699
  C  C1239  1  0.988120  0.234040  0.705680  1.0  0.2031
  C  C1240  1  0.983230  0.235750  0.677470  1.0  -0.1326
  C  C1241  1  0.984000  0.267120  0.646700  1.0  -0.0452
  C  C1242  1  0.988090  0.294510  0.647410  1.0  -0.1354
  C  C1243  1  0.992980  0.290720  0.677360  1.0  0.1549
  C  C1244  1  0.980120  0.204680  0.677460  1.0  0.4158
  C  C1245  1  0.969130  0.179510  0.653310  1.0  0.291
  C  C1246  1  0.985690  0.145130  0.702990  1.0  0.3684
  C  C1247  1  0.996440  0.109160  0.730240  1.0  -0.1788
  C  C1248  1  0.996780  0.079340  0.728380  1.0  0.1609
  C  C1249  1  0.015080  0.041660  0.778040  1.0  0.1568
  C  C1250  1  0.015780  0.070060  0.781320  1.0  -0.1449
  C  C1251  1  0.007180  0.104540  0.756520  1.0  -0.0389
  C  C1252  1  0.943160  0.054080  0.706960  1.0  0.2759
  C  C1253  1  0.952310  0.978730  0.827490  1.0  0.1872
  C  C1254  1  0.923410  0.981470  0.859130  1.0  -0.1549
  C  C1255  1  0.895270  0.015270  0.857810  1.0  -0.0211
  C  C1256  1  0.897490  0.043370  0.826550  1.0  -0.1519
  C  C1257  1  0.926590  0.038470  0.795650  1.0  0.1445
  C  C1258  1  0.922210  0.949550  0.892630  1.0  0.4219
  C  C1259  1  0.539390  0.663890  0.023710  1.0  0.255
  C  C1260  1  0.564240  0.792420  0.957340  1.0  0.1674
  C  C1261  1  0.596890  0.796290  0.946690  1.0  -0.1597
  C  C1262  1  0.627480  0.765980  0.949220  1.0  -0.0783
  C  C1263  1  0.623510  0.732330  0.962230  1.0  -0.1533
  C  C1264  1  0.589530  0.731330  0.971150  1.0  0.1728
  C  C1265  1  0.705680  0.572160  0.988120  1.0  0.2017
  C  C1266  1  0.677470  0.603550  0.983230  1.0  -0.1308
  C  C1267  1  0.646700  0.602180  0.984000  1.0  -0.0483
  C  C1268  1  0.647410  0.569990  0.988090  1.0  -0.137
  C  C1269  1  0.677360  0.538940  0.992980  1.0  0.1526
  C  C1270  1  0.677460  0.637740  0.980120  1.0  0.4151
  C  C1271  1  0.653310  0.698050  0.969130  1.0  0.2905
  C  C1272  1  0.702990  0.666190  0.985690  1.0  0.3681
  C  C1273  1  0.730240  0.664160  0.996440  1.0  -0.1797
  C  C1274  1  0.728380  0.695500  0.996780  1.0  0.161
  C  C1275  1  0.778040  0.665220  0.015080  1.0  0.1586
  C  C1276  1  0.781320  0.632840  0.015780  1.0  -0.1472
  C  C1277  1  0.756520  0.631760  0.007180  1.0  -0.0377
  C  C1278  1  0.706960  0.795800  0.943160  1.0  0.2743
  C  C1279  1  0.827490  0.741470  0.952310  1.0  0.1875
  C  C1280  1  0.859130  0.735990  0.923410  1.0  -0.1531
  C  C1281  1  0.857810  0.731650  0.895270  1.0  -0.0236
  C  C1282  1  0.826550  0.732590  0.897490  1.0  -0.1446
  C  C1283  1  0.795650  0.739290  0.926590  1.0  0.1455
  C  C1284  1  0.892630  0.735610  0.922210  1.0  0.4219
  C  C1285  1  0.273010  0.023710  0.663890  1.0  0.2504
  C  C1286  1  0.186000  0.957340  0.792420  1.0  0.1706
  C  C1287  1  0.160130  0.946690  0.796290  1.0  -0.1618
  C  C1288  1  0.157320  0.949220  0.765980  1.0  -0.0767
  C  C1289  1  0.181930  0.962230  0.732330  1.0  -0.1542
  C  C1290  1  0.207990  0.971150  0.731330  1.0  0.1716
  C  C1291  1  0.234040  0.988120  0.572160  1.0  0.2023
  C  C1292  1  0.235750  0.983230  0.603550  1.0  -0.1302
  C  C1293  1  0.267120  0.984000  0.602180  1.0  -0.0481
  C  C1294  1  0.294510  0.988090  0.569990  1.0  -0.1336
  C  C1295  1  0.290720  0.992980  0.538940  1.0  0.1582
  C  C1296  1  0.204680  0.980120  0.637740  1.0  0.415
  C  C1297  1  0.179510  0.969130  0.698050  1.0  0.2904
  C  C1298  1  0.145130  0.985690  0.666190  1.0  0.3693
  C  C1299  1  0.109160  0.996440  0.664160  1.0  -0.1795
  C  C1300  1  0.079340  0.996780  0.695500  1.0  0.1639
  C  C1301  1  0.041660  0.015080  0.665220  1.0  0.1591
  C  C1302  1  0.070060  0.015780  0.632840  1.0  -0.1436
  C  C1303  1  0.104540  0.007180  0.631760  1.0  -0.0398
  C  C1304  1  0.054080  0.943160  0.795800  1.0  0.272
  C  C1305  1  0.978730  0.952310  0.741470  1.0  0.1862
  C  C1306  1  0.981470  0.923410  0.735990  1.0  -0.1517
  C  C1307  1  0.015270  0.895270  0.731650  1.0  -0.0227
  C  C1308  1  0.043370  0.897490  0.732590  1.0  -0.1513
  C  C1309  1  0.038470  0.926590  0.739290  1.0  0.1448
  C  C1310  1  0.949550  0.922210  0.735610  1.0  0.4213
  C  C1311  1  0.663890  0.539390  0.273010  1.0  0.2576
  C  C1312  1  0.792420  0.564240  0.186000  1.0  0.1677
  C  C1313  1  0.796290  0.596890  0.160130  1.0  -0.158
  C  C1314  1  0.765980  0.627480  0.157320  1.0  -0.0786
  C  C1315  1  0.732330  0.623510  0.181930  1.0  -0.154
  C  C1316  1  0.731330  0.589530  0.207990  1.0  0.1716
  C  C1317  1  0.572160  0.705680  0.234040  1.0  0.1998
  C  C1318  1  0.603550  0.677470  0.235750  1.0  -0.1311
  C  C1319  1  0.602180  0.646700  0.267120  1.0  -0.0467
  C  C1320  1  0.569990  0.647410  0.294510  1.0  -0.1425
  C  C1321  1  0.538940  0.677360  0.290720  1.0  0.1531
  C  C1322  1  0.637740  0.677460  0.204680  1.0  0.4159
  C  C1323  1  0.698050  0.653310  0.179510  1.0  0.2912
  C  C1324  1  0.666190  0.702990  0.145130  1.0  0.3682
  C  C1325  1  0.664160  0.730240  0.109160  1.0  -0.1801
  C  C1326  1  0.695500  0.728380  0.079340  1.0  0.1616
  C  C1327  1  0.665220  0.778040  0.041660  1.0  0.1616
  C  C1328  1  0.632840  0.781320  0.070060  1.0  -0.1482
  C  C1329  1  0.631760  0.756520  0.104540  1.0  -0.0375
  C  C1330  1  0.795800  0.706960  0.054080  1.0  0.2747
  C  C1331  1  0.741470  0.827490  0.978730  1.0  0.1876
  C  C1332  1  0.735990  0.859130  0.981470  1.0  -0.1513
  C  C1333  1  0.731650  0.857810  0.015270  1.0  -0.0215
  C  C1334  1  0.732590  0.826550  0.043370  1.0  -0.1474
  C  C1335  1  0.739290  0.795650  0.038470  1.0  0.1431
  C  C1336  1  0.735610  0.892630  0.949550  1.0  0.4216
  C  C1337  1  0.663890  0.023710  0.539390  1.0  0.2546
  C  C1338  1  0.792420  0.957340  0.564240  1.0  0.1712
  C  C1339  1  0.796290  0.946690  0.596890  1.0  -0.1602
  C  C1340  1  0.765980  0.949220  0.627480  1.0  -0.0783
  C  C1341  1  0.732330  0.962230  0.623510  1.0  -0.1526
  C  C1342  1  0.731330  0.971150  0.589530  1.0  0.1717
  C  C1343  1  0.572160  0.988120  0.705680  1.0  0.2017
  C  C1344  1  0.603550  0.983230  0.677470  1.0  -0.1316
  C  C1345  1  0.602180  0.984000  0.646700  1.0  -0.0463
  C  C1346  1  0.569990  0.988090  0.647410  1.0  -0.1331
  C  C1347  1  0.538940  0.992980  0.677360  1.0  0.1528
  C  C1348  1  0.637740  0.980120  0.677460  1.0  0.415
  C  C1349  1  0.698050  0.969130  0.653310  1.0  0.2904
  C  C1350  1  0.666190  0.985690  0.702990  1.0  0.3686
  C  C1351  1  0.664160  0.996440  0.730240  1.0  -0.181
  C  C1352  1  0.695500  0.996780  0.728380  1.0  0.163
  C  C1353  1  0.665220  0.015080  0.778040  1.0  0.1601
  C  C1354  1  0.632840  0.015780  0.781320  1.0  -0.1487
  C  C1355  1  0.631760  0.007180  0.756520  1.0  -0.0371
  C  C1356  1  0.795800  0.943160  0.706960  1.0  0.2709
  C  C1357  1  0.741470  0.952310  0.827490  1.0  0.1874
  C  C1358  1  0.735990  0.923410  0.859130  1.0  -0.1532
  C  C1359  1  0.731650  0.895270  0.857810  1.0  -0.0191
  C  C1360  1  0.732590  0.897490  0.826550  1.0  -0.1538
  C  C1361  1  0.739290  0.926590  0.795650  1.0  0.1415
  C  C1362  1  0.735610  0.922210  0.892630  1.0  0.421
  C  C1363  1  0.273010  0.539390  0.023710  1.0  0.2523
  C  C1364  1  0.186000  0.564240  0.957340  1.0  0.1664
  C  C1365  1  0.160130  0.596890  0.946690  1.0  -0.1599
  C  C1366  1  0.157320  0.627480  0.949220  1.0  -0.0799
  C  C1367  1  0.181930  0.623510  0.962230  1.0  -0.1538
  C  C1368  1  0.207990  0.589530  0.971150  1.0  0.1715
  C  C1369  1  0.234040  0.705680  0.988120  1.0  0.2006
  C  C1370  1  0.235750  0.677470  0.983230  1.0  -0.129
  C  C1371  1  0.267120  0.646700  0.984000  1.0  -0.0484
  C  C1372  1  0.294510  0.647410  0.988090  1.0  -0.1371
  C  C1373  1  0.290720  0.677360  0.992980  1.0  0.154
  C  C1374  1  0.204680  0.677460  0.980120  1.0  0.4148
  C  C1375  1  0.179510  0.653310  0.969130  1.0  0.2902
  C  C1376  1  0.145130  0.702990  0.985690  1.0  0.3693
  C  C1377  1  0.109160  0.730240  0.996440  1.0  -0.1789
  C  C1378  1  0.079340  0.728380  0.996780  1.0  0.1612
  C  C1379  1  0.041660  0.778040  0.015080  1.0  0.1561
  C  C1380  1  0.070060  0.781320  0.015780  1.0  -0.1486
  C  C1381  1  0.104540  0.756520  0.007180  1.0  -0.0373
  C  C1382  1  0.054080  0.706960  0.943160  1.0  0.2735
  C  C1383  1  0.978730  0.827490  0.952310  1.0  0.1858
  C  C1384  1  0.981470  0.859130  0.923410  1.0  -0.1517
  C  C1385  1  0.015270  0.857810  0.895270  1.0  -0.0198
  C  C1386  1  0.043370  0.826550  0.897490  1.0  -0.1475
  C  C1387  1  0.038470  0.795650  0.926590  1.0  0.1469
  C  C1388  1  0.949550  0.892630  0.922210  1.0  0.4215
  C  C1389  1  0.539390  0.273010  0.663890  1.0  0.2538
  C  C1390  1  0.564240  0.186000  0.792420  1.0  0.1675
  C  C1391  1  0.596890  0.160130  0.796290  1.0  -0.1592
  C  C1392  1  0.627480  0.157320  0.765980  1.0  -0.0804
  C  C1393  1  0.623510  0.181930  0.732330  1.0  -0.1529
  C  C1394  1  0.589530  0.207990  0.731330  1.0  0.173
  C  C1395  1  0.705680  0.234040  0.572160  1.0  0.201
  C  C1396  1  0.677470  0.235750  0.603550  1.0  -0.1272
  C  C1397  1  0.646700  0.267120  0.602180  1.0  -0.0494
  C  C1398  1  0.647410  0.294510  0.569990  1.0  -0.138
  C  C1399  1  0.677360  0.290720  0.538940  1.0  0.1522
  C  C1400  1  0.677460  0.204680  0.637740  1.0  0.4151
  C  C1401  1  0.653310  0.179510  0.698050  1.0  0.2907
  C  C1402  1  0.702990  0.145130  0.666190  1.0  0.3687
  C  C1403  1  0.730240  0.109160  0.664160  1.0  -0.1771
  C  C1404  1  0.728380  0.079340  0.695500  1.0  0.1633
  C  C1405  1  0.778040  0.041660  0.665220  1.0  0.1578
  C  C1406  1  0.781320  0.070060  0.632840  1.0  -0.146
  C  C1407  1  0.756520  0.104540  0.631760  1.0  -0.0379
  C  C1408  1  0.706960  0.054080  0.795800  1.0  0.2754
  C  C1409  1  0.827490  0.978730  0.741470  1.0  0.1862
  C  C1410  1  0.859130  0.981470  0.735990  1.0  -0.1535
  C  C1411  1  0.857810  0.015270  0.731650  1.0  -0.0226
  C  C1412  1  0.826550  0.043370  0.732590  1.0  -0.1522
  C  C1413  1  0.795650  0.038470  0.739290  1.0  0.1425
  C  C1414  1  0.892630  0.949550  0.735610  1.0  0.4217
  C  C1415  1  0.023710  0.663890  0.273010  1.0  0.2552
  C  C1416  1  0.957340  0.792420  0.186000  1.0  0.1699
  C  C1417  1  0.946690  0.796290  0.160130  1.0  -0.1605
  C  C1418  1  0.949220  0.765980  0.157320  1.0  -0.0802
  C  C1419  1  0.962230  0.732330  0.181930  1.0  -0.1537
  C  C1420  1  0.971150  0.731330  0.207990  1.0  0.1736
  C  C1421  1  0.988120  0.572160  0.234040  1.0  0.2008
  C  C1422  1  0.983230  0.603550  0.235750  1.0  -0.1302
  C  C1423  1  0.984000  0.602180  0.267120  1.0  -0.0485
  C  C1424  1  0.988090  0.569990  0.294510  1.0  -0.1356
  C  C1425  1  0.992980  0.538940  0.290720  1.0  0.1525
  C  C1426  1  0.980120  0.637740  0.204680  1.0  0.4151
  C  C1427  1  0.969130  0.698050  0.179510  1.0  0.2909
  C  C1428  1  0.985690  0.666190  0.145130  1.0  0.3682
  C  C1429  1  0.996440  0.664160  0.109160  1.0  -0.1793
  C  C1430  1  0.996780  0.695500  0.079340  1.0  0.1639
  C  C1431  1  0.015080  0.665220  0.041660  1.0  0.1586
  C  C1432  1  0.015780  0.632840  0.070060  1.0  -0.1464
  C  C1433  1  0.007180  0.631760  0.104540  1.0  -0.0361
  C  C1434  1  0.943160  0.795800  0.054080  1.0  0.2746
  C  C1435  1  0.952310  0.741470  0.978730  1.0  0.1871
  C  C1436  1  0.923410  0.735990  0.981470  1.0  -0.1538
  C  C1437  1  0.895270  0.731650  0.015270  1.0  -0.0175
  C  C1438  1  0.897490  0.732590  0.043370  1.0  -0.152
  C  C1439  1  0.926590  0.739290  0.038470  1.0  0.1438
  C  C1440  1  0.922210  0.735610  0.949550  1.0  0.4214
  C  C1441  1  0.773010  0.163890  0.523710  1.0  0.2557
  C  C1442  1  0.686000  0.292420  0.457340  1.0  0.1669
  C  C1443  1  0.660130  0.296290  0.446690  1.0  -0.1615
  C  C1444  1  0.657320  0.265980  0.449220  1.0  -0.0788
  C  C1445  1  0.681930  0.232330  0.462230  1.0  -0.1542
  C  C1446  1  0.707990  0.231330  0.471150  1.0  0.1706
  C  C1447  1  0.734040  0.072160  0.488120  1.0  0.2009
  C  C1448  1  0.735750  0.103550  0.483230  1.0  -0.1312
  C  C1449  1  0.767120  0.102180  0.484000  1.0  -0.0498
  C  C1450  1  0.794510  0.069990  0.488090  1.0  -0.1343
  C  C1451  1  0.790720  0.038940  0.492980  1.0  0.155
  C  C1452  1  0.704680  0.137740  0.480120  1.0  0.4147
  C  C1453  1  0.679510  0.198050  0.469130  1.0  0.2898
  C  C1454  1  0.645130  0.166190  0.485690  1.0  0.3689
  C  C1455  1  0.609160  0.164160  0.496440  1.0  -0.1801
  C  C1456  1  0.579340  0.195500  0.496780  1.0  0.1605
  C  C1457  1  0.541660  0.165220  0.515080  1.0  0.1566
  C  C1458  1  0.570060  0.132840  0.515780  1.0  -0.1479
  C  C1459  1  0.604540  0.131760  0.507180  1.0  -0.0369
  C  C1460  1  0.554080  0.295800  0.443160  1.0  0.2775
  C  C1461  1  0.478730  0.241470  0.452310  1.0  0.1867
  C  C1462  1  0.481470  0.235990  0.423410  1.0  -0.1487
  C  C1463  1  0.515270  0.231650  0.395270  1.0  -0.0223
  C  C1464  1  0.543370  0.232590  0.397490  1.0  -0.1496
  C  C1465  1  0.538470  0.239290  0.426590  1.0  0.1495
  C  C1466  1  0.449550  0.235610  0.422210  1.0  0.4214
  C  C1467  1  0.163890  0.773010  0.039390  1.0  0.2576
  C  C1468  1  0.292420  0.686000  0.064240  1.0  0.1684
  C  C1469  1  0.296290  0.660130  0.096890  1.0  -0.1587
  C  C1470  1  0.265980  0.657320  0.127480  1.0  -0.0795
  C  C1471  1  0.232330  0.681930  0.123510  1.0  -0.1522
  C  C1472  1  0.231330  0.707990  0.089530  1.0  0.1714
  C  C1473  1  0.072160  0.734040  0.205680  1.0  0.2001
  C  C1474  1  0.103550  0.735750  0.177470  1.0  -0.1314
  C  C1475  1  0.102180  0.767120  0.146700  1.0  -0.0487
  C  C1476  1  0.069990  0.794510  0.147410  1.0  -0.1356
  C  C1477  1  0.038940  0.790720  0.177360  1.0  0.1526
  C  C1478  1  0.137740  0.704680  0.177460  1.0  0.4163
  C  C1479  1  0.198050  0.679510  0.153310  1.0  0.2907
  C  C1480  1  0.166190  0.645130  0.202990  1.0  0.3687
  C  C1481  1  0.164160  0.609160  0.230240  1.0  -0.1783
  C  C1482  1  0.195500  0.579340  0.228380  1.0  0.1615
  C  C1483  1  0.165220  0.541660  0.278040  1.0  0.1594
  C  C1484  1  0.132840  0.570060  0.281320  1.0  -0.1448
  C  C1485  1  0.131760  0.604540  0.256520  1.0  -0.0383
  C  C1486  1  0.295800  0.554080  0.206960  1.0  0.2783
  C  C1487  1  0.241470  0.478730  0.327490  1.0  0.1893
  C  C1488  1  0.235990  0.481470  0.359130  1.0  -0.1493
  C  C1489  1  0.231650  0.515270  0.357810  1.0  -0.0185
  C  C1490  1  0.232590  0.543370  0.326550  1.0  -0.151
  C  C1491  1  0.239290  0.538470  0.295650  1.0  0.1445
  C  C1492  1  0.235610  0.449550  0.392630  1.0  0.4215
  C  C1493  1  0.523710  0.039390  0.773010  1.0  0.2522
  C  C1494  1  0.457340  0.064240  0.686000  1.0  0.1686
  C  C1495  1  0.446690  0.096890  0.660130  1.0  -0.1579
  C  C1496  1  0.449220  0.127480  0.657320  1.0  -0.0777
  C  C1497  1  0.462230  0.123510  0.681930  1.0  -0.1541
  C  C1498  1  0.471150  0.089530  0.707990  1.0  0.1729
  C  C1499  1  0.488120  0.205680  0.734040  1.0  0.2008
  C  C1500  1  0.483230  0.177470  0.735750  1.0  -0.1319
  C  C1501  1  0.484000  0.146700  0.767120  1.0  -0.0481
  C  C1502  1  0.488090  0.147410  0.794510  1.0  -0.1416
  C  C1503  1  0.492980  0.177360  0.790720  1.0  0.1529
  C  C1504  1  0.480120  0.177460  0.704680  1.0  0.4154
  C  C1505  1  0.469130  0.153310  0.679510  1.0  0.2917
  C  C1506  1  0.485690  0.202990  0.645130  1.0  0.3684
  C  C1507  1  0.496440  0.230240  0.609160  1.0  -0.1754
  C  C1508  1  0.496780  0.228380  0.579340  1.0  0.1637
  C  C1509  1  0.515080  0.278040  0.541660  1.0  0.1626
  C  C1510  1  0.515780  0.281320  0.570060  1.0  -0.1486
  C  C1511  1  0.507180  0.256520  0.604540  1.0  -0.0383
  C  C1512  1  0.443160  0.206960  0.554080  1.0  0.2799
  C  C1513  1  0.452310  0.327490  0.478730  1.0  0.1858
  C  C1514  1  0.423410  0.359130  0.481470  1.0  -0.1533
  C  C1515  1  0.395270  0.357810  0.515270  1.0  -0.0191
  C  C1516  1  0.397490  0.326550  0.543370  1.0  -0.1512
  C  C1517  1  0.426590  0.295650  0.538470  1.0  0.1443
  C  C1518  1  0.422210  0.392630  0.449550  1.0  0.4216
  C  C1519  1  0.039390  0.523710  0.163890  1.0  0.25
  C  C1520  1  0.064240  0.457340  0.292420  1.0  0.1698
  C  C1521  1  0.096890  0.446690  0.296290  1.0  -0.1585
  C  C1522  1  0.127480  0.449220  0.265980  1.0  -0.0768
  C  C1523  1  0.123510  0.462230  0.232330  1.0  -0.1539
  C  C1524  1  0.089530  0.471150  0.231330  1.0  0.1737
  C  C1525  1  0.205680  0.488120  0.072160  1.0  0.201
  C  C1526  1  0.177470  0.483230  0.103550  1.0  -0.1308
  C  C1527  1  0.146700  0.484000  0.102180  1.0  -0.0487
  C  C1528  1  0.147410  0.488090  0.069990  1.0  -0.1346
  C  C1529  1  0.177360  0.492980  0.038940  1.0  0.1567
  C  C1530  1  0.177460  0.480120  0.137740  1.0  0.4151
  C  C1531  1  0.153310  0.469130  0.198050  1.0  0.2908
  C  C1532  1  0.202990  0.485690  0.166190  1.0  0.3681
  C  C1533  1  0.230240  0.496440  0.164160  1.0  -0.1774
  C  C1534  1  0.228380  0.496780  0.195500  1.0  0.1627
  C  C1535  1  0.278040  0.515080  0.165220  1.0  0.1647
  C  C1536  1  0.281320  0.515780  0.132840  1.0  -0.1452
  C  C1537  1  0.256520  0.507180  0.131760  1.0  -0.0388
  C  C1538  1  0.206960  0.443160  0.295800  1.0  0.2779
  C  C1539  1  0.327490  0.452310  0.241470  1.0  0.1864
  C  C1540  1  0.359130  0.423410  0.235990  1.0  -0.154
  C  C1541  1  0.357810  0.395270  0.231650  1.0  -0.02
  C  C1542  1  0.326550  0.397490  0.232590  1.0  -0.1541
  C  C1543  1  0.295650  0.426590  0.239290  1.0  0.1451
  C  C1544  1  0.392630  0.422210  0.235610  1.0  0.4214
  C  C1545  1  0.523710  0.773010  0.163890  1.0  0.2548
  C  C1546  1  0.457340  0.686000  0.292420  1.0  0.168
  C  C1547  1  0.446690  0.660130  0.296290  1.0  -0.1601
  C  C1548  1  0.449220  0.657320  0.265980  1.0  -0.0774
  C  C1549  1  0.462230  0.681930  0.232330  1.0  -0.1539
  C  C1550  1  0.471150  0.707990  0.231330  1.0  0.1708
  C  C1551  1  0.488120  0.734040  0.072160  1.0  0.2013
  C  C1552  1  0.483230  0.735750  0.103550  1.0  -0.1316
  C  C1553  1  0.484000  0.767120  0.102180  1.0  -0.0459
  C  C1554  1  0.488090  0.794510  0.069990  1.0  -0.136
  C  C1555  1  0.492980  0.790720  0.038940  1.0  0.155
  C  C1556  1  0.480120  0.704680  0.137740  1.0  0.4157
  C  C1557  1  0.469130  0.679510  0.198050  1.0  0.2914
  C  C1558  1  0.485690  0.645130  0.166190  1.0  0.3684
  C  C1559  1  0.496440  0.609160  0.164160  1.0  -0.1791
  C  C1560  1  0.496780  0.579340  0.195500  1.0  0.1611
  C  C1561  1  0.515080  0.541660  0.165220  1.0  0.157
  C  C1562  1  0.515780  0.570060  0.132840  1.0  -0.144
  C  C1563  1  0.507180  0.604540  0.131760  1.0  -0.0402
  C  C1564  1  0.443160  0.554080  0.295800  1.0  0.2762
  C  C1565  1  0.452310  0.478730  0.241470  1.0  0.1872
  C  C1566  1  0.423410  0.481470  0.235990  1.0  -0.1543
  C  C1567  1  0.395270  0.515270  0.231650  1.0  -0.0207
  C  C1568  1  0.397490  0.543370  0.232590  1.0  -0.1517
  C  C1569  1  0.426590  0.538470  0.239290  1.0  0.1437
  C  C1570  1  0.422210  0.449550  0.235610  1.0  0.4219
  C  C1571  1  0.039390  0.163890  0.773010  1.0  0.2558
  C  C1572  1  0.064240  0.292420  0.686000  1.0  0.1673
  C  C1573  1  0.096890  0.296290  0.660130  1.0  -0.1597
  C  C1574  1  0.127480  0.265980  0.657320  1.0  -0.0779
  C  C1575  1  0.123510  0.232330  0.681930  1.0  -0.1533
  C  C1576  1  0.089530  0.231330  0.707990  1.0  0.1721
  C  C1577  1  0.205680  0.072160  0.734040  1.0  0.2012
  C  C1578  1  0.177470  0.103550  0.735750  1.0  -0.1306
  C  C1579  1  0.146700  0.102180  0.767120  1.0  -0.0482
  C  C1580  1  0.147410  0.069990  0.794510  1.0  -0.1398
  C  C1581  1  0.177360  0.038940  0.790720  1.0  0.1526
  C  C1582  1  0.177460  0.137740  0.704680  1.0  0.4152
  C  C1583  1  0.153310  0.198050  0.679510  1.0  0.2906
  C  C1584  1  0.202990  0.166190  0.645130  1.0  0.3681
  C  C1585  1  0.230240  0.164160  0.609160  1.0  -0.1797
  C  C1586  1  0.228380  0.195500  0.579340  1.0  0.1609
  C  C1587  1  0.278040  0.165220  0.541660  1.0  0.1597
  C  C1588  1  0.281320  0.132840  0.570060  1.0  -0.1458
  C  C1589  1  0.256520  0.131760  0.604540  1.0  -0.0385
  C  C1590  1  0.206960  0.295800  0.554080  1.0  0.2747
  C  C1591  1  0.327490  0.241470  0.478730  1.0  0.1882
  C  C1592  1  0.359130  0.235990  0.481470  1.0  -0.1534
  C  C1593  1  0.357810  0.231650  0.515270  1.0  -0.0222
  C  C1594  1  0.326550  0.232590  0.543370  1.0  -0.1464
  C  C1595  1  0.295650  0.239290  0.538470  1.0  0.1441
  C  C1596  1  0.392630  0.235610  0.449550  1.0  0.4218
  C  C1597  1  0.773010  0.523710  0.039390  1.0  0.2499
  C  C1598  1  0.686000  0.457340  0.064240  1.0  0.1701
  C  C1599  1  0.660130  0.446690  0.096890  1.0  -0.162
  C  C1600  1  0.657320  0.449220  0.127480  1.0  -0.0767
  C  C1601  1  0.681930  0.462230  0.123510  1.0  -0.1552
  C  C1602  1  0.707990  0.471150  0.089530  1.0  0.1704
  C  C1603  1  0.734040  0.488120  0.205680  1.0  0.2037
  C  C1604  1  0.735750  0.483230  0.177470  1.0  -0.1311
  C  C1605  1  0.767120  0.484000  0.146700  1.0  -0.0481
  C  C1606  1  0.794510  0.488090  0.147410  1.0  -0.133
  C  C1607  1  0.790720  0.492980  0.177360  1.0  0.1589
  C  C1608  1  0.704680  0.480120  0.177460  1.0  0.415
  C  C1609  1  0.679510  0.469130  0.153310  1.0  0.2901
  C  C1610  1  0.645130  0.485690  0.202990  1.0  0.3693
  C  C1611  1  0.609160  0.496440  0.230240  1.0  -0.179
  C  C1612  1  0.579340  0.496780  0.228380  1.0  0.163
  C  C1613  1  0.541660  0.515080  0.278040  1.0  0.1581
  C  C1614  1  0.570060  0.515780  0.281320  1.0  -0.145
  C  C1615  1  0.604540  0.507180  0.256520  1.0  -0.0391
  C  C1616  1  0.554080  0.443160  0.206960  1.0  0.2714
  C  C1617  1  0.478730  0.452310  0.327490  1.0  0.1864
  C  C1618  1  0.481470  0.423410  0.359130  1.0  -0.1526
  C  C1619  1  0.515270  0.395270  0.357810  1.0  -0.0226
  C  C1620  1  0.543370  0.397490  0.326550  1.0  -0.1522
  C  C1621  1  0.538470  0.426590  0.295650  1.0  0.1448
  C  C1622  1  0.449550  0.422210  0.392630  1.0  0.4213
  C  C1623  1  0.163890  0.039390  0.523710  1.0  0.257
  C  C1624  1  0.292420  0.064240  0.457340  1.0  0.1687
  C  C1625  1  0.296290  0.096890  0.446690  1.0  -0.1579
  C  C1626  1  0.265980  0.127480  0.449220  1.0  -0.079
  C  C1627  1  0.232330  0.123510  0.462230  1.0  -0.1539
  C  C1628  1  0.231330  0.089530  0.471150  1.0  0.172
  C  C1629  1  0.072160  0.205680  0.488120  1.0  0.2007
  C  C1630  1  0.103550  0.177470  0.483230  1.0  -0.1312
  C  C1631  1  0.102180  0.146700  0.484000  1.0  -0.0463
  C  C1632  1  0.069990  0.147410  0.488090  1.0  -0.1399
  C  C1633  1  0.038940  0.177360  0.492980  1.0  0.1526
  C  C1634  1  0.137740  0.177460  0.480120  1.0  0.4158
  C  C1635  1  0.198050  0.153310  0.469130  1.0  0.2911
  C  C1636  1  0.166190  0.202990  0.485690  1.0  0.3684
  C  C1637  1  0.164160  0.230240  0.496440  1.0  -0.1808
  C  C1638  1  0.195500  0.228380  0.496780  1.0  0.1619
  C  C1639  1  0.165220  0.278040  0.515080  1.0  0.1593
  C  C1640  1  0.132840  0.281320  0.515780  1.0  -0.1492
  C  C1641  1  0.131760  0.256520  0.507180  1.0  -0.0373
  C  C1642  1  0.295800  0.206960  0.443160  1.0  0.2745
  C  C1643  1  0.241470  0.327490  0.452310  1.0  0.187
  C  C1644  1  0.235990  0.359130  0.423410  1.0  -0.151
  C  C1645  1  0.231650  0.357810  0.395270  1.0  -0.0225
  C  C1646  1  0.232590  0.326550  0.397490  1.0  -0.1455
  C  C1647  1  0.239290  0.295650  0.426590  1.0  0.1439
  C  C1648  1  0.235610  0.392630  0.422210  1.0  0.4218
  C  C1649  1  0.163890  0.523710  0.773010  1.0  0.2545
  C  C1650  1  0.292420  0.457340  0.686000  1.0  0.1721
  C  C1651  1  0.296290  0.446690  0.660130  1.0  -0.1605
  C  C1652  1  0.265980  0.449220  0.657320  1.0  -0.0802
  C  C1653  1  0.232330  0.462230  0.681930  1.0  -0.1535
  C  C1654  1  0.231330  0.471150  0.707990  1.0  0.1713
  C  C1655  1  0.072160  0.488120  0.734040  1.0  0.2009
  C  C1656  1  0.103550  0.483230  0.735750  1.0  -0.1317
  C  C1657  1  0.102180  0.484000  0.767120  1.0  -0.0464
  C  C1658  1  0.069990  0.488090  0.794510  1.0  -0.1346
  C  C1659  1  0.038940  0.492980  0.790720  1.0  0.1536
  C  C1660  1  0.137740  0.480120  0.704680  1.0  0.4149
  C  C1661  1  0.198050  0.469130  0.679510  1.0  0.2902
  C  C1662  1  0.166190  0.485690  0.645130  1.0  0.3686
  C  C1663  1  0.164160  0.496440  0.609160  1.0  -0.1811
  C  C1664  1  0.195500  0.496780  0.579340  1.0  0.1625
  C  C1665  1  0.165220  0.515080  0.541660  1.0  0.1625
  C  C1666  1  0.132840  0.515780  0.570060  1.0  -0.147
  C  C1667  1  0.131760  0.507180  0.604540  1.0  -0.0379
  C  C1668  1  0.295800  0.443160  0.554080  1.0  0.2719
  C  C1669  1  0.241470  0.452310  0.478730  1.0  0.1878
  C  C1670  1  0.235990  0.423410  0.481470  1.0  -0.1527
  C  C1671  1  0.231650  0.395270  0.515270  1.0  -0.019
  C  C1672  1  0.232590  0.397490  0.543370  1.0  -0.1553
  C  C1673  1  0.239290  0.426590  0.538470  1.0  0.14
  C  C1674  1  0.235610  0.422210  0.449550  1.0  0.4213
  C  C1675  1  0.773010  0.039390  0.163890  1.0  0.2529
  C  C1676  1  0.686000  0.064240  0.292420  1.0  0.1669
  C  C1677  1  0.660130  0.096890  0.296290  1.0  -0.1602
  C  C1678  1  0.657320  0.127480  0.265980  1.0  -0.0796
  C  C1679  1  0.681930  0.123510  0.232330  1.0  -0.1537
  C  C1680  1  0.707990  0.089530  0.231330  1.0  0.1723
  C  C1681  1  0.734040  0.205680  0.072160  1.0  0.1992
  C  C1682  1  0.735750  0.177470  0.103550  1.0  -0.128
  C  C1683  1  0.767120  0.146700  0.102180  1.0  -0.0492
  C  C1684  1  0.794510  0.147410  0.069990  1.0  -0.1376
  C  C1685  1  0.790720  0.177360  0.038940  1.0  0.1541
  C  C1686  1  0.704680  0.177460  0.137740  1.0  0.4148
  C  C1687  1  0.679510  0.153310  0.198050  1.0  0.2908
  C  C1688  1  0.645130  0.202990  0.166190  1.0  0.3693
  C  C1689  1  0.609160  0.230240  0.164160  1.0  -0.1792
  C  C1690  1  0.579340  0.228380  0.195500  1.0  0.1623
  C  C1691  1  0.541660  0.278040  0.165220  1.0  0.1575
  C  C1692  1  0.570060  0.281320  0.132840  1.0  -0.1489
  C  C1693  1  0.604540  0.256520  0.131760  1.0  -0.0377
  C  C1694  1  0.554080  0.206960  0.295800  1.0  0.2735
  C  C1695  1  0.478730  0.327490  0.241470  1.0  0.1857
  C  C1696  1  0.481470  0.359130  0.235990  1.0  -0.1519
  C  C1697  1  0.515270  0.357810  0.231650  1.0  -0.0212
  C  C1698  1  0.543370  0.326550  0.232590  1.0  -0.1479
  C  C1699  1  0.538470  0.295650  0.239290  1.0  0.1465
  C  C1700  1  0.449550  0.392630  0.235610  1.0  0.4214
  C  C1701  1  0.039390  0.773010  0.523710  1.0  0.253
  C  C1702  1  0.064240  0.686000  0.457340  1.0  0.1674
  C  C1703  1  0.096890  0.660130  0.446690  1.0  -0.1583
  C  C1704  1  0.127480  0.657320  0.449220  1.0  -0.0818
  C  C1705  1  0.123510  0.681930  0.462230  1.0  -0.1527
  C  C1706  1  0.089530  0.707990  0.471150  1.0  0.1722
  C  C1707  1  0.205680  0.734040  0.488120  1.0  0.2016
  C  C1708  1  0.177470  0.735750  0.483230  1.0  -0.1285
  C  C1709  1  0.146700  0.767120  0.484000  1.0  -0.0483
  C  C1710  1  0.147410  0.794510  0.488090  1.0  -0.1382
  C  C1711  1  0.177360  0.790720  0.492980  1.0  0.1515
  C  C1712  1  0.177460  0.704680  0.480120  1.0  0.415
  C  C1713  1  0.153310  0.679510  0.469130  1.0  0.2901
  C  C1714  1  0.202990  0.645130  0.485690  1.0  0.3687
  C  C1715  1  0.230240  0.609160  0.496440  1.0  -0.1771
  C  C1716  1  0.228380  0.579340  0.496780  1.0  0.1625
  C  C1717  1  0.278040  0.541660  0.515080  1.0  0.1573
  C  C1718  1  0.281320  0.570060  0.515780  1.0  -0.1459
  C  C1719  1  0.256520  0.604540  0.507180  1.0  -0.0368
  C  C1720  1  0.206960  0.554080  0.443160  1.0  0.2754
  C  C1721  1  0.327490  0.478730  0.452310  1.0  0.1866
  C  C1722  1  0.359130  0.481470  0.423410  1.0  -0.1534
  C  C1723  1  0.357810  0.515270  0.395270  1.0  -0.0211
  C  C1724  1  0.326550  0.543370  0.397490  1.0  -0.1519
  C  C1725  1  0.295650  0.538470  0.426590  1.0  0.1429
  C  C1726  1  0.392630  0.449550  0.422210  1.0  0.4219
  C  C1727  1  0.523710  0.163890  0.039390  1.0  0.2552
  C  C1728  1  0.457340  0.292420  0.064240  1.0  0.1698
  C  C1729  1  0.446690  0.296290  0.096890  1.0  -0.1606
  C  C1730  1  0.449220  0.265980  0.127480  1.0  -0.0793
  C  C1731  1  0.462230  0.232330  0.123510  1.0  -0.1524
  C  C1732  1  0.471150  0.231330  0.089530  1.0  0.1742
  C  C1733  1  0.488120  0.072160  0.205680  1.0  0.2014
  C  C1734  1  0.483230  0.103550  0.177470  1.0  -0.1301
  C  C1735  1  0.484000  0.102180  0.146700  1.0  -0.0482
  C  C1736  1  0.488090  0.069990  0.147410  1.0  -0.1332
  C  C1737  1  0.492980  0.038940  0.177360  1.0  0.1517
  C  C1738  1  0.480120  0.137740  0.177460  1.0  0.415
  C  C1739  1  0.469130  0.198050  0.153310  1.0  0.2911
  C  C1740  1  0.485690  0.166190  0.202990  1.0  0.3683
  C  C1741  1  0.496440  0.164160  0.230240  1.0  -0.1789
  C  C1742  1  0.496780  0.195500  0.228380  1.0  0.164
  C  C1743  1  0.515080  0.165220  0.278040  1.0  0.1581
  C  C1744  1  0.515780  0.132840  0.281320  1.0  -0.148
  C  C1745  1  0.507180  0.131760  0.256520  1.0  -0.0351
  C  C1746  1  0.443160  0.295800  0.206960  1.0  0.2747
  C  C1747  1  0.452310  0.241470  0.327490  1.0  0.1862
  C  C1748  1  0.423410  0.235990  0.359130  1.0  -0.1548
  C  C1749  1  0.395270  0.231650  0.357810  1.0  -0.0175
  C  C1750  1  0.397490  0.232590  0.326550  1.0  -0.1492
  C  C1751  1  0.426590  0.239290  0.295650  1.0  0.1455
  C  C1752  1  0.422210  0.235610  0.392630  1.0  0.421
  C  C1753  1  0.726990  0.336110  0.460610  1.0  0.2544
  C  C1754  1  0.814000  0.207580  0.435760  1.0  0.166
  C  C1755  1  0.839870  0.203710  0.403110  1.0  -0.1581
  C  C1756  1  0.842680  0.234020  0.372520  1.0  -0.0796
  C  C1757  1  0.818070  0.267670  0.376490  1.0  -0.1536
  C  C1758  1  0.792010  0.268670  0.410470  1.0  0.171
  C  C1759  1  0.765960  0.427840  0.294320  1.0  0.2007
  C  C1760  1  0.764250  0.396450  0.322530  1.0  -0.1316
  C  C1761  1  0.732880  0.397820  0.353300  1.0  -0.0505
  C  C1762  1  0.705490  0.430010  0.352590  1.0  -0.1367
  C  C1763  1  0.709280  0.461060  0.322640  1.0  0.1561
  C  C1764  1  0.795320  0.362260  0.322540  1.0  0.4148
  C  C1765  1  0.820490  0.301950  0.346690  1.0  0.2898
  C  C1766  1  0.854870  0.333810  0.297010  1.0  0.3689
  C  C1767  1  0.890840  0.335840  0.269760  1.0  -0.1783
  C  C1768  1  0.920660  0.304500  0.271620  1.0  0.1609
  C  C1769  1  0.958340  0.334780  0.221960  1.0  0.1585
  C  C1770  1  0.929940  0.367160  0.218680  1.0  -0.1461
  C  C1771  1  0.895460  0.368240  0.243480  1.0  -0.0371
  C  C1772  1  0.945920  0.204200  0.293040  1.0  0.2783
  C  C1773  1  0.021270  0.258530  0.172510  1.0  0.185
  C  C1774  1  0.018530  0.264010  0.140870  1.0  -0.1488
  C  C1775  1  0.984730  0.268350  0.142190  1.0  -0.0207
  C  C1776  1  0.956630  0.267410  0.173450  1.0  -0.1491
  C  C1777  1  0.961530  0.260710  0.204350  1.0  0.1491
  C  C1778  1  0.050450  0.264390  0.107370  1.0  0.4214
  C  C1779  1  0.336110  0.726990  0.976290  1.0  0.2569
  C  C1780  1  0.207580  0.814000  0.042660  1.0  0.1692
  C  C1781  1  0.203710  0.839870  0.053310  1.0  -0.1619
  C  C1782  1  0.234020  0.842680  0.050780  1.0  -0.0778
  C  C1783  1  0.267670  0.818070  0.037770  1.0  -0.151
  C  C1784  1  0.268670  0.792010  0.028850  1.0  0.1708
  C  C1785  1  0.427840  0.765960  0.011880  1.0  0.2006
  C  C1786  1  0.396450  0.764250  0.016770  1.0  -0.1323
  C  C1787  1  0.397820  0.732880  0.016000  1.0  -0.0507
  C  C1788  1  0.430010  0.705490  0.011910  1.0  -0.1393
  C  C1789  1  0.461060  0.709280  0.007020  1.0  0.1519
  C  C1790  1  0.362260  0.795320  0.019880  1.0  0.4152
  C  C1791  1  0.301950  0.820490  0.030870  1.0  0.2904
  C  C1792  1  0.333810  0.854870  0.014310  1.0  0.3689
  C  C1793  1  0.335840  0.890840  0.003560  1.0  -0.1793
  C  C1794  1  0.304500  0.920660  0.003220  1.0  0.1613
  C  C1795  1  0.334780  0.958340  0.984920  1.0  0.1592
  C  C1796  1  0.367160  0.929940  0.984220  1.0  -0.1444
  C  C1797  1  0.368240  0.895460  0.992820  1.0  -0.0393
  C  C1798  1  0.204200  0.945920  0.056840  1.0  0.2796
  C  C1799  1  0.258530  0.021270  0.047690  1.0  0.1883
  C  C1800  1  0.264010  0.018530  0.076590  1.0  -0.1493
  C  C1801  1  0.268350  0.984730  0.104730  1.0  -0.0187
  C  C1802  1  0.267410  0.956630  0.102510  1.0  -0.1543
  C  C1803  1  0.260710  0.961530  0.073410  1.0  0.1452
  C  C1804  1  0.264390  0.050450  0.077790  1.0  0.4209
  C  C1805  1  0.976290  0.460610  0.336110  1.0  0.2529
  C  C1806  1  0.042660  0.435760  0.207580  1.0  0.1686
  C  C1807  1  0.053310  0.403110  0.203710  1.0  -0.1579
  C  C1808  1  0.050780  0.372520  0.234020  1.0  -0.0777
  C  C1809  1  0.037770  0.376490  0.267670  1.0  -0.1541
  C  C1810  1  0.028850  0.410470  0.268670  1.0  0.1728
  C  C1811  1  0.011880  0.294320  0.427840  1.0  0.1994
  C  C1812  1  0.016770  0.322530  0.396450  1.0  -0.1312
  C  C1813  1  0.016000  0.353300  0.397820  1.0  -0.0474
  C  C1814  1  0.011910  0.352590  0.430010  1.0  -0.1376
  C  C1815  1  0.007020  0.322640  0.461060  1.0  0.1526
  C  C1816  1  0.019880  0.322540  0.362260  1.0  0.4155
  C  C1817  1  0.030870  0.346690  0.301950  1.0  0.2917
  C  C1818  1  0.014310  0.297010  0.333810  1.0  0.3685
  C  C1819  1  0.003560  0.269760  0.335840  1.0  -0.1759
  C  C1820  1  0.003220  0.271620  0.304500  1.0  0.1647
  C  C1821  1  0.984920  0.221960  0.334780  1.0  0.1627
  C  C1822  1  0.984220  0.218680  0.367160  1.0  -0.1495
  C  C1823  1  0.992820  0.243480  0.368240  1.0  -0.0375
  C  C1824  1  0.056840  0.293040  0.204200  1.0  0.2785
  C  C1825  1  0.047690  0.172510  0.258530  1.0  0.1858
  C  C1826  1  0.076590  0.140870  0.264010  1.0  -0.1531
  C  C1827  1  0.104730  0.142190  0.268350  1.0  -0.0202
  C  C1828  1  0.102510  0.173450  0.267410  1.0  -0.1486
  C  C1829  1  0.073410  0.204350  0.260710  1.0  0.1454
  C  C1830  1  0.077790  0.107370  0.264390  1.0  0.4219
  C  C1831  1  0.460610  0.976290  0.726990  1.0  0.2522
  C  C1832  1  0.435760  0.042660  0.814000  1.0  0.1693
  C  C1833  1  0.403110  0.053310  0.839870  1.0  -0.1605
  C  C1834  1  0.372520  0.050780  0.842680  1.0  -0.0782
  C  C1835  1  0.376490  0.037770  0.818070  1.0  -0.1534
  C  C1836  1  0.410470  0.028850  0.792010  1.0  0.1727
  C  C1837  1  0.294320  0.011880  0.765960  1.0  0.2015
  C  C1838  1  0.322530  0.016770  0.764250  1.0  -0.1315
  C  C1839  1  0.353300  0.016000  0.732880  1.0  -0.048
  C  C1840  1  0.352590  0.011910  0.705490  1.0  -0.1331
  C  C1841  1  0.322640  0.007020  0.709280  1.0  0.158
  C  C1842  1  0.322540  0.019880  0.795320  1.0  0.4153
  C  C1843  1  0.346690  0.030870  0.820490  1.0  0.2905
  C  C1844  1  0.297010  0.014310  0.854870  1.0  0.3682
  C  C1845  1  0.269760  0.003560  0.890840  1.0  -0.1768
  C  C1846  1  0.271620  0.003220  0.920660  1.0  0.1633
  C  C1847  1  0.221960  0.984920  0.958340  1.0  0.1653
  C  C1848  1  0.218680  0.984220  0.929940  1.0  -0.1456
  C  C1849  1  0.243480  0.992820  0.895460  1.0  -0.0373
  C  C1850  1  0.293040  0.056840  0.945920  1.0  0.2773
  C  C1851  1  0.172510  0.047690  0.021270  1.0  0.1862
  C  C1852  1  0.140870  0.076590  0.018530  1.0  -0.1532
  C  C1853  1  0.142190  0.104730  0.984730  1.0  -0.0199
  C  C1854  1  0.173450  0.102510  0.956630  1.0  -0.1527
  C  C1855  1  0.204350  0.073410  0.961530  1.0  0.1455
  C  C1856  1  0.107370  0.077790  0.050450  1.0  0.4214
  C  C1857  1  0.976290  0.726990  0.460610  1.0  0.2546
  C  C1858  1  0.042660  0.814000  0.435760  1.0  0.1679
  C  C1859  1  0.053310  0.839870  0.403110  1.0  -0.1596
  C  C1860  1  0.050780  0.842680  0.372520  1.0  -0.0768
  C  C1861  1  0.037770  0.818070  0.376490  1.0  -0.1538
  C  C1862  1  0.028850  0.792010  0.410470  1.0  0.1702
  C  C1863  1  0.011880  0.765960  0.294320  1.0  0.202
  C  C1864  1  0.016770  0.764250  0.322530  1.0  -0.1318
  C  C1865  1  0.016000  0.732880  0.353300  1.0  -0.0455
  C  C1866  1  0.011910  0.705490  0.352590  1.0  -0.1387
  C  C1867  1  0.007020  0.709280  0.322640  1.0  0.1549
  C  C1868  1  0.019880  0.795320  0.322540  1.0  0.4153
  C  C1869  1  0.030870  0.820490  0.346690  1.0  0.2909
  C  C1870  1  0.014310  0.854870  0.297010  1.0  0.3686
  C  C1871  1  0.003560  0.890840  0.269760  1.0  -0.1789
  C  C1872  1  0.003220  0.920660  0.271620  1.0  0.1637
  C  C1873  1  0.984920  0.958340  0.221960  1.0  0.157
  C  C1874  1  0.984220  0.929940  0.218680  1.0  -0.1433
  C  C1875  1  0.992820  0.895460  0.243480  1.0  -0.0399
  C  C1876  1  0.056840  0.945920  0.293040  1.0  0.2732
  C  C1877  1  0.047690  0.021270  0.172510  1.0  0.1849
  C  C1878  1  0.076590  0.018530  0.140870  1.0  -0.1534
  C  C1879  1  0.104730  0.984730  0.142190  1.0  -0.0208
  C  C1880  1  0.102510  0.956630  0.173450  1.0  -0.1511
  C  C1881  1  0.073410  0.961530  0.204350  1.0  0.1456
  C  C1882  1  0.077790  0.050450  0.107370  1.0  0.4214
  C  C1883  1  0.460610  0.336110  0.976290  1.0  0.2542
  C  C1884  1  0.435760  0.207580  0.042660  1.0  0.1661
  C  C1885  1  0.403110  0.203710  0.053310  1.0  -0.1587
  C  C1886  1  0.372520  0.234020  0.050780  1.0  -0.0788
  C  C1887  1  0.376490  0.267670  0.037770  1.0  -0.1532
  C  C1888  1  0.410470  0.268670  0.028850  1.0  0.1712
  C  C1889  1  0.294320  0.427840  0.011880  1.0  0.202
  C  C1890  1  0.322530  0.396450  0.016770  1.0  -0.1307
  C  C1891  1  0.353300  0.397820  0.016000  1.0  -0.0477
  C  C1892  1  0.352590  0.430010  0.011910  1.0  -0.1363
  C  C1893  1  0.322640  0.461060  0.007020  1.0  0.1531
  C  C1894  1  0.322540  0.362260  0.019880  1.0  0.4154
  C  C1895  1  0.346690  0.301950  0.030870  1.0  0.2907
  C  C1896  1  0.297010  0.333810  0.014310  1.0  0.3681
  C  C1897  1  0.269760  0.335840  0.003560  1.0  -0.1796
  C  C1898  1  0.271620  0.304500  0.003220  1.0  0.161
  C  C1899  1  0.221960  0.334780  0.984920  1.0  0.1607
  C  C1900  1  0.218680  0.367160  0.984220  1.0  -0.1471
  C  C1901  1  0.243480  0.368240  0.992820  1.0  -0.0358
  C  C1902  1  0.293040  0.204200  0.056840  1.0  0.274
  C  C1903  1  0.172510  0.258530  0.047690  1.0  0.1879
  C  C1904  1  0.140870  0.264010  0.076590  1.0  -0.1534
  C  C1905  1  0.142190  0.268350  0.104730  1.0  -0.0213
  C  C1906  1  0.173450  0.267410  0.102510  1.0  -0.1468
  C  C1907  1  0.204350  0.260710  0.073410  1.0  0.1444
  C  C1908  1  0.107370  0.264390  0.077790  1.0  0.4214
  C  C1909  1  0.726990  0.976290  0.336110  1.0  0.2524
  C  C1910  1  0.814000  0.042660  0.207580  1.0  0.1716
  C  C1911  1  0.839870  0.053310  0.203710  1.0  -0.16
  C  C1912  1  0.842680  0.050780  0.234020  1.0  -0.0768
  C  C1913  1  0.818070  0.037770  0.267670  1.0  -0.1552
  C  C1914  1  0.792010  0.028850  0.268670  1.0  0.1702
  C  C1915  1  0.765960  0.011880  0.427840  1.0  0.2036
  C  C1916  1  0.764250  0.016770  0.396450  1.0  -0.1305
  C  C1917  1  0.732880  0.016000  0.397820  1.0  -0.0478
  C  C1918  1  0.705490  0.011910  0.430010  1.0  -0.134
  C  C1919  1  0.709280  0.007020  0.461060  1.0  0.159
  C  C1920  1  0.795320  0.019880  0.362260  1.0  0.4154
  C  C1921  1  0.820490  0.030870  0.301950  1.0  0.2898
  C  C1922  1  0.854870  0.014310  0.333810  1.0  0.3681
  C  C1923  1  0.890840  0.003560  0.335840  1.0  -0.1788
  C  C1924  1  0.920660  0.003220  0.304500  1.0  0.1636
  C  C1925  1  0.958340  0.984920  0.334780  1.0  0.1581
  C  C1926  1  0.929940  0.984220  0.367160  1.0  -0.145
  C  C1927  1  0.895460  0.992820  0.368240  1.0  -0.0401
  C  C1928  1  0.945920  0.056840  0.204200  1.0  0.2727
  C  C1929  1  0.021270  0.047690  0.258530  1.0  0.1864
  C  C1930  1  0.018530  0.076590  0.264010  1.0  -0.1526
  C  C1931  1  0.984730  0.104730  0.268350  1.0  -0.0212
  C  C1932  1  0.956630  0.102510  0.267410  1.0  -0.1519
  C  C1933  1  0.961530  0.073410  0.260710  1.0  0.1444
  C  C1934  1  0.050450  0.077790  0.264390  1.0  0.4214
  C  C1935  1  0.336110  0.460610  0.726990  1.0  0.2564
  C  C1936  1  0.207580  0.435760  0.814000  1.0  0.1686
  C  C1937  1  0.203710  0.403110  0.839870  1.0  -0.1591
  C  C1938  1  0.234020  0.372520  0.842680  1.0  -0.0776
  C  C1939  1  0.267670  0.376490  0.818070  1.0  -0.1539
  C  C1940  1  0.268670  0.410470  0.792010  1.0  0.1733
  C  C1941  1  0.427840  0.294320  0.765960  1.0  0.2005
  C  C1942  1  0.396450  0.322530  0.764250  1.0  -0.1323
  C  C1943  1  0.397820  0.353300  0.732880  1.0  -0.0468
  C  C1944  1  0.430010  0.352590  0.705490  1.0  -0.1391
  C  C1945  1  0.461060  0.322640  0.709280  1.0  0.1526
  C  C1946  1  0.362260  0.322540  0.795320  1.0  0.4152
  C  C1947  1  0.301950  0.346690  0.820490  1.0  0.2913
  C  C1948  1  0.333810  0.297010  0.854870  1.0  0.3693
  C  C1949  1  0.335840  0.269760  0.890840  1.0  -0.1801
  C  C1950  1  0.304500  0.271620  0.920660  1.0  0.1607
  C  C1951  1  0.334780  0.221960  0.958340  1.0  0.1612
  C  C1952  1  0.367160  0.218680  0.929940  1.0  -0.1471
  C  C1953  1  0.368240  0.243480  0.895460  1.0  -0.0379
  C  C1954  1  0.204200  0.293040  0.945920  1.0  0.2756
  C  C1955  1  0.258530  0.172510  0.021270  1.0  0.1878
  C  C1956  1  0.264010  0.140870  0.018530  1.0  -0.1516
  C  C1957  1  0.268350  0.142190  0.984730  1.0  -0.0238
  C  C1958  1  0.267410  0.173450  0.956630  1.0  -0.1458
  C  C1959  1  0.260710  0.204350  0.961530  1.0  0.1446
  C  C1960  1  0.264390  0.107370  0.050450  1.0  0.4219
  C  C1961  1  0.336110  0.976290  0.460610  1.0  0.2552
  C  C1962  1  0.207580  0.042660  0.435760  1.0  0.1727
  C  C1963  1  0.203710  0.053310  0.403110  1.0  -0.1634
  C  C1964  1  0.234020  0.050780  0.372520  1.0  -0.0798
  C  C1965  1  0.267670  0.037770  0.376490  1.0  -0.1512
  C  C1966  1  0.268670  0.028850  0.410470  1.0  0.171
  C  C1967  1  0.427840  0.011880  0.294320  1.0  0.2007
  C  C1968  1  0.396450  0.016770  0.322530  1.0  -0.1324
  C  C1969  1  0.397820  0.016000  0.353300  1.0  -0.0469
  C  C1970  1  0.430010  0.011910  0.352590  1.0  -0.1345
  C  C1971  1  0.461060  0.007020  0.322640  1.0  0.1538
  C  C1972  1  0.362260  0.019880  0.322540  1.0  0.4152
  C  C1973  1  0.301950  0.030870  0.346690  1.0  0.29
  C  C1974  1  0.333810  0.014310  0.297010  1.0  0.3688
  C  C1975  1  0.335840  0.003560  0.269760  1.0  -0.1824
  C  C1976  1  0.304500  0.003220  0.271620  1.0  0.1624
  C  C1977  1  0.334780  0.984920  0.221960  1.0  0.1625
  C  C1978  1  0.367160  0.984220  0.218680  1.0  -0.1461
  C  C1979  1  0.368240  0.992820  0.243480  1.0  -0.0386
  C  C1980  1  0.204200  0.056840  0.293040  1.0  0.2739
  C  C1981  1  0.258530  0.047690  0.172510  1.0  0.1879
  C  C1982  1  0.264010  0.076590  0.140870  1.0  -0.1513
  C  C1983  1  0.268350  0.104730  0.142190  1.0  -0.018
  C  C1984  1  0.267410  0.102510  0.173450  1.0  -0.1519
  C  C1985  1  0.260710  0.073410  0.204350  1.0  0.1387
  C  C1986  1  0.264390  0.077790  0.107370  1.0  0.4213
  C  C1987  1  0.726990  0.460610  0.976290  1.0  0.2545
  C  C1988  1  0.814000  0.435760  0.042660  1.0  0.1672
  C  C1989  1  0.839870  0.403110  0.053310  1.0  -0.1572
  C  C1990  1  0.842680  0.372520  0.050780  1.0  -0.0792
  C  C1991  1  0.818070  0.376490  0.037770  1.0  -0.1533
  C  C1992  1  0.792010  0.410470  0.028850  1.0  0.1724
  C  C1993  1  0.765960  0.294320  0.011880  1.0  0.2003
  C  C1994  1  0.764250  0.322530  0.016770  1.0  -0.1281
  C  C1995  1  0.732880  0.353300  0.016000  1.0  -0.0488
  C  C1996  1  0.705490  0.352590  0.011910  1.0  -0.1393
  C  C1997  1  0.709280  0.322640  0.007020  1.0  0.1532
  C  C1998  1  0.795320  0.322540  0.019880  1.0  0.4143
  C  C1999  1  0.820490  0.346690  0.030870  1.0  0.2911
  C  C2000  1  0.854870  0.297010  0.014310  1.0  0.37
  C  C2001  1  0.890840  0.269760  0.003560  1.0  -0.1783
  C  C2002  1  0.920660  0.271620  0.003220  1.0  0.1612
  C  C2003  1  0.958340  0.221960  0.984920  1.0  0.1565
  C  C2004  1  0.929940  0.218680  0.984220  1.0  -0.1482
  C  C2005  1  0.895460  0.243480  0.992820  1.0  -0.0369
  C  C2006  1  0.945920  0.293040  0.056840  1.0  0.2746
  C  C2007  1  0.021270  0.172510  0.047690  1.0  0.1861
  C  C2008  1  0.018530  0.140870  0.076590  1.0  -0.1517
  C  C2009  1  0.984730  0.142190  0.104730  1.0  -0.0211
  C  C2010  1  0.956630  0.173450  0.102510  1.0  -0.1494
  C  C2011  1  0.961530  0.204350  0.073410  1.0  0.1463
  C  C2012  1  0.050450  0.107370  0.077790  1.0  0.4217
  C  C2013  1  0.460610  0.726990  0.336110  1.0  0.2539
  C  C2014  1  0.435760  0.814000  0.207580  1.0  0.1675
  C  C2015  1  0.403110  0.839870  0.203710  1.0  -0.1591
  C  C2016  1  0.372520  0.842680  0.234020  1.0  -0.0796
  C  C2017  1  0.376490  0.818070  0.267670  1.0  -0.1525
  C  C2018  1  0.410470  0.792010  0.268670  1.0  0.1714
  C  C2019  1  0.294320  0.765960  0.427840  1.0  0.2026
  C  C2020  1  0.322530  0.764250  0.396450  1.0  -0.129
  C  C2021  1  0.353300  0.732880  0.397820  1.0  -0.0483
  C  C2022  1  0.352590  0.705490  0.430010  1.0  -0.1369
  C  C2023  1  0.322640  0.709280  0.461060  1.0  0.1513
  C  C2024  1  0.322540  0.795320  0.362260  1.0  0.4143
  C  C2025  1  0.346690  0.820490  0.301950  1.0  0.2904
  C  C2026  1  0.297010  0.854870  0.333810  1.0  0.3688
  C  C2027  1  0.269760  0.890840  0.335840  1.0  -0.1774
  C  C2028  1  0.271620  0.920660  0.304500  1.0  0.163
  C  C2029  1  0.221960  0.958340  0.334780  1.0  0.1561
  C  C2030  1  0.218680  0.929940  0.367160  1.0  -0.1477
  C  C2031  1  0.243480  0.895460  0.368240  1.0  -0.0375
  C  C2032  1  0.293040  0.945920  0.204200  1.0  0.2745
  C  C2033  1  0.172510  0.021270  0.258530  1.0  0.1855
  C  C2034  1  0.140870  0.018530  0.264010  1.0  -0.1537
  C  C2035  1  0.142190  0.984730  0.268350  1.0  -0.0203
  C  C2036  1  0.173450  0.956630  0.267410  1.0  -0.1538
  C  C2037  1  0.204350  0.961530  0.260710  1.0  0.1415
  C  C2038  1  0.107370  0.050450  0.264390  1.0  0.4215
  C  C2039  1  0.976290  0.336110  0.726990  1.0  0.2546
  C  C2040  1  0.042660  0.207580  0.814000  1.0  0.168
  C  C2041  1  0.053310  0.203710  0.839870  1.0  -0.1592
  C  C2042  1  0.050780  0.234020  0.842680  1.0  -0.0795
  C  C2043  1  0.037770  0.267670  0.818070  1.0  -0.153
  C  C2044  1  0.028850  0.268670  0.792010  1.0  0.1746
  C  C2045  1  0.011880  0.427840  0.765960  1.0  0.2024
  C  C2046  1  0.016770  0.396450  0.764250  1.0  -0.1308
  C  C2047  1  0.016000  0.397820  0.732880  1.0  -0.0498
  C  C2048  1  0.011910  0.430010  0.705490  1.0  -0.1338
  C  C2049  1  0.007020  0.461060  0.709280  1.0  0.1519
  C  C2050  1  0.019880  0.362260  0.795320  1.0  0.4159
  C  C2051  1  0.030870  0.301950  0.820490  1.0  0.2904
  C  C2052  1  0.014310  0.333810  0.854870  1.0  0.3686
  C  C2053  1  0.003560  0.335840  0.890840  1.0  -0.1784
  C  C2054  1  0.003220  0.304500  0.920660  1.0  0.1644
  C  C2055  1  0.984920  0.334780  0.958340  1.0  0.1572
  C  C2056  1  0.984220  0.367160  0.929940  1.0  -0.1469
  C  C2057  1  0.992820  0.368240  0.895460  1.0  -0.0344
  C  C2058  1  0.056840  0.204200  0.945920  1.0  0.2732
  C  C2059  1  0.047690  0.258530  0.021270  1.0  0.1859
  C  C2060  1  0.076590  0.264010  0.018530  1.0  -0.1548
  C  C2061  1  0.104730  0.268350  0.984730  1.0  -0.0174
  C  C2062  1  0.102510  0.267410  0.956630  1.0  -0.1484
  C  C2063  1  0.073410  0.260710  0.961530  1.0  0.145
  C  C2064  1  0.077790  0.264390  0.050450  1.0  0.4212
  S  S2065  1  0.203410  0.879290  0.466410  1.0  -0.2892
  S  S2066  1  0.419150  0.681190  0.590810  1.0  -0.1891
  S  S2067  1  0.879290  0.203410  0.950890  1.0  -0.2864
  S  S2068  1  0.681190  0.419150  0.808850  1.0  -0.1903
  S  S2069  1  0.466410  0.950890  0.203410  1.0  -0.2857
  S  S2070  1  0.590810  0.808850  0.419150  1.0  -0.1877
  S  S2071  1  0.950890  0.466410  0.879290  1.0  -0.2889
  S  S2072  1  0.808850  0.590810  0.681190  1.0  -0.1869
  S  S2073  1  0.466410  0.203410  0.879290  1.0  -0.2891
  S  S2074  1  0.590810  0.419150  0.681190  1.0  -0.1871
  S  S2075  1  0.950890  0.879290  0.203410  1.0  -0.2892
  S  S2076  1  0.808850  0.681190  0.419150  1.0  -0.1882
  S  S2077  1  0.203410  0.466410  0.950890  1.0  -0.2872
  S  S2078  1  0.419150  0.590810  0.808850  1.0  -0.187
  S  S2079  1  0.879290  0.950890  0.466410  1.0  -0.2862
  S  S2080  1  0.681190  0.808850  0.590810  1.0  -0.1895
  S  S2081  1  0.879290  0.466410  0.203410  1.0  -0.2846
  S  S2082  1  0.681190  0.590810  0.419150  1.0  -0.1862
  S  S2083  1  0.203410  0.950890  0.879290  1.0  -0.2885
  S  S2084  1  0.419150  0.808850  0.681190  1.0  -0.1882
  S  S2085  1  0.950890  0.203410  0.466410  1.0  -0.286
  S  S2086  1  0.808850  0.419150  0.590810  1.0  -0.1896
  S  S2087  1  0.466410  0.879290  0.950890  1.0  -0.2896
  S  S2088  1  0.590810  0.681190  0.808850  1.0  -0.1889
  S  S2089  1  0.296590  0.620710  0.549110  1.0  -0.2877
  S  S2090  1  0.080850  0.818810  0.691150  1.0  -0.1868
  S  S2091  1  0.620710  0.296590  0.033590  1.0  -0.288
  S  S2092  1  0.818810  0.080850  0.909190  1.0  -0.1876
  S  S2093  1  0.033590  0.549110  0.620710  1.0  -0.2855
  S  S2094  1  0.909190  0.691150  0.818810  1.0  -0.1895
  S  S2095  1  0.549110  0.033590  0.296590  1.0  -0.2881
  S  S2096  1  0.691150  0.909190  0.080850  1.0  -0.1901
  S  S2097  1  0.033590  0.296590  0.549110  1.0  -0.2883
  S  S2098  1  0.909190  0.080850  0.691150  1.0  -0.1857
  S  S2099  1  0.549110  0.620710  0.033590  1.0  -0.2888
  S  S2100  1  0.691150  0.818810  0.909190  1.0  -0.1874
  S  S2101  1  0.296590  0.033590  0.620710  1.0  -0.2834
  S  S2102  1  0.080850  0.909190  0.818810  1.0  -0.1892
  S  S2103  1  0.620710  0.549110  0.296590  1.0  -0.2876
  S  S2104  1  0.818810  0.691150  0.080850  1.0  -0.1902
  S  S2105  1  0.620710  0.033590  0.549110  1.0  -0.2865
  S  S2106  1  0.818810  0.909190  0.691150  1.0  -0.1873
  S  S2107  1  0.296590  0.549110  0.033590  1.0  -0.2866
  S  S2108  1  0.080850  0.691150  0.909190  1.0  -0.189
  S  S2109  1  0.549110  0.296590  0.620710  1.0  -0.2865
  S  S2110  1  0.691150  0.080850  0.818810  1.0  -0.1887
  S  S2111  1  0.033590  0.620710  0.296590  1.0  -0.2894
  S  S2112  1  0.909190  0.818810  0.080850  1.0  -0.1874
  S  S2113  1  0.796590  0.120710  0.533590  1.0  -0.2881
  S  S2114  1  0.580850  0.318810  0.409190  1.0  -0.1874
  S  S2115  1  0.120710  0.796590  0.049110  1.0  -0.2878
  S  S2116  1  0.318810  0.580850  0.191150  1.0  -0.187
  S  S2117  1  0.533590  0.049110  0.796590  1.0  -0.2883
  S  S2118  1  0.409190  0.191150  0.580850  1.0  -0.1894
  S  S2119  1  0.049110  0.533590  0.120710  1.0  -0.2854
  S  S2120  1  0.191150  0.409190  0.318810  1.0  -0.1901
  S  S2121  1  0.533590  0.796590  0.120710  1.0  -0.2867
  S  S2122  1  0.409190  0.580850  0.318810  1.0  -0.1868
  S  S2123  1  0.049110  0.120710  0.796590  1.0  -0.2892
  S  S2124  1  0.191150  0.318810  0.580850  1.0  -0.1893
  S  S2125  1  0.796590  0.533590  0.049110  1.0  -0.2858
  S  S2126  1  0.580850  0.409190  0.191150  1.0  -0.1875
  S  S2127  1  0.120710  0.049110  0.533590  1.0  -0.2878
  S  S2128  1  0.318810  0.191150  0.409190  1.0  -0.1887
  S  S2129  1  0.120710  0.533590  0.796590  1.0  -0.2869
  S  S2130  1  0.318810  0.409190  0.580850  1.0  -0.1887
  S  S2131  1  0.796590  0.049110  0.120710  1.0  -0.2841
  S  S2132  1  0.580850  0.191150  0.318810  1.0  -0.1898
  S  S2133  1  0.049110  0.796590  0.533590  1.0  -0.2884
  S  S2134  1  0.191150  0.580850  0.409190  1.0  -0.1873
  S  S2135  1  0.533590  0.120710  0.049110  1.0  -0.2884
  S  S2136  1  0.409190  0.318810  0.191150  1.0  -0.1866
  S  S2137  1  0.703410  0.379290  0.450890  1.0  -0.2894
  S  S2138  1  0.919150  0.181190  0.308850  1.0  -0.1898
  S  S2139  1  0.379290  0.703410  0.966410  1.0  -0.2859
  S  S2140  1  0.181190  0.919150  0.090810  1.0  -0.1896
  S  S2141  1  0.966410  0.450890  0.379290  1.0  -0.2886
  S  S2142  1  0.090810  0.308850  0.181190  1.0  -0.1877
  S  S2143  1  0.450890  0.966410  0.703410  1.0  -0.2859
  S  S2144  1  0.308850  0.090810  0.919150  1.0  -0.187
  S  S2145  1  0.966410  0.703410  0.450890  1.0  -0.2864
  S  S2146  1  0.090810  0.919150  0.308850  1.0  -0.1892
  S  S2147  1  0.450890  0.379290  0.966410  1.0  -0.2892
  S  S2148  1  0.308850  0.181190  0.090810  1.0  -0.1897
  S  S2149  1  0.703410  0.966410  0.379290  1.0  -0.2889
  S  S2150  1  0.919150  0.090810  0.181190  1.0  -0.1857
  S  S2151  1  0.379290  0.450890  0.703410  1.0  -0.2857
  S  S2152  1  0.181190  0.308850  0.919150  1.0  -0.1877
  S  S2153  1  0.379290  0.966410  0.450890  1.0  -0.286
  S  S2154  1  0.181190  0.090810  0.308850  1.0  -0.1872
  S  S2155  1  0.703410  0.450890  0.966410  1.0  -0.287
  S  S2156  1  0.919150  0.308850  0.090810  1.0  -0.1897
  S  S2157  1  0.450890  0.703410  0.379290  1.0  -0.2893
  S  S2158  1  0.308850  0.919150  0.181190  1.0  -0.1883
  S  S2159  1  0.966410  0.379290  0.703410  1.0  -0.2892
  S  S2160  1  0.090810  0.181190  0.919150  1.0  -0.187
  N  N2161  1  0.242330  0.805110  0.484410  1.0  -0.4479
  N  N2162  1  0.290360  0.739300  0.530560  1.0  -0.3221
  N  N2163  1  0.239650  0.960450  0.506530  1.0  -0.3356
  N  N2164  1  0.290730  0.831630  0.528810  1.0  -0.4332
  N  N2165  1  0.353040  0.801780  0.524260  1.0  -0.404
  N  N2166  1  0.327000  0.865480  0.511580  1.0  -0.432
  N  N2167  1  0.453720  0.803660  0.494120  1.0  -0.304
  N  N2168  1  0.464300  0.720580  0.534000  1.0  -0.3957
  N  N2169  1  0.493440  0.756700  0.545780  1.0  -0.3241
  N  N2170  1  0.579160  0.765180  0.547860  1.0  -0.4295
  N  N2171  1  0.805110  0.242330  0.968150  1.0  -0.4503
  N  N2172  1  0.739300  0.290360  0.939780  1.0  -0.3245
  N  N2173  1  0.960450  0.239650  0.793370  1.0  -0.3314
  N  N2174  1  0.831630  0.290730  0.848830  1.0  -0.4315
  N  N2175  1  0.801780  0.353040  0.820920  1.0  -0.4056
  N  N2176  1  0.865480  0.327000  0.795940  1.0  -0.4359
  N  N2177  1  0.803660  0.453720  0.748500  1.0  -0.3037
  N  N2178  1  0.720580  0.464300  0.781120  1.0  -0.3967
  N  N2179  1  0.756700  0.493440  0.704080  1.0  -0.3239
  N  N2180  1  0.765180  0.579160  0.607800  1.0  -0.4302
  N  N2181  1  0.484410  0.968150  0.242330  1.0  -0.4487
  N  N2182  1  0.530560  0.939780  0.290360  1.0  -0.3243
  N  N2183  1  0.506530  0.793370  0.239650  1.0  -0.334
  N  N2184  1  0.528810  0.848830  0.290730  1.0  -0.4309
  N  N2185  1  0.524260  0.820920  0.353040  1.0  -0.4088
  N  N2186  1  0.511580  0.795940  0.327000  1.0  -0.4328
  N  N2187  1  0.494120  0.748500  0.453720  1.0  -0.3072
  N  N2188  1  0.534000  0.781120  0.464300  1.0  -0.3968
  N  N2189  1  0.545780  0.704080  0.493440  1.0  -0.3224
  N  N2190  1  0.547860  0.607800  0.579160  1.0  -0.4274
  N  N2191  1  0.968150  0.484410  0.805110  1.0  -0.4489
  N  N2192  1  0.939780  0.530560  0.739300  1.0  -0.3215
  N  N2193  1  0.793370  0.506530  0.960450  1.0  -0.332
  N  N2194  1  0.848830  0.528810  0.831630  1.0  -0.4309
  N  N2195  1  0.820920  0.524260  0.801780  1.0  -0.4089
  N  N2196  1  0.795940  0.511580  0.865480  1.0  -0.435
  N  N2197  1  0.748500  0.494120  0.803660  1.0  -0.308
  N  N2198  1  0.781120  0.534000  0.720580  1.0  -0.3964
  N  N2199  1  0.704080  0.545780  0.756700  1.0  -0.3231
  N  N2200  1  0.607800  0.547860  0.765180  1.0  -0.4285
  N  N2201  1  0.484410  0.242330  0.805110  1.0  -0.4488
  N  N2202  1  0.530560  0.290360  0.739300  1.0  -0.3218
  N  N2203  1  0.506530  0.239650  0.960450  1.0  -0.3352
  N  N2204  1  0.528810  0.290730  0.831630  1.0  -0.4326
  N  N2205  1  0.524260  0.353040  0.801780  1.0  -0.4054
  N  N2206  1  0.511580  0.327000  0.865480  1.0  -0.4342
  N  N2207  1  0.494120  0.453720  0.803660  1.0  -0.3064
  N  N2208  1  0.534000  0.464300  0.720580  1.0  -0.3937
  N  N2209  1  0.545780  0.493440  0.756700  1.0  -0.3223
  N  N2210  1  0.547860  0.579160  0.765180  1.0  -0.4281
  N  N2211  1  0.968150  0.805110  0.242330  1.0  -0.4513
  N  N2212  1  0.939780  0.739300  0.290360  1.0  -0.3197
  N  N2213  1  0.793370  0.960450  0.239650  1.0  -0.3332
  N  N2214  1  0.848830  0.831630  0.290730  1.0  -0.432
  N  N2215  1  0.820920  0.801780  0.353040  1.0  -0.4054
  N  N2216  1  0.795940  0.865480  0.327000  1.0  -0.432
  N  N2217  1  0.748500  0.803660  0.453720  1.0  -0.3057
  N  N2218  1  0.781120  0.720580  0.464300  1.0  -0.3929
  N  N2219  1  0.704080  0.756700  0.493440  1.0  -0.3216
  N  N2220  1  0.607800  0.765180  0.579160  1.0  -0.4293
  N  N2221  1  0.242330  0.484410  0.968150  1.0  -0.4471
  N  N2222  1  0.290360  0.530560  0.939780  1.0  -0.3197
  N  N2223  1  0.239650  0.506530  0.793370  1.0  -0.3361
  N  N2224  1  0.290730  0.528810  0.848830  1.0  -0.4324
  N  N2225  1  0.353040  0.524260  0.820920  1.0  -0.4078
  N  N2226  1  0.327000  0.511580  0.795940  1.0  -0.4349
  N  N2227  1  0.453720  0.494120  0.748500  1.0  -0.3044
  N  N2228  1  0.464300  0.534000  0.781120  1.0  -0.3963
  N  N2229  1  0.493440  0.545780  0.704080  1.0  -0.3237
  N  N2230  1  0.579160  0.547860  0.607800  1.0  -0.4276
  N  N2231  1  0.805110  0.968150  0.484410  1.0  -0.4492
  N  N2232  1  0.739300  0.939780  0.530560  1.0  -0.3217
  N  N2233  1  0.960450  0.793370  0.506530  1.0  -0.3331
  N  N2234  1  0.831630  0.848830  0.528810  1.0  -0.4309
  N  N2235  1  0.801780  0.820920  0.524260  1.0  -0.406
  N  N2236  1  0.865480  0.795940  0.511580  1.0  -0.4324
  N  N2237  1  0.803660  0.748500  0.494120  1.0  -0.3054
  N  N2238  1  0.720580  0.781120  0.534000  1.0  -0.3945
  N  N2239  1  0.756700  0.704080  0.545780  1.0  -0.3228
  N  N2240  1  0.765180  0.607800  0.547860  1.0  -0.4274
  N  N2241  1  0.805110  0.484410  0.242330  1.0  -0.4503
  N  N2242  1  0.739300  0.530560  0.290360  1.0  -0.3255
  N  N2243  1  0.960450  0.506530  0.239650  1.0  -0.3329
  N  N2244  1  0.831630  0.528810  0.290730  1.0  -0.4331
  N  N2245  1  0.801780  0.524260  0.353040  1.0  -0.4066
  N  N2246  1  0.865480  0.511580  0.327000  1.0  -0.4341
  N  N2247  1  0.803660  0.494120  0.453720  1.0  -0.3038
  N  N2248  1  0.720580  0.534000  0.464300  1.0  -0.3952
  N  N2249  1  0.756700  0.545780  0.493440  1.0  -0.3234
  N  N2250  1  0.765180  0.547860  0.579160  1.0  -0.428
  N  N2251  1  0.242330  0.968150  0.805110  1.0  -0.4481
  N  N2252  1  0.290360  0.939780  0.739300  1.0  -0.3224
  N  N2253  1  0.239650  0.793370  0.960450  1.0  -0.3351
  N  N2254  1  0.290730  0.848830  0.831630  1.0  -0.4328
  N  N2255  1  0.353040  0.820920  0.801780  1.0  -0.4076
  N  N2256  1  0.327000  0.795940  0.865480  1.0  -0.4314
  N  N2257  1  0.453720  0.748500  0.803660  1.0  -0.3053
  N  N2258  1  0.464300  0.781120  0.720580  1.0  -0.3949
  N  N2259  1  0.493440  0.704080  0.756700  1.0  -0.3224
  N  N2260  1  0.579160  0.607800  0.765180  1.0  -0.4275
  N  N2261  1  0.968150  0.242330  0.484410  1.0  -0.4494
  N  N2262  1  0.939780  0.290360  0.530560  1.0  -0.3222
  N  N2263  1  0.793370  0.239650  0.506530  1.0  -0.3327
  N  N2264  1  0.848830  0.290730  0.528810  1.0  -0.4317
  N  N2265  1  0.820920  0.353040  0.524260  1.0  -0.4066
  N  N2266  1  0.795940  0.327000  0.511580  1.0  -0.4346
  N  N2267  1  0.748500  0.453720  0.494120  1.0  -0.3059
  N  N2268  1  0.781120  0.464300  0.534000  1.0  -0.3935
  N  N2269  1  0.704080  0.493440  0.545780  1.0  -0.3202
  N  N2270  1  0.607800  0.579160  0.547860  1.0  -0.4303
  N  N2271  1  0.484410  0.805110  0.968150  1.0  -0.4496
  N  N2272  1  0.530560  0.739300  0.939780  1.0  -0.3236
  N  N2273  1  0.506530  0.960450  0.793370  1.0  -0.3363
  N  N2274  1  0.528810  0.831630  0.848830  1.0  -0.4315
  N  N2275  1  0.524260  0.801780  0.820920  1.0  -0.4064
  N  N2276  1  0.511580  0.865480  0.795940  1.0  -0.4334
  N  N2277  1  0.494120  0.803660  0.748500  1.0  -0.3054
  N  N2278  1  0.534000  0.720580  0.781120  1.0  -0.3932
  N  N2279  1  0.545780  0.756700  0.704080  1.0  -0.3208
  N  N2280  1  0.547860  0.765180  0.607800  1.0  -0.428
  N  N2281  1  0.257670  0.694890  0.531850  1.0  -0.4494
  N  N2282  1  0.209640  0.760700  0.560220  1.0  -0.323
  N  N2283  1  0.260350  0.539550  0.706630  1.0  -0.3351
  N  N2284  1  0.209270  0.668370  0.651170  1.0  -0.4325
  N  N2285  1  0.146960  0.698220  0.679080  1.0  -0.4039
  N  N2286  1  0.173000  0.634520  0.704060  1.0  -0.4307
  N  N2287  1  0.046280  0.696340  0.751500  1.0  -0.304
  N  N2288  1  0.035700  0.779420  0.718880  1.0  -0.3953
  N  N2289  1  0.006560  0.743300  0.795920  1.0  -0.3236
  N  N2290  1  0.920840  0.734820  0.892200  1.0  -0.4302
  N  N2291  1  0.694890  0.257670  0.015590  1.0  -0.4474
  N  N2292  1  0.760700  0.209640  0.969440  1.0  -0.3237
  N  N2293  1  0.539550  0.260350  0.993470  1.0  -0.3319
  N  N2294  1  0.668370  0.209270  0.971190  1.0  -0.4312
  N  N2295  1  0.698220  0.146960  0.975740  1.0  -0.4066
  N  N2296  1  0.634520  0.173000  0.988420  1.0  -0.4348
  N  N2297  1  0.696340  0.046280  0.005880  1.0  -0.3035
  N  N2298  1  0.779420  0.035700  0.966000  1.0  -0.3978
  N  N2299  1  0.743300  0.006560  0.954220  1.0  -0.3242
  N  N2300  1  0.734820  0.920840  0.952140  1.0  -0.4304
  N  N2301  1  0.015590  0.531850  0.694890  1.0  -0.4483
  N  N2302  1  0.969440  0.560220  0.760700  1.0  -0.3247
  N  N2303  1  0.993470  0.706630  0.539550  1.0  -0.3341
  N  N2304  1  0.971190  0.651170  0.668370  1.0  -0.4313
  N  N2305  1  0.975740  0.679080  0.698220  1.0  -0.4096
  N  N2306  1  0.988420  0.704060  0.634520  1.0  -0.433
  N  N2307  1  0.005880  0.751500  0.696340  1.0  -0.3062
  N  N2308  1  0.966000  0.718880  0.779420  1.0  -0.3951
  N  N2309  1  0.954220  0.795920  0.743300  1.0  -0.3223
  N  N2310  1  0.952140  0.892200  0.734820  1.0  -0.4288
  N  N2311  1  0.531850  0.015590  0.257670  1.0  -0.4484
  N  N2312  1  0.560220  0.969440  0.209640  1.0  -0.3208
  N  N2313  1  0.706630  0.993470  0.260350  1.0  -0.3318
  N  N2314  1  0.651170  0.971190  0.209270  1.0  -0.432
  N  N2315  1  0.679080  0.975740  0.146960  1.0  -0.4097
  N  N2316  1  0.704060  0.988420  0.173000  1.0  -0.435
  N  N2317  1  0.751500  0.005880  0.046280  1.0  -0.308
  N  N2318  1  0.718880  0.966000  0.035700  1.0  -0.3977
  N  N2319  1  0.795920  0.954220  0.006560  1.0  -0.3223
  N  N2320  1  0.892200  0.952140  0.920840  1.0  -0.4271
  N  N2321  1  0.015590  0.257670  0.531850  1.0  -0.4493
  N  N2322  1  0.969440  0.209640  0.560220  1.0  -0.3218
  N  N2323  1  0.993470  0.260350  0.706630  1.0  -0.3356
  N  N2324  1  0.971190  0.209270  0.651170  1.0  -0.4319
  N  N2325  1  0.975740  0.146960  0.679080  1.0  -0.4072
  N  N2326  1  0.988420  0.173000  0.704060  1.0  -0.4341
  N  N2327  1  0.005880  0.046280  0.751500  1.0  -0.3068
  N  N2328  1  0.966000  0.035700  0.718880  1.0  -0.3941
  N  N2329  1  0.954220  0.006560  0.795920  1.0  -0.322
  N  N2330  1  0.952140  0.920840  0.892200  1.0  -0.4304
  N  N2331  1  0.531850  0.694890  0.015590  1.0  -0.4508
  N  N2332  1  0.560220  0.760700  0.969440  1.0  -0.3185
  N  N2333  1  0.706630  0.539550  0.993470  1.0  -0.3333
  N  N2334  1  0.651170  0.668370  0.971190  1.0  -0.4315
  N  N2335  1  0.679080  0.698220  0.975740  1.0  -0.4045
  N  N2336  1  0.704060  0.634520  0.988420  1.0  -0.4311
  N  N2337  1  0.751500  0.696340  0.005880  1.0  -0.3058
  N  N2338  1  0.718880  0.779420  0.966000  1.0  -0.3944
  N  N2339  1  0.795920  0.743300  0.954220  1.0  -0.3216
  N  N2340  1  0.892200  0.734820  0.952140  1.0  -0.4281
  N  N2341  1  0.257670  0.015590  0.694890  1.0  -0.4476
  N  N2342  1  0.209640  0.969440  0.760700  1.0  -0.3214
  N  N2343  1  0.260350  0.993470  0.539550  1.0  -0.3357
  N  N2344  1  0.209270  0.971190  0.668370  1.0  -0.4321
  N  N2345  1  0.146960  0.975740  0.698220  1.0  -0.4065
  N  N2346  1  0.173000  0.988420  0.634520  1.0  -0.4348
  N  N2347  1  0.046280  0.005880  0.696340  1.0  -0.3051
  N  N2348  1  0.035700  0.966000  0.779420  1.0  -0.3944
  N  N2349  1  0.006560  0.954220  0.743300  1.0  -0.3237
  N  N2350  1  0.920840  0.952140  0.734820  1.0  -0.4275
  N  N2351  1  0.694890  0.531850  0.257670  1.0  -0.4479
  N  N2352  1  0.760700  0.560220  0.209640  1.0  -0.322
  N  N2353  1  0.539550  0.706630  0.260350  1.0  -0.3325
  N  N2354  1  0.668370  0.651170  0.209270  1.0  -0.4306
  N  N2355  1  0.698220  0.679080  0.146960  1.0  -0.4073
  N  N2356  1  0.634520  0.704060  0.173000  1.0  -0.4339
  N  N2357  1  0.696340  0.751500  0.046280  1.0  -0.3043
  N  N2358  1  0.779420  0.718880  0.035700  1.0  -0.3933
  N  N2359  1  0.743300  0.795920  0.006560  1.0  -0.3233
  N  N2360  1  0.734820  0.892200  0.920840  1.0  -0.4288
  N  N2361  1  0.694890  0.015590  0.531850  1.0  -0.4502
  N  N2362  1  0.760700  0.969440  0.560220  1.0  -0.325
  N  N2363  1  0.539550  0.993470  0.706630  1.0  -0.333
  N  N2364  1  0.668370  0.971190  0.651170  1.0  -0.4337
  N  N2365  1  0.698220  0.975740  0.679080  1.0  -0.4074
  N  N2366  1  0.634520  0.988420  0.704060  1.0  -0.4349
  N  N2367  1  0.696340  0.005880  0.751500  1.0  -0.303
  N  N2368  1  0.779420  0.966000  0.718880  1.0  -0.3949
  N  N2369  1  0.743300  0.954220  0.795920  1.0  -0.3218
  N  N2370  1  0.734820  0.952140  0.892200  1.0  -0.4273
  N  N2371  1  0.257670  0.531850  0.015590  1.0  -0.4465
  N  N2372  1  0.209640  0.560220  0.969440  1.0  -0.3218
  N  N2373  1  0.260350  0.706630  0.993470  1.0  -0.3348
  N  N2374  1  0.209270  0.651170  0.971190  1.0  -0.433
  N  N2375  1  0.146960  0.679080  0.975740  1.0  -0.4068
  N  N2376  1  0.173000  0.704060  0.988420  1.0  -0.4332
  N  N2377  1  0.046280  0.751500  0.005880  1.0  -0.305
  N  N2378  1  0.035700  0.718880  0.966000  1.0  -0.3933
  N  N2379  1  0.006560  0.795920  0.954220  1.0  -0.323
  N  N2380  1  0.920840  0.892200  0.952140  1.0  -0.4272
  N  N2381  1  0.531850  0.257670  0.694890  1.0  -0.4498
  N  N2382  1  0.560220  0.209640  0.760700  1.0  -0.3212
  N  N2383  1  0.706630  0.260350  0.539550  1.0  -0.3328
  N  N2384  1  0.651170  0.209270  0.668370  1.0  -0.4315
  N  N2385  1  0.679080  0.146960  0.698220  1.0  -0.4076
  N  N2386  1  0.704060  0.173000  0.634520  1.0  -0.4354
  N  N2387  1  0.751500  0.046280  0.696340  1.0  -0.306
  N  N2388  1  0.718880  0.035700  0.779420  1.0  -0.3952
  N  N2389  1  0.795920  0.006560  0.743300  1.0  -0.3211
  N  N2390  1  0.892200  0.920840  0.734820  1.0  -0.4287
  N  N2391  1  0.015590  0.694890  0.257670  1.0  -0.4491
  N  N2392  1  0.969440  0.760700  0.209640  1.0  -0.3229
  N  N2393  1  0.993470  0.539550  0.260350  1.0  -0.3363
  N  N2394  1  0.971190  0.668370  0.209270  1.0  -0.4316
  N  N2395  1  0.975740  0.698220  0.146960  1.0  -0.4053
  N  N2396  1  0.988420  0.634520  0.173000  1.0  -0.4324
  N  N2397  1  0.005880  0.696340  0.046280  1.0  -0.3043
  N  N2398  1  0.966000  0.779420  0.035700  1.0  -0.3949
  N  N2399  1  0.954220  0.743300  0.006560  1.0  -0.3206
  N  N2400  1  0.952140  0.734820  0.920840  1.0  -0.4301
  N  N2401  1  0.757670  0.194890  0.515590  1.0  -0.4496
  N  N2402  1  0.709640  0.260700  0.469440  1.0  -0.3218
  N  N2403  1  0.760350  0.039550  0.493470  1.0  -0.3348
  N  N2404  1  0.709270  0.168370  0.471190  1.0  -0.4321
  N  N2405  1  0.646960  0.198220  0.475740  1.0  -0.4035
  N  N2406  1  0.673000  0.134520  0.488420  1.0  -0.4315
  N  N2407  1  0.546280  0.196340  0.505880  1.0  -0.3036
  N  N2408  1  0.535700  0.279420  0.466000  1.0  -0.3957
  N  N2409  1  0.506560  0.243300  0.454220  1.0  -0.324
  N  N2410  1  0.420840  0.234820  0.452140  1.0  -0.4306
  N  N2411  1  0.194890  0.757670  0.031850  1.0  -0.4477
  N  N2412  1  0.260700  0.709640  0.060220  1.0  -0.3243
  N  N2413  1  0.039550  0.760350  0.206630  1.0  -0.3323
  N  N2414  1  0.168370  0.709270  0.151170  1.0  -0.4313
  N  N2415  1  0.198220  0.646960  0.179080  1.0  -0.4067
  N  N2416  1  0.134520  0.673000  0.204060  1.0  -0.4343
  N  N2417  1  0.196340  0.546280  0.251500  1.0  -0.3039
  N  N2418  1  0.279420  0.535700  0.218880  1.0  -0.3975
  N  N2419  1  0.243300  0.506560  0.295920  1.0  -0.3239
  N  N2420  1  0.234820  0.420840  0.392200  1.0  -0.4298
  N  N2421  1  0.515590  0.031850  0.757670  1.0  -0.4476
  N  N2422  1  0.469440  0.060220  0.709640  1.0  -0.3238
  N  N2423  1  0.493470  0.206630  0.760350  1.0  -0.3341
  N  N2424  1  0.471190  0.151170  0.709270  1.0  -0.4312
  N  N2425  1  0.475740  0.179080  0.646960  1.0  -0.4098
  N  N2426  1  0.488420  0.204060  0.673000  1.0  -0.4324
  N  N2427  1  0.505880  0.251500  0.546280  1.0  -0.3075
  N  N2428  1  0.466000  0.218880  0.535700  1.0  -0.3951
  N  N2429  1  0.454220  0.295920  0.506560  1.0  -0.3229
  N  N2430  1  0.452140  0.392200  0.420840  1.0  -0.4288
  N  N2431  1  0.031850  0.515590  0.194890  1.0  -0.4494
  N  N2432  1  0.060220  0.469440  0.260700  1.0  -0.3221
  N  N2433  1  0.206630  0.493470  0.039550  1.0  -0.3318
  N  N2434  1  0.151170  0.471190  0.168370  1.0  -0.4321
  N  N2435  1  0.179080  0.475740  0.198220  1.0  -0.4091
  N  N2436  1  0.204060  0.488420  0.134520  1.0  -0.4351
  N  N2437  1  0.251500  0.505880  0.196340  1.0  -0.3064
  N  N2438  1  0.218880  0.466000  0.279420  1.0  -0.3974
  N  N2439  1  0.295920  0.454220  0.243300  1.0  -0.3219
  N  N2440  1  0.392200  0.452140  0.234820  1.0  -0.4269
  N  N2441  1  0.515590  0.757670  0.194890  1.0  -0.4496
  N  N2442  1  0.469440  0.709640  0.260700  1.0  -0.3217
  N  N2443  1  0.493470  0.760350  0.039550  1.0  -0.3362
  N  N2444  1  0.471190  0.709270  0.168370  1.0  -0.4315
  N  N2445  1  0.475740  0.646960  0.198220  1.0  -0.4061
  N  N2446  1  0.488420  0.673000  0.134520  1.0  -0.4354
  N  N2447  1  0.505880  0.546280  0.196340  1.0  -0.3062
  N  N2448  1  0.466000  0.535700  0.279420  1.0  -0.3946
  N  N2449  1  0.454220  0.506560  0.243300  1.0  -0.3214
  N  N2450  1  0.452140  0.420840  0.234820  1.0  -0.4301
  N  N2451  1  0.031850  0.194890  0.757670  1.0  -0.4491
  N  N2452  1  0.060220  0.260700  0.709640  1.0  -0.3184
  N  N2453  1  0.206630  0.039550  0.760350  1.0  -0.3332
  N  N2454  1  0.151170  0.168370  0.709270  1.0  -0.4308
  N  N2455  1  0.179080  0.198220  0.646960  1.0  -0.4043
  N  N2456  1  0.204060  0.134520  0.673000  1.0  -0.4313
  N  N2457  1  0.251500  0.196340  0.546280  1.0  -0.3061
  N  N2458  1  0.218880  0.279420  0.535700  1.0  -0.3941
  N  N2459  1  0.295920  0.243300  0.506560  1.0  -0.3227
  N  N2460  1  0.392200  0.234820  0.420840  1.0  -0.4288
  N  N2461  1  0.757670  0.515590  0.031850  1.0  -0.4473
  N  N2462  1  0.709640  0.469440  0.060220  1.0  -0.3216
  N  N2463  1  0.760350  0.493470  0.206630  1.0  -0.3349
  N  N2464  1  0.709270  0.471190  0.151170  1.0  -0.4328
  N  N2465  1  0.646960  0.475740  0.179080  1.0  -0.4074
  N  N2466  1  0.673000  0.488420  0.204060  1.0  -0.4342
  N  N2467  1  0.546280  0.505880  0.251500  1.0  -0.3054
  N  N2468  1  0.535700  0.466000  0.218880  1.0  -0.3949
  N  N2469  1  0.506560  0.454220  0.295920  1.0  -0.3239
  N  N2470  1  0.420840  0.452140  0.392200  1.0  -0.4272
  N  N2471  1  0.194890  0.031850  0.515590  1.0  -0.4495
  N  N2472  1  0.260700  0.060220  0.469440  1.0  -0.322
  N  N2473  1  0.039550  0.206630  0.493470  1.0  -0.3328
  N  N2474  1  0.168370  0.151170  0.471190  1.0  -0.4318
  N  N2475  1  0.198220  0.179080  0.475740  1.0  -0.4075
  N  N2476  1  0.134520  0.204060  0.488420  1.0  -0.4339
  N  N2477  1  0.196340  0.251500  0.505880  1.0  -0.3033
  N  N2478  1  0.279420  0.218880  0.466000  1.0  -0.3936
  N  N2479  1  0.243300  0.295920  0.454220  1.0  -0.3228
  N  N2480  1  0.234820  0.392200  0.452140  1.0  -0.427
  N  N2481  1  0.194890  0.515590  0.757670  1.0  -0.4498
  N  N2482  1  0.260700  0.469440  0.709640  1.0  -0.3238
  N  N2483  1  0.039550  0.493470  0.760350  1.0  -0.3332
  N  N2484  1  0.168370  0.471190  0.709270  1.0  -0.4326
  N  N2485  1  0.198220  0.475740  0.646960  1.0  -0.4078
  N  N2486  1  0.134520  0.488420  0.673000  1.0  -0.4352
  N  N2487  1  0.196340  0.505880  0.546280  1.0  -0.3032
  N  N2488  1  0.279420  0.466000  0.535700  1.0  -0.3937
  N  N2489  1  0.243300  0.454220  0.506560  1.0  -0.3219
  N  N2490  1  0.234820  0.452140  0.420840  1.0  -0.4273
  N  N2491  1  0.757670  0.031850  0.194890  1.0  -0.4462
  N  N2492  1  0.709640  0.060220  0.260700  1.0  -0.3221
  N  N2493  1  0.760350  0.206630  0.039550  1.0  -0.3348
  N  N2494  1  0.709270  0.151170  0.168370  1.0  -0.4319
  N  N2495  1  0.646960  0.179080  0.198220  1.0  -0.407
  N  N2496  1  0.673000  0.204060  0.134520  1.0  -0.4343
  N  N2497  1  0.546280  0.251500  0.196340  1.0  -0.3054
  N  N2498  1  0.535700  0.218880  0.279420  1.0  -0.3943
  N  N2499  1  0.506560  0.295920  0.243300  1.0  -0.3226
  N  N2500  1  0.420840  0.392200  0.234820  1.0  -0.4289
  N  N2501  1  0.031850  0.757670  0.515590  1.0  -0.4503
  N  N2502  1  0.060220  0.709640  0.469440  1.0  -0.3212
  N  N2503  1  0.206630  0.760350  0.493470  1.0  -0.3327
  N  N2504  1  0.151170  0.709270  0.471190  1.0  -0.4321
  N  N2505  1  0.179080  0.646960  0.475740  1.0  -0.4079
  N  N2506  1  0.204060  0.673000  0.488420  1.0  -0.4343
  N  N2507  1  0.251500  0.546280  0.505880  1.0  -0.306
  N  N2508  1  0.218880  0.535700  0.466000  1.0  -0.3939
  N  N2509  1  0.295920  0.506560  0.454220  1.0  -0.3215
  N  N2510  1  0.392200  0.420840  0.452140  1.0  -0.4281
  N  N2511  1  0.515590  0.194890  0.031850  1.0  -0.4496
  N  N2512  1  0.469440  0.260700  0.060220  1.0  -0.3246
  N  N2513  1  0.493470  0.039550  0.206630  1.0  -0.336
  N  N2514  1  0.471190  0.168370  0.151170  1.0  -0.4321
  N  N2515  1  0.475740  0.198220  0.179080  1.0  -0.4054
  N  N2516  1  0.488420  0.134520  0.204060  1.0  -0.4312
  N  N2517  1  0.505880  0.196340  0.251500  1.0  -0.3046
  N  N2518  1  0.466000  0.279420  0.218880  1.0  -0.3946
  N  N2519  1  0.454220  0.243300  0.295920  1.0  -0.3206
  N  N2520  1  0.452140  0.234820  0.392200  1.0  -0.4306
  N  N2521  1  0.742330  0.305110  0.468150  1.0  -0.4481
  N  N2522  1  0.790360  0.239300  0.439780  1.0  -0.3214
  N  N2523  1  0.739650  0.460450  0.293370  1.0  -0.3351
  N  N2524  1  0.790730  0.331630  0.348830  1.0  -0.4333
  N  N2525  1  0.853040  0.301780  0.320920  1.0  -0.404
  N  N2526  1  0.827000  0.365480  0.295940  1.0  -0.4321
  N  N2527  1  0.953720  0.303660  0.248500  1.0  -0.3038
  N  N2528  1  0.964300  0.220580  0.281120  1.0  -0.3953
  N  N2529  1  0.993440  0.256700  0.204080  1.0  -0.3242
  N  N2530  1  0.079160  0.265180  0.107800  1.0  -0.4305
  N  N2531  1  0.305110  0.742330  0.984410  1.0  -0.4504
  N  N2532  1  0.239300  0.790360  0.030560  1.0  -0.325
  N  N2533  1  0.460450  0.739650  0.006530  1.0  -0.3318
  N  N2534  1  0.331630  0.790730  0.028810  1.0  -0.4315
  N  N2535  1  0.301780  0.853040  0.024260  1.0  -0.4058
  N  N2536  1  0.365480  0.827000  0.011580  1.0  -0.4357
  N  N2537  1  0.303660  0.953720  0.994120  1.0  -0.3039
  N  N2538  1  0.220580  0.964300  0.034000  1.0  -0.3972
  N  N2539  1  0.256700  0.993440  0.045780  1.0  -0.323
  N  N2540  1  0.265180  0.079160  0.047860  1.0  -0.4292
  N  N2541  1  0.984410  0.468150  0.305110  1.0  -0.4493
  N  N2542  1  0.030560  0.439780  0.239300  1.0  -0.3233
  N  N2543  1  0.006530  0.293370  0.460450  1.0  -0.3341
  N  N2544  1  0.028810  0.348830  0.331630  1.0  -0.4304
  N  N2545  1  0.024260  0.320920  0.301780  1.0  -0.409
  N  N2546  1  0.011580  0.295940  0.365480  1.0  -0.4322
  N  N2547  1  0.994120  0.248500  0.303660  1.0  -0.3078
  N  N2548  1  0.034000  0.281120  0.220580  1.0  -0.3961
  N  N2549  1  0.045780  0.204080  0.256700  1.0  -0.3226
  N  N2550  1  0.047860  0.107800  0.265180  1.0  -0.4276
  N  N2551  1  0.468150  0.984410  0.742330  1.0  -0.4489
  N  N2552  1  0.439780  0.030560  0.790360  1.0  -0.3226
  N  N2553  1  0.293370  0.006530  0.739650  1.0  -0.3318
  N  N2554  1  0.348830  0.028810  0.790730  1.0  -0.431
  N  N2555  1  0.320920  0.024260  0.853040  1.0  -0.4089
  N  N2556  1  0.295940  0.011580  0.827000  1.0  -0.4353
  N  N2557  1  0.248500  0.994120  0.953720  1.0  -0.3076
  N  N2558  1  0.281120  0.034000  0.964300  1.0  -0.3971
  N  N2559  1  0.204080  0.045780  0.993440  1.0  -0.3226
  N  N2560  1  0.107800  0.047860  0.079160  1.0  -0.4284
  N  N2561  1  0.984410  0.742330  0.468150  1.0  -0.4488
  N  N2562  1  0.030560  0.790360  0.439780  1.0  -0.3216
  N  N2563  1  0.006530  0.739650  0.293370  1.0  -0.3355
  N  N2564  1  0.028810  0.790730  0.348830  1.0  -0.4319
  N  N2565  1  0.024260  0.853040  0.320920  1.0  -0.4047
  N  N2566  1  0.011580  0.827000  0.295940  1.0  -0.4348
  N  N2567  1  0.994120  0.953720  0.248500  1.0  -0.3064
  N  N2568  1  0.034000  0.964300  0.281120  1.0  -0.3939
  N  N2569  1  0.045780  0.993440  0.204080  1.0  -0.3219
  N  N2570  1  0.047860  0.079160  0.107800  1.0  -0.4281
  N  N2571  1  0.468150  0.305110  0.984410  1.0  -0.4499
  N  N2572  1  0.439780  0.239300  0.030560  1.0  -0.3196
  N  N2573  1  0.293370  0.460450  0.006530  1.0  -0.333
  N  N2574  1  0.348830  0.331630  0.028810  1.0  -0.4305
  N  N2575  1  0.320920  0.301780  0.024260  1.0  -0.4055
  N  N2576  1  0.295940  0.365480  0.011580  1.0  -0.4321
  N  N2577  1  0.248500  0.303660  0.994120  1.0  -0.3067
  N  N2578  1  0.281120  0.220580  0.034000  1.0  -0.3921
  N  N2579  1  0.204080  0.256700  0.045780  1.0  -0.3221
  N  N2580  1  0.107800  0.265180  0.047860  1.0  -0.4302
  N  N2581  1  0.742330  0.984410  0.305110  1.0  -0.4483
  N  N2582  1  0.790360  0.030560  0.239300  1.0  -0.3199
  N  N2583  1  0.739650  0.006530  0.460450  1.0  -0.3353
  N  N2584  1  0.790730  0.028810  0.331630  1.0  -0.4323
  N  N2585  1  0.853040  0.024260  0.301780  1.0  -0.408
  N  N2586  1  0.827000  0.011580  0.365480  1.0  -0.4334
  N  N2587  1  0.953720  0.994120  0.303660  1.0  -0.3045
  N  N2588  1  0.964300  0.034000  0.220580  1.0  -0.3954
  N  N2589  1  0.993440  0.045780  0.256700  1.0  -0.3246
  N  N2590  1  0.079160  0.047860  0.265180  1.0  -0.428
  N  N2591  1  0.305110  0.468150  0.742330  1.0  -0.4502
  N  N2592  1  0.239300  0.439780  0.790360  1.0  -0.3219
  N  N2593  1  0.460450  0.293370  0.739650  1.0  -0.333
  N  N2594  1  0.331630  0.348830  0.790730  1.0  -0.4322
  N  N2595  1  0.301780  0.320920  0.853040  1.0  -0.4065
  N  N2596  1  0.365480  0.295940  0.827000  1.0  -0.4321
  N  N2597  1  0.303660  0.248500  0.953720  1.0  -0.3053
  N  N2598  1  0.220580  0.281120  0.964300  1.0  -0.3954
  N  N2599  1  0.256700  0.204080  0.993440  1.0  -0.3224
  N  N2600  1  0.265180  0.107800  0.079160  1.0  -0.4268
  N  N2601  1  0.305110  0.984410  0.468150  1.0  -0.451
  N  N2602  1  0.239300  0.030560  0.439780  1.0  -0.3239
  N  N2603  1  0.460450  0.006530  0.293370  1.0  -0.3335
  N  N2604  1  0.331630  0.028810  0.348830  1.0  -0.4327
  N  N2605  1  0.301780  0.024260  0.320920  1.0  -0.4065
  N  N2606  1  0.365480  0.011580  0.295940  1.0  -0.4352
  N  N2607  1  0.303660  0.994120  0.248500  1.0  -0.3036
  N  N2608  1  0.220580  0.034000  0.281120  1.0  -0.3951
  N  N2609  1  0.256700  0.045780  0.204080  1.0  -0.3231
  N  N2610  1  0.265180  0.047860  0.107800  1.0  -0.4275
  N  N2611  1  0.742330  0.468150  0.984410  1.0  -0.4473
  N  N2612  1  0.790360  0.439780  0.030560  1.0  -0.3225
  N  N2613  1  0.739650  0.293370  0.006530  1.0  -0.3351
  N  N2614  1  0.790730  0.348830  0.028810  1.0  -0.4318
  N  N2615  1  0.853040  0.320920  0.024260  1.0  -0.408
  N  N2616  1  0.827000  0.295940  0.011580  1.0  -0.4332
  N  N2617  1  0.953720  0.248500  0.994120  1.0  -0.3051
  N  N2618  1  0.964300  0.281120  0.034000  1.0  -0.3962
  N  N2619  1  0.993440  0.204080  0.045780  1.0  -0.3218
  N  N2620  1  0.079160  0.107800  0.047860  1.0  -0.428
  N  N2621  1  0.468150  0.742330  0.305110  1.0  -0.4511
  N  N2622  1  0.439780  0.790360  0.239300  1.0  -0.3221
  N  N2623  1  0.293370  0.739650  0.460450  1.0  -0.3325
  N  N2624  1  0.348830  0.790730  0.331630  1.0  -0.4333
  N  N2625  1  0.320920  0.853040  0.301780  1.0  -0.4062
  N  N2626  1  0.295940  0.827000  0.365480  1.0  -0.434
  N  N2627  1  0.248500  0.953720  0.303660  1.0  -0.3055
  N  N2628  1  0.281120  0.964300  0.220580  1.0  -0.3927
  N  N2629  1  0.204080  0.993440  0.256700  1.0  -0.3208
  N  N2630  1  0.107800  0.079160  0.265180  1.0  -0.4295
  N  N2631  1  0.984410  0.305110  0.742330  1.0  -0.4506
  N  N2632  1  0.030560  0.239300  0.790360  1.0  -0.3246
  N  N2633  1  0.006530  0.460450  0.739650  1.0  -0.3362
  N  N2634  1  0.028810  0.331630  0.790730  1.0  -0.4325
  N  N2635  1  0.024260  0.301780  0.853040  1.0  -0.4056
  N  N2636  1  0.011580  0.365480  0.827000  1.0  -0.4326
  N  N2637  1  0.994120  0.303660  0.953720  1.0  -0.3052
  N  N2638  1  0.034000  0.220580  0.964300  1.0  -0.3937
  N  N2639  1  0.045780  0.256700  0.993440  1.0  -0.3211
  N  N2640  1  0.047860  0.265180  0.079160  1.0  -0.4282
