# generated using pymatgen
data_CoH16C26(SN5)2
_symmetry_space_group_name_H-M   'P 1'
_cell_length_a   45.39410000
_cell_length_b   45.39410000
_cell_length_c   45.39410000
_cell_angle_alpha   60.00000000
_cell_angle_beta   60.00000000
_cell_angle_gamma   60.00000000
_symmetry_Int_Tables_number   1
_chemical_formula_structural   CoH16C26(SN5)2
_chemical_formula_sum   'Co48 H768 C1248 S96 N480'
_cell_volume   66142.89998178
_cell_formula_units_Z   48
loop_
 _symmetry_equiv_pos_site_id
 _symmetry_equiv_pos_as_xyz
  1  'x, y, z'
loop_
 _atom_site_type_symbol
 _atom_site_label
 _atom_site_symmetry_multiplicity
 _atom_site_fract_x
 _atom_site_fract_y
 _atom_site_fract_z
 _atom_site_occupancy
 _atom_site_charge
  Co  Co1  1  0.250000  0.487020  0.750000  1.0  0.74
  Co  Co2  1  0.487020  0.250000  0.012980  1.0  0.7411
  Co  Co3  1  0.750000  0.012980  0.250000  1.0  0.7397
  Co  Co4  1  0.012980  0.750000  0.487020  1.0  0.7396
  Co  Co5  1  0.750000  0.250000  0.487020  1.0  0.7397
  Co  Co6  1  0.012980  0.487020  0.250000  1.0  0.7398
  Co  Co7  1  0.250000  0.750000  0.012980  1.0  0.7397
  Co  Co8  1  0.487020  0.012980  0.750000  1.0  0.739
  Co  Co9  1  0.487020  0.750000  0.250000  1.0  0.7406
  Co  Co10  1  0.250000  0.012980  0.487020  1.0  0.7391
  Co  Co11  1  0.012980  0.250000  0.750000  1.0  0.7401
  Co  Co12  1  0.750000  0.487020  0.012980  1.0  0.7406
  Co  Co13  1  0.750000  0.512980  0.250000  1.0  0.7397
  Co  Co14  1  0.512980  0.750000  0.987020  1.0  0.7396
  Co  Co15  1  0.250000  0.987020  0.750000  1.0  0.74
  Co  Co16  1  0.987020  0.250000  0.512980  1.0  0.7411
  Co  Co17  1  0.250000  0.750000  0.512980  1.0  0.7397
  Co  Co18  1  0.987020  0.512980  0.750000  1.0  0.739
  Co  Co19  1  0.750000  0.250000  0.987020  1.0  0.7397
  Co  Co20  1  0.512980  0.987020  0.250000  1.0  0.7398
  Co  Co21  1  0.512980  0.250000  0.750000  1.0  0.7401
  Co  Co22  1  0.750000  0.987020  0.512980  1.0  0.7406
  Co  Co23  1  0.987020  0.750000  0.250000  1.0  0.7406
  Co  Co24  1  0.250000  0.512980  0.987020  1.0  0.7391
  Co  Co25  1  0.248120  0.501880  0.501880  1.0  0.6291
  Co  Co26  1  0.501880  0.248120  0.248120  1.0  0.6275
  Co  Co27  1  0.501880  0.248120  0.501880  1.0  0.6276
  Co  Co28  1  0.248120  0.501880  0.248120  1.0  0.6289
  Co  Co29  1  0.501880  0.501880  0.248120  1.0  0.6267
  Co  Co30  1  0.248120  0.248120  0.501880  1.0  0.6306
  Co  Co31  1  0.251880  0.998120  0.251880  1.0  0.6276
  Co  Co32  1  0.998120  0.251880  0.998120  1.0  0.6289
  Co  Co33  1  0.998120  0.251880  0.251880  1.0  0.6291
  Co  Co34  1  0.251880  0.998120  0.998120  1.0  0.6275
  Co  Co35  1  0.998120  0.998120  0.251880  1.0  0.6306
  Co  Co36  1  0.251880  0.251880  0.998120  1.0  0.6267
  Co  Co37  1  0.751880  0.498120  0.498120  1.0  0.6275
  Co  Co38  1  0.498120  0.751880  0.751880  1.0  0.6291
  Co  Co39  1  0.498120  0.751880  0.498120  1.0  0.6289
  Co  Co40  1  0.751880  0.498120  0.751880  1.0  0.6276
  Co  Co41  1  0.498120  0.498120  0.751880  1.0  0.6306
  Co  Co42  1  0.751880  0.751880  0.498120  1.0  0.6267
  Co  Co43  1  0.748120  0.001880  0.748120  1.0  0.6289
  Co  Co44  1  0.001880  0.748120  0.001880  1.0  0.6276
  Co  Co45  1  0.001880  0.748120  0.748120  1.0  0.6275
  Co  Co46  1  0.748120  0.001880  0.001880  1.0  0.6291
  Co  Co47  1  0.001880  0.001880  0.748120  1.0  0.6267
  Co  Co48  1  0.748120  0.748120  0.001880  1.0  0.6306
  H  H49  1  0.205700  0.481500  0.723100  1.0  0.0878
  H  H50  1  0.262600  0.446600  0.637800  1.0  0.118
  H  H51  1  0.315700  0.432500  0.646100  1.0  0.1202
  H  H52  1  0.311900  0.446700  0.690700  1.0  0.0816
  H  H53  1  0.013500  0.504700  0.806100  1.0  0.0903
  H  H54  1  0.063700  0.501500  0.810500  1.0  0.1169
  H  H55  1  0.120000  0.491200  0.764200  1.0  0.1143
  H  H56  1  0.069300  0.493900  0.710100  1.0  0.0845
  H  H57  1  0.106600  0.519000  0.618800  1.0  0.1163
  H  H58  1  0.110000  0.532600  0.560400  1.0  0.1112
  H  H59  1  0.165300  0.525900  0.514700  1.0  0.0902
  H  H60  1  0.275000  0.558000  0.430000  1.0  0.086
  H  H61  1  0.326300  0.566900  0.382300  1.0  0.1197
  H  H62  1  0.381400  0.520200  0.379400  1.0  0.118
  H  H63  1  0.215000  0.492400  0.581600  1.0  0.0906
  H  H64  1  0.329500  0.456700  0.471700  1.0  0.0866
  H  H65  1  0.481500  0.205700  0.089700  1.0  0.0889
  H  H66  1  0.446600  0.262600  0.153000  1.0  0.1178
  H  H67  1  0.432500  0.315700  0.105700  1.0  0.1216
  H  H68  1  0.446700  0.311900  0.050700  1.0  0.0823
  H  H69  1  0.504700  0.013500  0.175700  1.0  0.0906
  H  H70  1  0.501500  0.063700  0.124300  1.0  0.1171
  H  H71  1  0.491200  0.120000  0.124600  1.0  0.1137
  H  H72  1  0.493900  0.069300  0.226700  1.0  0.0845
  H  H73  1  0.519000  0.106600  0.255600  1.0  0.1162
  H  H74  1  0.532600  0.110000  0.297000  1.0  0.1129
  H  H75  1  0.525900  0.165300  0.294100  1.0  0.0937
  H  H76  1  0.558000  0.275000  0.237000  1.0  0.0853
  H  H77  1  0.566900  0.326300  0.224500  1.0  0.118
  H  H78  1  0.520200  0.381400  0.219000  1.0  0.1166
  H  H79  1  0.492400  0.215000  0.211000  1.0  0.0908
  H  H80  1  0.456700  0.329500  0.242100  1.0  0.0854
  H  H81  1  0.723100  0.089700  0.205700  1.0  0.0889
  H  H82  1  0.637800  0.153000  0.262600  1.0  0.118
  H  H83  1  0.646100  0.105700  0.315700  1.0  0.1194
  H  H84  1  0.690700  0.050700  0.311900  1.0  0.0832
  H  H85  1  0.806100  0.175700  0.013500  1.0  0.0901
  H  H86  1  0.810500  0.124300  0.063700  1.0  0.1208
  H  H87  1  0.764200  0.124600  0.120000  1.0  0.1129
  H  H88  1  0.710100  0.226700  0.069300  1.0  0.0829
  H  H89  1  0.618800  0.255600  0.106600  1.0  0.1166
  H  H90  1  0.560400  0.297000  0.110000  1.0  0.1124
  H  H91  1  0.514700  0.294100  0.165300  1.0  0.0953
  H  H92  1  0.430000  0.237000  0.275000  1.0  0.0871
  H  H93  1  0.382300  0.224500  0.326300  1.0  0.1181
  H  H94  1  0.379400  0.219000  0.381400  1.0  0.1168
  H  H95  1  0.581600  0.211000  0.215000  1.0  0.0904
  H  H96  1  0.471700  0.242100  0.329500  1.0  0.0862
  H  H97  1  0.089700  0.723100  0.481500  1.0  0.0895
  H  H98  1  0.153000  0.637800  0.446600  1.0  0.1178
  H  H99  1  0.105700  0.646100  0.432500  1.0  0.1189
  H  H100  1  0.050700  0.690700  0.446700  1.0  0.0828
  H  H101  1  0.175700  0.806100  0.504700  1.0  0.0894
  H  H102  1  0.124300  0.810500  0.501500  1.0  0.1189
  H  H103  1  0.124600  0.764200  0.491200  1.0  0.1132
  H  H104  1  0.226700  0.710100  0.493900  1.0  0.0827
  H  H105  1  0.255600  0.618800  0.519000  1.0  0.1165
  H  H106  1  0.297000  0.560400  0.532600  1.0  0.1115
  H  H107  1  0.294100  0.514700  0.525900  1.0  0.093
  H  H108  1  0.237000  0.430000  0.558000  1.0  0.0869
  H  H109  1  0.224500  0.382300  0.566900  1.0  0.1204
  H  H110  1  0.219000  0.379400  0.520200  1.0  0.1165
  H  H111  1  0.211000  0.581600  0.492400  1.0  0.0907
  H  H112  1  0.242100  0.471700  0.456700  1.0  0.0861
  H  H113  1  0.723100  0.205700  0.481500  1.0  0.0902
  H  H114  1  0.637800  0.262600  0.446600  1.0  0.118
  H  H115  1  0.646100  0.315700  0.432500  1.0  0.1228
  H  H116  1  0.690700  0.311900  0.446700  1.0  0.0827
  H  H117  1  0.806100  0.013500  0.504700  1.0  0.0899
  H  H118  1  0.810500  0.063700  0.501500  1.0  0.1171
  H  H119  1  0.764200  0.120000  0.491200  1.0  0.1129
  H  H120  1  0.710100  0.069300  0.493900  1.0  0.0826
  H  H121  1  0.618800  0.106600  0.519000  1.0  0.1168
  H  H122  1  0.560400  0.110000  0.532600  1.0  0.1129
  H  H123  1  0.514700  0.165300  0.525900  1.0  0.0918
  H  H124  1  0.430000  0.275000  0.558000  1.0  0.0862
  H  H125  1  0.382300  0.326300  0.566900  1.0  0.118
  H  H126  1  0.379400  0.381400  0.520200  1.0  0.1175
  H  H127  1  0.581600  0.215000  0.492400  1.0  0.0902
  H  H128  1  0.471700  0.329500  0.456700  1.0  0.0856
  H  H129  1  0.089700  0.481500  0.205700  1.0  0.091
  H  H130  1  0.153000  0.446600  0.262600  1.0  0.1178
  H  H131  1  0.105700  0.432500  0.315700  1.0  0.1188
  H  H132  1  0.050700  0.446700  0.311900  1.0  0.0827
  H  H133  1  0.175700  0.504700  0.013500  1.0  0.0913
  H  H134  1  0.124300  0.501500  0.063700  1.0  0.1189
  H  H135  1  0.124600  0.491200  0.120000  1.0  0.1133
  H  H136  1  0.226700  0.493900  0.069300  1.0  0.0831
  H  H137  1  0.255600  0.519000  0.106600  1.0  0.1171
  H  H138  1  0.297000  0.532600  0.110000  1.0  0.112
  H  H139  1  0.294100  0.525900  0.165300  1.0  0.0904
  H  H140  1  0.237000  0.558000  0.275000  1.0  0.085
  H  H141  1  0.224500  0.566900  0.326300  1.0  0.1199
  H  H142  1  0.219000  0.520200  0.381400  1.0  0.1181
  H  H143  1  0.211000  0.492400  0.215000  1.0  0.0891
  H  H144  1  0.242100  0.456700  0.329500  1.0  0.0858
  H  H145  1  0.205700  0.723100  0.089700  1.0  0.0891
  H  H146  1  0.262600  0.637800  0.153000  1.0  0.1172
  H  H147  1  0.315700  0.646100  0.105700  1.0  0.12
  H  H148  1  0.311900  0.690700  0.050700  1.0  0.0825
  H  H149  1  0.013500  0.806100  0.175700  1.0  0.0903
  H  H150  1  0.063700  0.810500  0.124300  1.0  0.1199
  H  H151  1  0.120000  0.764200  0.124600  1.0  0.1133
  H  H152  1  0.069300  0.710100  0.226700  1.0  0.0823
  H  H153  1  0.106600  0.618800  0.255600  1.0  0.1164
  H  H154  1  0.110000  0.560400  0.297000  1.0  0.1085
  H  H155  1  0.165300  0.514700  0.294100  1.0  0.0936
  H  H156  1  0.275000  0.430000  0.237000  1.0  0.0861
  H  H157  1  0.326300  0.382300  0.224500  1.0  0.1186
  H  H158  1  0.381400  0.379400  0.219000  1.0  0.1185
  H  H159  1  0.215000  0.581600  0.211000  1.0  0.0907
  H  H160  1  0.329500  0.471700  0.242100  1.0  0.0862
  H  H161  1  0.481500  0.089700  0.723100  1.0  0.0906
  H  H162  1  0.446600  0.153000  0.637800  1.0  0.1164
  H  H163  1  0.432500  0.105700  0.646100  1.0  0.1189
  H  H164  1  0.446700  0.050700  0.690700  1.0  0.0832
  H  H165  1  0.504700  0.175700  0.806100  1.0  0.0916
  H  H166  1  0.501500  0.124300  0.810500  1.0  0.1189
  H  H167  1  0.491200  0.124600  0.764200  1.0  0.1135
  H  H168  1  0.493900  0.226700  0.710100  1.0  0.0821
  H  H169  1  0.519000  0.255600  0.618800  1.0  0.1175
  H  H170  1  0.532600  0.297000  0.560400  1.0  0.1117
  H  H171  1  0.525900  0.294100  0.514700  1.0  0.0922
  H  H172  1  0.558000  0.237000  0.430000  1.0  0.0866
  H  H173  1  0.566900  0.224500  0.382300  1.0  0.1186
  H  H174  1  0.520200  0.219000  0.379400  1.0  0.1179
  H  H175  1  0.492400  0.211000  0.581600  1.0  0.0903
  H  H176  1  0.456700  0.242100  0.471700  1.0  0.0842
  H  H177  1  0.481500  0.723100  0.205700  1.0  0.0886
  H  H178  1  0.446600  0.637800  0.262600  1.0  0.1169
  H  H179  1  0.432500  0.646100  0.315700  1.0  0.1207
  H  H180  1  0.446700  0.690700  0.311900  1.0  0.084
  H  H181  1  0.504700  0.806100  0.013500  1.0  0.0899
  H  H182  1  0.501500  0.810500  0.063700  1.0  0.1187
  H  H183  1  0.491200  0.764200  0.120000  1.0  0.1141
  H  H184  1  0.493900  0.710100  0.069300  1.0  0.0818
  H  H185  1  0.519000  0.618800  0.106600  1.0  0.1165
  H  H186  1  0.532600  0.560400  0.110000  1.0  0.1102
  H  H187  1  0.525900  0.514700  0.165300  1.0  0.0951
  H  H188  1  0.558000  0.430000  0.275000  1.0  0.0854
  H  H189  1  0.566900  0.382300  0.326300  1.0  0.1191
  H  H190  1  0.520200  0.379400  0.381400  1.0  0.1167
  H  H191  1  0.492400  0.581600  0.215000  1.0  0.0917
  H  H192  1  0.456700  0.471700  0.329500  1.0  0.0846
  H  H193  1  0.205700  0.089700  0.481500  1.0  0.088
  H  H194  1  0.262600  0.153000  0.446600  1.0  0.1165
  H  H195  1  0.315700  0.105700  0.432500  1.0  0.1185
  H  H196  1  0.311900  0.050700  0.446700  1.0  0.0828
  H  H197  1  0.013500  0.175700  0.504700  1.0  0.0902
  H  H198  1  0.063700  0.124300  0.501500  1.0  0.1211
  H  H199  1  0.120000  0.124600  0.491200  1.0  0.1145
  H  H200  1  0.069300  0.226700  0.493900  1.0  0.0813
  H  H201  1  0.106600  0.255600  0.519000  1.0  0.1168
  H  H202  1  0.110000  0.297000  0.532600  1.0  0.1117
  H  H203  1  0.165300  0.294100  0.525900  1.0  0.0913
  H  H204  1  0.275000  0.237000  0.558000  1.0  0.0872
  H  H205  1  0.326300  0.224500  0.566900  1.0  0.1164
  H  H206  1  0.381400  0.219000  0.520200  1.0  0.1178
  H  H207  1  0.215000  0.211000  0.492400  1.0  0.0909
  H  H208  1  0.329500  0.242100  0.456700  1.0  0.0872
  H  H209  1  0.089700  0.205700  0.723100  1.0  0.0903
  H  H210  1  0.153000  0.262600  0.637800  1.0  0.1173
  H  H211  1  0.105700  0.315700  0.646100  1.0  0.1212
  H  H212  1  0.050700  0.311900  0.690700  1.0  0.0828
  H  H213  1  0.175700  0.013500  0.806100  1.0  0.0893
  H  H214  1  0.124300  0.063700  0.810500  1.0  0.1201
  H  H215  1  0.124600  0.120000  0.764200  1.0  0.1138
  H  H216  1  0.226700  0.069300  0.710100  1.0  0.0823
  H  H217  1  0.255600  0.106600  0.618800  1.0  0.1165
  H  H218  1  0.297000  0.110000  0.560400  1.0  0.1127
  H  H219  1  0.294100  0.165300  0.514700  1.0  0.0917
  H  H220  1  0.237000  0.275000  0.430000  1.0  0.0875
  H  H221  1  0.224500  0.326300  0.382300  1.0  0.1161
  H  H222  1  0.219000  0.381400  0.379400  1.0  0.1172
  H  H223  1  0.211000  0.215000  0.581600  1.0  0.0912
  H  H224  1  0.242100  0.329500  0.471700  1.0  0.0865
  H  H225  1  0.723100  0.481500  0.089700  1.0  0.0885
  H  H226  1  0.637800  0.446600  0.153000  1.0  0.1175
  H  H227  1  0.646100  0.432500  0.105700  1.0  0.1202
  H  H228  1  0.690700  0.446700  0.050700  1.0  0.0844
  H  H229  1  0.806100  0.504700  0.175700  1.0  0.0923
  H  H230  1  0.810500  0.501500  0.124300  1.0  0.1186
  H  H231  1  0.764200  0.491200  0.124600  1.0  0.1143
  H  H232  1  0.710100  0.493900  0.226700  1.0  0.0816
  H  H233  1  0.618800  0.519000  0.255600  1.0  0.1169
  H  H234  1  0.560400  0.532600  0.297000  1.0  0.1104
  H  H235  1  0.514700  0.525900  0.294100  1.0  0.0953
  H  H236  1  0.430000  0.558000  0.237000  1.0  0.0852
  H  H237  1  0.382300  0.566900  0.224500  1.0  0.1209
  H  H238  1  0.379400  0.520200  0.219000  1.0  0.1174
  H  H239  1  0.581600  0.492400  0.211000  1.0  0.0929
  H  H240  1  0.471700  0.456700  0.242100  1.0  0.0861
  H  H241  1  0.294300  0.018500  0.410300  1.0  0.0884
  H  H242  1  0.237400  0.053400  0.347000  1.0  0.1179
  H  H243  1  0.184300  0.067500  0.394300  1.0  0.1202
  H  H244  1  0.188100  0.053300  0.449300  1.0  0.0821
  H  H245  1  0.486500  0.995300  0.324300  1.0  0.0907
  H  H246  1  0.436300  0.998500  0.375700  1.0  0.118
  H  H247  1  0.380000  0.008800  0.375400  1.0  0.1138
  H  H248  1  0.430700  0.006100  0.273300  1.0  0.0842
  H  H249  1  0.393400  0.981000  0.244400  1.0  0.1165
  H  H250  1  0.390000  0.967400  0.203000  1.0  0.1103
  H  H251  1  0.334700  0.974100  0.205900  1.0  0.0927
  H  H252  1  0.225000  0.942000  0.263000  1.0  0.0854
  H  H253  1  0.173700  0.933100  0.275500  1.0  0.1206
  H  H254  1  0.118600  0.979800  0.281000  1.0  0.118
  H  H255  1  0.285000  0.007600  0.289000  1.0  0.0905
  H  H256  1  0.170500  0.043300  0.257900  1.0  0.0869
  H  H257  1  0.018500  0.294300  0.776900  1.0  0.0885
  H  H258  1  0.053400  0.237400  0.862200  1.0  0.1179
  H  H259  1  0.067500  0.184300  0.853900  1.0  0.1225
  H  H260  1  0.053300  0.188100  0.809300  1.0  0.0825
  H  H261  1  0.995300  0.486500  0.693900  1.0  0.0913
  H  H262  1  0.998500  0.436300  0.689500  1.0  0.1181
  H  H263  1  0.008800  0.380000  0.735800  1.0  0.114
  H  H264  1  0.006100  0.430700  0.789900  1.0  0.0842
  H  H265  1  0.981000  0.393400  0.881200  1.0  0.1162
  H  H266  1  0.967400  0.390000  0.939600  1.0  0.1099
  H  H267  1  0.974100  0.334700  0.985300  1.0  0.0953
  H  H268  1  0.942000  0.225000  0.070000  1.0  0.0858
  H  H269  1  0.933100  0.173700  0.117700  1.0  0.1168
  H  H270  1  0.979800  0.118600  0.120600  1.0  0.1165
  H  H271  1  0.007600  0.285000  0.918400  1.0  0.0909
  H  H272  1  0.043300  0.170500  0.028300  1.0  0.0854
  H  H273  1  0.776900  0.410300  0.018500  1.0  0.0891
  H  H274  1  0.862200  0.347000  0.053400  1.0  0.1177
  H  H275  1  0.853900  0.394300  0.067500  1.0  0.1203
  H  H276  1  0.809300  0.449300  0.053300  1.0  0.0828
  H  H277  1  0.693900  0.324300  0.995300  1.0  0.0902
  H  H278  1  0.689500  0.375700  0.998500  1.0  0.1198
  H  H279  1  0.735800  0.375400  0.008800  1.0  0.1127
  H  H280  1  0.789900  0.273300  0.006100  1.0  0.083
  H  H281  1  0.881200  0.244400  0.981000  1.0  0.1165
  H  H282  1  0.939600  0.203000  0.967400  1.0  0.1131
  H  H283  1  0.985300  0.205900  0.974100  1.0  0.0943
  H  H284  1  0.070000  0.263000  0.942000  1.0  0.087
  H  H285  1  0.117700  0.275500  0.933100  1.0  0.1181
  H  H286  1  0.120600  0.281000  0.979800  1.0  0.1165
  H  H287  1  0.918400  0.289000  0.007600  1.0  0.0903
  H  H288  1  0.028300  0.257900  0.043300  1.0  0.086
  H  H289  1  0.410300  0.776900  0.294300  1.0  0.09
  H  H290  1  0.347000  0.862200  0.237400  1.0  0.1177
  H  H291  1  0.394300  0.853900  0.184300  1.0  0.1189
  H  H292  1  0.449300  0.809300  0.188100  1.0  0.0819
  H  H293  1  0.324300  0.693900  0.486500  1.0  0.0903
  H  H294  1  0.375700  0.689500  0.436300  1.0  0.12
  H  H295  1  0.375400  0.735800  0.380000  1.0  0.1131
  H  H296  1  0.273300  0.789900  0.430700  1.0  0.0825
  H  H297  1  0.244400  0.881200  0.393400  1.0  0.1174
  H  H298  1  0.203000  0.939600  0.390000  1.0  0.1102
  H  H299  1  0.205900  0.985300  0.334700  1.0  0.0922
  H  H300  1  0.263000  0.070000  0.225000  1.0  0.0868
  H  H301  1  0.275500  0.117700  0.173700  1.0  0.1184
  H  H302  1  0.281000  0.120600  0.118600  1.0  0.117
  H  H303  1  0.289000  0.918400  0.285000  1.0  0.0905
  H  H304  1  0.257900  0.028300  0.170500  1.0  0.0862
  H  H305  1  0.776900  0.294300  0.410300  1.0  0.0893
  H  H306  1  0.862200  0.237400  0.347000  1.0  0.1177
  H  H307  1  0.853900  0.184300  0.394300  1.0  0.1236
  H  H308  1  0.809300  0.188100  0.449300  1.0  0.0829
  H  H309  1  0.693900  0.486500  0.324300  1.0  0.0903
  H  H310  1  0.689500  0.436300  0.375700  1.0  0.1192
  H  H311  1  0.735800  0.380000  0.375400  1.0  0.1134
  H  H312  1  0.789900  0.430700  0.273300  1.0  0.0821
  H  H313  1  0.881200  0.393400  0.244400  1.0  0.1171
  H  H314  1  0.939600  0.390000  0.203000  1.0  0.1121
  H  H315  1  0.985300  0.334700  0.205900  1.0  0.0934
  H  H316  1  0.070000  0.225000  0.263000  1.0  0.0858
  H  H317  1  0.117700  0.173700  0.275500  1.0  0.118
  H  H318  1  0.120600  0.118600  0.281000  1.0  0.1176
  H  H319  1  0.918400  0.285000  0.289000  1.0  0.0906
  H  H320  1  0.028300  0.170500  0.257900  1.0  0.085
  H  H321  1  0.410300  0.018500  0.776900  1.0  0.0909
  H  H322  1  0.347000  0.053400  0.862200  1.0  0.1178
  H  H323  1  0.394300  0.067500  0.853900  1.0  0.1194
  H  H324  1  0.449300  0.053300  0.809300  1.0  0.0821
  H  H325  1  0.324300  0.995300  0.693900  1.0  0.0904
  H  H326  1  0.375700  0.998500  0.689500  1.0  0.1196
  H  H327  1  0.375400  0.008800  0.735800  1.0  0.1135
  H  H328  1  0.273300  0.006100  0.789900  1.0  0.0829
  H  H329  1  0.244400  0.981000  0.881200  1.0  0.1179
  H  H330  1  0.203000  0.967400  0.939600  1.0  0.1099
  H  H331  1  0.205900  0.974100  0.985300  1.0  0.091
  H  H332  1  0.263000  0.942000  0.070000  1.0  0.0853
  H  H333  1  0.275500  0.933100  0.117700  1.0  0.1211
  H  H334  1  0.281000  0.979800  0.120600  1.0  0.1178
  H  H335  1  0.289000  0.007600  0.918400  1.0  0.0888
  H  H336  1  0.257900  0.043300  0.028300  1.0  0.0863
  H  H337  1  0.294300  0.776900  0.018500  1.0  0.0895
  H  H338  1  0.237400  0.862200  0.053400  1.0  0.1167
  H  H339  1  0.184300  0.853900  0.067500  1.0  0.1193
  H  H340  1  0.188100  0.809300  0.053300  1.0  0.0826
  H  H341  1  0.486500  0.693900  0.995300  1.0  0.0906
  H  H342  1  0.436300  0.689500  0.998500  1.0  0.1189
  H  H343  1  0.380000  0.735800  0.008800  1.0  0.1131
  H  H344  1  0.430700  0.789900  0.006100  1.0  0.0814
  H  H345  1  0.393400  0.881200  0.981000  1.0  0.1171
  H  H346  1  0.390000  0.939600  0.967400  1.0  0.1101
  H  H347  1  0.334700  0.985300  0.974100  1.0  0.092
  H  H348  1  0.225000  0.070000  0.942000  1.0  0.085
  H  H349  1  0.173700  0.117700  0.933100  1.0  0.1195
  H  H350  1  0.118600  0.120600  0.979800  1.0  0.1187
  H  H351  1  0.285000  0.918400  0.007600  1.0  0.0903
  H  H352  1  0.170500  0.028300  0.043300  1.0  0.0869
  H  H353  1  0.018500  0.410300  0.294300  1.0  0.091
  H  H354  1  0.053400  0.347000  0.237400  1.0  0.1167
  H  H355  1  0.067500  0.394300  0.184300  1.0  0.1196
  H  H356  1  0.053300  0.449300  0.188100  1.0  0.0823
  H  H357  1  0.995300  0.324300  0.486500  1.0  0.0901
  H  H358  1  0.998500  0.375700  0.436300  1.0  0.1187
  H  H359  1  0.008800  0.375400  0.380000  1.0  0.1138
  H  H360  1  0.006100  0.273300  0.430700  1.0  0.0828
  H  H361  1  0.981000  0.244400  0.393400  1.0  0.1176
  H  H362  1  0.967400  0.203000  0.390000  1.0  0.1103
  H  H363  1  0.974100  0.205900  0.334700  1.0  0.0916
  H  H364  1  0.942000  0.263000  0.225000  1.0  0.0854
  H  H365  1  0.933100  0.275500  0.173700  1.0  0.1174
  H  H366  1  0.979800  0.281000  0.118600  1.0  0.1181
  H  H367  1  0.007600  0.289000  0.285000  1.0  0.0905
  H  H368  1  0.043300  0.257900  0.170500  1.0  0.0845
  H  H369  1  0.018500  0.776900  0.410300  1.0  0.0896
  H  H370  1  0.053400  0.862200  0.347000  1.0  0.1171
  H  H371  1  0.067500  0.853900  0.394300  1.0  0.1198
  H  H372  1  0.053300  0.809300  0.449300  1.0  0.0826
  H  H373  1  0.995300  0.693900  0.324300  1.0  0.0913
  H  H374  1  0.998500  0.689500  0.375700  1.0  0.1202
  H  H375  1  0.008800  0.735800  0.375400  1.0  0.1141
  H  H376  1  0.006100  0.789900  0.273300  1.0  0.0816
  H  H377  1  0.981000  0.881200  0.244400  1.0  0.1172
  H  H378  1  0.967400  0.939600  0.203000  1.0  0.1108
  H  H379  1  0.974100  0.985300  0.205900  1.0  0.0933
  H  H380  1  0.942000  0.070000  0.263000  1.0  0.0849
  H  H381  1  0.933100  0.117700  0.275500  1.0  0.1194
  H  H382  1  0.979800  0.120600  0.281000  1.0  0.1168
  H  H383  1  0.007600  0.918400  0.289000  1.0  0.0917
  H  H384  1  0.043300  0.028300  0.257900  1.0  0.0848
  H  H385  1  0.294300  0.410300  0.776900  1.0  0.0889
  H  H386  1  0.237400  0.347000  0.862200  1.0  0.1165
  H  H387  1  0.184300  0.394300  0.853900  1.0  0.119
  H  H388  1  0.188100  0.449300  0.809300  1.0  0.083
  H  H389  1  0.486500  0.324300  0.693900  1.0  0.09
  H  H390  1  0.436300  0.375700  0.689500  1.0  0.1189
  H  H391  1  0.380000  0.375400  0.735800  1.0  0.1142
  H  H392  1  0.430700  0.273300  0.789900  1.0  0.082
  H  H393  1  0.393400  0.244400  0.881200  1.0  0.1163
  H  H394  1  0.390000  0.203000  0.939600  1.0  0.111
  H  H395  1  0.334700  0.205900  0.985300  1.0  0.0935
  H  H396  1  0.225000  0.263000  0.070000  1.0  0.087
  H  H397  1  0.173700  0.275500  0.117700  1.0  0.1165
  H  H398  1  0.118600  0.281000  0.120600  1.0  0.1181
  H  H399  1  0.285000  0.289000  0.918400  1.0  0.0911
  H  H400  1  0.170500  0.257900  0.028300  1.0  0.0869
  H  H401  1  0.410300  0.294300  0.018500  1.0  0.0892
  H  H402  1  0.347000  0.237400  0.053400  1.0  0.1176
  H  H403  1  0.394300  0.184300  0.067500  1.0  0.1229
  H  H404  1  0.449300  0.188100  0.053300  1.0  0.0828
  H  H405  1  0.324300  0.486500  0.995300  1.0  0.0886
  H  H406  1  0.375700  0.436300  0.998500  1.0  0.1186
  H  H407  1  0.375400  0.380000  0.008800  1.0  0.1142
  H  H408  1  0.273300  0.430700  0.006100  1.0  0.0822
  H  H409  1  0.244400  0.393400  0.981000  1.0  0.1163
  H  H410  1  0.203000  0.390000  0.967400  1.0  0.1111
  H  H411  1  0.205900  0.334700  0.974100  1.0  0.0926
  H  H412  1  0.263000  0.225000  0.942000  1.0  0.0876
  H  H413  1  0.275500  0.173700  0.933100  1.0  0.1165
  H  H414  1  0.281000  0.118600  0.979800  1.0  0.1174
  H  H415  1  0.289000  0.285000  0.007600  1.0  0.0913
  H  H416  1  0.257900  0.170500  0.043300  1.0  0.0868
  H  H417  1  0.776900  0.018500  0.294300  1.0  0.089
  H  H418  1  0.862200  0.053400  0.237400  1.0  0.1175
  H  H419  1  0.853900  0.067500  0.184300  1.0  0.1203
  H  H420  1  0.809300  0.053300  0.188100  1.0  0.084
  H  H421  1  0.693900  0.995300  0.486500  1.0  0.0914
  H  H422  1  0.689500  0.998500  0.436300  1.0  0.1214
  H  H423  1  0.735800  0.008800  0.380000  1.0  0.1146
  H  H424  1  0.789900  0.006100  0.430700  1.0  0.0812
  H  H425  1  0.881200  0.981000  0.393400  1.0  0.1172
  H  H426  1  0.939600  0.967400  0.390000  1.0  0.1091
  H  H427  1  0.985300  0.974100  0.334700  1.0  0.095
  H  H428  1  0.070000  0.942000  0.225000  1.0  0.0843
  H  H429  1  0.117700  0.933100  0.173700  1.0  0.1207
  H  H430  1  0.120600  0.979800  0.118600  1.0  0.117
  H  H431  1  0.918400  0.007600  0.285000  1.0  0.0926
  H  H432  1  0.028300  0.043300  0.170500  1.0  0.0864
  H  H433  1  0.794300  0.518500  0.276900  1.0  0.0877
  H  H434  1  0.737400  0.553400  0.362200  1.0  0.1176
  H  H435  1  0.684300  0.567500  0.353900  1.0  0.1198
  H  H436  1  0.688100  0.553300  0.309300  1.0  0.0825
  H  H437  1  0.986500  0.495300  0.193900  1.0  0.0913
  H  H438  1  0.936300  0.498500  0.189500  1.0  0.1171
  H  H439  1  0.880000  0.508800  0.235800  1.0  0.1142
  H  H440  1  0.930700  0.506100  0.289900  1.0  0.0843
  H  H441  1  0.893400  0.481000  0.381200  1.0  0.1164
  H  H442  1  0.890000  0.467400  0.439600  1.0  0.1112
  H  H443  1  0.834700  0.474100  0.485300  1.0  0.092
  H  H444  1  0.725000  0.442000  0.570000  1.0  0.0855
  H  H445  1  0.673700  0.433100  0.617700  1.0  0.1215
  H  H446  1  0.618600  0.479800  0.620600  1.0  0.1178
  H  H447  1  0.785000  0.507600  0.418400  1.0  0.0902
  H  H448  1  0.670500  0.543300  0.528300  1.0  0.0867
  H  H449  1  0.518500  0.794300  0.910300  1.0  0.0886
  H  H450  1  0.553400  0.737400  0.847000  1.0  0.1181
  H  H451  1  0.567500  0.684300  0.894300  1.0  0.1229
  H  H452  1  0.553300  0.688100  0.949300  1.0  0.0821
  H  H453  1  0.495300  0.986500  0.824300  1.0  0.0904
  H  H454  1  0.498500  0.936300  0.875700  1.0  0.1181
  H  H455  1  0.508800  0.880000  0.875400  1.0  0.1139
  H  H456  1  0.506100  0.930700  0.773300  1.0  0.0841
  H  H457  1  0.481000  0.893400  0.744400  1.0  0.1162
  H  H458  1  0.467400  0.890000  0.703000  1.0  0.1122
  H  H459  1  0.474100  0.834700  0.705900  1.0  0.0953
  H  H460  1  0.442000  0.725000  0.763000  1.0  0.0857
  H  H461  1  0.433100  0.673700  0.775500  1.0  0.1164
  H  H462  1  0.479800  0.618600  0.781000  1.0  0.1166
  H  H463  1  0.507600  0.785000  0.789000  1.0  0.0912
  H  H464  1  0.543300  0.670500  0.757900  1.0  0.0856
  H  H465  1  0.276900  0.910300  0.794300  1.0  0.0889
  H  H466  1  0.362200  0.847000  0.737400  1.0  0.1177
  H  H467  1  0.353900  0.894300  0.684300  1.0  0.1198
  H  H468  1  0.309300  0.949300  0.688100  1.0  0.0829
  H  H469  1  0.193900  0.824300  0.986500  1.0  0.0901
  H  H470  1  0.189500  0.875700  0.936300  1.0  0.1207
  H  H471  1  0.235800  0.875400  0.880000  1.0  0.1134
  H  H472  1  0.289900  0.773300  0.930700  1.0  0.0826
  H  H473  1  0.381200  0.744400  0.893400  1.0  0.117
  H  H474  1  0.439600  0.703000  0.890000  1.0  0.114
  H  H475  1  0.485300  0.705900  0.834700  1.0  0.0944
  H  H476  1  0.570000  0.763000  0.725000  1.0  0.0868
  H  H477  1  0.617700  0.775500  0.673700  1.0  0.1176
  H  H478  1  0.620600  0.781000  0.618600  1.0  0.1168
  H  H479  1  0.418400  0.789000  0.785000  1.0  0.0904
  H  H480  1  0.528300  0.757900  0.670500  1.0  0.0853
  H  H481  1  0.910300  0.276900  0.518500  1.0  0.0901
  H  H482  1  0.847000  0.362200  0.553400  1.0  0.1176
  H  H483  1  0.894300  0.353900  0.567500  1.0  0.1198
  H  H484  1  0.949300  0.309300  0.553300  1.0  0.0818
  H  H485  1  0.824300  0.193900  0.495300  1.0  0.0902
  H  H486  1  0.875700  0.189500  0.498500  1.0  0.119
  H  H487  1  0.875400  0.235800  0.508800  1.0  0.1131
  H  H488  1  0.773300  0.289900  0.506100  1.0  0.0828
  H  H489  1  0.744400  0.381200  0.481000  1.0  0.1171
  H  H490  1  0.703000  0.439600  0.467400  1.0  0.1111
  H  H491  1  0.705900  0.485300  0.474100  1.0  0.0918
  H  H492  1  0.763000  0.570000  0.442000  1.0  0.0862
  H  H493  1  0.775500  0.617700  0.433100  1.0  0.12
  H  H494  1  0.781000  0.620600  0.479800  1.0  0.1169
  H  H495  1  0.789000  0.418400  0.507600  1.0  0.0897
  H  H496  1  0.757900  0.528300  0.543300  1.0  0.0871
  H  H497  1  0.276900  0.794300  0.518500  1.0  0.0897
  H  H498  1  0.362200  0.737400  0.553400  1.0  0.1182
  H  H499  1  0.353900  0.684300  0.567500  1.0  0.1229
  H  H500  1  0.309300  0.688100  0.553300  1.0  0.0831
  H  H501  1  0.193900  0.986500  0.495300  1.0  0.0906
  H  H502  1  0.189500  0.936300  0.498500  1.0  0.1178
  H  H503  1  0.235800  0.880000  0.508800  1.0  0.1135
  H  H504  1  0.289900  0.930700  0.506100  1.0  0.0825
  H  H505  1  0.381200  0.893400  0.481000  1.0  0.1172
  H  H506  1  0.439600  0.890000  0.467400  1.0  0.1125
  H  H507  1  0.485300  0.834700  0.474100  1.0  0.0937
  H  H508  1  0.570000  0.725000  0.442000  1.0  0.086
  H  H509  1  0.617700  0.673700  0.433100  1.0  0.1178
  H  H510  1  0.620600  0.618600  0.479800  1.0  0.1178
  H  H511  1  0.418400  0.785000  0.507600  1.0  0.0904
  H  H512  1  0.528300  0.670500  0.543300  1.0  0.0855
  H  H513  1  0.910300  0.518500  0.794300  1.0  0.0908
  H  H514  1  0.847000  0.553400  0.737400  1.0  0.1177
  H  H515  1  0.894300  0.567500  0.684300  1.0  0.1192
  H  H516  1  0.949300  0.553300  0.688100  1.0  0.0823
  H  H517  1  0.824300  0.495300  0.986500  1.0  0.0894
  H  H518  1  0.875700  0.498500  0.936300  1.0  0.1195
  H  H519  1  0.875400  0.508800  0.880000  1.0  0.1136
  H  H520  1  0.773300  0.506100  0.930700  1.0  0.083
  H  H521  1  0.744400  0.481000  0.893400  1.0  0.1181
  H  H522  1  0.703000  0.467400  0.890000  1.0  0.1091
  H  H523  1  0.705900  0.474100  0.834700  1.0  0.0917
  H  H524  1  0.763000  0.442000  0.725000  1.0  0.0857
  H  H525  1  0.775500  0.433100  0.673700  1.0  0.1209
  H  H526  1  0.781000  0.479800  0.618600  1.0  0.1178
  H  H527  1  0.789000  0.507600  0.785000  1.0  0.0894
  H  H528  1  0.757900  0.543300  0.670500  1.0  0.0864
  H  H529  1  0.794300  0.276900  0.910300  1.0  0.0895
  H  H530  1  0.737400  0.362200  0.847000  1.0  0.1168
  H  H531  1  0.684300  0.353900  0.894300  1.0  0.1205
  H  H532  1  0.688100  0.309300  0.949300  1.0  0.0823
  H  H533  1  0.986500  0.193900  0.824300  1.0  0.0907
  H  H534  1  0.936300  0.189500  0.875700  1.0  0.1207
  H  H535  1  0.880000  0.235800  0.875400  1.0  0.1131
  H  H536  1  0.930700  0.289900  0.773300  1.0  0.0818
  H  H537  1  0.893400  0.381200  0.744400  1.0  0.1167
  H  H538  1  0.890000  0.439600  0.703000  1.0  0.1125
  H  H539  1  0.834700  0.485300  0.705900  1.0  0.0924
  H  H540  1  0.725000  0.570000  0.763000  1.0  0.0859
  H  H541  1  0.673700  0.617700  0.775500  1.0  0.119
  H  H542  1  0.618600  0.620600  0.781000  1.0  0.1186
  H  H543  1  0.785000  0.418400  0.789000  1.0  0.0904
  H  H544  1  0.670500  0.528300  0.757900  1.0  0.086
  H  H545  1  0.518500  0.910300  0.276900  1.0  0.0907
  H  H546  1  0.553400  0.847000  0.362200  1.0  0.1166
  H  H547  1  0.567500  0.894300  0.353900  1.0  0.1212
  H  H548  1  0.553300  0.949300  0.309300  1.0  0.0823
  H  H549  1  0.495300  0.824300  0.193900  1.0  0.0901
  H  H550  1  0.498500  0.875700  0.189500  1.0  0.1185
  H  H551  1  0.508800  0.875400  0.235800  1.0  0.1134
  H  H552  1  0.506100  0.773300  0.289900  1.0  0.0825
  H  H553  1  0.481000  0.744400  0.381200  1.0  0.1172
  H  H554  1  0.467400  0.703000  0.439600  1.0  0.1121
  H  H555  1  0.474100  0.705900  0.485300  1.0  0.0908
  H  H556  1  0.442000  0.763000  0.570000  1.0  0.085
  H  H557  1  0.433100  0.775500  0.617700  1.0  0.1173
  H  H558  1  0.479800  0.781000  0.620600  1.0  0.1178
  H  H559  1  0.507600  0.789000  0.418400  1.0  0.0899
  H  H560  1  0.543300  0.757900  0.528300  1.0  0.0843
  H  H561  1  0.518500  0.276900  0.794300  1.0  0.0897
  H  H562  1  0.553400  0.362200  0.737400  1.0  0.1166
  H  H563  1  0.567500  0.353900  0.684300  1.0  0.1202
  H  H564  1  0.553300  0.309300  0.688100  1.0  0.0828
  H  H565  1  0.495300  0.193900  0.986500  1.0  0.0913
  H  H566  1  0.498500  0.189500  0.936300  1.0  0.1201
  H  H567  1  0.508800  0.235800  0.880000  1.0  0.1145
  H  H568  1  0.506100  0.289900  0.930700  1.0  0.0811
  H  H569  1  0.481000  0.381200  0.893400  1.0  0.1173
  H  H570  1  0.467400  0.439600  0.890000  1.0  0.1114
  H  H571  1  0.474100  0.485300  0.834700  1.0  0.0942
  H  H572  1  0.442000  0.570000  0.725000  1.0  0.0852
  H  H573  1  0.433100  0.617700  0.673700  1.0  0.1199
  H  H574  1  0.479800  0.620600  0.618600  1.0  0.1169
  H  H575  1  0.507600  0.418400  0.785000  1.0  0.0921
  H  H576  1  0.543300  0.528300  0.670500  1.0  0.0848
  H  H577  1  0.794300  0.910300  0.518500  1.0  0.0888
  H  H578  1  0.737400  0.847000  0.553400  1.0  0.1166
  H  H579  1  0.684300  0.894300  0.567500  1.0  0.1213
  H  H580  1  0.688100  0.949300  0.553300  1.0  0.0833
  H  H581  1  0.986500  0.824300  0.495300  1.0  0.0896
  H  H582  1  0.936300  0.875700  0.498500  1.0  0.1193
  H  H583  1  0.880000  0.875400  0.508800  1.0  0.1142
  H  H584  1  0.930700  0.773300  0.506100  1.0  0.0818
  H  H585  1  0.893400  0.744400  0.481000  1.0  0.1162
  H  H586  1  0.890000  0.703000  0.467400  1.0  0.1123
  H  H587  1  0.834700  0.705900  0.474100  1.0  0.0932
  H  H588  1  0.725000  0.763000  0.442000  1.0  0.0866
  H  H589  1  0.673700  0.775500  0.433100  1.0  0.1157
  H  H590  1  0.618600  0.781000  0.479800  1.0  0.1182
  H  H591  1  0.785000  0.789000  0.507600  1.0  0.0911
  H  H592  1  0.670500  0.757900  0.543300  1.0  0.0869
  H  H593  1  0.910300  0.794300  0.276900  1.0  0.0894
  H  H594  1  0.847000  0.737400  0.362200  1.0  0.1176
  H  H595  1  0.894300  0.684300  0.353900  1.0  0.1226
  H  H596  1  0.949300  0.688100  0.309300  1.0  0.0826
  H  H597  1  0.824300  0.986500  0.193900  1.0  0.0893
  H  H598  1  0.875700  0.936300  0.189500  1.0  0.12
  H  H599  1  0.875400  0.880000  0.235800  1.0  0.1138
  H  H600  1  0.773300  0.930700  0.289900  1.0  0.0823
  H  H601  1  0.744400  0.893400  0.381200  1.0  0.1164
  H  H602  1  0.703000  0.890000  0.439600  1.0  0.112
  H  H603  1  0.705900  0.834700  0.485300  1.0  0.0936
  H  H604  1  0.763000  0.725000  0.570000  1.0  0.0878
  H  H605  1  0.775500  0.673700  0.617700  1.0  0.1171
  H  H606  1  0.781000  0.618600  0.620600  1.0  0.1172
  H  H607  1  0.789000  0.785000  0.418400  1.0  0.0911
  H  H608  1  0.757900  0.670500  0.528300  1.0  0.0868
  H  H609  1  0.276900  0.518500  0.910300  1.0  0.0887
  H  H610  1  0.362200  0.553400  0.847000  1.0  0.1178
  H  H611  1  0.353900  0.567500  0.894300  1.0  0.1198
  H  H612  1  0.309300  0.553300  0.949300  1.0  0.083
  H  H613  1  0.193900  0.495300  0.824300  1.0  0.0901
  H  H614  1  0.189500  0.498500  0.875700  1.0  0.1182
  H  H615  1  0.235800  0.508800  0.875400  1.0  0.1137
  H  H616  1  0.289900  0.506100  0.773300  1.0  0.0816
  H  H617  1  0.381200  0.481000  0.744400  1.0  0.1171
  H  H618  1  0.439600  0.467400  0.703000  1.0  0.1093
  H  H619  1  0.485300  0.474100  0.705900  1.0  0.0945
  H  H620  1  0.570000  0.442000  0.763000  1.0  0.0846
  H  H621  1  0.617700  0.433100  0.775500  1.0  0.1198
  H  H622  1  0.620600  0.479800  0.781000  1.0  0.1171
  H  H623  1  0.418400  0.507600  0.789000  1.0  0.0925
  H  H624  1  0.528300  0.543300  0.757900  1.0  0.0865
  H  H625  1  0.705700  0.981500  0.589700  1.0  0.0875
  H  H626  1  0.762600  0.946600  0.653000  1.0  0.1177
  H  H627  1  0.815700  0.932500  0.605700  1.0  0.1195
  H  H628  1  0.811900  0.946700  0.550700  1.0  0.0821
  H  H629  1  0.513500  0.004700  0.675700  1.0  0.0915
  H  H630  1  0.563700  0.001500  0.624300  1.0  0.1178
  H  H631  1  0.620000  0.991200  0.624600  1.0  0.114
  H  H632  1  0.569300  0.993900  0.726700  1.0  0.0845
  H  H633  1  0.606600  0.019000  0.755600  1.0  0.1166
  H  H634  1  0.610000  0.032600  0.797000  1.0  0.1097
  H  H635  1  0.665300  0.025900  0.794100  1.0  0.0911
  H  H636  1  0.775000  0.058000  0.737000  1.0  0.0863
  H  H637  1  0.826300  0.066900  0.724500  1.0  0.1199
  H  H638  1  0.881400  0.020200  0.719000  1.0  0.1175
  H  H639  1  0.715000  0.992400  0.711000  1.0  0.0901
  H  H640  1  0.829500  0.956700  0.742100  1.0  0.0865
  H  H641  1  0.981500  0.705700  0.223100  1.0  0.0894
  H  H642  1  0.946600  0.762600  0.137800  1.0  0.1181
  H  H643  1  0.932500  0.815700  0.146100  1.0  0.1219
  H  H644  1  0.946700  0.811900  0.190700  1.0  0.0817
  H  H645  1  0.004700  0.513500  0.306100  1.0  0.0904
  H  H646  1  0.001500  0.563700  0.310500  1.0  0.118
  H  H647  1  0.991200  0.620000  0.264200  1.0  0.1132
  H  H648  1  0.993900  0.569300  0.210100  1.0  0.0843
  H  H649  1  0.019000  0.606600  0.118800  1.0  0.1161
  H  H650  1  0.032600  0.610000  0.060400  1.0  0.1111
  H  H651  1  0.025900  0.665300  0.014700  1.0  0.0936
  H  H652  1  0.058000  0.775000  0.930000  1.0  0.0856
  H  H653  1  0.066900  0.826300  0.882300  1.0  0.1182
  H  H654  1  0.020200  0.881400  0.879400  1.0  0.1173
  H  H655  1  0.992400  0.715000  0.081600  1.0  0.0908
  H  H656  1  0.956700  0.829500  0.971700  1.0  0.0853
  H  H657  1  0.223100  0.589700  0.981500  1.0  0.0885
  H  H658  1  0.137800  0.653000  0.946600  1.0  0.1181
  H  H659  1  0.146100  0.605700  0.932500  1.0  0.1185
  H  H660  1  0.190700  0.550700  0.946700  1.0  0.0824
  H  H661  1  0.306100  0.675700  0.004700  1.0  0.0907
  H  H662  1  0.310500  0.624300  0.001500  1.0  0.1198
  H  H663  1  0.264200  0.624600  0.991200  1.0  0.1132
  H  H664  1  0.210100  0.726700  0.993900  1.0  0.0825
  H  H665  1  0.118800  0.755600  0.019000  1.0  0.1169
  H  H666  1  0.060400  0.797000  0.032600  1.0  0.1123
  H  H667  1  0.014700  0.794100  0.025900  1.0  0.0952
  H  H668  1  0.930000  0.737000  0.058000  1.0  0.0875
  H  H669  1  0.882300  0.724500  0.066900  1.0  0.1182
  H  H670  1  0.879400  0.719000  0.020200  1.0  0.1169
  H  H671  1  0.081600  0.711000  0.992400  1.0  0.0902
  H  H672  1  0.971700  0.742100  0.956700  1.0  0.0856
  H  H673  1  0.589700  0.223100  0.705700  1.0  0.09
  H  H674  1  0.653000  0.137800  0.762600  1.0  0.1178
  H  H675  1  0.605700  0.146100  0.815700  1.0  0.1195
  H  H676  1  0.550700  0.190700  0.811900  1.0  0.0828
  H  H677  1  0.675700  0.306100  0.513500  1.0  0.0896
  H  H678  1  0.624300  0.310500  0.563700  1.0  0.1207
  H  H679  1  0.624600  0.264200  0.620000  1.0  0.1127
  H  H680  1  0.726700  0.210100  0.569300  1.0  0.083
  H  H681  1  0.755600  0.118800  0.606600  1.0  0.1164
  H  H682  1  0.797000  0.060400  0.610000  1.0  0.1108
  H  H683  1  0.794100  0.014700  0.665300  1.0  0.0932
  H  H684  1  0.737000  0.930000  0.775000  1.0  0.0869
  H  H685  1  0.724500  0.882300  0.826300  1.0  0.1194
  H  H686  1  0.719000  0.879400  0.881400  1.0  0.1166
  H  H687  1  0.711000  0.081600  0.715000  1.0  0.0905
  H  H688  1  0.742100  0.971700  0.829500  1.0  0.0866
  H  H689  1  0.223100  0.705700  0.589700  1.0  0.09
  H  H690  1  0.137800  0.762600  0.653000  1.0  0.1182
  H  H691  1  0.146100  0.815700  0.605700  1.0  0.122
  H  H692  1  0.190700  0.811900  0.550700  1.0  0.0827
  H  H693  1  0.306100  0.513500  0.675700  1.0  0.0898
  H  H694  1  0.310500  0.563700  0.624300  1.0  0.1187
  H  H695  1  0.264200  0.620000  0.624600  1.0  0.1132
  H  H696  1  0.210100  0.569300  0.726700  1.0  0.0824
  H  H697  1  0.118800  0.606600  0.755600  1.0  0.117
  H  H698  1  0.060400  0.610000  0.797000  1.0  0.1121
  H  H699  1  0.014700  0.665300  0.794100  1.0  0.0921
  H  H700  1  0.930000  0.775000  0.737000  1.0  0.0859
  H  H701  1  0.882300  0.826300  0.724500  1.0  0.1172
  H  H702  1  0.879400  0.881400  0.719000  1.0  0.1176
  H  H703  1  0.081600  0.715000  0.711000  1.0  0.0906
  H  H704  1  0.971700  0.829500  0.742100  1.0  0.086
  H  H705  1  0.589700  0.981500  0.223100  1.0  0.0907
  H  H706  1  0.653000  0.946600  0.137800  1.0  0.1175
  H  H707  1  0.605700  0.932500  0.146100  1.0  0.1182
  H  H708  1  0.550700  0.946700  0.190700  1.0  0.0831
  H  H709  1  0.675700  0.004700  0.306100  1.0  0.0921
  H  H710  1  0.624300  0.001500  0.310500  1.0  0.1188
  H  H711  1  0.624600  0.991200  0.264200  1.0  0.1133
  H  H712  1  0.726700  0.993900  0.210100  1.0  0.0827
  H  H713  1  0.755600  0.019000  0.118800  1.0  0.1172
  H  H714  1  0.797000  0.032600  0.060400  1.0  0.1109
  H  H715  1  0.794100  0.025900  0.014700  1.0  0.092
  H  H716  1  0.737000  0.058000  0.930000  1.0  0.0858
  H  H717  1  0.724500  0.066900  0.882300  1.0  0.1202
  H  H718  1  0.719000  0.020200  0.879400  1.0  0.118
  H  H719  1  0.711000  0.992400  0.081600  1.0  0.0894
  H  H720  1  0.742100  0.956700  0.971700  1.0  0.0861
  H  H721  1  0.705700  0.223100  0.981500  1.0  0.0889
  H  H722  1  0.762600  0.137800  0.946600  1.0  0.1169
  H  H723  1  0.815700  0.146100  0.932500  1.0  0.1205
  H  H724  1  0.811900  0.190700  0.946700  1.0  0.0818
  H  H725  1  0.513500  0.306100  0.004700  1.0  0.0896
  H  H726  1  0.563700  0.310500  0.001500  1.0  0.119
  H  H727  1  0.620000  0.264200  0.991200  1.0  0.113
  H  H728  1  0.569300  0.210100  0.993900  1.0  0.0824
  H  H729  1  0.606600  0.118800  0.019000  1.0  0.1162
  H  H730  1  0.610000  0.060400  0.032600  1.0  0.1084
  H  H731  1  0.665300  0.014700  0.025900  1.0  0.0932
  H  H732  1  0.775000  0.930000  0.058000  1.0  0.0861
  H  H733  1  0.826300  0.882300  0.066900  1.0  0.1198
  H  H734  1  0.881400  0.879400  0.020200  1.0  0.1182
  H  H735  1  0.715000  0.081600  0.992400  1.0  0.0906
  H  H736  1  0.829500  0.971700  0.956700  1.0  0.0861
  H  H737  1  0.981500  0.589700  0.705700  1.0  0.0907
  H  H738  1  0.946600  0.653000  0.762600  1.0  0.1166
  H  H739  1  0.932500  0.605700  0.815700  1.0  0.1195
  H  H740  1  0.946700  0.550700  0.811900  1.0  0.0832
  H  H741  1  0.004700  0.675700  0.513500  1.0  0.0913
  H  H742  1  0.001500  0.624300  0.563700  1.0  0.1204
  H  H743  1  0.991200  0.624600  0.620000  1.0  0.1134
  H  H744  1  0.993900  0.726700  0.569300  1.0  0.082
  H  H745  1  0.019000  0.755600  0.606600  1.0  0.1171
  H  H746  1  0.032600  0.797000  0.610000  1.0  0.1116
  H  H747  1  0.025900  0.794100  0.665300  1.0  0.0909
  H  H748  1  0.058000  0.737000  0.775000  1.0  0.0852
  H  H749  1  0.066900  0.724500  0.826300  1.0  0.1175
  H  H750  1  0.020200  0.719000  0.881400  1.0  0.1179
  H  H751  1  0.992400  0.711000  0.715000  1.0  0.09
  H  H752  1  0.956700  0.742100  0.829500  1.0  0.0843
  H  H753  1  0.981500  0.223100  0.589700  1.0  0.0893
  H  H754  1  0.946600  0.137800  0.653000  1.0  0.1169
  H  H755  1  0.932500  0.146100  0.605700  1.0  0.12
  H  H756  1  0.946700  0.190700  0.550700  1.0  0.0844
  H  H757  1  0.004700  0.306100  0.675700  1.0  0.0909
  H  H758  1  0.001500  0.310500  0.624300  1.0  0.1218
  H  H759  1  0.991200  0.264200  0.624600  1.0  0.1147
  H  H760  1  0.993900  0.210100  0.726700  1.0  0.0817
  H  H761  1  0.019000  0.118800  0.755600  1.0  0.1165
  H  H762  1  0.032600  0.060400  0.797000  1.0  0.1106
  H  H763  1  0.025900  0.014700  0.794100  1.0  0.0954
  H  H764  1  0.058000  0.930000  0.737000  1.0  0.0848
  H  H765  1  0.066900  0.882300  0.724500  1.0  0.1204
  H  H766  1  0.020200  0.879400  0.719000  1.0  0.1165
  H  H767  1  0.992400  0.081600  0.711000  1.0  0.0922
  H  H768  1  0.956700  0.971700  0.742100  1.0  0.0847
  H  H769  1  0.705700  0.589700  0.223100  1.0  0.088
  H  H770  1  0.762600  0.653000  0.137800  1.0  0.1172
  H  H771  1  0.815700  0.605700  0.146100  1.0  0.1199
  H  H772  1  0.811900  0.550700  0.190700  1.0  0.0829
  H  H773  1  0.513500  0.675700  0.306100  1.0  0.0898
  H  H774  1  0.563700  0.624300  0.310500  1.0  0.1219
  H  H775  1  0.620000  0.624600  0.264200  1.0  0.1148
  H  H776  1  0.569300  0.726700  0.210100  1.0  0.0817
  H  H777  1  0.606600  0.755600  0.118800  1.0  0.1165
  H  H778  1  0.610000  0.797000  0.060400  1.0  0.111
  H  H779  1  0.665300  0.794100  0.014700  1.0  0.0905
  H  H780  1  0.775000  0.737000  0.930000  1.0  0.0869
  H  H781  1  0.826300  0.724500  0.882300  1.0  0.1159
  H  H782  1  0.881400  0.719000  0.879400  1.0  0.1175
  H  H783  1  0.715000  0.711000  0.081600  1.0  0.091
  H  H784  1  0.829500  0.742100  0.971700  1.0  0.0869
  H  H785  1  0.589700  0.705700  0.981500  1.0  0.0906
  H  H786  1  0.653000  0.762600  0.946600  1.0  0.1167
  H  H787  1  0.605700  0.815700  0.932500  1.0  0.121
  H  H788  1  0.550700  0.811900  0.946700  1.0  0.0828
  H  H789  1  0.675700  0.513500  0.004700  1.0  0.0895
  H  H790  1  0.624300  0.563700  0.001500  1.0  0.1213
  H  H791  1  0.624600  0.620000  0.991200  1.0  0.1137
  H  H792  1  0.726700  0.569300  0.993900  1.0  0.082
  H  H793  1  0.755600  0.606600  0.019000  1.0  0.1167
  H  H794  1  0.797000  0.610000  0.032600  1.0  0.1113
  H  H795  1  0.794100  0.665300  0.025900  1.0  0.0919
  H  H796  1  0.737000  0.775000  0.058000  1.0  0.0874
  H  H797  1  0.724500  0.826300  0.066900  1.0  0.1175
  H  H798  1  0.719000  0.881400  0.020200  1.0  0.1172
  H  H799  1  0.711000  0.715000  0.992400  1.0  0.0913
  H  H800  1  0.742100  0.829500  0.956700  1.0  0.0869
  H  H801  1  0.223100  0.981500  0.705700  1.0  0.0876
  H  H802  1  0.137800  0.946600  0.762600  1.0  0.1176
  H  H803  1  0.146100  0.932500  0.815700  1.0  0.1205
  H  H804  1  0.190700  0.946700  0.811900  1.0  0.0844
  H  H805  1  0.306100  0.004700  0.513500  1.0  0.0904
  H  H806  1  0.310500  0.001500  0.563700  1.0  0.1191
  H  H807  1  0.264200  0.991200  0.620000  1.0  0.1139
  H  H808  1  0.210100  0.993900  0.569300  1.0  0.0818
  H  H809  1  0.118800  0.019000  0.606600  1.0  0.1167
  H  H810  1  0.060400  0.032600  0.610000  1.0  0.108
  H  H811  1  0.014700  0.025900  0.665300  1.0  0.0948
  H  H812  1  0.930000  0.058000  0.775000  1.0  0.0851
  H  H813  1  0.882300  0.066900  0.826300  1.0  0.1198
  H  H814  1  0.879400  0.020200  0.881400  1.0  0.1173
  H  H815  1  0.081600  0.992400  0.715000  1.0  0.0924
  H  H816  1  0.971700  0.956700  0.829500  1.0  0.0862
  C  C817  1  0.336450  0.460690  0.722870  1.0  0.2644
  C  C818  1  0.294550  0.441970  0.554610  1.0  0.2877
  C  C819  1  0.228370  0.472230  0.706790  1.0  0.1628
  C  C820  1  0.228890  0.464430  0.680590  1.0  -0.1273
  C  C821  1  0.261610  0.450830  0.656830  1.0  -0.0165
  C  C822  1  0.292780  0.443360  0.661120  1.0  -0.1463
  C  C823  1  0.290200  0.451900  0.687880  1.0  0.1753
  C  C824  1  0.035790  0.501610  0.786790  1.0  0.1668
  C  C825  1  0.065740  0.499240  0.789820  1.0  -0.1476
  C  C826  1  0.098900  0.493580  0.762360  1.0  -0.0459
  C  C827  1  0.100090  0.491650  0.731830  1.0  -0.1494
  C  C828  1  0.068510  0.494970  0.730870  1.0  0.1946
  C  C829  1  0.133390  0.488250  0.700950  1.0  0.3821
  C  C830  1  0.194230  0.474630  0.676590  1.0  0.3048
  C  C831  1  0.162390  0.492850  0.641950  1.0  0.3895
  C  C832  1  0.161270  0.502870  0.606270  1.0  -0.1881
  C  C833  1  0.129220  0.515880  0.600000  1.0  -0.0423
  C  C834  1  0.131280  0.524140  0.565500  1.0  -0.1292
  C  C835  1  0.164420  0.520160  0.538220  1.0  0.1614
  C  C836  1  0.297130  0.538370  0.429070  1.0  0.1585
  C  C837  1  0.327700  0.543980  0.400680  1.0  -0.142
  C  C838  1  0.360150  0.516490  0.398970  1.0  -0.0127
  C  C839  1  0.193330  0.500310  0.577430  1.0  0.1737
  C  C840  1  0.361600  0.483040  0.426240  1.0  -0.1911
  C  C841  1  0.329010  0.479530  0.453530  1.0  0.1955
  C  C842  1  0.395220  0.452420  0.424980  1.0  0.3571
  C  C843  1  0.460690  0.336450  0.979990  1.0  0.2603
  C  C844  1  0.441970  0.294550  0.208870  1.0  0.2905
  C  C845  1  0.472230  0.228370  0.092610  1.0  0.1694
  C  C846  1  0.464430  0.228890  0.126090  1.0  -0.1261
  C  C847  1  0.450830  0.261610  0.130730  1.0  -0.0154
  C  C848  1  0.443360  0.292780  0.102740  1.0  -0.1489
  C  C849  1  0.451900  0.290200  0.070020  1.0  0.1724
  C  C850  1  0.501610  0.035790  0.175810  1.0  0.1676
  C  C851  1  0.499240  0.065740  0.145200  1.0  -0.1477
  C  C852  1  0.493580  0.098900  0.145160  1.0  -0.0465
  C  C853  1  0.491650  0.100090  0.176430  1.0  -0.1471
  C  C854  1  0.494970  0.068510  0.205650  1.0  0.1949
  C  C855  1  0.488250  0.133390  0.177410  1.0  0.3821
  C  C856  1  0.474630  0.194230  0.154550  1.0  0.3049
  C  C857  1  0.492850  0.162390  0.202810  1.0  0.3899
  C  C858  1  0.502870  0.161270  0.229590  1.0  -0.1849
  C  C859  1  0.515880  0.129220  0.254900  1.0  -0.0401
  C  C860  1  0.524140  0.131280  0.279080  1.0  -0.1326
  C  C861  1  0.520160  0.164420  0.277200  1.0  0.1569
  C  C862  1  0.538370  0.297130  0.235430  1.0  0.1608
  C  C863  1  0.543980  0.327700  0.227640  1.0  -0.1409
  C  C864  1  0.516490  0.360150  0.224390  1.0  -0.0111
  C  C865  1  0.500310  0.193330  0.228930  1.0  0.1672
  C  C866  1  0.483040  0.361600  0.229120  1.0  -0.1895
  C  C867  1  0.479530  0.329010  0.237930  1.0  0.2019
  C  C868  1  0.452420  0.395220  0.227380  1.0  0.3542
  C  C869  1  0.722870  0.979990  0.336450  1.0  0.2576
  C  C870  1  0.554610  0.208870  0.294550  1.0  0.288
  C  C871  1  0.706790  0.092610  0.228370  1.0  0.1722
  C  C872  1  0.680590  0.126090  0.228890  1.0  -0.1267
  C  C873  1  0.656830  0.130730  0.261610  1.0  -0.016
  C  C874  1  0.661120  0.102740  0.292780  1.0  -0.1449
  C  C875  1  0.687880  0.070020  0.290200  1.0  0.168
  C  C876  1  0.786790  0.175810  0.035790  1.0  0.1686
  C  C877  1  0.789820  0.145200  0.065740  1.0  -0.154
  C  C878  1  0.762360  0.145160  0.098900  1.0  -0.0509
  C  C879  1  0.731830  0.176430  0.100090  1.0  -0.1466
  C  C880  1  0.730870  0.205650  0.068510  1.0  0.1953
  C  C881  1  0.700950  0.177410  0.133390  1.0  0.3822
  C  C882  1  0.676590  0.154550  0.194230  1.0  0.3051
  C  C883  1  0.641950  0.202810  0.162390  1.0  0.3888
  C  C884  1  0.606270  0.229590  0.161270  1.0  -0.1855
  C  C885  1  0.600000  0.254900  0.129220  1.0  -0.0438
  C  C886  1  0.565500  0.279080  0.131280  1.0  -0.1286
  C  C887  1  0.538220  0.277200  0.164420  1.0  0.1556
  C  C888  1  0.429070  0.235430  0.297130  1.0  0.162
  C  C889  1  0.400680  0.227640  0.327700  1.0  -0.1459
  C  C890  1  0.398970  0.224390  0.360150  1.0  -0.0124
  C  C891  1  0.577430  0.228930  0.193330  1.0  0.1763
  C  C892  1  0.426240  0.229120  0.361600  1.0  -0.1929
  C  C893  1  0.453530  0.237930  0.329010  1.0  0.1936
  C  C894  1  0.424980  0.227380  0.395220  1.0  0.3562
  C  C895  1  0.979990  0.722870  0.460690  1.0  0.2597
  C  C896  1  0.208870  0.554610  0.441970  1.0  0.2879
  C  C897  1  0.092610  0.706790  0.472230  1.0  0.1718
  C  C898  1  0.126090  0.680590  0.464430  1.0  -0.1279
  C  C899  1  0.130730  0.656830  0.450830  1.0  -0.0173
  C  C900  1  0.102740  0.661120  0.443360  1.0  -0.1408
  C  C901  1  0.070020  0.687880  0.451900  1.0  0.1697
  C  C902  1  0.175810  0.786790  0.501610  1.0  0.1657
  C  C903  1  0.145200  0.789820  0.499240  1.0  -0.1522
  C  C904  1  0.145160  0.762360  0.493580  1.0  -0.0483
  C  C905  1  0.176430  0.731830  0.491650  1.0  -0.1475
  C  C906  1  0.205650  0.730870  0.494970  1.0  0.1961
  C  C907  1  0.177410  0.700950  0.488250  1.0  0.3825
  C  C908  1  0.154550  0.676590  0.474630  1.0  0.3052
  C  C909  1  0.202810  0.641950  0.492850  1.0  0.3888
  C  C910  1  0.229590  0.606270  0.502870  1.0  -0.1834
  C  C911  1  0.254900  0.600000  0.515880  1.0  -0.0418
  C  C912  1  0.279080  0.565500  0.524140  1.0  -0.12
  C  C913  1  0.277200  0.538220  0.520160  1.0  0.1567
  C  C914  1  0.235430  0.429070  0.538370  1.0  0.1582
  C  C915  1  0.227640  0.400680  0.543980  1.0  -0.1502
  C  C916  1  0.224390  0.398970  0.516490  1.0  -0.0126
  C  C917  1  0.228930  0.577430  0.500310  1.0  0.1762
  C  C918  1  0.229120  0.426240  0.483040  1.0  -0.1929
  C  C919  1  0.237930  0.453530  0.479530  1.0  0.1915
  C  C920  1  0.227380  0.424980  0.452420  1.0  0.3548
  C  C921  1  0.722870  0.336450  0.460690  1.0  0.2603
  C  C922  1  0.554610  0.294550  0.441970  1.0  0.2918
  C  C923  1  0.706790  0.228370  0.472230  1.0  0.1659
  C  C924  1  0.680590  0.228890  0.464430  1.0  -0.1265
  C  C925  1  0.656830  0.261610  0.450830  1.0  -0.0154
  C  C926  1  0.661120  0.292780  0.443360  1.0  -0.1506
  C  C927  1  0.687880  0.290200  0.451900  1.0  0.1689
  C  C928  1  0.786790  0.035790  0.501610  1.0  0.1692
  C  C929  1  0.789820  0.065740  0.499240  1.0  -0.1433
  C  C930  1  0.762360  0.098900  0.493580  1.0  -0.0473
  C  C931  1  0.731830  0.100090  0.491650  1.0  -0.1486
  C  C932  1  0.730870  0.068510  0.494970  1.0  0.2046
  C  C933  1  0.700950  0.133390  0.488250  1.0  0.3823
  C  C934  1  0.676590  0.194230  0.474630  1.0  0.3043
  C  C935  1  0.641950  0.162390  0.492850  1.0  0.3905
  C  C936  1  0.606270  0.161270  0.502870  1.0  -0.1869
  C  C937  1  0.600000  0.129220  0.515880  1.0  -0.0419
  C  C938  1  0.565500  0.131280  0.524140  1.0  -0.1272
  C  C939  1  0.538220  0.164420  0.520160  1.0  0.1552
  C  C940  1  0.429070  0.297130  0.538370  1.0  0.1609
  C  C941  1  0.400680  0.327700  0.543980  1.0  -0.1442
  C  C942  1  0.398970  0.360150  0.516490  1.0  -0.011
  C  C943  1  0.577430  0.193330  0.500310  1.0  0.1728
  C  C944  1  0.426240  0.361600  0.483040  1.0  -0.1915
  C  C945  1  0.453530  0.329010  0.479530  1.0  0.1965
  C  C946  1  0.424980  0.395220  0.452420  1.0  0.3562
  C  C947  1  0.979990  0.460690  0.336450  1.0  0.2569
  C  C948  1  0.208870  0.441970  0.294550  1.0  0.2951
  C  C949  1  0.092610  0.472230  0.228370  1.0  0.1681
  C  C950  1  0.126090  0.464430  0.228890  1.0  -0.1295
  C  C951  1  0.130730  0.450830  0.261610  1.0  -0.0154
  C  C952  1  0.102740  0.443360  0.292780  1.0  -0.1449
  C  C953  1  0.070020  0.451900  0.290200  1.0  0.1695
  C  C954  1  0.175810  0.501610  0.035790  1.0  0.1716
  C  C955  1  0.145200  0.499240  0.065740  1.0  -0.1561
  C  C956  1  0.145160  0.493580  0.098900  1.0  -0.0495
  C  C957  1  0.176430  0.491650  0.100090  1.0  -0.1483
  C  C958  1  0.205650  0.494970  0.068510  1.0  0.1921
  C  C959  1  0.177410  0.488250  0.133390  1.0  0.3818
  C  C960  1  0.154550  0.474630  0.194230  1.0  0.3058
  C  C961  1  0.202810  0.492850  0.162390  1.0  0.3907
  C  C962  1  0.229590  0.502870  0.161270  1.0  -0.1832
  C  C963  1  0.254900  0.515880  0.129220  1.0  -0.0427
  C  C964  1  0.279080  0.524140  0.131280  1.0  -0.1289
  C  C965  1  0.277200  0.520160  0.164420  1.0  0.1638
  C  C966  1  0.235430  0.538370  0.297130  1.0  0.161
  C  C967  1  0.227640  0.543980  0.327700  1.0  -0.143
  C  C968  1  0.224390  0.516490  0.360150  1.0  -0.0117
  C  C969  1  0.228930  0.500310  0.193330  1.0  0.1757
  C  C970  1  0.229120  0.483040  0.361600  1.0  -0.1874
  C  C971  1  0.237930  0.479530  0.329010  1.0  0.1957
  C  C972  1  0.227380  0.452420  0.395220  1.0  0.3549
  C  C973  1  0.336450  0.722870  0.979990  1.0  0.2646
  C  C974  1  0.294550  0.554610  0.208870  1.0  0.2922
  C  C975  1  0.228370  0.706790  0.092610  1.0  0.1715
  C  C976  1  0.228890  0.680590  0.126090  1.0  -0.1257
  C  C977  1  0.261610  0.656830  0.130730  1.0  -0.0188
  C  C978  1  0.292780  0.661120  0.102740  1.0  -0.146
  C  C979  1  0.290200  0.687880  0.070020  1.0  0.1724
  C  C980  1  0.035790  0.786790  0.175810  1.0  0.1658
  C  C981  1  0.065740  0.789820  0.145200  1.0  -0.1438
  C  C982  1  0.098900  0.762360  0.145160  1.0  -0.0484
  C  C983  1  0.100090  0.731830  0.176430  1.0  -0.1489
  C  C984  1  0.068510  0.730870  0.205650  1.0  0.2006
  C  C985  1  0.133390  0.700950  0.177410  1.0  0.3824
  C  C986  1  0.194230  0.676590  0.154550  1.0  0.3045
  C  C987  1  0.162390  0.641950  0.202810  1.0  0.391
  C  C988  1  0.161270  0.606270  0.229590  1.0  -0.1856
  C  C989  1  0.129220  0.600000  0.254900  1.0  -0.0433
  C  C990  1  0.131280  0.565500  0.279080  1.0  -0.1261
  C  C991  1  0.164420  0.538220  0.277200  1.0  0.1568
  C  C992  1  0.297130  0.429070  0.235430  1.0  0.1617
  C  C993  1  0.327700  0.400680  0.227640  1.0  -0.1461
  C  C994  1  0.360150  0.398970  0.224390  1.0  -0.0126
  C  C995  1  0.193330  0.577430  0.228930  1.0  0.172
  C  C996  1  0.361600  0.426240  0.229120  1.0  -0.1912
  C  C997  1  0.329010  0.453530  0.237930  1.0  0.1994
  C  C998  1  0.395220  0.424980  0.227380  1.0  0.359
  C  C999  1  0.460690  0.979990  0.722870  1.0  0.2586
  C  C1000  1  0.441970  0.208870  0.554610  1.0  0.2945
  C  C1001  1  0.472230  0.092610  0.706790  1.0  0.1691
  C  C1002  1  0.464430  0.126090  0.680590  1.0  -0.1272
  C  C1003  1  0.450830  0.130730  0.656830  1.0  -0.0147
  C  C1004  1  0.443360  0.102740  0.661120  1.0  -0.1402
  C  C1005  1  0.451900  0.070020  0.687880  1.0  0.1687
  C  C1006  1  0.501610  0.175810  0.786790  1.0  0.168
  C  C1007  1  0.499240  0.145200  0.789820  1.0  -0.1554
  C  C1008  1  0.493580  0.145160  0.762360  1.0  -0.0478
  C  C1009  1  0.491650  0.176430  0.731830  1.0  -0.148
  C  C1010  1  0.494970  0.205650  0.730870  1.0  0.1924
  C  C1011  1  0.488250  0.177410  0.700950  1.0  0.3824
  C  C1012  1  0.474630  0.154550  0.676590  1.0  0.3053
  C  C1013  1  0.492850  0.202810  0.641950  1.0  0.3888
  C  C1014  1  0.502870  0.229590  0.606270  1.0  -0.1824
  C  C1015  1  0.515880  0.254900  0.600000  1.0  -0.0413
  C  C1016  1  0.524140  0.279080  0.565500  1.0  -0.1228
  C  C1017  1  0.520160  0.277200  0.538220  1.0  0.1613
  C  C1018  1  0.538370  0.235430  0.429070  1.0  0.1634
  C  C1019  1  0.543980  0.227640  0.400680  1.0  -0.1438
  C  C1020  1  0.516490  0.224390  0.398970  1.0  -0.0138
  C  C1021  1  0.500310  0.228930  0.577430  1.0  0.1767
  C  C1022  1  0.483040  0.229120  0.426240  1.0  -0.1876
  C  C1023  1  0.479530  0.237930  0.453530  1.0  0.1977
  C  C1024  1  0.452420  0.227380  0.424980  1.0  0.3547
  C  C1025  1  0.460690  0.722870  0.336450  1.0  0.2572
  C  C1026  1  0.441970  0.554610  0.294550  1.0  0.2881
  C  C1027  1  0.472230  0.706790  0.228370  1.0  0.1599
  C  C1028  1  0.464430  0.680590  0.228890  1.0  -0.1265
  C  C1029  1  0.450830  0.656830  0.261610  1.0  -0.0132
  C  C1030  1  0.443360  0.661120  0.292780  1.0  -0.1457
  C  C1031  1  0.451900  0.687880  0.290200  1.0  0.1719
  C  C1032  1  0.501610  0.786790  0.035790  1.0  0.1695
  C  C1033  1  0.499240  0.789820  0.065740  1.0  -0.1493
  C  C1034  1  0.493580  0.762360  0.098900  1.0  -0.0466
  C  C1035  1  0.491650  0.731830  0.100090  1.0  -0.149
  C  C1036  1  0.494970  0.730870  0.068510  1.0  0.1987
  C  C1037  1  0.488250  0.700950  0.133390  1.0  0.3829
  C  C1038  1  0.474630  0.676590  0.194230  1.0  0.3049
  C  C1039  1  0.492850  0.641950  0.162390  1.0  0.391
  C  C1040  1  0.502870  0.606270  0.161270  1.0  -0.1845
  C  C1041  1  0.515880  0.600000  0.129220  1.0  -0.0439
  C  C1042  1  0.524140  0.565500  0.131280  1.0  -0.1183
  C  C1043  1  0.520160  0.538220  0.164420  1.0  0.1543
  C  C1044  1  0.538370  0.429070  0.297130  1.0  0.1619
  C  C1045  1  0.543980  0.400680  0.327700  1.0  -0.1459
  C  C1046  1  0.516490  0.398970  0.360150  1.0  -0.0146
  C  C1047  1  0.500310  0.577430  0.193330  1.0  0.1722
  C  C1048  1  0.483040  0.426240  0.361600  1.0  -0.1904
  C  C1049  1  0.479530  0.453530  0.329010  1.0  0.1912
  C  C1050  1  0.452420  0.424980  0.395220  1.0  0.3535
  C  C1051  1  0.336450  0.979990  0.460690  1.0  0.2631
  C  C1052  1  0.294550  0.208870  0.441970  1.0  0.2916
  C  C1053  1  0.228370  0.092610  0.472230  1.0  0.1756
  C  C1054  1  0.228890  0.126090  0.464430  1.0  -0.1276
  C  C1055  1  0.261610  0.130730  0.450830  1.0  -0.0144
  C  C1056  1  0.292780  0.102740  0.443360  1.0  -0.1349
  C  C1057  1  0.290200  0.070020  0.451900  1.0  0.1714
  C  C1058  1  0.035790  0.175810  0.501610  1.0  0.1667
  C  C1059  1  0.065740  0.145200  0.499240  1.0  -0.1424
  C  C1060  1  0.098900  0.145160  0.493580  1.0  -0.0469
  C  C1061  1  0.100090  0.176430  0.491650  1.0  -0.1486
  C  C1062  1  0.068510  0.205650  0.494970  1.0  0.1934
  C  C1063  1  0.133390  0.177410  0.488250  1.0  0.3822
  C  C1064  1  0.194230  0.154550  0.474630  1.0  0.3064
  C  C1065  1  0.162390  0.202810  0.492850  1.0  0.3916
  C  C1066  1  0.161270  0.229590  0.502870  1.0  -0.188
  C  C1067  1  0.129220  0.254900  0.515880  1.0  -0.0425
  C  C1068  1  0.131280  0.279080  0.524140  1.0  -0.1353
  C  C1069  1  0.164420  0.277200  0.520160  1.0  0.1582
  C  C1070  1  0.297130  0.235430  0.538370  1.0  0.1592
  C  C1071  1  0.327700  0.227640  0.543980  1.0  -0.14
  C  C1072  1  0.360150  0.224390  0.516490  1.0  -0.0143
  C  C1073  1  0.193330  0.228930  0.500310  1.0  0.1679
  C  C1074  1  0.361600  0.229120  0.483040  1.0  -0.1907
  C  C1075  1  0.329010  0.237930  0.479530  1.0  0.203
  C  C1076  1  0.395220  0.227380  0.452420  1.0  0.3541
  C  C1077  1  0.979990  0.336450  0.722870  1.0  0.2603
  C  C1078  1  0.208870  0.294550  0.554610  1.0  0.2856
  C  C1079  1  0.092610  0.228370  0.706790  1.0  0.175
  C  C1080  1  0.126090  0.228890  0.680590  1.0  -0.1274
  C  C1081  1  0.130730  0.261610  0.656830  1.0  -0.0151
  C  C1082  1  0.102740  0.292780  0.661120  1.0  -0.1435
  C  C1083  1  0.070020  0.290200  0.687880  1.0  0.1695
  C  C1084  1  0.175810  0.035790  0.786790  1.0  0.1672
  C  C1085  1  0.145200  0.065740  0.789820  1.0  -0.1534
  C  C1086  1  0.145160  0.098900  0.762360  1.0  -0.0459
  C  C1087  1  0.176430  0.100090  0.731830  1.0  -0.1474
  C  C1088  1  0.205650  0.068510  0.730870  1.0  0.1924
  C  C1089  1  0.177410  0.133390  0.700950  1.0  0.3822
  C  C1090  1  0.154550  0.194230  0.676590  1.0  0.3045
  C  C1091  1  0.202810  0.162390  0.641950  1.0  0.3897
  C  C1092  1  0.229590  0.161270  0.606270  1.0  -0.1877
  C  C1093  1  0.254900  0.129220  0.600000  1.0  -0.0428
  C  C1094  1  0.279080  0.131280  0.565500  1.0  -0.1316
  C  C1095  1  0.277200  0.164420  0.538220  1.0  0.1572
  C  C1096  1  0.235430  0.297130  0.429070  1.0  0.159
  C  C1097  1  0.227640  0.327700  0.400680  1.0  -0.1373
  C  C1098  1  0.224390  0.360150  0.398970  1.0  -0.0121
  C  C1099  1  0.228930  0.193330  0.577430  1.0  0.1654
  C  C1100  1  0.229120  0.361600  0.426240  1.0  -0.1886
  C  C1101  1  0.237930  0.329010  0.453530  1.0  0.196
  C  C1102  1  0.227380  0.395220  0.424980  1.0  0.3584
  C  C1103  1  0.722870  0.460690  0.979990  1.0  0.2605
  C  C1104  1  0.554610  0.441970  0.208870  1.0  0.286
  C  C1105  1  0.706790  0.472230  0.092610  1.0  0.1621
  C  C1106  1  0.680590  0.464430  0.126090  1.0  -0.1281
  C  C1107  1  0.656830  0.450830  0.130730  1.0  -0.0134
  C  C1108  1  0.661120  0.443360  0.102740  1.0  -0.1484
  C  C1109  1  0.687880  0.451900  0.070020  1.0  0.1728
  C  C1110  1  0.786790  0.501610  0.175810  1.0  0.1743
  C  C1111  1  0.789820  0.499240  0.145200  1.0  -0.1506
  C  C1112  1  0.762360  0.493580  0.145160  1.0  -0.0491
  C  C1113  1  0.731830  0.491650  0.176430  1.0  -0.1475
  C  C1114  1  0.730870  0.494970  0.205650  1.0  0.1942
  C  C1115  1  0.700950  0.488250  0.177410  1.0  0.382
  C  C1116  1  0.676590  0.474630  0.154550  1.0  0.3055
  C  C1117  1  0.641950  0.492850  0.202810  1.0  0.3884
  C  C1118  1  0.606270  0.502870  0.229590  1.0  -0.1849
  C  C1119  1  0.600000  0.515880  0.254900  1.0  -0.043
  C  C1120  1  0.565500  0.524140  0.279080  1.0  -0.128
  C  C1121  1  0.538220  0.520160  0.277200  1.0  0.1565
  C  C1122  1  0.429070  0.538370  0.235430  1.0  0.1625
  C  C1123  1  0.400680  0.543980  0.227640  1.0  -0.1464
  C  C1124  1  0.398970  0.516490  0.224390  1.0  -0.0128
  C  C1125  1  0.577430  0.500310  0.228930  1.0  0.1766
  C  C1126  1  0.426240  0.483040  0.229120  1.0  -0.1927
  C  C1127  1  0.453530  0.479530  0.237930  1.0  0.1912
  C  C1128  1  0.424980  0.452420  0.227380  1.0  0.3563
  C  C1129  1  0.163550  0.039310  0.520010  1.0  0.2632
  C  C1130  1  0.205450  0.058030  0.291130  1.0  0.2886
  C  C1131  1  0.271630  0.027770  0.407390  1.0  0.1661
  C  C1132  1  0.271110  0.035570  0.373910  1.0  -0.1265
  C  C1133  1  0.238390  0.049170  0.369270  1.0  -0.0156
  C  C1134  1  0.207220  0.056640  0.397260  1.0  -0.1464
  C  C1135  1  0.209800  0.048100  0.429980  1.0  0.1756
  C  C1136  1  0.464210  0.998390  0.324190  1.0  0.1664
  C  C1137  1  0.434260  0.000760  0.354800  1.0  -0.1483
  C  C1138  1  0.401100  0.006420  0.354840  1.0  -0.047
  C  C1139  1  0.399910  0.008350  0.323570  1.0  -0.1484
  C  C1140  1  0.431490  0.005030  0.294350  1.0  0.1939
  C  C1141  1  0.366610  0.011750  0.322590  1.0  0.3825
  C  C1142  1  0.305770  0.025370  0.345450  1.0  0.3049
  C  C1143  1  0.337610  0.007150  0.297190  1.0  0.3907
  C  C1144  1  0.338730  0.997130  0.270410  1.0  -0.1891
  C  C1145  1  0.370780  0.984120  0.245100  1.0  -0.0424
  C  C1146  1  0.368720  0.975860  0.220920  1.0  -0.1208
  C  C1147  1  0.335580  0.979840  0.222800  1.0  0.1626
  C  C1148  1  0.202870  0.961630  0.264570  1.0  0.158
  C  C1149  1  0.172300  0.956020  0.272360  1.0  -0.1448
  C  C1150  1  0.139850  0.983510  0.275610  1.0  -0.0125
  C  C1151  1  0.306670  0.999690  0.271070  1.0  0.1728
  C  C1152  1  0.138400  0.016960  0.270880  1.0  -0.1907
  C  C1153  1  0.170990  0.020470  0.262070  1.0  0.1887
  C  C1154  1  0.104780  0.047580  0.272620  1.0  0.3627
  C  C1155  1  0.039310  0.163550  0.777130  1.0  0.2604
  C  C1156  1  0.058030  0.205450  0.945390  1.0  0.287
  C  C1157  1  0.027770  0.271630  0.793210  1.0  0.1698
  C  C1158  1  0.035570  0.271110  0.819410  1.0  -0.1272
  C  C1159  1  0.049170  0.238390  0.843170  1.0  -0.0155
  C  C1160  1  0.056640  0.207220  0.838880  1.0  -0.1395
  C  C1161  1  0.048100  0.209800  0.812120  1.0  0.1707
  C  C1162  1  0.998390  0.464210  0.713210  1.0  0.1665
  C  C1163  1  0.000760  0.434260  0.710180  1.0  -0.1513
  C  C1164  1  0.006420  0.401100  0.737640  1.0  -0.049
  C  C1165  1  0.008350  0.399910  0.768170  1.0  -0.1491
  C  C1166  1  0.005030  0.431490  0.769130  1.0  0.1919
  C  C1167  1  0.011750  0.366610  0.799050  1.0  0.3828
  C  C1168  1  0.025370  0.305770  0.823410  1.0  0.3064
  C  C1169  1  0.007150  0.337610  0.858050  1.0  0.3888
  C  C1170  1  0.997130  0.338730  0.893730  1.0  -0.1846
  C  C1171  1  0.984120  0.370780  0.900000  1.0  -0.0389
  C  C1172  1  0.975860  0.368720  0.934500  1.0  -0.1273
  C  C1173  1  0.979840  0.335580  0.961780  1.0  0.157
  C  C1174  1  0.961630  0.202870  0.070930  1.0  0.1617
  C  C1175  1  0.956020  0.172300  0.099320  1.0  -0.1468
  C  C1176  1  0.983510  0.139850  0.101030  1.0  -0.0122
  C  C1177  1  0.999690  0.306670  0.922570  1.0  0.1762
  C  C1178  1  0.016960  0.138400  0.073760  1.0  -0.1903
  C  C1179  1  0.020470  0.170990  0.046470  1.0  0.1899
  C  C1180  1  0.047580  0.104780  0.075020  1.0  0.3586
  C  C1181  1  0.777130  0.520010  0.039310  1.0  0.2571
  C  C1182  1  0.945390  0.291130  0.058030  1.0  0.2871
  C  C1183  1  0.793210  0.407390  0.027770  1.0  0.1717
  C  C1184  1  0.819410  0.373910  0.035570  1.0  -0.1277
  C  C1185  1  0.843170  0.369270  0.049170  1.0  -0.0157
  C  C1186  1  0.838880  0.397260  0.056640  1.0  -0.1413
  C  C1187  1  0.812120  0.429980  0.048100  1.0  0.1692
  C  C1188  1  0.713210  0.324190  0.998390  1.0  0.1678
  C  C1189  1  0.710180  0.354800  0.000760  1.0  -0.1517
  C  C1190  1  0.737640  0.354840  0.006420  1.0  -0.0476
  C  C1191  1  0.768170  0.323570  0.008350  1.0  -0.1473
  C  C1192  1  0.769130  0.294350  0.005030  1.0  0.1953
  C  C1193  1  0.799050  0.322590  0.011750  1.0  0.3821
  C  C1194  1  0.823410  0.345450  0.025370  1.0  0.3052
  C  C1195  1  0.858050  0.297190  0.007150  1.0  0.3913
  C  C1196  1  0.893730  0.270410  0.997130  1.0  -0.1856
  C  C1197  1  0.900000  0.245100  0.984120  1.0  -0.0431
  C  C1198  1  0.934500  0.220920  0.975860  1.0  -0.1304
  C  C1199  1  0.961780  0.222800  0.979840  1.0  0.154
  C  C1200  1  0.070930  0.264570  0.961630  1.0  0.1621
  C  C1201  1  0.099320  0.272360  0.956020  1.0  -0.1422
  C  C1202  1  0.101030  0.275610  0.983510  1.0  -0.011
  C  C1203  1  0.922570  0.271070  0.999690  1.0  0.1652
  C  C1204  1  0.073760  0.270880  0.016960  1.0  -0.1936
  C  C1205  1  0.046470  0.262070  0.020470  1.0  0.2016
  C  C1206  1  0.075020  0.272620  0.047580  1.0  0.3603
  C  C1207  1  0.520010  0.777130  0.163550  1.0  0.2615
  C  C1208  1  0.291130  0.945390  0.205450  1.0  0.2859
  C  C1209  1  0.407390  0.793210  0.271630  1.0  0.1613
  C  C1210  1  0.373910  0.819410  0.271110  1.0  -0.1272
  C  C1211  1  0.369270  0.843170  0.238390  1.0  -0.0168
  C  C1212  1  0.397260  0.838880  0.207220  1.0  -0.1448
  C  C1213  1  0.429980  0.812120  0.209800  1.0  0.1691
  C  C1214  1  0.324190  0.713210  0.464210  1.0  0.1665
  C  C1215  1  0.354800  0.710180  0.434260  1.0  -0.1488
  C  C1216  1  0.354840  0.737640  0.401100  1.0  -0.0479
  C  C1217  1  0.323570  0.768170  0.399910  1.0  -0.1482
  C  C1218  1  0.294350  0.769130  0.431490  1.0  0.1943
  C  C1219  1  0.322590  0.799050  0.366610  1.0  0.3822
  C  C1220  1  0.345450  0.823410  0.305770  1.0  0.3052
  C  C1221  1  0.297190  0.858050  0.337610  1.0  0.3898
  C  C1222  1  0.270410  0.893730  0.338730  1.0  -0.1834
  C  C1223  1  0.245100  0.900000  0.370780  1.0  -0.0434
  C  C1224  1  0.220920  0.934500  0.368720  1.0  -0.1359
  C  C1225  1  0.222800  0.961780  0.335580  1.0  0.1557
  C  C1226  1  0.264570  0.070930  0.202870  1.0  0.1567
  C  C1227  1  0.272360  0.099320  0.172300  1.0  -0.1435
  C  C1228  1  0.275610  0.101030  0.139850  1.0  -0.0124
  C  C1229  1  0.271070  0.922570  0.306670  1.0  0.1636
  C  C1230  1  0.270880  0.073760  0.138400  1.0  -0.1916
  C  C1231  1  0.262070  0.046470  0.170990  1.0  0.1971
  C  C1232  1  0.272620  0.075020  0.104780  1.0  0.3565
  C  C1233  1  0.777130  0.163550  0.520010  1.0  0.2604
  C  C1234  1  0.945390  0.205450  0.291130  1.0  0.2916
  C  C1235  1  0.793210  0.271630  0.407390  1.0  0.1653
  C  C1236  1  0.819410  0.271110  0.373910  1.0  -0.1263
  C  C1237  1  0.843170  0.238390  0.369270  1.0  -0.0168
  C  C1238  1  0.838880  0.207220  0.397260  1.0  -0.14
  C  C1239  1  0.812120  0.209800  0.429980  1.0  0.1686
  C  C1240  1  0.713210  0.464210  0.324190  1.0  0.1683
  C  C1241  1  0.710180  0.434260  0.354800  1.0  -0.1609
  C  C1242  1  0.737640  0.401100  0.354840  1.0  -0.0491
  C  C1243  1  0.768170  0.399910  0.323570  1.0  -0.1488
  C  C1244  1  0.769130  0.431490  0.294350  1.0  0.1916
  C  C1245  1  0.799050  0.366610  0.322590  1.0  0.3825
  C  C1246  1  0.823410  0.305770  0.345450  1.0  0.3047
  C  C1247  1  0.858050  0.337610  0.297190  1.0  0.3885
  C  C1248  1  0.893730  0.338730  0.270410  1.0  -0.1861
  C  C1249  1  0.900000  0.370780  0.245100  1.0  -0.0415
  C  C1250  1  0.934500  0.368720  0.220920  1.0  -0.1279
  C  C1251  1  0.961780  0.335580  0.222800  1.0  0.1581
  C  C1252  1  0.070930  0.202870  0.264570  1.0  0.162
  C  C1253  1  0.099320  0.172300  0.272360  1.0  -0.1413
  C  C1254  1  0.101030  0.139850  0.275610  1.0  -0.012
  C  C1255  1  0.922570  0.306670  0.271070  1.0  0.1655
  C  C1256  1  0.073760  0.138400  0.270880  1.0  -0.1911
  C  C1257  1  0.046470  0.170990  0.262070  1.0  0.193
  C  C1258  1  0.075020  0.104780  0.272620  1.0  0.3562
  C  C1259  1  0.520010  0.039310  0.777130  1.0  0.2579
  C  C1260  1  0.291130  0.058030  0.945390  1.0  0.2903
  C  C1261  1  0.407390  0.027770  0.793210  1.0  0.1724
  C  C1262  1  0.373910  0.035570  0.819410  1.0  -0.1286
  C  C1263  1  0.369270  0.049170  0.843170  1.0  -0.0153
  C  C1264  1  0.397260  0.056640  0.838880  1.0  -0.1459
  C  C1265  1  0.429980  0.048100  0.812120  1.0  0.1693
  C  C1266  1  0.324190  0.998390  0.713210  1.0  0.1719
  C  C1267  1  0.354800  0.000760  0.710180  1.0  -0.1495
  C  C1268  1  0.354840  0.006420  0.737640  1.0  -0.0478
  C  C1269  1  0.323570  0.008350  0.768170  1.0  -0.1496
  C  C1270  1  0.294350  0.005030  0.769130  1.0  0.1983
  C  C1271  1  0.322590  0.011750  0.799050  1.0  0.382
  C  C1272  1  0.345450  0.025370  0.823410  1.0  0.3054
  C  C1273  1  0.297190  0.007150  0.858050  1.0  0.3902
  C  C1274  1  0.270410  0.997130  0.893730  1.0  -0.1824
  C  C1275  1  0.245100  0.984120  0.900000  1.0  -0.0406
  C  C1276  1  0.220920  0.975860  0.934500  1.0  -0.1327
  C  C1277  1  0.222800  0.979840  0.961780  1.0  0.1646
  C  C1278  1  0.264570  0.961630  0.070930  1.0  0.1614
  C  C1279  1  0.272360  0.956020  0.099320  1.0  -0.146
  C  C1280  1  0.275610  0.983510  0.101030  1.0  -0.0108
  C  C1281  1  0.271070  0.999690  0.922570  1.0  0.1674
  C  C1282  1  0.270880  0.016960  0.073760  1.0  -0.1869
  C  C1283  1  0.262070  0.020470  0.046470  1.0  0.2019
  C  C1284  1  0.272620  0.047580  0.075020  1.0  0.3591
  C  C1285  1  0.163550  0.777130  0.039310  1.0  0.2637
  C  C1286  1  0.205450  0.945390  0.058030  1.0  0.2929
  C  C1287  1  0.271630  0.793210  0.027770  1.0  0.1709
  C  C1288  1  0.271110  0.819410  0.035570  1.0  -0.1255
  C  C1289  1  0.238390  0.843170  0.049170  1.0  -0.0179
  C  C1290  1  0.207220  0.838880  0.056640  1.0  -0.1469
  C  C1291  1  0.209800  0.812120  0.048100  1.0  0.1708
  C  C1292  1  0.464210  0.713210  0.998390  1.0  0.1663
  C  C1293  1  0.434260  0.710180  0.000760  1.0  -0.1499
  C  C1294  1  0.401100  0.737640  0.006420  1.0  -0.0491
  C  C1295  1  0.399910  0.768170  0.008350  1.0  -0.1482
  C  C1296  1  0.431490  0.769130  0.005030  1.0  0.1909
  C  C1297  1  0.366610  0.799050  0.011750  1.0  0.3823
  C  C1298  1  0.305770  0.823410  0.025370  1.0  0.3073
  C  C1299  1  0.337610  0.858050  0.007150  1.0  0.389
  C  C1300  1  0.338730  0.893730  0.997130  1.0  -0.1863
  C  C1301  1  0.370780  0.900000  0.984120  1.0  -0.0439
  C  C1302  1  0.368720  0.934500  0.975860  1.0  -0.1243
  C  C1303  1  0.335580  0.961780  0.979840  1.0  0.1587
  C  C1304  1  0.202870  0.070930  0.961630  1.0  0.1622
  C  C1305  1  0.172300  0.099320  0.956020  1.0  -0.1449
  C  C1306  1  0.139850  0.101030  0.983510  1.0  -0.0121
  C  C1307  1  0.306670  0.922570  0.999690  1.0  0.1675
  C  C1308  1  0.138400  0.073760  0.016960  1.0  -0.1904
  C  C1309  1  0.170990  0.046470  0.020470  1.0  0.1908
  C  C1310  1  0.104780  0.075020  0.047580  1.0  0.3565
  C  C1311  1  0.039310  0.520010  0.163550  1.0  0.2596
  C  C1312  1  0.058030  0.291130  0.205450  1.0  0.2962
  C  C1313  1  0.027770  0.407390  0.271630  1.0  0.1642
  C  C1314  1  0.035570  0.373910  0.271110  1.0  -0.1289
  C  C1315  1  0.049170  0.369270  0.238390  1.0  -0.0158
  C  C1316  1  0.056640  0.397260  0.207220  1.0  -0.1419
  C  C1317  1  0.048100  0.429980  0.209800  1.0  0.1685
  C  C1318  1  0.998390  0.324190  0.464210  1.0  0.1671
  C  C1319  1  0.000760  0.354800  0.434260  1.0  -0.1501
  C  C1320  1  0.006420  0.354840  0.401100  1.0  -0.0476
  C  C1321  1  0.008350  0.323570  0.399910  1.0  -0.148
  C  C1322  1  0.005030  0.294350  0.431490  1.0  0.1965
  C  C1323  1  0.011750  0.322590  0.366610  1.0  0.3829
  C  C1324  1  0.025370  0.345450  0.305770  1.0  0.3045
  C  C1325  1  0.007150  0.297190  0.337610  1.0  0.3885
  C  C1326  1  0.997130  0.270410  0.338730  1.0  -0.1828
  C  C1327  1  0.984120  0.245100  0.370780  1.0  -0.042
  C  C1328  1  0.975860  0.220920  0.368720  1.0  -0.132
  C  C1329  1  0.979840  0.222800  0.335580  1.0  0.1594
  C  C1330  1  0.961630  0.264570  0.202870  1.0  0.1628
  C  C1331  1  0.956020  0.272360  0.172300  1.0  -0.141
  C  C1332  1  0.983510  0.275610  0.139850  1.0  -0.0133
  C  C1333  1  0.999690  0.271070  0.306670  1.0  0.1728
  C  C1334  1  0.016960  0.270880  0.138400  1.0  -0.1866
  C  C1335  1  0.020470  0.262070  0.170990  1.0  0.1922
  C  C1336  1  0.047580  0.272620  0.104780  1.0  0.3593
  C  C1337  1  0.039310  0.777130  0.520010  1.0  0.2579
  C  C1338  1  0.058030  0.945390  0.291130  1.0  0.2874
  C  C1339  1  0.027770  0.793210  0.407390  1.0  0.1727
  C  C1340  1  0.035570  0.819410  0.373910  1.0  -0.1272
  C  C1341  1  0.049170  0.843170  0.369270  1.0  -0.0125
  C  C1342  1  0.056640  0.838880  0.397260  1.0  -0.143
  C  C1343  1  0.048100  0.812120  0.429980  1.0  0.1716
  C  C1344  1  0.998390  0.713210  0.324190  1.0  0.1703
  C  C1345  1  0.000760  0.710180  0.354800  1.0  -0.1489
  C  C1346  1  0.006420  0.737640  0.354840  1.0  -0.0462
  C  C1347  1  0.008350  0.768170  0.323570  1.0  -0.1498
  C  C1348  1  0.005030  0.769130  0.294350  1.0  0.1925
  C  C1349  1  0.011750  0.799050  0.322590  1.0  0.383
  C  C1350  1  0.025370  0.823410  0.345450  1.0  0.3039
  C  C1351  1  0.007150  0.858050  0.297190  1.0  0.3897
  C  C1352  1  0.997130  0.893730  0.270410  1.0  -0.1857
  C  C1353  1  0.984120  0.900000  0.245100  1.0  -0.0436
  C  C1354  1  0.975860  0.934500  0.220920  1.0  -0.1258
  C  C1355  1  0.979840  0.961780  0.222800  1.0  0.1535
  C  C1356  1  0.961630  0.070930  0.264570  1.0  0.1626
  C  C1357  1  0.956020  0.099320  0.272360  1.0  -0.1427
  C  C1358  1  0.983510  0.101030  0.275610  1.0  -0.0132
  C  C1359  1  0.999690  0.922570  0.271070  1.0  0.1682
  C  C1360  1  0.016960  0.073760  0.270880  1.0  -0.1896
  C  C1361  1  0.020470  0.046470  0.262070  1.0  0.2031
  C  C1362  1  0.047580  0.075020  0.272620  1.0  0.3585
  C  C1363  1  0.163550  0.520010  0.777130  1.0  0.2619
  C  C1364  1  0.205450  0.291130  0.945390  1.0  0.2898
  C  C1365  1  0.271630  0.407390  0.793210  1.0  0.1622
  C  C1366  1  0.271110  0.373910  0.819410  1.0  -0.1282
  C  C1367  1  0.238390  0.369270  0.843170  1.0  -0.0156
  C  C1368  1  0.207220  0.397260  0.838880  1.0  -0.1433
  C  C1369  1  0.209800  0.429980  0.812120  1.0  0.1688
  C  C1370  1  0.464210  0.324190  0.713210  1.0  0.1665
  C  C1371  1  0.434260  0.354800  0.710180  1.0  -0.1504
  C  C1372  1  0.401100  0.354840  0.737640  1.0  -0.0466
  C  C1373  1  0.399910  0.323570  0.768170  1.0  -0.1479
  C  C1374  1  0.431490  0.294350  0.769130  1.0  0.1918
  C  C1375  1  0.366610  0.322590  0.799050  1.0  0.3822
  C  C1376  1  0.305770  0.345450  0.823410  1.0  0.3063
  C  C1377  1  0.337610  0.297190  0.858050  1.0  0.3905
  C  C1378  1  0.338730  0.270410  0.893730  1.0  -0.1867
  C  C1379  1  0.370780  0.245100  0.900000  1.0  -0.0435
  C  C1380  1  0.368720  0.220920  0.934500  1.0  -0.1293
  C  C1381  1  0.335580  0.222800  0.961780  1.0  0.1593
  C  C1382  1  0.202870  0.264570  0.070930  1.0  0.1591
  C  C1383  1  0.172300  0.272360  0.099320  1.0  -0.1395
  C  C1384  1  0.139850  0.275610  0.101030  1.0  -0.0151
  C  C1385  1  0.306670  0.271070  0.922570  1.0  0.1678
  C  C1386  1  0.138400  0.270880  0.073760  1.0  -0.1907
  C  C1387  1  0.170990  0.262070  0.046470  1.0  0.1921
  C  C1388  1  0.104780  0.272620  0.075020  1.0  0.3565
  C  C1389  1  0.520010  0.163550  0.039310  1.0  0.2612
  C  C1390  1  0.291130  0.205450  0.058030  1.0  0.2902
  C  C1391  1  0.407390  0.271630  0.027770  1.0  0.1606
  C  C1392  1  0.373910  0.271110  0.035570  1.0  -0.1273
  C  C1393  1  0.369270  0.238390  0.049170  1.0  -0.0152
  C  C1394  1  0.397260  0.207220  0.056640  1.0  -0.1457
  C  C1395  1  0.429980  0.209800  0.048100  1.0  0.1683
  C  C1396  1  0.324190  0.464210  0.998390  1.0  0.1669
  C  C1397  1  0.354800  0.434260  0.000760  1.0  -0.1514
  C  C1398  1  0.354840  0.401100  0.006420  1.0  -0.0467
  C  C1399  1  0.323570  0.399910  0.008350  1.0  -0.1485
  C  C1400  1  0.294350  0.431490  0.005030  1.0  0.1937
  C  C1401  1  0.322590  0.366610  0.011750  1.0  0.3824
  C  C1402  1  0.345450  0.305770  0.025370  1.0  0.3064
  C  C1403  1  0.297190  0.337610  0.007150  1.0  0.3886
  C  C1404  1  0.270410  0.338730  0.997130  1.0  -0.1874
  C  C1405  1  0.245100  0.370780  0.984120  1.0  -0.0409
  C  C1406  1  0.220920  0.368720  0.975860  1.0  -0.128
  C  C1407  1  0.222800  0.335580  0.979840  1.0  0.1613
  C  C1408  1  0.264570  0.202870  0.961630  1.0  0.1596
  C  C1409  1  0.272360  0.172300  0.956020  1.0  -0.1405
  C  C1410  1  0.275610  0.139850  0.983510  1.0  -0.013
  C  C1411  1  0.271070  0.306670  0.999690  1.0  0.1735
  C  C1412  1  0.270880  0.138400  0.016960  1.0  -0.1895
  C  C1413  1  0.262070  0.170990  0.020470  1.0  0.1915
  C  C1414  1  0.272620  0.104780  0.047580  1.0  0.3586
  C  C1415  1  0.777130  0.039310  0.163550  1.0  0.2603
  C  C1416  1  0.945390  0.058030  0.205450  1.0  0.2897
  C  C1417  1  0.793210  0.027770  0.271630  1.0  0.1738
  C  C1418  1  0.819410  0.035570  0.271110  1.0  -0.129
  C  C1419  1  0.843170  0.049170  0.238390  1.0  -0.0131
  C  C1420  1  0.838880  0.056640  0.207220  1.0  -0.1431
  C  C1421  1  0.812120  0.048100  0.209800  1.0  0.1753
  C  C1422  1  0.713210  0.998390  0.464210  1.0  0.1742
  C  C1423  1  0.710180  0.000760  0.434260  1.0  -0.1517
  C  C1424  1  0.737640  0.006420  0.401100  1.0  -0.0476
  C  C1425  1  0.768170  0.008350  0.399910  1.0  -0.1485
  C  C1426  1  0.769130  0.005030  0.431490  1.0  0.1938
  C  C1427  1  0.799050  0.011750  0.366610  1.0  0.382
  C  C1428  1  0.823410  0.025370  0.305770  1.0  0.3043
  C  C1429  1  0.858050  0.007150  0.337610  1.0  0.3914
  C  C1430  1  0.893730  0.997130  0.338730  1.0  -0.1849
  C  C1431  1  0.900000  0.984120  0.370780  1.0  -0.0435
  C  C1432  1  0.934500  0.975860  0.368720  1.0  -0.1273
  C  C1433  1  0.961780  0.979840  0.335580  1.0  0.1587
  C  C1434  1  0.070930  0.961630  0.202870  1.0  0.1644
  C  C1435  1  0.099320  0.956020  0.172300  1.0  -0.1431
  C  C1436  1  0.101030  0.983510  0.139850  1.0  -0.0124
  C  C1437  1  0.922570  0.999690  0.306670  1.0  0.1657
  C  C1438  1  0.073760  0.016960  0.138400  1.0  -0.1919
  C  C1439  1  0.046470  0.020470  0.170990  1.0  0.1936
  C  C1440  1  0.075020  0.047580  0.104780  1.0  0.3612
  C  C1441  1  0.663550  0.539310  0.277130  1.0  0.2625
  C  C1442  1  0.705450  0.558030  0.445390  1.0  0.2901
  C  C1443  1  0.771630  0.527770  0.293210  1.0  0.1711
  C  C1444  1  0.771110  0.535570  0.319410  1.0  -0.1264
  C  C1445  1  0.738390  0.549170  0.343170  1.0  -0.0151
  C  C1446  1  0.707220  0.556640  0.338880  1.0  -0.1462
  C  C1447  1  0.709800  0.548100  0.312120  1.0  0.1739
  C  C1448  1  0.964210  0.498390  0.213210  1.0  0.1678
  C  C1449  1  0.934260  0.500760  0.210180  1.0  -0.1529
  C  C1450  1  0.901100  0.506420  0.237640  1.0  -0.0469
  C  C1451  1  0.899910  0.508350  0.268170  1.0  -0.1484
  C  C1452  1  0.931490  0.505030  0.269130  1.0  0.1922
  C  C1453  1  0.866610  0.511750  0.299050  1.0  0.3822
  C  C1454  1  0.805770  0.525370  0.323410  1.0  0.3045
  C  C1455  1  0.837610  0.507150  0.358050  1.0  0.3918
  C  C1456  1  0.838730  0.497130  0.393730  1.0  -0.1856
  C  C1457  1  0.870780  0.484120  0.400000  1.0  -0.0426
  C  C1458  1  0.868720  0.475860  0.434500  1.0  -0.1282
  C  C1459  1  0.835580  0.479840  0.461780  1.0  0.1619
  C  C1460  1  0.702870  0.461630  0.570930  1.0  0.1582
  C  C1461  1  0.672300  0.456020  0.599320  1.0  -0.1495
  C  C1462  1  0.639850  0.483510  0.601030  1.0  -0.0135
  C  C1463  1  0.806670  0.499690  0.422570  1.0  0.1732
  C  C1464  1  0.638400  0.516960  0.573760  1.0  -0.191
  C  C1465  1  0.670990  0.520470  0.546470  1.0  0.1887
  C  C1466  1  0.604780  0.547580  0.575020  1.0  0.3611
  C  C1467  1  0.539310  0.663550  0.020010  1.0  0.2609
  C  C1468  1  0.558030  0.705450  0.791130  1.0  0.2866
  C  C1469  1  0.527770  0.771630  0.907390  1.0  0.1685
  C  C1470  1  0.535570  0.771110  0.873910  1.0  -0.1269
  C  C1471  1  0.549170  0.738390  0.869270  1.0  -0.0159
  C  C1472  1  0.556640  0.707220  0.897260  1.0  -0.139
  C  C1473  1  0.548100  0.709800  0.929980  1.0  0.1724
  C  C1474  1  0.498390  0.964210  0.824190  1.0  0.1665
  C  C1475  1  0.500760  0.934260  0.854800  1.0  -0.1519
  C  C1476  1  0.506420  0.901100  0.854840  1.0  -0.0489
  C  C1477  1  0.508350  0.899910  0.823570  1.0  -0.1492
  C  C1478  1  0.505030  0.931490  0.794350  1.0  0.1922
  C  C1479  1  0.511750  0.866610  0.822590  1.0  0.3829
  C  C1480  1  0.525370  0.805770  0.845450  1.0  0.3067
  C  C1481  1  0.507150  0.837610  0.797190  1.0  0.3909
  C  C1482  1  0.497130  0.838730  0.770410  1.0  -0.1876
  C  C1483  1  0.484120  0.870780  0.745100  1.0  -0.0386
  C  C1484  1  0.475860  0.868720  0.720920  1.0  -0.1265
  C  C1485  1  0.479840  0.835580  0.722800  1.0  0.1581
  C  C1486  1  0.461630  0.702870  0.764570  1.0  0.162
  C  C1487  1  0.456020  0.672300  0.772360  1.0  -0.1431
  C  C1488  1  0.483510  0.639850  0.775610  1.0  -0.0118
  C  C1489  1  0.499690  0.806670  0.771070  1.0  0.1747
  C  C1490  1  0.516960  0.638400  0.770880  1.0  -0.1899
  C  C1491  1  0.520470  0.670990  0.762070  1.0  0.1901
  C  C1492  1  0.547580  0.604780  0.772620  1.0  0.3597
  C  C1493  1  0.277130  0.020010  0.663550  1.0  0.2584
  C  C1494  1  0.445390  0.791130  0.705450  1.0  0.289
  C  C1495  1  0.293210  0.907390  0.771630  1.0  0.166
  C  C1496  1  0.319410  0.873910  0.771110  1.0  -0.128
  C  C1497  1  0.343170  0.869270  0.738390  1.0  -0.0163
  C  C1498  1  0.338880  0.897260  0.707220  1.0  -0.139
  C  C1499  1  0.312120  0.929980  0.709800  1.0  0.1693
  C  C1500  1  0.213210  0.824190  0.964210  1.0  0.1688
  C  C1501  1  0.210180  0.854800  0.934260  1.0  -0.1454
  C  C1502  1  0.237640  0.854840  0.901100  1.0  -0.0472
  C  C1503  1  0.268170  0.823570  0.899910  1.0  -0.1475
  C  C1504  1  0.269130  0.794350  0.931490  1.0  0.1943
  C  C1505  1  0.299050  0.822590  0.866610  1.0  0.3821
  C  C1506  1  0.323410  0.845450  0.805770  1.0  0.3051
  C  C1507  1  0.358050  0.797190  0.837610  1.0  0.3909
  C  C1508  1  0.393730  0.770410  0.838730  1.0  -0.1848
  C  C1509  1  0.400000  0.745100  0.870780  1.0  -0.0433
  C  C1510  1  0.434500  0.720920  0.868720  1.0  -0.135
  C  C1511  1  0.461780  0.722800  0.835580  1.0  0.1528
  C  C1512  1  0.570930  0.764570  0.702870  1.0  0.161
  C  C1513  1  0.599320  0.772360  0.672300  1.0  -0.1417
  C  C1514  1  0.601030  0.775610  0.639850  1.0  -0.0111
  C  C1515  1  0.422570  0.771070  0.806670  1.0  0.1653
  C  C1516  1  0.573760  0.770880  0.638400  1.0  -0.192
  C  C1517  1  0.546470  0.762070  0.670990  1.0  0.1976
  C  C1518  1  0.575020  0.772620  0.604780  1.0  0.3588
  C  C1519  1  0.020010  0.277130  0.539310  1.0  0.26
  C  C1520  1  0.791130  0.445390  0.558030  1.0  0.2862
  C  C1521  1  0.907390  0.293210  0.527770  1.0  0.1652
  C  C1522  1  0.873910  0.319410  0.535570  1.0  -0.1273
  C  C1523  1  0.869270  0.343170  0.549170  1.0  -0.0167
  C  C1524  1  0.897260  0.338880  0.556640  1.0  -0.1479
  C  C1525  1  0.929980  0.312120  0.548100  1.0  0.1698
  C  C1526  1  0.824190  0.213210  0.498390  1.0  0.1661
  C  C1527  1  0.854800  0.210180  0.500760  1.0  -0.1426
  C  C1528  1  0.854840  0.237640  0.506420  1.0  -0.0487
  C  C1529  1  0.823570  0.268170  0.508350  1.0  -0.148
  C  C1530  1  0.794350  0.269130  0.505030  1.0  0.1945
  C  C1531  1  0.822590  0.299050  0.511750  1.0  0.3822
  C  C1532  1  0.845450  0.323410  0.525370  1.0  0.3054
  C  C1533  1  0.797190  0.358050  0.507150  1.0  0.3911
  C  C1534  1  0.770410  0.393730  0.497130  1.0  -0.1849
  C  C1535  1  0.745100  0.400000  0.484120  1.0  -0.0434
  C  C1536  1  0.720920  0.434500  0.475860  1.0  -0.1317
  C  C1537  1  0.722800  0.461780  0.479840  1.0  0.1567
  C  C1538  1  0.764570  0.570930  0.461630  1.0  0.1593
  C  C1539  1  0.772360  0.599320  0.456020  1.0  -0.1433
  C  C1540  1  0.775610  0.601030  0.483510  1.0  -0.0125
  C  C1541  1  0.771070  0.422570  0.499690  1.0  0.1644
  C  C1542  1  0.770880  0.573760  0.516960  1.0  -0.1924
  C  C1543  1  0.762070  0.546470  0.520470  1.0  0.1973
  C  C1544  1  0.772620  0.575020  0.547580  1.0  0.3586
  C  C1545  1  0.277130  0.663550  0.539310  1.0  0.2598
  C  C1546  1  0.445390  0.705450  0.558030  1.0  0.2924
  C  C1547  1  0.293210  0.771630  0.527770  1.0  0.167
  C  C1548  1  0.319410  0.771110  0.535570  1.0  -0.126
  C  C1549  1  0.343170  0.738390  0.549170  1.0  -0.0165
  C  C1550  1  0.338880  0.707220  0.556640  1.0  -0.1398
  C  C1551  1  0.312120  0.709800  0.548100  1.0  0.1675
  C  C1552  1  0.213210  0.964210  0.498390  1.0  0.1679
  C  C1553  1  0.210180  0.934260  0.500760  1.0  -0.1566
  C  C1554  1  0.237640  0.901100  0.506420  1.0  -0.0484
  C  C1555  1  0.268170  0.899910  0.508350  1.0  -0.1489
  C  C1556  1  0.269130  0.931490  0.505030  1.0  0.1918
  C  C1557  1  0.299050  0.866610  0.511750  1.0  0.3826
  C  C1558  1  0.323410  0.805770  0.525370  1.0  0.3047
  C  C1559  1  0.358050  0.837610  0.507150  1.0  0.3886
  C  C1560  1  0.393730  0.838730  0.497130  1.0  -0.1863
  C  C1561  1  0.400000  0.870780  0.484120  1.0  -0.0415
  C  C1562  1  0.434500  0.868720  0.475860  1.0  -0.1267
  C  C1563  1  0.461780  0.835580  0.479840  1.0  0.1587
  C  C1564  1  0.570930  0.702870  0.461630  1.0  0.162
  C  C1565  1  0.599320  0.672300  0.456020  1.0  -0.1405
  C  C1566  1  0.601030  0.639850  0.483510  1.0  -0.0124
  C  C1567  1  0.422570  0.806670  0.499690  1.0  0.1674
  C  C1568  1  0.573760  0.638400  0.516960  1.0  -0.1909
  C  C1569  1  0.546470  0.670990  0.520470  1.0  0.1924
  C  C1570  1  0.575020  0.604780  0.547580  1.0  0.3596
  C  C1571  1  0.020010  0.539310  0.663550  1.0  0.2613
  C  C1572  1  0.791130  0.558030  0.705450  1.0  0.2914
  C  C1573  1  0.907390  0.527770  0.771630  1.0  0.1709
  C  C1574  1  0.873910  0.535570  0.771110  1.0  -0.1283
  C  C1575  1  0.869270  0.549170  0.738390  1.0  -0.0153
  C  C1576  1  0.897260  0.556640  0.707220  1.0  -0.1437
  C  C1577  1  0.929980  0.548100  0.709800  1.0  0.1704
  C  C1578  1  0.824190  0.498390  0.964210  1.0  0.1711
  C  C1579  1  0.854800  0.500760  0.934260  1.0  -0.149
  C  C1580  1  0.854840  0.506420  0.901100  1.0  -0.0472
  C  C1581  1  0.823570  0.508350  0.899910  1.0  -0.1482
  C  C1582  1  0.794350  0.505030  0.931490  1.0  0.2024
  C  C1583  1  0.822590  0.511750  0.866610  1.0  0.3824
  C  C1584  1  0.845450  0.525370  0.805770  1.0  0.3055
  C  C1585  1  0.797190  0.507150  0.837610  1.0  0.3897
  C  C1586  1  0.770410  0.497130  0.838730  1.0  -0.1824
  C  C1587  1  0.745100  0.484120  0.870780  1.0  -0.0417
  C  C1588  1  0.720920  0.475860  0.868720  1.0  -0.1278
  C  C1589  1  0.722800  0.479840  0.835580  1.0  0.1636
  C  C1590  1  0.764570  0.461630  0.702870  1.0  0.1614
  C  C1591  1  0.772360  0.456020  0.672300  1.0  -0.1446
  C  C1592  1  0.775610  0.483510  0.639850  1.0  -0.012
  C  C1593  1  0.771070  0.499690  0.806670  1.0  0.1726
  C  C1594  1  0.770880  0.516960  0.638400  1.0  -0.1872
  C  C1595  1  0.762070  0.520470  0.670990  1.0  0.202
  C  C1596  1  0.772620  0.547580  0.604780  1.0  0.364
  C  C1597  1  0.663550  0.277130  0.020010  1.0  0.2637
  C  C1598  1  0.705450  0.445390  0.791130  1.0  0.292
  C  C1599  1  0.771630  0.293210  0.907390  1.0  0.1655
  C  C1600  1  0.771110  0.319410  0.873910  1.0  -0.126
  C  C1601  1  0.738390  0.343170  0.869270  1.0  -0.018
  C  C1602  1  0.707220  0.338880  0.897260  1.0  -0.1466
  C  C1603  1  0.709800  0.312120  0.929980  1.0  0.1701
  C  C1604  1  0.964210  0.213210  0.824190  1.0  0.1667
  C  C1605  1  0.934260  0.210180  0.854800  1.0  -0.1543
  C  C1606  1  0.901100  0.237640  0.854840  1.0  -0.0494
  C  C1607  1  0.899910  0.268170  0.823570  1.0  -0.1481
  C  C1608  1  0.931490  0.269130  0.794350  1.0  0.1912
  C  C1609  1  0.866610  0.299050  0.822590  1.0  0.3822
  C  C1610  1  0.805770  0.323410  0.845450  1.0  0.3063
  C  C1611  1  0.837610  0.358050  0.797190  1.0  0.3893
  C  C1612  1  0.838730  0.393730  0.770410  1.0  -0.1863
  C  C1613  1  0.870780  0.400000  0.745100  1.0  -0.0437
  C  C1614  1  0.868720  0.434500  0.720920  1.0  -0.1237
  C  C1615  1  0.835580  0.461780  0.722800  1.0  0.1577
  C  C1616  1  0.702870  0.570930  0.764570  1.0  0.1612
  C  C1617  1  0.672300  0.599320  0.772360  1.0  -0.1446
  C  C1618  1  0.639850  0.601030  0.775610  1.0  -0.012
  C  C1619  1  0.806670  0.422570  0.771070  1.0  0.1654
  C  C1620  1  0.638400  0.573760  0.770880  1.0  -0.1907
  C  C1621  1  0.670990  0.546470  0.762070  1.0  0.1915
  C  C1622  1  0.604780  0.575020  0.772620  1.0  0.3542
  C  C1623  1  0.539310  0.020010  0.277130  1.0  0.2559
  C  C1624  1  0.558030  0.791130  0.445390  1.0  0.2955
  C  C1625  1  0.527770  0.907390  0.293210  1.0  0.1656
  C  C1626  1  0.535570  0.873910  0.319410  1.0  -0.1292
  C  C1627  1  0.549170  0.869270  0.343170  1.0  -0.015
  C  C1628  1  0.556640  0.897260  0.338880  1.0  -0.1443
  C  C1629  1  0.548100  0.929980  0.312120  1.0  0.1681
  C  C1630  1  0.498390  0.824190  0.213210  1.0  0.168
  C  C1631  1  0.500760  0.854800  0.210180  1.0  -0.1499
  C  C1632  1  0.506420  0.854840  0.237640  1.0  -0.0483
  C  C1633  1  0.508350  0.823570  0.268170  1.0  -0.1497
  C  C1634  1  0.505030  0.794350  0.269130  1.0  0.1959
  C  C1635  1  0.511750  0.822590  0.299050  1.0  0.3825
  C  C1636  1  0.525370  0.845450  0.323410  1.0  0.3056
  C  C1637  1  0.507150  0.797190  0.358050  1.0  0.3901
  C  C1638  1  0.497130  0.770410  0.393730  1.0  -0.1821
  C  C1639  1  0.484120  0.745100  0.400000  1.0  -0.041
  C  C1640  1  0.475860  0.720920  0.434500  1.0  -0.1374
  C  C1641  1  0.479840  0.722800  0.461780  1.0  0.1606
  C  C1642  1  0.461630  0.764570  0.570930  1.0  0.1624
  C  C1643  1  0.456020  0.772360  0.599320  1.0  -0.1427
  C  C1644  1  0.483510  0.775610  0.601030  1.0  -0.013
  C  C1645  1  0.499690  0.771070  0.422570  1.0  0.1676
  C  C1646  1  0.516960  0.770880  0.573760  1.0  -0.1863
  C  C1647  1  0.520470  0.762070  0.546470  1.0  0.1916
  C  C1648  1  0.547580  0.772620  0.575020  1.0  0.3594
  C  C1649  1  0.539310  0.277130  0.663550  1.0  0.26
  C  C1650  1  0.558030  0.445390  0.705450  1.0  0.2877
  C  C1651  1  0.527770  0.293210  0.771630  1.0  0.1729
  C  C1652  1  0.535570  0.319410  0.771110  1.0  -0.1287
  C  C1653  1  0.549170  0.343170  0.738390  1.0  -0.013
  C  C1654  1  0.556640  0.338880  0.707220  1.0  -0.1426
  C  C1655  1  0.548100  0.312120  0.709800  1.0  0.1718
  C  C1656  1  0.498390  0.213210  0.964210  1.0  0.1712
  C  C1657  1  0.500760  0.210180  0.934260  1.0  -0.1482
  C  C1658  1  0.506420  0.237640  0.901100  1.0  -0.0469
  C  C1659  1  0.508350  0.268170  0.899910  1.0  -0.1492
  C  C1660  1  0.505030  0.269130  0.931490  1.0  0.1931
  C  C1661  1  0.511750  0.299050  0.866610  1.0  0.3829
  C  C1662  1  0.525370  0.323410  0.805770  1.0  0.3054
  C  C1663  1  0.507150  0.358050  0.837610  1.0  0.3904
  C  C1664  1  0.497130  0.393730  0.838730  1.0  -0.1851
  C  C1665  1  0.484120  0.400000  0.870780  1.0  -0.0436
  C  C1666  1  0.475860  0.434500  0.868720  1.0  -0.1321
  C  C1667  1  0.479840  0.461780  0.835580  1.0  0.1528
  C  C1668  1  0.461630  0.570930  0.702870  1.0  0.1627
  C  C1669  1  0.456020  0.599320  0.672300  1.0  -0.1438
  C  C1670  1  0.483510  0.601030  0.639850  1.0  -0.0128
  C  C1671  1  0.499690  0.422570  0.806670  1.0  0.1693
  C  C1672  1  0.516960  0.573760  0.638400  1.0  -0.1893
  C  C1673  1  0.520470  0.546470  0.670990  1.0  0.2001
  C  C1674  1  0.547580  0.575020  0.604780  1.0  0.3602
  C  C1675  1  0.663550  0.020010  0.539310  1.0  0.2624
  C  C1676  1  0.705450  0.791130  0.558030  1.0  0.2883
  C  C1677  1  0.771630  0.907390  0.527770  1.0  0.1618
  C  C1678  1  0.771110  0.873910  0.535570  1.0  -0.1283
  C  C1679  1  0.738390  0.869270  0.549170  1.0  -0.0159
  C  C1680  1  0.707220  0.897260  0.556640  1.0  -0.1437
  C  C1681  1  0.709800  0.929980  0.548100  1.0  0.1687
  C  C1682  1  0.964210  0.824190  0.498390  1.0  0.1659
  C  C1683  1  0.934260  0.854800  0.500760  1.0  -0.1502
  C  C1684  1  0.901100  0.854840  0.506420  1.0  -0.046
  C  C1685  1  0.899910  0.823570  0.508350  1.0  -0.1481
  C  C1686  1  0.931490  0.794350  0.505030  1.0  0.192
  C  C1687  1  0.866610  0.822590  0.511750  1.0  0.3824
  C  C1688  1  0.805770  0.845450  0.525370  1.0  0.3065
  C  C1689  1  0.837610  0.797190  0.507150  1.0  0.3909
  C  C1690  1  0.838730  0.770410  0.497130  1.0  -0.1885
  C  C1691  1  0.870780  0.745100  0.484120  1.0  -0.0434
  C  C1692  1  0.868720  0.720920  0.475860  1.0  -0.1228
  C  C1693  1  0.835580  0.722800  0.479840  1.0  0.1588
  C  C1694  1  0.702870  0.764570  0.461630  1.0  0.159
  C  C1695  1  0.672300  0.772360  0.456020  1.0  -0.1371
  C  C1696  1  0.639850  0.775610  0.483510  1.0  -0.0145
  C  C1697  1  0.806670  0.771070  0.499690  1.0  0.1731
  C  C1698  1  0.638400  0.770880  0.516960  1.0  -0.1903
  C  C1699  1  0.670990  0.762070  0.520470  1.0  0.193
  C  C1700  1  0.604780  0.772620  0.547580  1.0  0.3582
  C  C1701  1  0.020010  0.663550  0.277130  1.0  0.261
  C  C1702  1  0.791130  0.705450  0.445390  1.0  0.2859
  C  C1703  1  0.907390  0.771630  0.293210  1.0  0.1609
  C  C1704  1  0.873910  0.771110  0.319410  1.0  -0.1272
  C  C1705  1  0.869270  0.738390  0.343170  1.0  -0.0147
  C  C1706  1  0.897260  0.707220  0.338880  1.0  -0.1454
  C  C1707  1  0.929980  0.709800  0.312120  1.0  0.1683
  C  C1708  1  0.824190  0.964210  0.213210  1.0  0.1672
  C  C1709  1  0.854800  0.934260  0.210180  1.0  -0.151
  C  C1710  1  0.854840  0.901100  0.237640  1.0  -0.0474
  C  C1711  1  0.823570  0.899910  0.268170  1.0  -0.1483
  C  C1712  1  0.794350  0.931490  0.269130  1.0  0.1936
  C  C1713  1  0.822590  0.866610  0.299050  1.0  0.3824
  C  C1714  1  0.845450  0.805770  0.323410  1.0  0.3059
  C  C1715  1  0.797190  0.837610  0.358050  1.0  0.391
  C  C1716  1  0.770410  0.838730  0.393730  1.0  -0.1862
  C  C1717  1  0.745100  0.870780  0.400000  1.0  -0.0411
  C  C1718  1  0.720920  0.868720  0.434500  1.0  -0.1272
  C  C1719  1  0.722800  0.835580  0.461780  1.0  0.1615
  C  C1720  1  0.764570  0.702870  0.570930  1.0  0.1598
  C  C1721  1  0.772360  0.672300  0.599320  1.0  -0.1392
  C  C1722  1  0.775610  0.639850  0.601030  1.0  -0.0128
  C  C1723  1  0.771070  0.806670  0.422570  1.0  0.1732
  C  C1724  1  0.770880  0.638400  0.573760  1.0  -0.1897
  C  C1725  1  0.762070  0.670990  0.546470  1.0  0.1918
  C  C1726  1  0.772620  0.604780  0.575020  1.0  0.359
  C  C1727  1  0.277130  0.539310  0.020010  1.0  0.2582
  C  C1728  1  0.445390  0.558030  0.791130  1.0  0.2875
  C  C1729  1  0.293210  0.527770  0.907390  1.0  0.1734
  C  C1730  1  0.319410  0.535570  0.873910  1.0  -0.1275
  C  C1731  1  0.343170  0.549170  0.869270  1.0  -0.0124
  C  C1732  1  0.338880  0.556640  0.897260  1.0  -0.1436
  C  C1733  1  0.312120  0.548100  0.929980  1.0  0.174
  C  C1734  1  0.213210  0.498390  0.824190  1.0  0.1733
  C  C1735  1  0.210180  0.500760  0.854800  1.0  -0.1523
  C  C1736  1  0.237640  0.506420  0.854840  1.0  -0.0477
  C  C1737  1  0.268170  0.508350  0.823570  1.0  -0.1486
  C  C1738  1  0.269130  0.505030  0.794350  1.0  0.1968
  C  C1739  1  0.299050  0.511750  0.822590  1.0  0.3821
  C  C1740  1  0.323410  0.525370  0.845450  1.0  0.3054
  C  C1741  1  0.358050  0.507150  0.797190  1.0  0.3918
  C  C1742  1  0.393730  0.497130  0.770410  1.0  -0.1848
  C  C1743  1  0.400000  0.484120  0.745100  1.0  -0.043
  C  C1744  1  0.434500  0.475860  0.720920  1.0  -0.1254
  C  C1745  1  0.461780  0.479840  0.722800  1.0  0.1577
  C  C1746  1  0.570930  0.461630  0.764570  1.0  0.1634
  C  C1747  1  0.599320  0.456020  0.772360  1.0  -0.1425
  C  C1748  1  0.601030  0.483510  0.775610  1.0  -0.013
  C  C1749  1  0.422570  0.499690  0.771070  1.0  0.1662
  C  C1750  1  0.573760  0.516960  0.770880  1.0  -0.193
  C  C1751  1  0.546470  0.520470  0.762070  1.0  0.1956
  C  C1752  1  0.575020  0.547580  0.772620  1.0  0.3587
  C  C1753  1  0.836450  0.960690  0.479990  1.0  0.2638
  C  C1754  1  0.794550  0.941970  0.708870  1.0  0.2886
  C  C1755  1  0.728370  0.972230  0.592610  1.0  0.1651
  C  C1756  1  0.728890  0.964430  0.626090  1.0  -0.1264
  C  C1757  1  0.761610  0.950830  0.630730  1.0  -0.0163
  C  C1758  1  0.792780  0.943360  0.602740  1.0  -0.1443
  C  C1759  1  0.790200  0.951900  0.570020  1.0  0.1736
  C  C1760  1  0.535790  0.001610  0.675810  1.0  0.1676
  C  C1761  1  0.565740  0.999240  0.645200  1.0  -0.1468
  C  C1762  1  0.598900  0.993580  0.645160  1.0  -0.0468
  C  C1763  1  0.600090  0.991650  0.676430  1.0  -0.1493
  C  C1764  1  0.568510  0.994970  0.705650  1.0  0.1969
  C  C1765  1  0.633390  0.988250  0.677410  1.0  0.3819
  C  C1766  1  0.694230  0.974630  0.654550  1.0  0.3042
  C  C1767  1  0.662390  0.992850  0.702810  1.0  0.389
  C  C1768  1  0.661270  0.002870  0.729590  1.0  -0.1865
  C  C1769  1  0.629220  0.015880  0.754900  1.0  -0.0422
  C  C1770  1  0.631280  0.024140  0.779080  1.0  -0.1352
  C  C1771  1  0.664420  0.020160  0.777200  1.0  0.1599
  C  C1772  1  0.797130  0.038370  0.735430  1.0  0.158
  C  C1773  1  0.827700  0.043980  0.727640  1.0  -0.1422
  C  C1774  1  0.860150  0.016490  0.724390  1.0  -0.0132
  C  C1775  1  0.693330  0.000310  0.728930  1.0  0.1737
  C  C1776  1  0.861600  0.983040  0.729120  1.0  -0.1912
  C  C1777  1  0.829010  0.979530  0.737930  1.0  0.2019
  C  C1778  1  0.895220  0.952420  0.727380  1.0  0.3545
  C  C1779  1  0.960690  0.836450  0.222870  1.0  0.2613
  C  C1780  1  0.941970  0.794550  0.054610  1.0  0.2884
  C  C1781  1  0.972230  0.728370  0.206790  1.0  0.1682
  C  C1782  1  0.964430  0.728890  0.180590  1.0  -0.1271
  C  C1783  1  0.950830  0.761610  0.156830  1.0  -0.0151
  C  C1784  1  0.943360  0.792780  0.161120  1.0  -0.1487
  C  C1785  1  0.951900  0.790200  0.187880  1.0  0.1731
  C  C1786  1  0.001610  0.535790  0.286790  1.0  0.1658
  C  C1787  1  0.999240  0.565740  0.289820  1.0  -0.1489
  C  C1788  1  0.993580  0.598900  0.262360  1.0  -0.0461
  C  C1789  1  0.991650  0.600090  0.231830  1.0  -0.1472
  C  C1790  1  0.994970  0.568510  0.230870  1.0  0.2055
  C  C1791  1  0.988250  0.633390  0.200950  1.0  0.3823
  C  C1792  1  0.974630  0.694230  0.176590  1.0  0.3051
  C  C1793  1  0.992850  0.662390  0.141950  1.0  0.3897
  C  C1794  1  0.002870  0.661270  0.106270  1.0  -0.1863
  C  C1795  1  0.015880  0.629220  0.100000  1.0  -0.0401
  C  C1796  1  0.024140  0.631280  0.065500  1.0  -0.1311
  C  C1797  1  0.020160  0.664420  0.038220  1.0  0.1567
  C  C1798  1  0.038370  0.797130  0.929070  1.0  0.1615
  C  C1799  1  0.043980  0.827700  0.900680  1.0  -0.1384
  C  C1800  1  0.016490  0.860150  0.898970  1.0  -0.0103
  C  C1801  1  0.000310  0.693330  0.077430  1.0  0.1653
  C  C1802  1  0.983040  0.861600  0.926240  1.0  -0.1892
  C  C1803  1  0.979530  0.829010  0.953530  1.0  0.2016
  C  C1804  1  0.952420  0.895220  0.924980  1.0  0.3542
  C  C1805  1  0.222870  0.479990  0.960690  1.0  0.2596
  C  C1806  1  0.054610  0.708870  0.941970  1.0  0.2912
  C  C1807  1  0.206790  0.592610  0.972230  1.0  0.166
  C  C1808  1  0.180590  0.626090  0.964430  1.0  -0.127
  C  C1809  1  0.156830  0.630730  0.950830  1.0  -0.016
  C  C1810  1  0.161120  0.602740  0.943360  1.0  -0.1409
  C  C1811  1  0.187880  0.570020  0.951900  1.0  0.1686
  C  C1812  1  0.286790  0.675810  0.001610  1.0  0.1689
  C  C1813  1  0.289820  0.645200  0.999240  1.0  -0.1492
  C  C1814  1  0.262360  0.645160  0.993580  1.0  -0.0504
  C  C1815  1  0.231830  0.676430  0.991650  1.0  -0.147
  C  C1816  1  0.230870  0.705650  0.994970  1.0  0.1966
  C  C1817  1  0.200950  0.677410  0.988250  1.0  0.3822
  C  C1818  1  0.176590  0.654550  0.974630  1.0  0.3056
  C  C1819  1  0.141950  0.702810  0.992850  1.0  0.3889
  C  C1820  1  0.106270  0.729590  0.002870  1.0  -0.1842
  C  C1821  1  0.100000  0.754900  0.015880  1.0  -0.0428
  C  C1822  1  0.065500  0.779080  0.024140  1.0  -0.1296
  C  C1823  1  0.038220  0.777200  0.020160  1.0  0.1551
  C  C1824  1  0.929070  0.735430  0.038370  1.0  0.1613
  C  C1825  1  0.900680  0.727640  0.043980  1.0  -0.1477
  C  C1826  1  0.898970  0.724390  0.016490  1.0  -0.0124
  C  C1827  1  0.077430  0.728930  0.000310  1.0  0.1748
  C  C1828  1  0.926240  0.729120  0.983040  1.0  -0.1931
  C  C1829  1  0.953530  0.737930  0.979530  1.0  0.1922
  C  C1830  1  0.924980  0.727380  0.952420  1.0  0.3536
  C  C1831  1  0.479990  0.222870  0.836450  1.0  0.2578
  C  C1832  1  0.708870  0.054610  0.794550  1.0  0.2858
  C  C1833  1  0.592610  0.206790  0.728370  1.0  0.1762
  C  C1834  1  0.626090  0.180590  0.728890  1.0  -0.1276
  C  C1835  1  0.630730  0.156830  0.761610  1.0  -0.0169
  C  C1836  1  0.602740  0.161120  0.792780  1.0  -0.1436
  C  C1837  1  0.570020  0.187880  0.790200  1.0  0.1698
  C  C1838  1  0.675810  0.286790  0.535790  1.0  0.1653
  C  C1839  1  0.645200  0.289820  0.565740  1.0  -0.1523
  C  C1840  1  0.645160  0.262360  0.598900  1.0  -0.0492
  C  C1841  1  0.676430  0.231830  0.600090  1.0  -0.1468
  C  C1842  1  0.705650  0.230870  0.568510  1.0  0.1992
  C  C1843  1  0.677410  0.200950  0.633390  1.0  0.3826
  C  C1844  1  0.654550  0.176590  0.694230  1.0  0.3054
  C  C1845  1  0.702810  0.141950  0.662390  1.0  0.3908
  C  C1846  1  0.729590  0.106270  0.661270  1.0  -0.1838
  C  C1847  1  0.754900  0.100000  0.629220  1.0  -0.0429
  C  C1848  1  0.779080  0.065500  0.631280  1.0  -0.1223
  C  C1849  1  0.777200  0.038220  0.664420  1.0  0.1566
  C  C1850  1  0.735430  0.929070  0.797130  1.0  0.1579
  C  C1851  1  0.727640  0.900680  0.827700  1.0  -0.1484
  C  C1852  1  0.724390  0.898970  0.860150  1.0  -0.013
  C  C1853  1  0.728930  0.077430  0.693330  1.0  0.1774
  C  C1854  1  0.729120  0.926240  0.861600  1.0  -0.193
  C  C1855  1  0.737930  0.953530  0.829010  1.0  0.1914
  C  C1856  1  0.727380  0.924980  0.895220  1.0  0.3563
  C  C1857  1  0.222870  0.836450  0.479990  1.0  0.26
  C  C1858  1  0.054610  0.794550  0.708870  1.0  0.2914
  C  C1859  1  0.206790  0.728370  0.592610  1.0  0.1676
  C  C1860  1  0.180590  0.728890  0.626090  1.0  -0.125
  C  C1861  1  0.156830  0.761610  0.630730  1.0  -0.0161
  C  C1862  1  0.161120  0.792780  0.602740  1.0  -0.1504
  C  C1863  1  0.187880  0.790200  0.570020  1.0  0.1691
  C  C1864  1  0.286790  0.535790  0.675810  1.0  0.1694
  C  C1865  1  0.289820  0.565740  0.645200  1.0  -0.1436
  C  C1866  1  0.262360  0.598900  0.645160  1.0  -0.0474
  C  C1867  1  0.231830  0.600090  0.676430  1.0  -0.1487
  C  C1868  1  0.230870  0.568510  0.705650  1.0  0.2048
  C  C1869  1  0.200950  0.633390  0.677410  1.0  0.3824
  C  C1870  1  0.176590  0.694230  0.654550  1.0  0.3045
  C  C1871  1  0.141950  0.662390  0.702810  1.0  0.3905
  C  C1872  1  0.106270  0.661270  0.729590  1.0  -0.1868
  C  C1873  1  0.100000  0.629220  0.754900  1.0  -0.0419
  C  C1874  1  0.065500  0.631280  0.779080  1.0  -0.1288
  C  C1875  1  0.038220  0.664420  0.777200  1.0  0.1552
  C  C1876  1  0.929070  0.797130  0.735430  1.0  0.1618
  C  C1877  1  0.900680  0.827700  0.727640  1.0  -0.1414
  C  C1878  1  0.898970  0.860150  0.724390  1.0  -0.0111
  C  C1879  1  0.077430  0.693330  0.728930  1.0  0.1733
  C  C1880  1  0.926240  0.861600  0.729120  1.0  -0.1913
  C  C1881  1  0.953530  0.829010  0.737930  1.0  0.1968
  C  C1882  1  0.924980  0.895220  0.727380  1.0  0.3596
  C  C1883  1  0.479990  0.960690  0.222870  1.0  0.2605
  C  C1884  1  0.708870  0.941970  0.054610  1.0  0.2914
  C  C1885  1  0.592610  0.972230  0.206790  1.0  0.1672
  C  C1886  1  0.626090  0.964430  0.180590  1.0  -0.1296
  C  C1887  1  0.630730  0.950830  0.156830  1.0  -0.0158
  C  C1888  1  0.602740  0.943360  0.161120  1.0  -0.1423
  C  C1889  1  0.570020  0.951900  0.187880  1.0  0.1695
  C  C1890  1  0.675810  0.001610  0.286790  1.0  0.1711
  C  C1891  1  0.645200  0.999240  0.289820  1.0  -0.1527
  C  C1892  1  0.645160  0.993580  0.262360  1.0  -0.0488
  C  C1893  1  0.676430  0.991650  0.231830  1.0  -0.148
  C  C1894  1  0.705650  0.994970  0.230870  1.0  0.1923
  C  C1895  1  0.677410  0.988250  0.200950  1.0  0.382
  C  C1896  1  0.654550  0.974630  0.176590  1.0  0.3057
  C  C1897  1  0.702810  0.992850  0.141950  1.0  0.3874
  C  C1898  1  0.729590  0.002870  0.106270  1.0  -0.1826
  C  C1899  1  0.754900  0.015880  0.100000  1.0  -0.0417
  C  C1900  1  0.779080  0.024140  0.065500  1.0  -0.1196
  C  C1901  1  0.777200  0.020160  0.038220  1.0  0.1641
  C  C1902  1  0.735430  0.038370  0.929070  1.0  0.1601
  C  C1903  1  0.727640  0.043980  0.900680  1.0  -0.1434
  C  C1904  1  0.724390  0.016490  0.898970  1.0  -0.0125
  C  C1905  1  0.728930  0.000310  0.077430  1.0  0.1764
  C  C1906  1  0.729120  0.983040  0.926240  1.0  -0.1879
  C  C1907  1  0.737930  0.979530  0.953530  1.0  0.1964
  C  C1908  1  0.727380  0.952420  0.924980  1.0  0.3573
  C  C1909  1  0.836450  0.222870  0.960690  1.0  0.2648
  C  C1910  1  0.794550  0.054610  0.941970  1.0  0.2919
  C  C1911  1  0.728370  0.206790  0.972230  1.0  0.1658
  C  C1912  1  0.728890  0.180590  0.964430  1.0  -0.1262
  C  C1913  1  0.761610  0.156830  0.950830  1.0  -0.0192
  C  C1914  1  0.792780  0.161120  0.943360  1.0  -0.1464
  C  C1915  1  0.790200  0.187880  0.951900  1.0  0.173
  C  C1916  1  0.535790  0.286790  0.001610  1.0  0.1658
  C  C1917  1  0.565740  0.289820  0.999240  1.0  -0.1498
  C  C1918  1  0.598900  0.262360  0.993580  1.0  -0.0486
  C  C1919  1  0.600090  0.231830  0.991650  1.0  -0.1488
  C  C1920  1  0.568510  0.230870  0.994970  1.0  0.2032
  C  C1921  1  0.633390  0.200950  0.988250  1.0  0.3823
  C  C1922  1  0.694230  0.176590  0.974630  1.0  0.3042
  C  C1923  1  0.662390  0.141950  0.992850  1.0  0.3908
  C  C1924  1  0.661270  0.106270  0.002870  1.0  -0.1856
  C  C1925  1  0.629220  0.100000  0.015880  1.0  -0.0432
  C  C1926  1  0.631280  0.065500  0.024140  1.0  -0.1251
  C  C1927  1  0.664420  0.038220  0.020160  1.0  0.1572
  C  C1928  1  0.797130  0.929070  0.038370  1.0  0.1614
  C  C1929  1  0.827700  0.900680  0.043980  1.0  -0.1468
  C  C1930  1  0.860150  0.898970  0.016490  1.0  -0.012
  C  C1931  1  0.693330  0.077430  0.000310  1.0  0.1697
  C  C1932  1  0.861600  0.926240  0.983040  1.0  -0.1914
  C  C1933  1  0.829010  0.953530  0.979530  1.0  0.1999
  C  C1934  1  0.895220  0.924980  0.952420  1.0  0.3559
  C  C1935  1  0.960690  0.479990  0.836450  1.0  0.2556
  C  C1936  1  0.941970  0.708870  0.794550  1.0  0.2938
  C  C1937  1  0.972230  0.592610  0.728370  1.0  0.1743
  C  C1938  1  0.964430  0.626090  0.728890  1.0  -0.1273
  C  C1939  1  0.950830  0.630730  0.761610  1.0  -0.0145
  C  C1940  1  0.943360  0.602740  0.792780  1.0  -0.1435
  C  C1941  1  0.951900  0.570020  0.790200  1.0  0.1672
  C  C1942  1  0.001610  0.675810  0.535790  1.0  0.1682
  C  C1943  1  0.999240  0.645200  0.565740  1.0  -0.1549
  C  C1944  1  0.993580  0.645160  0.598900  1.0  -0.0486
  C  C1945  1  0.991650  0.676430  0.600090  1.0  -0.1488
  C  C1946  1  0.994970  0.705650  0.568510  1.0  0.1919
  C  C1947  1  0.988250  0.677410  0.633390  1.0  0.3821
  C  C1948  1  0.974630  0.654550  0.694230  1.0  0.3064
  C  C1949  1  0.992850  0.702810  0.662390  1.0  0.3914
  C  C1950  1  0.002870  0.729590  0.661270  1.0  -0.1838
  C  C1951  1  0.015880  0.754900  0.629220  1.0  -0.0426
  C  C1952  1  0.024140  0.779080  0.631280  1.0  -0.1323
  C  C1953  1  0.020160  0.777200  0.664420  1.0  0.1593
  C  C1954  1  0.038370  0.735430  0.797130  1.0  0.1641
  C  C1955  1  0.043980  0.727640  0.827700  1.0  -0.1407
  C  C1956  1  0.016490  0.724390  0.860150  1.0  -0.0125
  C  C1957  1  0.000310  0.728930  0.693330  1.0  0.1758
  C  C1958  1  0.983040  0.729120  0.861600  1.0  -0.1872
  C  C1959  1  0.979530  0.737930  0.829010  1.0  0.2032
  C  C1960  1  0.952420  0.727380  0.895220  1.0  0.3527
  C  C1961  1  0.960690  0.222870  0.479990  1.0  0.2595
  C  C1962  1  0.941970  0.054610  0.708870  1.0  0.2898
  C  C1963  1  0.972230  0.206790  0.592610  1.0  0.1629
  C  C1964  1  0.964430  0.180590  0.626090  1.0  -0.1276
  C  C1965  1  0.950830  0.156830  0.630730  1.0  -0.0141
  C  C1966  1  0.943360  0.161120  0.602740  1.0  -0.1449
  C  C1967  1  0.951900  0.187880  0.570020  1.0  0.1718
  C  C1968  1  0.001610  0.286790  0.675810  1.0  0.1693
  C  C1969  1  0.999240  0.289820  0.645200  1.0  -0.1528
  C  C1970  1  0.993580  0.262360  0.645160  1.0  -0.047
  C  C1971  1  0.991650  0.231830  0.676430  1.0  -0.149
  C  C1972  1  0.994970  0.230870  0.705650  1.0  0.1991
  C  C1973  1  0.988250  0.200950  0.677410  1.0  0.3828
  C  C1974  1  0.974630  0.176590  0.654550  1.0  0.3052
  C  C1975  1  0.992850  0.141950  0.702810  1.0  0.3914
  C  C1976  1  0.002870  0.106270  0.729590  1.0  -0.1846
  C  C1977  1  0.015880  0.100000  0.754900  1.0  -0.0426
  C  C1978  1  0.024140  0.065500  0.779080  1.0  -0.1261
  C  C1979  1  0.020160  0.038220  0.777200  1.0  0.1544
  C  C1980  1  0.038370  0.929070  0.735430  1.0  0.1626
  C  C1981  1  0.043980  0.900680  0.727640  1.0  -0.1455
  C  C1982  1  0.016490  0.898970  0.724390  1.0  -0.0141
  C  C1983  1  0.000310  0.077430  0.728930  1.0  0.1746
  C  C1984  1  0.983040  0.926240  0.729120  1.0  -0.1899
  C  C1985  1  0.979530  0.953530  0.737930  1.0  0.1911
  C  C1986  1  0.952420  0.924980  0.727380  1.0  0.3548
  C  C1987  1  0.836450  0.479990  0.222870  1.0  0.2634
  C  C1988  1  0.794550  0.708870  0.054610  1.0  0.2887
  C  C1989  1  0.728370  0.592610  0.206790  1.0  0.1755
  C  C1990  1  0.728890  0.626090  0.180590  1.0  -0.1279
  C  C1991  1  0.761610  0.630730  0.156830  1.0  -0.0149
  C  C1992  1  0.792780  0.602740  0.161120  1.0  -0.1357
  C  C1993  1  0.790200  0.570020  0.187880  1.0  0.1715
  C  C1994  1  0.535790  0.675810  0.286790  1.0  0.1663
  C  C1995  1  0.565740  0.645200  0.289820  1.0  -0.15
  C  C1996  1  0.598900  0.645160  0.262360  1.0  -0.0461
  C  C1997  1  0.600090  0.676430  0.231830  1.0  -0.1486
  C  C1998  1  0.568510  0.705650  0.230870  1.0  0.2037
  C  C1999  1  0.633390  0.677410  0.200950  1.0  0.3823
  C  C2000  1  0.694230  0.654550  0.176590  1.0  0.3065
  C  C2001  1  0.662390  0.702810  0.141950  1.0  0.3891
  C  C2002  1  0.661270  0.729590  0.106270  1.0  -0.1876
  C  C2003  1  0.629220  0.754900  0.100000  1.0  -0.0425
  C  C2004  1  0.631280  0.779080  0.065500  1.0  -0.1322
  C  C2005  1  0.664420  0.777200  0.038220  1.0  0.1588
  C  C2006  1  0.797130  0.735430  0.929070  1.0  0.16
  C  C2007  1  0.827700  0.727640  0.900680  1.0  -0.1369
  C  C2008  1  0.860150  0.724390  0.898970  1.0  -0.0149
  C  C2009  1  0.693330  0.728930  0.077430  1.0  0.1729
  C  C2010  1  0.861600  0.729120  0.926240  1.0  -0.191
  C  C2011  1  0.829010  0.737930  0.953530  1.0  0.2011
  C  C2012  1  0.895220  0.727380  0.924980  1.0  0.3539
  C  C2013  1  0.479990  0.836450  0.960690  1.0  0.26
  C  C2014  1  0.708870  0.794550  0.941970  1.0  0.2862
  C  C2015  1  0.592610  0.728370  0.972230  1.0  0.1753
  C  C2016  1  0.626090  0.728890  0.964430  1.0  -0.1275
  C  C2017  1  0.630730  0.761610  0.950830  1.0  -0.0142
  C  C2018  1  0.602740  0.792780  0.943360  1.0  -0.1429
  C  C2019  1  0.570020  0.790200  0.951900  1.0  0.1696
  C  C2020  1  0.675810  0.535790  0.001610  1.0  0.1679
  C  C2021  1  0.645200  0.565740  0.999240  1.0  -0.1522
  C  C2022  1  0.645160  0.598900  0.993580  1.0  -0.0469
  C  C2023  1  0.676430  0.600090  0.991650  1.0  -0.1474
  C  C2024  1  0.705650  0.568510  0.994970  1.0  0.1963
  C  C2025  1  0.677410  0.633390  0.988250  1.0  0.382
  C  C2026  1  0.654550  0.694230  0.974630  1.0  0.3043
  C  C2027  1  0.702810  0.662390  0.992850  1.0  0.3898
  C  C2028  1  0.729590  0.661270  0.002870  1.0  -0.1874
  C  C2029  1  0.754900  0.629220  0.015880  1.0  -0.0429
  C  C2030  1  0.779080  0.631280  0.024140  1.0  -0.1313
  C  C2031  1  0.777200  0.664420  0.020160  1.0  0.1572
  C  C2032  1  0.735430  0.797130  0.038370  1.0  0.1587
  C  C2033  1  0.727640  0.827700  0.043980  1.0  -0.1408
  C  C2034  1  0.724390  0.860150  0.016490  1.0  -0.0121
  C  C2035  1  0.728930  0.693330  0.000310  1.0  0.1642
  C  C2036  1  0.729120  0.861600  0.983040  1.0  -0.1884
  C  C2037  1  0.737930  0.829010  0.979530  1.0  0.2018
  C  C2038  1  0.727380  0.895220  0.952420  1.0  0.3566
  C  C2039  1  0.222870  0.960690  0.836450  1.0  0.2581
  C  C2040  1  0.054610  0.941970  0.794550  1.0  0.2856
  C  C2041  1  0.206790  0.972230  0.728370  1.0  0.1599
  C  C2042  1  0.180590  0.964430  0.728890  1.0  -0.1275
  C  C2043  1  0.156830  0.950830  0.761610  1.0  -0.0131
  C  C2044  1  0.161120  0.943360  0.792780  1.0  -0.1494
  C  C2045  1  0.187880  0.951900  0.790200  1.0  0.1733
  C  C2046  1  0.286790  0.001610  0.535790  1.0  0.1737
  C  C2047  1  0.289820  0.999240  0.565740  1.0  -0.1505
  C  C2048  1  0.262360  0.993580  0.598900  1.0  -0.048
  C  C2049  1  0.231830  0.991650  0.600090  1.0  -0.1477
  C  C2050  1  0.230870  0.994970  0.568510  1.0  0.1947
  C  C2051  1  0.200950  0.988250  0.633390  1.0  0.3821
  C  C2052  1  0.176590  0.974630  0.694230  1.0  0.3051
  C  C2053  1  0.141950  0.992850  0.662390  1.0  0.3888
  C  C2054  1  0.106270  0.002870  0.661270  1.0  -0.1853
  C  C2055  1  0.100000  0.015880  0.629220  1.0  -0.0437
  C  C2056  1  0.065500  0.024140  0.631280  1.0  -0.1239
  C  C2057  1  0.038220  0.020160  0.664420  1.0  0.1573
  C  C2058  1  0.929070  0.038370  0.797130  1.0  0.1631
  C  C2059  1  0.900680  0.043980  0.827700  1.0  -0.1428
  C  C2060  1  0.898970  0.016490  0.860150  1.0  -0.0133
  C  C2061  1  0.077430  0.000310  0.693330  1.0  0.1774
  C  C2062  1  0.926240  0.983040  0.861600  1.0  -0.1925
  C  C2063  1  0.953530  0.979530  0.829010  1.0  0.1985
  C  C2064  1  0.924980  0.952420  0.895220  1.0  0.3534
  S  S2065  1  0.378790  0.454090  0.697910  1.0  -0.2884
  S  S2066  1  0.318570  0.410450  0.580910  1.0  -0.2119
  S  S2067  1  0.454090  0.378790  0.969210  1.0  -0.2942
  S  S2068  1  0.410450  0.318570  0.190070  1.0  -0.2115
  S  S2069  1  0.697910  0.969210  0.378790  1.0  -0.2926
  S  S2070  1  0.580910  0.190070  0.318570  1.0  -0.2137
  S  S2071  1  0.969210  0.697910  0.454090  1.0  -0.2911
  S  S2072  1  0.190070  0.580910  0.410450  1.0  -0.2129
  S  S2073  1  0.697910  0.378790  0.454090  1.0  -0.293
  S  S2074  1  0.580910  0.318570  0.410450  1.0  -0.2103
  S  S2075  1  0.969210  0.454090  0.378790  1.0  -0.2922
  S  S2076  1  0.190070  0.410450  0.318570  1.0  -0.2104
  S  S2077  1  0.378790  0.697910  0.969210  1.0  -0.2902
  S  S2078  1  0.318570  0.580910  0.190070  1.0  -0.2105
  S  S2079  1  0.454090  0.969210  0.697910  1.0  -0.2894
  S  S2080  1  0.410450  0.190070  0.580910  1.0  -0.2099
  S  S2081  1  0.454090  0.697910  0.378790  1.0  -0.2926
  S  S2082  1  0.410450  0.580910  0.318570  1.0  -0.2104
  S  S2083  1  0.378790  0.969210  0.454090  1.0  -0.2895
  S  S2084  1  0.318570  0.190070  0.410450  1.0  -0.2144
  S  S2085  1  0.969210  0.378790  0.697910  1.0  -0.294
  S  S2086  1  0.190070  0.318570  0.580910  1.0  -0.2131
  S  S2087  1  0.697910  0.454090  0.969210  1.0  -0.291
  S  S2088  1  0.580910  0.410450  0.190070  1.0  -0.2129
  S  S2089  1  0.121210  0.045910  0.530790  1.0  -0.2911
  S  S2090  1  0.181430  0.089550  0.309930  1.0  -0.2094
  S  S2091  1  0.045910  0.121210  0.802090  1.0  -0.2923
  S  S2092  1  0.089550  0.181430  0.919090  1.0  -0.2132
  S  S2093  1  0.802090  0.530790  0.045910  1.0  -0.2928
  S  S2094  1  0.919090  0.309930  0.089550  1.0  -0.2123
  S  S2095  1  0.530790  0.802090  0.121210  1.0  -0.2932
  S  S2096  1  0.309930  0.919090  0.181430  1.0  -0.214
  S  S2097  1  0.802090  0.121210  0.530790  1.0  -0.291
  S  S2098  1  0.919090  0.181430  0.309930  1.0  -0.2118
  S  S2099  1  0.530790  0.045910  0.802090  1.0  -0.2945
  S  S2100  1  0.309930  0.089550  0.919090  1.0  -0.209
  S  S2101  1  0.121210  0.802090  0.045910  1.0  -0.2926
  S  S2102  1  0.181430  0.919090  0.089550  1.0  -0.2112
  S  S2103  1  0.045910  0.530790  0.121210  1.0  -0.291
  S  S2104  1  0.089550  0.309930  0.181430  1.0  -0.2086
  S  S2105  1  0.045910  0.802090  0.530790  1.0  -0.2945
  S  S2106  1  0.089550  0.919090  0.309930  1.0  -0.2125
  S  S2107  1  0.121210  0.530790  0.802090  1.0  -0.2913
  S  S2108  1  0.181430  0.309930  0.919090  1.0  -0.2131
  S  S2109  1  0.530790  0.121210  0.045910  1.0  -0.291
  S  S2110  1  0.309930  0.181430  0.089550  1.0  -0.2131
  S  S2111  1  0.802090  0.045910  0.121210  1.0  -0.2903
  S  S2112  1  0.919090  0.089550  0.181430  1.0  -0.21
  S  S2113  1  0.621210  0.545910  0.302090  1.0  -0.2914
  S  S2114  1  0.681430  0.589550  0.419090  1.0  -0.2093
  S  S2115  1  0.545910  0.621210  0.030790  1.0  -0.2913
  S  S2116  1  0.589550  0.681430  0.809930  1.0  -0.2133
  S  S2117  1  0.302090  0.030790  0.621210  1.0  -0.2916
  S  S2118  1  0.419090  0.809930  0.681430  1.0  -0.2127
  S  S2119  1  0.030790  0.302090  0.545910  1.0  -0.2942
  S  S2120  1  0.809930  0.419090  0.589550  1.0  -0.2132
  S  S2121  1  0.302090  0.621210  0.545910  1.0  -0.2908
  S  S2122  1  0.419090  0.681430  0.589550  1.0  -0.2114
  S  S2123  1  0.030790  0.545910  0.621210  1.0  -0.2907
  S  S2124  1  0.809930  0.589550  0.681430  1.0  -0.2089
  S  S2125  1  0.621210  0.302090  0.030790  1.0  -0.2927
  S  S2126  1  0.681430  0.419090  0.809930  1.0  -0.2115
  S  S2127  1  0.545910  0.030790  0.302090  1.0  -0.2938
  S  S2128  1  0.589550  0.809930  0.419090  1.0  -0.2086
  S  S2129  1  0.545910  0.302090  0.621210  1.0  -0.2901
  S  S2130  1  0.589550  0.419090  0.681430  1.0  -0.2127
  S  S2131  1  0.621210  0.030790  0.545910  1.0  -0.2907
  S  S2132  1  0.681430  0.809930  0.589550  1.0  -0.2126
  S  S2133  1  0.030790  0.621210  0.302090  1.0  -0.2921
  S  S2134  1  0.809930  0.681430  0.419090  1.0  -0.2144
  S  S2135  1  0.302090  0.545910  0.030790  1.0  -0.292
  S  S2136  1  0.419090  0.589550  0.809930  1.0  -0.2095
  S  S2137  1  0.878790  0.954090  0.469210  1.0  -0.2925
  S  S2138  1  0.818570  0.910450  0.690070  1.0  -0.2122
  S  S2139  1  0.954090  0.878790  0.197910  1.0  -0.2937
  S  S2140  1  0.910450  0.818570  0.080910  1.0  -0.2115
  S  S2141  1  0.197910  0.469210  0.954090  1.0  -0.2919
  S  S2142  1  0.080910  0.690070  0.910450  1.0  -0.2147
  S  S2143  1  0.469210  0.197910  0.878790  1.0  -0.2928
  S  S2144  1  0.690070  0.080910  0.818570  1.0  -0.212
  S  S2145  1  0.197910  0.878790  0.469210  1.0  -0.2928
  S  S2146  1  0.080910  0.818570  0.690070  1.0  -0.21
  S  S2147  1  0.469210  0.954090  0.197910  1.0  -0.289
  S  S2148  1  0.690070  0.910450  0.080910  1.0  -0.2104
  S  S2149  1  0.878790  0.197910  0.954090  1.0  -0.2905
  S  S2150  1  0.818570  0.080910  0.910450  1.0  -0.2106
  S  S2151  1  0.954090  0.469210  0.878790  1.0  -0.2926
  S  S2152  1  0.910450  0.690070  0.818570  1.0  -0.21
  S  S2153  1  0.954090  0.197910  0.469210  1.0  -0.2906
  S  S2154  1  0.910450  0.080910  0.690070  1.0  -0.2107
  S  S2155  1  0.878790  0.469210  0.197910  1.0  -0.2884
  S  S2156  1  0.818570  0.690070  0.080910  1.0  -0.2131
  S  S2157  1  0.469210  0.878790  0.954090  1.0  -0.2946
  S  S2158  1  0.690070  0.818570  0.910450  1.0  -0.2143
  S  S2159  1  0.197910  0.954090  0.878790  1.0  -0.2921
  S  S2160  1  0.080910  0.910450  0.818570  1.0  -0.2122
  N  N2161  1  0.305470  0.466510  0.739450  1.0  -0.4333
  N  N2162  1  0.277860  0.464620  0.536020  1.0  -0.4402
  N  N2163  1  0.258470  0.467170  0.710190  1.0  -0.3363
  N  N2164  1  0.036910  0.499670  0.757690  1.0  -0.3136
  N  N2165  1  0.164350  0.477450  0.706650  1.0  -0.3986
  N  N2166  1  0.194780  0.481500  0.644740  1.0  -0.4043
  N  N2167  1  0.130910  0.496070  0.669610  1.0  -0.4709
  N  N2168  1  0.195110  0.508570  0.544010  1.0  -0.2889
  N  N2169  1  0.297070  0.506270  0.455790  1.0  -0.3342
  N  N2170  1  0.422360  0.455000  0.394720  1.0  -0.4333
  N  N2171  1  0.466510  0.305470  0.988570  1.0  -0.4349
  N  N2172  1  0.464620  0.277860  0.221500  1.0  -0.4405
  N  N2173  1  0.467170  0.258470  0.064170  1.0  -0.3405
  N  N2174  1  0.499670  0.036910  0.205730  1.0  -0.3146
  N  N2175  1  0.477450  0.164350  0.151550  1.0  -0.4029
  N  N2176  1  0.481500  0.194780  0.178980  1.0  -0.3967
  N  N2177  1  0.496070  0.130910  0.203410  1.0  -0.4698
  N  N2178  1  0.508570  0.195110  0.252310  1.0  -0.293
  N  N2179  1  0.506270  0.297070  0.240870  1.0  -0.3335
  N  N2180  1  0.455000  0.422360  0.227920  1.0  -0.4276
  N  N2181  1  0.739450  0.988570  0.305470  1.0  -0.4327
  N  N2182  1  0.536020  0.221500  0.277860  1.0  -0.441
  N  N2183  1  0.710190  0.064170  0.258470  1.0  -0.3381
  N  N2184  1  0.757690  0.205730  0.036910  1.0  -0.3163
  N  N2185  1  0.706650  0.151550  0.164350  1.0  -0.3972
  N  N2186  1  0.644740  0.178980  0.194780  1.0  -0.4051
  N  N2187  1  0.669610  0.203410  0.130910  1.0  -0.4622
  N  N2188  1  0.544010  0.252310  0.195110  1.0  -0.2908
  N  N2189  1  0.455790  0.240870  0.297070  1.0  -0.3327
  N  N2190  1  0.394720  0.227920  0.422360  1.0  -0.434
  N  N2191  1  0.988570  0.739450  0.466510  1.0  -0.4321
  N  N2192  1  0.221500  0.536020  0.464620  1.0  -0.4381
  N  N2193  1  0.064170  0.710190  0.467170  1.0  -0.3353
  N  N2194  1  0.205730  0.757690  0.499670  1.0  -0.3127
  N  N2195  1  0.151550  0.706650  0.477450  1.0  -0.398
  N  N2196  1  0.178980  0.644740  0.481500  1.0  -0.4073
  N  N2197  1  0.203410  0.669610  0.496070  1.0  -0.4614
  N  N2198  1  0.252310  0.544010  0.508570  1.0  -0.2938
  N  N2199  1  0.240870  0.455790  0.506270  1.0  -0.3324
  N  N2200  1  0.227920  0.394720  0.455000  1.0  -0.4345
  N  N2201  1  0.739450  0.305470  0.466510  1.0  -0.4332
  N  N2202  1  0.536020  0.277860  0.464620  1.0  -0.4433
  N  N2203  1  0.710190  0.258470  0.467170  1.0  -0.335
  N  N2204  1  0.757690  0.036910  0.499670  1.0  -0.3155
  N  N2205  1  0.706650  0.164350  0.477450  1.0  -0.3989
  N  N2206  1  0.644740  0.194780  0.481500  1.0  -0.4031
  N  N2207  1  0.669610  0.130910  0.496070  1.0  -0.4683
  N  N2208  1  0.544010  0.195110  0.508570  1.0  -0.2906
  N  N2209  1  0.455790  0.297070  0.506270  1.0  -0.334
  N  N2210  1  0.394720  0.422360  0.455000  1.0  -0.4345
  N  N2211  1  0.988570  0.466510  0.305470  1.0  -0.4319
  N  N2212  1  0.221500  0.464620  0.277860  1.0  -0.4438
  N  N2213  1  0.064170  0.467170  0.258470  1.0  -0.3348
  N  N2214  1  0.205730  0.499670  0.036910  1.0  -0.3108
  N  N2215  1  0.151550  0.477450  0.164350  1.0  -0.4112
  N  N2216  1  0.178980  0.481500  0.194780  1.0  -0.3981
  N  N2217  1  0.203410  0.496070  0.130910  1.0  -0.4604
  N  N2218  1  0.252310  0.508570  0.195110  1.0  -0.292
  N  N2219  1  0.240870  0.506270  0.297070  1.0  -0.3353
  N  N2220  1  0.227920  0.455000  0.422360  1.0  -0.4275
  N  N2221  1  0.305470  0.739450  0.988570  1.0  -0.4331
  N  N2222  1  0.277860  0.536020  0.221500  1.0  -0.4416
  N  N2223  1  0.258470  0.710190  0.064170  1.0  -0.339
  N  N2224  1  0.036910  0.757690  0.205730  1.0  -0.3119
  N  N2225  1  0.164350  0.706650  0.151550  1.0  -0.3977
  N  N2226  1  0.194780  0.644740  0.178980  1.0  -0.4039
  N  N2227  1  0.130910  0.669610  0.203410  1.0  -0.4724
  N  N2228  1  0.195110  0.544010  0.252310  1.0  -0.2889
  N  N2229  1  0.297070  0.455790  0.240870  1.0  -0.334
  N  N2230  1  0.422360  0.394720  0.227920  1.0  -0.4346
  N  N2231  1  0.466510  0.988570  0.739450  1.0  -0.4346
  N  N2232  1  0.464620  0.221500  0.536020  1.0  -0.4426
  N  N2233  1  0.467170  0.064170  0.710190  1.0  -0.3369
  N  N2234  1  0.499670  0.205730  0.757690  1.0  -0.3172
  N  N2235  1  0.477450  0.151550  0.706650  1.0  -0.4048
  N  N2236  1  0.481500  0.178980  0.644740  1.0  -0.4086
  N  N2237  1  0.496070  0.203410  0.669610  1.0  -0.4592
  N  N2238  1  0.508570  0.252310  0.544010  1.0  -0.2918
  N  N2239  1  0.506270  0.240870  0.455790  1.0  -0.3361
  N  N2240  1  0.455000  0.227920  0.394720  1.0  -0.4344
  N  N2241  1  0.466510  0.739450  0.305470  1.0  -0.4332
  N  N2242  1  0.464620  0.536020  0.277860  1.0  -0.4414
  N  N2243  1  0.467170  0.710190  0.258470  1.0  -0.336
  N  N2244  1  0.499670  0.757690  0.036910  1.0  -0.3134
  N  N2245  1  0.477450  0.706650  0.164350  1.0  -0.3984
  N  N2246  1  0.481500  0.644740  0.194780  1.0  -0.4058
  N  N2247  1  0.496070  0.669610  0.130910  1.0  -0.4709
  N  N2248  1  0.508570  0.544010  0.195110  1.0  -0.2926
  N  N2249  1  0.506270  0.455790  0.297070  1.0  -0.3351
  N  N2250  1  0.455000  0.394720  0.422360  1.0  -0.4323
  N  N2251  1  0.305470  0.988570  0.466510  1.0  -0.4356
  N  N2252  1  0.277860  0.221500  0.464620  1.0  -0.4386
  N  N2253  1  0.258470  0.064170  0.467170  1.0  -0.3381
  N  N2254  1  0.036910  0.205730  0.499670  1.0  -0.3149
  N  N2255  1  0.164350  0.151550  0.477450  1.0  -0.4035
  N  N2256  1  0.194780  0.178980  0.481500  1.0  -0.4037
  N  N2257  1  0.130910  0.203410  0.496070  1.0  -0.4686
  N  N2258  1  0.195110  0.252310  0.508570  1.0  -0.2888
  N  N2259  1  0.297070  0.240870  0.506270  1.0  -0.3343
  N  N2260  1  0.422360  0.227920  0.455000  1.0  -0.4338
  N  N2261  1  0.988570  0.305470  0.739450  1.0  -0.4336
  N  N2262  1  0.221500  0.277860  0.536020  1.0  -0.4396
  N  N2263  1  0.064170  0.258470  0.710190  1.0  -0.3334
  N  N2264  1  0.205730  0.036910  0.757690  1.0  -0.3139
  N  N2265  1  0.151550  0.164350  0.706650  1.0  -0.3963
  N  N2266  1  0.178980  0.194780  0.644740  1.0  -0.4046
  N  N2267  1  0.203410  0.130910  0.669610  1.0  -0.4675
  N  N2268  1  0.252310  0.195110  0.544010  1.0  -0.2922
  N  N2269  1  0.240870  0.297070  0.455790  1.0  -0.3343
  N  N2270  1  0.227920  0.422360  0.394720  1.0  -0.4354
  N  N2271  1  0.739450  0.466510  0.988570  1.0  -0.4307
  N  N2272  1  0.536020  0.464620  0.221500  1.0  -0.4409
  N  N2273  1  0.710190  0.467170  0.064170  1.0  -0.3352
  N  N2274  1  0.757690  0.499670  0.205730  1.0  -0.3147
  N  N2275  1  0.706650  0.477450  0.151550  1.0  -0.398
  N  N2276  1  0.644740  0.481500  0.178980  1.0  -0.405
  N  N2277  1  0.669610  0.496070  0.203410  1.0  -0.4625
  N  N2278  1  0.544010  0.508570  0.252310  1.0  -0.2916
  N  N2279  1  0.455790  0.506270  0.240870  1.0  -0.3334
  N  N2280  1  0.394720  0.455000  0.227920  1.0  -0.432
  N  N2281  1  0.194530  0.033490  0.511430  1.0  -0.432
  N  N2282  1  0.222140  0.035380  0.278500  1.0  -0.4395
  N  N2283  1  0.241530  0.032830  0.435830  1.0  -0.3378
  N  N2284  1  0.463090  0.000330  0.294270  1.0  -0.3108
  N  N2285  1  0.335650  0.022550  0.348450  1.0  -0.3992
  N  N2286  1  0.305220  0.018500  0.321020  1.0  -0.4056
  N  N2287  1  0.369090  0.003930  0.296590  1.0  -0.4698
  N  N2288  1  0.304890  0.991430  0.247690  1.0  -0.2884
  N  N2289  1  0.202930  0.993730  0.259130  1.0  -0.3333
  N  N2290  1  0.077640  0.045000  0.272080  1.0  -0.4347
  N  N2291  1  0.033490  0.194530  0.760550  1.0  -0.4357
  N  N2292  1  0.035380  0.222140  0.963980  1.0  -0.4407
  N  N2293  1  0.032830  0.241530  0.789810  1.0  -0.3395
  N  N2294  1  0.000330  0.463090  0.742310  1.0  -0.3145
  N  N2295  1  0.022550  0.335650  0.793350  1.0  -0.399
  N  N2296  1  0.018500  0.305220  0.855260  1.0  -0.4051
  N  N2297  1  0.003930  0.369090  0.830390  1.0  -0.4596
  N  N2298  1  0.991430  0.304890  0.955990  1.0  -0.2937
  N  N2299  1  0.993730  0.202930  0.044210  1.0  -0.3323
  N  N2300  1  0.045000  0.077640  0.105280  1.0  -0.4346
  N  N2301  1  0.760550  0.511430  0.033490  1.0  -0.4326
  N  N2302  1  0.963980  0.278500  0.035380  1.0  -0.4426
  N  N2303  1  0.789810  0.435830  0.032830  1.0  -0.3365
  N  N2304  1  0.742310  0.294270  0.000330  1.0  -0.3153
  N  N2305  1  0.793350  0.348450  0.022550  1.0  -0.3982
  N  N2306  1  0.855260  0.321020  0.018500  1.0  -0.3952
  N  N2307  1  0.830390  0.296590  0.003930  1.0  -0.4712
  N  N2308  1  0.955990  0.247690  0.991430  1.0  -0.2905
  N  N2309  1  0.044210  0.259130  0.993730  1.0  -0.3333
  N  N2310  1  0.105280  0.272080  0.045000  1.0  -0.4322
  N  N2311  1  0.511430  0.760550  0.194530  1.0  -0.4326
  N  N2312  1  0.278500  0.963980  0.222140  1.0  -0.4373
  N  N2313  1  0.435830  0.789810  0.241530  1.0  -0.3352
  N  N2314  1  0.294270  0.742310  0.463090  1.0  -0.3126
  N  N2315  1  0.348450  0.793350  0.335650  1.0  -0.3984
  N  N2316  1  0.321020  0.855260  0.305220  1.0  -0.4071
  N  N2317  1  0.296590  0.830390  0.369090  1.0  -0.4715
  N  N2318  1  0.247690  0.955990  0.304890  1.0  -0.2935
  N  N2319  1  0.259130  0.044210  0.202930  1.0  -0.3335
  N  N2320  1  0.272080  0.105280  0.077640  1.0  -0.4237
  N  N2321  1  0.760550  0.194530  0.511430  1.0  -0.4341
  N  N2322  1  0.963980  0.222140  0.278500  1.0  -0.4439
  N  N2323  1  0.789810  0.241530  0.435830  1.0  -0.3355
  N  N2324  1  0.742310  0.463090  0.294270  1.0  -0.3162
  N  N2325  1  0.793350  0.335650  0.348450  1.0  -0.4025
  N  N2326  1  0.855260  0.305220  0.321020  1.0  -0.4015
  N  N2327  1  0.830390  0.369090  0.296590  1.0  -0.4675
  N  N2328  1  0.955990  0.304890  0.247690  1.0  -0.2896
  N  N2329  1  0.044210  0.202930  0.259130  1.0  -0.3333
  N  N2330  1  0.105280  0.077640  0.272080  1.0  -0.4274
  N  N2331  1  0.511430  0.033490  0.760550  1.0  -0.4312
  N  N2332  1  0.278500  0.035380  0.963980  1.0  -0.4417
  N  N2333  1  0.435830  0.032830  0.789810  1.0  -0.3355
  N  N2334  1  0.294270  0.000330  0.742310  1.0  -0.3121
  N  N2335  1  0.348450  0.022550  0.793350  1.0  -0.3986
  N  N2336  1  0.321020  0.018500  0.855260  1.0  -0.3977
  N  N2337  1  0.296590  0.003930  0.830390  1.0  -0.4724
  N  N2338  1  0.247690  0.991430  0.955990  1.0  -0.2928
  N  N2339  1  0.259130  0.993730  0.044210  1.0  -0.3348
  N  N2340  1  0.272080  0.045000  0.105280  1.0  -0.4342
  N  N2341  1  0.194530  0.760550  0.033490  1.0  -0.4329
  N  N2342  1  0.222140  0.963980  0.035380  1.0  -0.4421
  N  N2343  1  0.241530  0.789810  0.032830  1.0  -0.3383
  N  N2344  1  0.463090  0.742310  0.000330  1.0  -0.3106
  N  N2345  1  0.335650  0.793350  0.022550  1.0  -0.409
  N  N2346  1  0.305220  0.855260  0.018500  1.0  -0.4042
  N  N2347  1  0.369090  0.830390  0.003930  1.0  -0.4616
  N  N2348  1  0.304890  0.955990  0.991430  1.0  -0.2908
  N  N2349  1  0.202930  0.044210  0.993730  1.0  -0.3337
  N  N2350  1  0.077640  0.105280  0.045000  1.0  -0.4338
  N  N2351  1  0.033490  0.511430  0.194530  1.0  -0.434
  N  N2352  1  0.035380  0.278500  0.222140  1.0  -0.4412
  N  N2353  1  0.032830  0.435830  0.241530  1.0  -0.3364
  N  N2354  1  0.000330  0.294270  0.463090  1.0  -0.3143
  N  N2355  1  0.022550  0.348450  0.335650  1.0  -0.3991
  N  N2356  1  0.018500  0.321020  0.305220  1.0  -0.4085
  N  N2357  1  0.003930  0.296590  0.369090  1.0  -0.4695
  N  N2358  1  0.991430  0.247690  0.304890  1.0  -0.2934
  N  N2359  1  0.993730  0.259130  0.202930  1.0  -0.3361
  N  N2360  1  0.045000  0.272080  0.077640  1.0  -0.4352
  N  N2361  1  0.033490  0.760550  0.511430  1.0  -0.4331
  N  N2362  1  0.035380  0.963980  0.278500  1.0  -0.4405
  N  N2363  1  0.032830  0.789810  0.435830  1.0  -0.336
  N  N2364  1  0.000330  0.742310  0.294270  1.0  -0.3134
  N  N2365  1  0.022550  0.793350  0.348450  1.0  -0.402
  N  N2366  1  0.018500  0.855260  0.321020  1.0  -0.3937
  N  N2367  1  0.003930  0.830390  0.296590  1.0  -0.4712
  N  N2368  1  0.991430  0.955990  0.247690  1.0  -0.2935
  N  N2369  1  0.993730  0.044210  0.259130  1.0  -0.3357
  N  N2370  1  0.045000  0.105280  0.272080  1.0  -0.4324
  N  N2371  1  0.194530  0.511430  0.760550  1.0  -0.4337
  N  N2372  1  0.222140  0.278500  0.963980  1.0  -0.4393
  N  N2373  1  0.241530  0.435830  0.789810  1.0  -0.3371
  N  N2374  1  0.463090  0.294270  0.742310  1.0  -0.3119
  N  N2375  1  0.335650  0.348450  0.793350  1.0  -0.3994
  N  N2376  1  0.305220  0.321020  0.855260  1.0  -0.4063
  N  N2377  1  0.369090  0.296590  0.830390  1.0  -0.4618
  N  N2378  1  0.304890  0.247690  0.955990  1.0  -0.2893
  N  N2379  1  0.202930  0.259130  0.044210  1.0  -0.3353
  N  N2380  1  0.077640  0.272080  0.105280  1.0  -0.4337
  N  N2381  1  0.511430  0.194530  0.033490  1.0  -0.4354
  N  N2382  1  0.278500  0.222140  0.035380  1.0  -0.439
  N  N2383  1  0.435830  0.241530  0.032830  1.0  -0.3328
  N  N2384  1  0.294270  0.463090  0.000330  1.0  -0.3146
  N  N2385  1  0.348450  0.335650  0.022550  1.0  -0.3954
  N  N2386  1  0.321020  0.305220  0.018500  1.0  -0.4049
  N  N2387  1  0.296590  0.369090  0.003930  1.0  -0.4678
  N  N2388  1  0.247690  0.304890  0.991430  1.0  -0.2927
  N  N2389  1  0.259130  0.202930  0.993730  1.0  -0.3346
  N  N2390  1  0.272080  0.077640  0.045000  1.0  -0.4351
  N  N2391  1  0.760550  0.033490  0.194530  1.0  -0.4312
  N  N2392  1  0.963980  0.035380  0.222140  1.0  -0.4404
  N  N2393  1  0.789810  0.032830  0.241530  1.0  -0.3362
  N  N2394  1  0.742310  0.000330  0.463090  1.0  -0.3149
  N  N2395  1  0.793350  0.022550  0.335650  1.0  -0.3989
  N  N2396  1  0.855260  0.018500  0.305220  1.0  -0.4016
  N  N2397  1  0.830390  0.003930  0.369090  1.0  -0.4713
  N  N2398  1  0.955990  0.991430  0.304890  1.0  -0.2912
  N  N2399  1  0.044210  0.993730  0.202930  1.0  -0.3346
  N  N2400  1  0.105280  0.045000  0.077640  1.0  -0.4324
  N  N2401  1  0.694530  0.533490  0.260550  1.0  -0.4319
  N  N2402  1  0.722140  0.535380  0.463980  1.0  -0.4385
  N  N2403  1  0.741530  0.532830  0.289810  1.0  -0.3388
  N  N2404  1  0.963090  0.500330  0.242310  1.0  -0.3106
  N  N2405  1  0.835650  0.522550  0.293350  1.0  -0.4042
  N  N2406  1  0.805220  0.518500  0.355260  1.0  -0.4055
  N  N2407  1  0.869090  0.503930  0.330390  1.0  -0.461
  N  N2408  1  0.804890  0.491430  0.455990  1.0  -0.2881
  N  N2409  1  0.702930  0.493730  0.544210  1.0  -0.3328
  N  N2410  1  0.577640  0.545000  0.605280  1.0  -0.4338
  N  N2411  1  0.533490  0.694530  0.011430  1.0  -0.436
  N  N2412  1  0.535380  0.722140  0.778500  1.0  -0.4413
  N  N2413  1  0.532830  0.741530  0.935830  1.0  -0.338
  N  N2414  1  0.500330  0.963090  0.794270  1.0  -0.3156
  N  N2415  1  0.522550  0.835650  0.848450  1.0  -0.3992
  N  N2416  1  0.518500  0.805220  0.821020  1.0  -0.4061
  N  N2417  1  0.503930  0.869090  0.796590  1.0  -0.4686
  N  N2418  1  0.491430  0.804890  0.747690  1.0  -0.2938
  N  N2419  1  0.493730  0.702930  0.759130  1.0  -0.3326
  N  N2420  1  0.545000  0.577640  0.772080  1.0  -0.4355
  N  N2421  1  0.260550  0.011430  0.694530  1.0  -0.4329
  N  N2422  1  0.463980  0.778500  0.722140  1.0  -0.4405
  N  N2423  1  0.289810  0.935830  0.741530  1.0  -0.3376
  N  N2424  1  0.242310  0.794270  0.963090  1.0  -0.3154
  N  N2425  1  0.293350  0.848450  0.835650  1.0  -0.3993
  N  N2426  1  0.355260  0.821020  0.805220  1.0  -0.4029
  N  N2427  1  0.330390  0.796590  0.869090  1.0  -0.4708
  N  N2428  1  0.455990  0.747690  0.804890  1.0  -0.2915
  N  N2429  1  0.544210  0.759130  0.702930  1.0  -0.333
  N  N2430  1  0.605280  0.772080  0.577640  1.0  -0.4227
  N  N2431  1  0.011430  0.260550  0.533490  1.0  -0.4322
  N  N2432  1  0.778500  0.463980  0.535380  1.0  -0.4386
  N  N2433  1  0.935830  0.289810  0.532830  1.0  -0.3379
  N  N2434  1  0.794270  0.242310  0.500330  1.0  -0.3133
  N  N2435  1  0.848450  0.293350  0.522550  1.0  -0.3973
  N  N2436  1  0.821020  0.355260  0.518500  1.0  -0.4053
  N  N2437  1  0.796590  0.330390  0.503930  1.0  -0.4711
  N  N2438  1  0.747690  0.455990  0.491430  1.0  -0.2927
  N  N2439  1  0.759130  0.544210  0.493730  1.0  -0.3332
  N  N2440  1  0.772080  0.605280  0.545000  1.0  -0.4328
  N  N2441  1  0.260550  0.694530  0.533490  1.0  -0.4344
  N  N2442  1  0.463980  0.722140  0.535380  1.0  -0.4437
  N  N2443  1  0.289810  0.741530  0.532830  1.0  -0.3367
  N  N2444  1  0.242310  0.963090  0.500330  1.0  -0.3164
  N  N2445  1  0.293350  0.835650  0.522550  1.0  -0.406
  N  N2446  1  0.355260  0.805220  0.518500  1.0  -0.403
  N  N2447  1  0.330390  0.869090  0.503930  1.0  -0.4675
  N  N2448  1  0.455990  0.804890  0.491430  1.0  -0.2904
  N  N2449  1  0.544210  0.702930  0.493730  1.0  -0.3335
  N  N2450  1  0.605280  0.577640  0.545000  1.0  -0.4326
  N  N2451  1  0.011430  0.533490  0.694530  1.0  -0.4329
  N  N2452  1  0.778500  0.535380  0.722140  1.0  -0.441
  N  N2453  1  0.935830  0.532830  0.741530  1.0  -0.3349
  N  N2454  1  0.794270  0.500330  0.963090  1.0  -0.313
  N  N2455  1  0.848450  0.522550  0.835650  1.0  -0.3983
  N  N2456  1  0.821020  0.518500  0.805220  1.0  -0.4065
  N  N2457  1  0.796590  0.503930  0.869090  1.0  -0.4718
  N  N2458  1  0.747690  0.491430  0.804890  1.0  -0.2918
  N  N2459  1  0.759130  0.493730  0.702930  1.0  -0.3365
  N  N2460  1  0.772080  0.545000  0.577640  1.0  -0.4343
  N  N2461  1  0.694530  0.260550  0.011430  1.0  -0.4327
  N  N2462  1  0.722140  0.463980  0.778500  1.0  -0.4421
  N  N2463  1  0.741530  0.289810  0.935830  1.0  -0.3369
  N  N2464  1  0.963090  0.242310  0.794270  1.0  -0.312
  N  N2465  1  0.835650  0.293350  0.848450  1.0  -0.4016
  N  N2466  1  0.805220  0.355260  0.821020  1.0  -0.4035
  N  N2467  1  0.869090  0.330390  0.796590  1.0  -0.4694
  N  N2468  1  0.804890  0.455990  0.747690  1.0  -0.2904
  N  N2469  1  0.702930  0.544210  0.759130  1.0  -0.3343
  N  N2470  1  0.577640  0.605280  0.772080  1.0  -0.4264
  N  N2471  1  0.533490  0.011430  0.260550  1.0  -0.432
  N  N2472  1  0.535380  0.778500  0.463980  1.0  -0.4421
  N  N2473  1  0.532830  0.935830  0.289810  1.0  -0.3383
  N  N2474  1  0.500330  0.794270  0.242310  1.0  -0.3139
  N  N2475  1  0.522550  0.848450  0.293350  1.0  -0.398
  N  N2476  1  0.518500  0.821020  0.355260  1.0  -0.3997
  N  N2477  1  0.503930  0.796590  0.330390  1.0  -0.4701
  N  N2478  1  0.491430  0.747690  0.455990  1.0  -0.2923
  N  N2479  1  0.493730  0.759130  0.544210  1.0  -0.3358
  N  N2480  1  0.545000  0.772080  0.605280  1.0  -0.435
  N  N2481  1  0.533490  0.260550  0.694530  1.0  -0.4326
  N  N2482  1  0.535380  0.463980  0.722140  1.0  -0.4402
  N  N2483  1  0.532830  0.289810  0.741530  1.0  -0.3379
  N  N2484  1  0.500330  0.242310  0.963090  1.0  -0.313
  N  N2485  1  0.522550  0.293350  0.835650  1.0  -0.402
  N  N2486  1  0.518500  0.355260  0.805220  1.0  -0.4044
  N  N2487  1  0.503930  0.330390  0.869090  1.0  -0.4735
  N  N2488  1  0.491430  0.455990  0.804890  1.0  -0.2942
  N  N2489  1  0.493730  0.544210  0.702930  1.0  -0.3352
  N  N2490  1  0.545000  0.605280  0.577640  1.0  -0.4326
  N  N2491  1  0.694530  0.011430  0.533490  1.0  -0.4343
  N  N2492  1  0.722140  0.778500  0.535380  1.0  -0.4416
  N  N2493  1  0.741530  0.935830  0.532830  1.0  -0.3366
  N  N2494  1  0.963090  0.794270  0.500330  1.0  -0.313
  N  N2495  1  0.835650  0.848450  0.522550  1.0  -0.3993
  N  N2496  1  0.805220  0.821020  0.518500  1.0  -0.407
  N  N2497  1  0.869090  0.796590  0.503930  1.0  -0.4695
  N  N2498  1  0.804890  0.747690  0.491430  1.0  -0.2889
  N  N2499  1  0.702930  0.759130  0.493730  1.0  -0.3344
  N  N2500  1  0.577640  0.772080  0.545000  1.0  -0.4347
  N  N2501  1  0.011430  0.694530  0.260550  1.0  -0.4349
  N  N2502  1  0.778500  0.722140  0.463980  1.0  -0.4378
  N  N2503  1  0.935830  0.741530  0.289810  1.0  -0.3346
  N  N2504  1  0.794270  0.963090  0.242310  1.0  -0.3148
  N  N2505  1  0.848450  0.835650  0.293350  1.0  -0.3972
  N  N2506  1  0.821020  0.805220  0.355260  1.0  -0.4047
  N  N2507  1  0.796590  0.869090  0.330390  1.0  -0.469
  N  N2508  1  0.747690  0.804890  0.455990  1.0  -0.2921
  N  N2509  1  0.759130  0.702930  0.544210  1.0  -0.3347
  N  N2510  1  0.772080  0.577640  0.605280  1.0  -0.4249
  N  N2511  1  0.260550  0.533490  0.011430  1.0  -0.4311
  N  N2512  1  0.463980  0.535380  0.778500  1.0  -0.4409
  N  N2513  1  0.289810  0.532830  0.935830  1.0  -0.3345
  N  N2514  1  0.242310  0.500330  0.794270  1.0  -0.3151
  N  N2515  1  0.293350  0.522550  0.848450  1.0  -0.4023
  N  N2516  1  0.355260  0.518500  0.821020  1.0  -0.3944
  N  N2517  1  0.330390  0.503930  0.796590  1.0  -0.4714
  N  N2518  1  0.455990  0.491430  0.747690  1.0  -0.2903
  N  N2519  1  0.544210  0.493730  0.759130  1.0  -0.3341
  N  N2520  1  0.605280  0.545000  0.772080  1.0  -0.433
  N  N2521  1  0.805470  0.966510  0.488570  1.0  -0.4328
  N  N2522  1  0.777860  0.964620  0.721500  1.0  -0.4405
  N  N2523  1  0.758470  0.967170  0.564170  1.0  -0.3386
  N  N2524  1  0.536910  0.999670  0.705730  1.0  -0.3128
  N  N2525  1  0.664350  0.977450  0.651550  1.0  -0.4043
  N  N2526  1  0.694780  0.981500  0.678980  1.0  -0.4036
  N  N2527  1  0.630910  0.996070  0.703410  1.0  -0.4697
  N  N2528  1  0.695110  0.008570  0.752310  1.0  -0.2889
  N  N2529  1  0.797070  0.006270  0.740870  1.0  -0.3336
  N  N2530  1  0.922360  0.955000  0.727920  1.0  -0.4252
  N  N2531  1  0.966510  0.805470  0.239450  1.0  -0.435
  N  N2532  1  0.964620  0.777860  0.036020  1.0  -0.4413
  N  N2533  1  0.967170  0.758470  0.210190  1.0  -0.3387
  N  N2534  1  0.999670  0.536910  0.257690  1.0  -0.3155
  N  N2535  1  0.977450  0.664350  0.206650  1.0  -0.3978
  N  N2536  1  0.981500  0.694780  0.144740  1.0  -0.3973
  N  N2537  1  0.996070  0.630910  0.169610  1.0  -0.4703
  N  N2538  1  0.008570  0.695110  0.044010  1.0  -0.2922
  N  N2539  1  0.006270  0.797070  0.955790  1.0  -0.3336
  N  N2540  1  0.955000  0.922360  0.894720  1.0  -0.4337
  N  N2541  1  0.239450  0.488570  0.966510  1.0  -0.4326
  N  N2542  1  0.036020  0.721500  0.964620  1.0  -0.4396
  N  N2543  1  0.210190  0.564170  0.967170  1.0  -0.3378
  N  N2544  1  0.257690  0.705730  0.999670  1.0  -0.3169
  N  N2545  1  0.206650  0.651550  0.977450  1.0  -0.4016
  N  N2546  1  0.144740  0.678980  0.981500  1.0  -0.4062
  N  N2547  1  0.169610  0.703410  0.996070  1.0  -0.4604
  N  N2548  1  0.044010  0.752310  0.008570  1.0  -0.2919
  N  N2549  1  0.955790  0.740870  0.006270  1.0  -0.3329
  N  N2550  1  0.894720  0.727920  0.955000  1.0  -0.4337
  N  N2551  1  0.488570  0.239450  0.805470  1.0  -0.4325
  N  N2552  1  0.721500  0.036020  0.777860  1.0  -0.44
  N  N2553  1  0.564170  0.210190  0.758470  1.0  -0.3362
  N  N2554  1  0.705730  0.257690  0.536910  1.0  -0.3125
  N  N2555  1  0.651550  0.206650  0.664350  1.0  -0.401
  N  N2556  1  0.678980  0.144740  0.694780  1.0  -0.4057
  N  N2557  1  0.703410  0.169610  0.630910  1.0  -0.4703
  N  N2558  1  0.752310  0.044010  0.695110  1.0  -0.2931
  N  N2559  1  0.740870  0.955790  0.797070  1.0  -0.3322
  N  N2560  1  0.727920  0.894720  0.922360  1.0  -0.4337
  N  N2561  1  0.239450  0.805470  0.488570  1.0  -0.4338
  N  N2562  1  0.036020  0.777860  0.721500  1.0  -0.443
  N  N2563  1  0.210190  0.758470  0.564170  1.0  -0.3368
  N  N2564  1  0.257690  0.536910  0.705730  1.0  -0.3147
  N  N2565  1  0.206650  0.664350  0.651550  1.0  -0.3976
  N  N2566  1  0.144740  0.694780  0.678980  1.0  -0.4048
  N  N2567  1  0.169610  0.630910  0.703410  1.0  -0.4688
  N  N2568  1  0.044010  0.695110  0.752310  1.0  -0.2915
  N  N2569  1  0.955790  0.797070  0.740870  1.0  -0.3333
  N  N2570  1  0.894720  0.922360  0.727920  1.0  -0.4346
  N  N2571  1  0.488570  0.966510  0.239450  1.0  -0.4334
  N  N2572  1  0.721500  0.964620  0.036020  1.0  -0.4438
  N  N2573  1  0.564170  0.967170  0.210190  1.0  -0.3339
  N  N2574  1  0.705730  0.999670  0.257690  1.0  -0.312
  N  N2575  1  0.651550  0.977450  0.206650  1.0  -0.4047
  N  N2576  1  0.678980  0.981500  0.144740  1.0  -0.4067
  N  N2577  1  0.703410  0.996070  0.169610  1.0  -0.4606
  N  N2578  1  0.752310  0.008570  0.044010  1.0  -0.2918
  N  N2579  1  0.740870  0.006270  0.955790  1.0  -0.3359
  N  N2580  1  0.727920  0.955000  0.894720  1.0  -0.4252
  N  N2581  1  0.805470  0.239450  0.966510  1.0  -0.4331
  N  N2582  1  0.777860  0.036020  0.964620  1.0  -0.4418
  N  N2583  1  0.758470  0.210190  0.967170  1.0  -0.3377
  N  N2584  1  0.536910  0.257690  0.999670  1.0  -0.3121
  N  N2585  1  0.664350  0.206650  0.977450  1.0  -0.3991
  N  N2586  1  0.694780  0.144740  0.981500  1.0  -0.4038
  N  N2587  1  0.630910  0.169610  0.996070  1.0  -0.4717
  N  N2588  1  0.695110  0.044010  0.008570  1.0  -0.29
  N  N2589  1  0.797070  0.955790  0.006270  1.0  -0.334
  N  N2590  1  0.922360  0.894720  0.955000  1.0  -0.4351
  N  N2591  1  0.966510  0.488570  0.805470  1.0  -0.4329
  N  N2592  1  0.964620  0.721500  0.777860  1.0  -0.4427
  N  N2593  1  0.967170  0.564170  0.758470  1.0  -0.3388
  N  N2594  1  0.999670  0.705730  0.536910  1.0  -0.3156
  N  N2595  1  0.977450  0.651550  0.664350  1.0  -0.4109
  N  N2596  1  0.981500  0.678980  0.694780  1.0  -0.4
  N  N2597  1  0.996070  0.703410  0.630910  1.0  -0.4591
  N  N2598  1  0.008570  0.752310  0.695110  1.0  -0.2915
  N  N2599  1  0.006270  0.740870  0.797070  1.0  -0.3347
  N  N2600  1  0.955000  0.727920  0.922360  1.0  -0.4338
  N  N2601  1  0.966510  0.239450  0.488570  1.0  -0.432
  N  N2602  1  0.964620  0.036020  0.721500  1.0  -0.441
  N  N2603  1  0.967170  0.210190  0.564170  1.0  -0.3368
  N  N2604  1  0.999670  0.257690  0.705730  1.0  -0.3132
  N  N2605  1  0.977450  0.206650  0.651550  1.0  -0.4008
  N  N2606  1  0.981500  0.144740  0.678980  1.0  -0.4064
  N  N2607  1  0.996070  0.169610  0.703410  1.0  -0.4706
  N  N2608  1  0.008570  0.044010  0.752310  1.0  -0.2953
  N  N2609  1  0.006270  0.955790  0.740870  1.0  -0.3355
  N  N2610  1  0.955000  0.894720  0.727920  1.0  -0.4327
  N  N2611  1  0.805470  0.488570  0.239450  1.0  -0.4358
  N  N2612  1  0.777860  0.721500  0.036020  1.0  -0.4393
  N  N2613  1  0.758470  0.564170  0.210190  1.0  -0.3376
  N  N2614  1  0.536910  0.705730  0.257690  1.0  -0.3169
  N  N2615  1  0.664350  0.651550  0.206650  1.0  -0.3999
  N  N2616  1  0.694780  0.678980  0.144740  1.0  -0.4043
  N  N2617  1  0.630910  0.703410  0.169610  1.0  -0.4704
  N  N2618  1  0.695110  0.752310  0.044010  1.0  -0.2892
  N  N2619  1  0.797070  0.740870  0.955790  1.0  -0.3344
  N  N2620  1  0.922360  0.727920  0.894720  1.0  -0.4349
  N  N2621  1  0.488570  0.805470  0.966510  1.0  -0.4337
  N  N2622  1  0.721500  0.777860  0.964620  1.0  -0.4375
  N  N2623  1  0.564170  0.758470  0.967170  1.0  -0.3347
  N  N2624  1  0.705730  0.536910  0.999670  1.0  -0.3139
  N  N2625  1  0.651550  0.664350  0.977450  1.0  -0.4019
  N  N2626  1  0.678980  0.694780  0.981500  1.0  -0.4045
  N  N2627  1  0.703410  0.630910  0.996070  1.0  -0.4683
  N  N2628  1  0.752310  0.695110  0.008570  1.0  -0.2915
  N  N2629  1  0.740870  0.797070  0.006270  1.0  -0.3343
  N  N2630  1  0.727920  0.922360  0.955000  1.0  -0.4252
  N  N2631  1  0.239450  0.966510  0.805470  1.0  -0.4312
  N  N2632  1  0.036020  0.964620  0.777860  1.0  -0.4404
  N  N2633  1  0.210190  0.967170  0.758470  1.0  -0.3344
  N  N2634  1  0.257690  0.999670  0.536910  1.0  -0.315
  N  N2635  1  0.206650  0.977450  0.664350  1.0  -0.3975
  N  N2636  1  0.144740  0.981500  0.694780  1.0  -0.404
  N  N2637  1  0.169610  0.996070  0.630910  1.0  -0.4694
  N  N2638  1  0.044010  0.008570  0.695110  1.0  -0.2912
  N  N2639  1  0.955790  0.006270  0.797070  1.0  -0.3342
  N  N2640  1  0.894720  0.955000  0.922360  1.0  -0.4326
