# generated using pymatgen
data_K4H140C110O87
_symmetry_space_group_name_H-M   'P 1'
_cell_length_a   26.38960000
_cell_length_b   26.38960000
_cell_length_c   26.38960000
_cell_angle_alpha   107.82500000
_cell_angle_beta   107.82500000
_cell_angle_gamma   107.82500000
_symmetry_Int_Tables_number   1
_chemical_formula_structural   K4H140C110O87
_chemical_formula_sum   'K12 H420 C330 O261'
_cell_volume   14947.56024907
_cell_formula_units_Z   3
loop_
 _symmetry_equiv_pos_site_id
 _symmetry_equiv_pos_as_xyz
  1  'x, y, z'
loop_
 _atom_site_type_symbol
 _atom_site_label
 _atom_site_symmetry_multiplicity
 _atom_site_fract_x
 _atom_site_fract_y
 _atom_site_fract_z
 _atom_site_occupancy
 _atom_site_charge
  K  K1  1  0.682830  0.371500  0.689410  1.0  0.957
  K  K2  1  0.689410  0.682830  0.371500  1.0  0.9576
  K  K3  1  0.371500  0.689410  0.682830  1.0  0.9572
  K  K4  1  0.628500  0.317170  0.310590  1.0  0.9556
  K  K5  1  0.317170  0.310590  0.628500  1.0  0.9563
  K  K6  1  0.310590  0.628500  0.317170  1.0  0.9591
  K  K7  1  0.689710  0.310290  0.000000  1.0  0.971
  K  K8  1  0.000000  0.689710  0.310290  1.0  0.9727
  K  K9  1  0.310290  0.000000  0.689710  1.0  0.9717
  K  K10  1  0.000000  0.299270  0.700730  1.0  0.9809
  K  K11  1  0.700730  0.000000  0.299270  1.0  0.9812
  K  K12  1  0.299270  0.700730  0.000000  1.0  0.98
  H  H13  1  0.867900  0.201200  0.731400  1.0  0.1279
  H  H14  1  0.909900  0.193100  0.701700  1.0  0.1464
  H  H15  1  0.825800  0.167200  0.659600  1.0  0.1522
  H  H16  1  0.833200  0.269800  0.672300  1.0  0.1254
  H  H17  1  0.746400  0.162600  0.617300  1.0  0.1227
  H  H18  1  0.752700  0.258800  0.606600  1.0  0.3271
  H  H19  1  0.778000  0.217100  0.553400  1.0  0.1467
  H  H20  1  0.809300  0.155900  0.509200  1.0  0.2871
  H  H21  1  0.848300  0.241200  0.886200  1.0  0.1736
  H  H22  1  0.786900  0.227100  0.890000  1.0  0.1662
  H  H23  1  0.773100  0.209600  0.794700  1.0  0.1465
  H  H24  1  0.754800  0.310000  0.849400  1.0  0.1508
  H  H25  1  0.701100  0.237400  0.723700  1.0  0.1449
  H  H26  1  0.795800  0.358400  0.789100  1.0  0.1392
  H  H27  1  0.858300  0.318500  0.762600  1.0  0.1515
  H  H28  1  0.476400  0.988600  0.732800  1.0  0.1377
  H  H29  1  0.677300  0.157300  0.857300  1.0  0.1344
  H  H30  1  0.571900  0.153200  0.871100  1.0  0.1251
  H  H31  1  0.587600  0.133400  0.765700  1.0  0.1241
  H  H32  1  0.495400  0.109600  0.781800  1.0  0.4059
  H  H33  1  0.581400  0.235900  0.836500  1.0  0.1311
  H  H34  1  0.617300  0.252000  0.762000  1.0  0.4393
  H  H35  1  0.620000  0.942400  0.846000  1.0  0.1657
  H  H36  1  0.573200  0.891500  0.781400  1.0  0.1387
  H  H37  1  0.515300  0.867900  0.818800  1.0  0.4411
  H  H38  1  0.576400  0.981000  0.783800  1.0  0.1314
  H  H39  1  0.724000  0.183500  0.957800  1.0  0.1649
  H  H40  1  0.664900  0.123400  0.929100  1.0  0.1454
  H  H41  1  0.458800  0.997500  0.837500  1.0  0.1364
  H  H42  1  0.558500  0.078500  0.892900  1.0  0.1389
  H  H43  1  0.531200  0.753500  0.707300  1.0  0.1475
  H  H44  1  0.529500  0.731900  0.642700  1.0  0.1448
  H  H45  1  0.517000  0.819500  0.667200  1.0  0.1359
  H  H46  1  0.405700  0.719000  0.572400  1.0  0.1486
  H  H47  1  0.455500  0.842200  0.593800  1.0  0.1339
  H  H48  1  0.345900  0.777800  0.517900  1.0  0.4093
  H  H49  1  0.354700  0.777000  0.605000  1.0  0.1337
  H  H50  1  0.375300  0.870100  0.592700  1.0  0.4375
  H  H51  1  0.404000  0.834200  0.705800  1.0  0.1611
  H  H52  1  0.640500  0.746700  0.531600  1.0  0.1417
  H  H53  1  0.621600  0.718400  0.572500  1.0  0.1562
  H  H54  1  0.568200  0.767000  0.543700  1.0  0.1362
  H  H55  1  0.518500  0.676500  0.425600  1.0  0.1829
  H  H56  1  0.476500  0.762600  0.462800  1.0  0.142
  H  H57  1  0.420200  0.636800  0.427700  1.0  0.1473
  H  H58  1  0.435000  0.664500  0.528300  1.0  0.1458
  H  H59  1  0.745900  0.797400  0.530300  1.0  0.1407
  H  H60  1  0.777500  0.863000  0.536600  1.0  0.1467
  H  H61  1  0.678600  0.835200  0.505800  1.0  0.1458
  H  H62  1  0.702600  0.829200  0.404100  1.0  0.1727
  H  H63  1  0.608400  0.854400  0.421500  1.0  0.1421
  H  H64  1  0.604400  0.858400  0.337200  1.0  0.3484
  H  H65  1  0.595900  0.751900  0.333100  1.0  0.1518
  H  H66  1  0.529900  0.799900  0.346600  1.0  0.3634
  H  H67  1  0.565300  0.696800  0.381300  1.0  0.1639
  H  H68  1  0.860700  0.071000  0.614400  1.0  0.1461
  H  H69  1  0.872000  0.016500  0.587100  1.0  0.1348
  H  H70  1  0.895500  0.044600  0.670200  1.0  0.4345
  H  H71  1  0.761700  0.993900  0.545700  1.0  0.1473
  H  H72  1  0.826400  0.069000  0.510000  1.0  0.1361
  H  H73  1  0.701100  0.997900  0.457400  1.0  0.1489
  H  H74  1  0.787700  0.982900  0.412500  1.0  0.1551
  H  H75  1  0.769600  0.895200  0.425600  1.0  0.1462
  H  H76  1  0.468500  0.906700  0.785100  1.0  0.1423
  H  H77  1  0.668900  0.123200  0.490600  1.0  0.5614
  H  H78  1  0.731400  0.867900  0.201200  1.0  0.1284
  H  H79  1  0.701700  0.909900  0.193100  1.0  0.1427
  H  H80  1  0.659600  0.825800  0.167200  1.0  0.1529
  H  H81  1  0.672300  0.833200  0.269800  1.0  0.1275
  H  H82  1  0.617300  0.746400  0.162600  1.0  0.1221
  H  H83  1  0.606600  0.752700  0.258800  1.0  0.3258
  H  H84  1  0.553400  0.778000  0.217100  1.0  0.1466
  H  H85  1  0.509200  0.809300  0.155900  1.0  0.2896
  H  H86  1  0.886200  0.848300  0.241200  1.0  0.1755
  H  H87  1  0.890000  0.786900  0.227100  1.0  0.1711
  H  H88  1  0.794700  0.773100  0.209600  1.0  0.1442
  H  H89  1  0.849400  0.754800  0.310000  1.0  0.15
  H  H90  1  0.723700  0.701100  0.237400  1.0  0.1429
  H  H91  1  0.789100  0.795800  0.358400  1.0  0.1406
  H  H92  1  0.762600  0.858300  0.318500  1.0  0.1492
  H  H93  1  0.732800  0.476400  0.988600  1.0  0.1388
  H  H94  1  0.857300  0.677300  0.157300  1.0  0.1343
  H  H95  1  0.871100  0.571900  0.153200  1.0  0.1248
  H  H96  1  0.765700  0.587600  0.133400  1.0  0.1242
  H  H97  1  0.781800  0.495400  0.109600  1.0  0.4078
  H  H98  1  0.836500  0.581400  0.235900  1.0  0.132
  H  H99  1  0.762000  0.617300  0.252000  1.0  0.4388
  H  H100  1  0.846000  0.620000  0.942400  1.0  0.1696
  H  H101  1  0.781400  0.573200  0.891500  1.0  0.134
  H  H102  1  0.818800  0.515300  0.867900  1.0  0.4382
  H  H103  1  0.783800  0.576400  0.981000  1.0  0.1325
  H  H104  1  0.957800  0.724000  0.183500  1.0  0.168
  H  H105  1  0.929100  0.664900  0.123400  1.0  0.143
  H  H106  1  0.837500  0.458800  0.997500  1.0  0.1337
  H  H107  1  0.892900  0.558500  0.078500  1.0  0.1375
  H  H108  1  0.707300  0.531200  0.753500  1.0  0.1497
  H  H109  1  0.642700  0.529500  0.731900  1.0  0.1452
  H  H110  1  0.667200  0.517000  0.819500  1.0  0.1388
  H  H111  1  0.572400  0.405700  0.719000  1.0  0.1484
  H  H112  1  0.593800  0.455500  0.842200  1.0  0.1355
  H  H113  1  0.517900  0.345900  0.777800  1.0  0.4077
  H  H114  1  0.605000  0.354700  0.777000  1.0  0.1316
  H  H115  1  0.592700  0.375300  0.870100  1.0  0.4367
  H  H116  1  0.705800  0.404000  0.834200  1.0  0.1614
  H  H117  1  0.531600  0.640500  0.746700  1.0  0.1411
  H  H118  1  0.572500  0.621600  0.718400  1.0  0.1511
  H  H119  1  0.543700  0.568200  0.767000  1.0  0.1409
  H  H120  1  0.425600  0.518500  0.676500  1.0  0.1834
  H  H121  1  0.462800  0.476500  0.762600  1.0  0.1408
  H  H122  1  0.427700  0.420200  0.636800  1.0  0.1454
  H  H123  1  0.528300  0.435000  0.664500  1.0  0.1471
  H  H124  1  0.530300  0.745900  0.797400  1.0  0.1402
  H  H125  1  0.536600  0.777500  0.863000  1.0  0.1474
  H  H126  1  0.505800  0.678600  0.835200  1.0  0.1476
  H  H127  1  0.404100  0.702600  0.829200  1.0  0.1755
  H  H128  1  0.421500  0.608400  0.854400  1.0  0.1461
  H  H129  1  0.337200  0.604400  0.858400  1.0  0.3474
  H  H130  1  0.333100  0.595900  0.751900  1.0  0.1515
  H  H131  1  0.346600  0.529900  0.799900  1.0  0.3606
  H  H132  1  0.381300  0.565300  0.696800  1.0  0.1634
  H  H133  1  0.614400  0.860700  0.071000  1.0  0.1439
  H  H134  1  0.587100  0.872000  0.016500  1.0  0.1264
  H  H135  1  0.670200  0.895500  0.044600  1.0  0.4366
  H  H136  1  0.545700  0.761700  0.993900  1.0  0.1433
  H  H137  1  0.510000  0.826400  0.069000  1.0  0.1347
  H  H138  1  0.457400  0.701100  0.997900  1.0  0.1477
  H  H139  1  0.412500  0.787700  0.982900  1.0  0.157
  H  H140  1  0.425600  0.769600  0.895200  1.0  0.1497
  H  H141  1  0.785100  0.468500  0.906700  1.0  0.1403
  H  H142  1  0.490600  0.668900  0.123200  1.0  0.5606
  H  H143  1  0.201200  0.731400  0.867900  1.0  0.1305
  H  H144  1  0.193100  0.701700  0.909900  1.0  0.1429
  H  H145  1  0.167200  0.659600  0.825800  1.0  0.1526
  H  H146  1  0.269800  0.672300  0.833200  1.0  0.1238
  H  H147  1  0.162600  0.617300  0.746400  1.0  0.1265
  H  H148  1  0.258800  0.606600  0.752700  1.0  0.3291
  H  H149  1  0.217100  0.553400  0.778000  1.0  0.1499
  H  H150  1  0.155900  0.509200  0.809300  1.0  0.2837
  H  H151  1  0.241200  0.886200  0.848300  1.0  0.1768
  H  H152  1  0.227100  0.890000  0.786900  1.0  0.1729
  H  H153  1  0.209600  0.794700  0.773100  1.0  0.1471
  H  H154  1  0.310000  0.849400  0.754800  1.0  0.1525
  H  H155  1  0.237400  0.723700  0.701100  1.0  0.1446
  H  H156  1  0.358400  0.789100  0.795800  1.0  0.1429
  H  H157  1  0.318500  0.762600  0.858300  1.0  0.1504
  H  H158  1  0.988600  0.732800  0.476400  1.0  0.1398
  H  H159  1  0.157300  0.857300  0.677300  1.0  0.1351
  H  H160  1  0.153200  0.871100  0.571900  1.0  0.1238
  H  H161  1  0.133400  0.765700  0.587600  1.0  0.125
  H  H162  1  0.109600  0.781800  0.495400  1.0  0.4082
  H  H163  1  0.235900  0.836500  0.581400  1.0  0.1309
  H  H164  1  0.252000  0.762000  0.617300  1.0  0.4385
  H  H165  1  0.942400  0.846000  0.620000  1.0  0.1717
  H  H166  1  0.891500  0.781400  0.573200  1.0  0.1419
  H  H167  1  0.867900  0.818800  0.515300  1.0  0.4385
  H  H168  1  0.981000  0.783800  0.576400  1.0  0.1354
  H  H169  1  0.183500  0.957800  0.724000  1.0  0.1696
  H  H170  1  0.123400  0.929100  0.664900  1.0  0.145
  H  H171  1  0.997500  0.837500  0.458800  1.0  0.1372
  H  H172  1  0.078500  0.892900  0.558500  1.0  0.1379
  H  H173  1  0.753500  0.707300  0.531200  1.0  0.1497
  H  H174  1  0.731900  0.642700  0.529500  1.0  0.1472
  H  H175  1  0.819500  0.667200  0.517000  1.0  0.133
  H  H176  1  0.719000  0.572400  0.405700  1.0  0.1483
  H  H177  1  0.842200  0.593800  0.455500  1.0  0.1346
  H  H178  1  0.777800  0.517900  0.345900  1.0  0.4105
  H  H179  1  0.777000  0.605000  0.354700  1.0  0.1343
  H  H180  1  0.870100  0.592700  0.375300  1.0  0.4347
  H  H181  1  0.834200  0.705800  0.404000  1.0  0.161
  H  H182  1  0.746700  0.531600  0.640500  1.0  0.1417
  H  H183  1  0.718400  0.572500  0.621600  1.0  0.1544
  H  H184  1  0.767000  0.543700  0.568200  1.0  0.1407
  H  H185  1  0.676500  0.425600  0.518500  1.0  0.1822
  H  H186  1  0.762600  0.462800  0.476500  1.0  0.1433
  H  H187  1  0.636800  0.427700  0.420200  1.0  0.1482
  H  H188  1  0.664500  0.528300  0.435000  1.0  0.1472
  H  H189  1  0.797400  0.530300  0.745900  1.0  0.1405
  H  H190  1  0.863000  0.536600  0.777500  1.0  0.1459
  H  H191  1  0.835200  0.505800  0.678600  1.0  0.1486
  H  H192  1  0.829200  0.404100  0.702600  1.0  0.1758
  H  H193  1  0.854400  0.421500  0.608400  1.0  0.1437
  H  H194  1  0.858400  0.337200  0.604400  1.0  0.3468
  H  H195  1  0.751900  0.333100  0.595900  1.0  0.153
  H  H196  1  0.799900  0.346600  0.529900  1.0  0.3635
  H  H197  1  0.696800  0.381300  0.565300  1.0  0.1622
  H  H198  1  0.071000  0.614400  0.860700  1.0  0.1444
  H  H199  1  0.016500  0.587100  0.872000  1.0  0.1322
  H  H200  1  0.044600  0.670200  0.895500  1.0  0.4337
  H  H201  1  0.993900  0.545700  0.761700  1.0  0.1446
  H  H202  1  0.069000  0.510000  0.826400  1.0  0.1349
  H  H203  1  0.997900  0.457400  0.701100  1.0  0.147
  H  H204  1  0.982900  0.412500  0.787700  1.0  0.1536
  H  H205  1  0.895200  0.425600  0.769600  1.0  0.1478
  H  H206  1  0.906700  0.785100  0.468500  1.0  0.1436
  H  H207  1  0.123200  0.490600  0.668900  1.0  0.5617
  H  H208  1  0.798800  0.132100  0.268600  1.0  0.1287
  H  H209  1  0.806900  0.090100  0.298300  1.0  0.1426
  H  H210  1  0.832800  0.174200  0.340400  1.0  0.1572
  H  H211  1  0.730200  0.166800  0.327700  1.0  0.1264
  H  H212  1  0.837400  0.253600  0.382700  1.0  0.1241
  H  H213  1  0.741200  0.247300  0.393400  1.0  0.3255
  H  H214  1  0.782900  0.222000  0.446600  1.0  0.1461
  H  H215  1  0.844100  0.190700  0.490800  1.0  0.287
  H  H216  1  0.758800  0.151700  0.113800  1.0  0.1764
  H  H217  1  0.772900  0.213100  0.110000  1.0  0.1689
  H  H218  1  0.790400  0.226900  0.205300  1.0  0.145
  H  H219  1  0.690000  0.245200  0.150600  1.0  0.1515
  H  H220  1  0.762600  0.298900  0.276300  1.0  0.1441
  H  H221  1  0.641600  0.204200  0.210900  1.0  0.1397
  H  H222  1  0.681500  0.141700  0.237400  1.0  0.1517
  H  H223  1  0.011400  0.523600  0.267200  1.0  0.1363
  H  H224  1  0.842700  0.322700  0.142700  1.0  0.1356
  H  H225  1  0.846800  0.428100  0.128900  1.0  0.125
  H  H226  1  0.866600  0.412400  0.234300  1.0  0.1242
  H  H227  1  0.890400  0.504600  0.218200  1.0  0.4071
  H  H228  1  0.764100  0.418600  0.163500  1.0  0.132
  H  H229  1  0.748000  0.382700  0.238000  1.0  0.4399
  H  H230  1  0.057600  0.380000  0.154000  1.0  0.1668
  H  H231  1  0.108500  0.426800  0.218600  1.0  0.1361
  H  H232  1  0.132100  0.484700  0.181200  1.0  0.4402
  H  H233  1  0.019000  0.423600  0.216200  1.0  0.1321
  H  H234  1  0.816500  0.276000  0.042200  1.0  0.1689
  H  H235  1  0.876600  0.335100  0.070900  1.0  0.1426
  H  H236  1  0.002500  0.541200  0.162500  1.0  0.1357
  H  H237  1  0.921500  0.441500  0.107100  1.0  0.1375
  H  H238  1  0.246500  0.468800  0.292700  1.0  0.1492
  H  H239  1  0.268100  0.470500  0.357300  1.0  0.1462
  H  H240  1  0.180500  0.483000  0.332800  1.0  0.1386
  H  H241  1  0.281000  0.594300  0.427600  1.0  0.1491
  H  H242  1  0.157800  0.544500  0.406200  1.0  0.1358
  H  H243  1  0.222200  0.654100  0.482100  1.0  0.4097
  H  H244  1  0.223000  0.645300  0.395000  1.0  0.1317
  H  H245  1  0.129900  0.624700  0.407300  1.0  0.4362
  H  H246  1  0.165800  0.596000  0.294200  1.0  0.1598
  H  H247  1  0.253300  0.359500  0.468400  1.0  0.1403
  H  H248  1  0.281600  0.378400  0.427500  1.0  0.1572
  H  H249  1  0.233000  0.431800  0.456300  1.0  0.1365
  H  H250  1  0.323500  0.481500  0.574400  1.0  0.1838
  H  H251  1  0.237400  0.523500  0.537200  1.0  0.1432
  H  H252  1  0.363200  0.579800  0.572300  1.0  0.1445
  H  H253  1  0.335500  0.565000  0.471700  1.0  0.1467
  H  H254  1  0.202600  0.254100  0.469700  1.0  0.1392
  H  H255  1  0.137000  0.222500  0.463400  1.0  0.15
  H  H256  1  0.164800  0.321400  0.494200  1.0  0.1475
  H  H257  1  0.170800  0.297400  0.595900  1.0  0.1739
  H  H258  1  0.145600  0.391600  0.578500  1.0  0.1415
  H  H259  1  0.141600  0.395600  0.662800  1.0  0.343
  H  H260  1  0.248100  0.404100  0.666900  1.0  0.1523
  H  H261  1  0.200100  0.470100  0.653400  1.0  0.3615
  H  H262  1  0.303200  0.434700  0.618700  1.0  0.1644
  H  H263  1  0.929000  0.139300  0.385600  1.0  0.1437
  H  H264  1  0.983500  0.128000  0.412900  1.0  0.1249
  H  H265  1  0.955400  0.104500  0.329800  1.0  0.4336
  H  H266  1  0.006100  0.238300  0.454300  1.0  0.1438
  H  H267  1  0.931000  0.173600  0.490000  1.0  0.1353
  H  H268  1  0.002100  0.298900  0.542600  1.0  0.1481
  H  H269  1  0.017100  0.212300  0.587500  1.0  0.1568
  H  H270  1  0.104800  0.230400  0.574400  1.0  0.1481
  H  H271  1  0.093300  0.531500  0.214900  1.0  0.1421
  H  H272  1  0.876800  0.331100  0.509400  1.0  0.5616
  H  H273  1  0.132100  0.268600  0.798800  1.0  0.1252
  H  H274  1  0.090100  0.298300  0.806900  1.0  0.1407
  H  H275  1  0.174200  0.340400  0.832800  1.0  0.155
  H  H276  1  0.166800  0.327700  0.730200  1.0  0.1277
  H  H277  1  0.253600  0.382700  0.837400  1.0  0.1302
  H  H278  1  0.247300  0.393400  0.741200  1.0  0.3283
  H  H279  1  0.222000  0.446600  0.782900  1.0  0.1456
  H  H280  1  0.190700  0.490800  0.844100  1.0  0.2874
  H  H281  1  0.151700  0.113800  0.758800  1.0  0.177
  H  H282  1  0.213100  0.110000  0.772900  1.0  0.1703
  H  H283  1  0.226900  0.205300  0.790400  1.0  0.1433
  H  H284  1  0.245200  0.150600  0.690000  1.0  0.1525
  H  H285  1  0.298900  0.276300  0.762600  1.0  0.1441
  H  H286  1  0.204200  0.210900  0.641600  1.0  0.1415
  H  H287  1  0.141700  0.237400  0.681500  1.0  0.152
  H  H288  1  0.523600  0.267200  0.011400  1.0  0.1387
  H  H289  1  0.322700  0.142700  0.842700  1.0  0.135
  H  H290  1  0.428100  0.128900  0.846800  1.0  0.1227
  H  H291  1  0.412400  0.234300  0.866600  1.0  0.1237
  H  H292  1  0.504600  0.218200  0.890400  1.0  0.407
  H  H293  1  0.418600  0.163500  0.764100  1.0  0.1321
  H  H294  1  0.382700  0.238000  0.748000  1.0  0.4394
  H  H295  1  0.380000  0.154000  0.057600  1.0  0.1685
  H  H296  1  0.426800  0.218600  0.108500  1.0  0.1388
  H  H297  1  0.484700  0.181200  0.132100  1.0  0.4433
  H  H298  1  0.423600  0.216200  0.019000  1.0  0.1324
  H  H299  1  0.276000  0.042200  0.816500  1.0  0.168
  H  H300  1  0.335100  0.070900  0.876600  1.0  0.1426
  H  H301  1  0.541200  0.162500  0.002500  1.0  0.1353
  H  H302  1  0.441500  0.107100  0.921500  1.0  0.137
  H  H303  1  0.468800  0.292700  0.246500  1.0  0.1501
  H  H304  1  0.470500  0.357300  0.268100  1.0  0.1436
  H  H305  1  0.483000  0.332800  0.180500  1.0  0.1383
  H  H306  1  0.594300  0.427600  0.281000  1.0  0.1525
  H  H307  1  0.544500  0.406200  0.157800  1.0  0.136
  H  H308  1  0.654100  0.482100  0.222200  1.0  0.4097
  H  H309  1  0.645300  0.395000  0.223000  1.0  0.1337
  H  H310  1  0.624700  0.407300  0.129900  1.0  0.4342
  H  H311  1  0.596000  0.294200  0.165800  1.0  0.1625
  H  H312  1  0.359500  0.468400  0.253300  1.0  0.1404
  H  H313  1  0.378400  0.427500  0.281600  1.0  0.153
  H  H314  1  0.431800  0.456300  0.233000  1.0  0.1411
  H  H315  1  0.481500  0.574400  0.323500  1.0  0.184
  H  H316  1  0.523500  0.537200  0.237400  1.0  0.141
  H  H317  1  0.579800  0.572300  0.363200  1.0  0.1466
  H  H318  1  0.565000  0.471700  0.335500  1.0  0.1479
  H  H319  1  0.254100  0.469700  0.202600  1.0  0.1415
  H  H320  1  0.222500  0.463400  0.137000  1.0  0.1495
  H  H321  1  0.321400  0.494200  0.164800  1.0  0.1481
  H  H322  1  0.297400  0.595900  0.170800  1.0  0.1733
  H  H323  1  0.391600  0.578500  0.145600  1.0  0.1416
  H  H324  1  0.395600  0.662800  0.141600  1.0  0.3465
  H  H325  1  0.404100  0.666900  0.248100  1.0  0.1518
  H  H326  1  0.470100  0.653400  0.200100  1.0  0.3637
  H  H327  1  0.434700  0.618700  0.303200  1.0  0.1643
  H  H328  1  0.139300  0.385600  0.929000  1.0  0.1434
  H  H329  1  0.128000  0.412900  0.983500  1.0  0.134
  H  H330  1  0.104500  0.329800  0.955400  1.0  0.436
  H  H331  1  0.238300  0.454300  0.006100  1.0  0.1456
  H  H332  1  0.173600  0.490000  0.931000  1.0  0.1371
  H  H333  1  0.298900  0.542600  0.002100  1.0  0.1472
  H  H334  1  0.212300  0.587500  0.017100  1.0  0.1556
  H  H335  1  0.230400  0.574400  0.104800  1.0  0.148
  H  H336  1  0.531500  0.214900  0.093300  1.0  0.1426
  H  H337  1  0.331100  0.509400  0.876800  1.0  0.5562
  H  H338  1  0.268600  0.798800  0.132100  1.0  0.1258
  H  H339  1  0.298300  0.806900  0.090100  1.0  0.1444
  H  H340  1  0.340400  0.832800  0.174200  1.0  0.1562
  H  H341  1  0.327700  0.730200  0.166800  1.0  0.1248
  H  H342  1  0.382700  0.837400  0.253600  1.0  0.1193
  H  H343  1  0.393400  0.741200  0.247300  1.0  0.3248
  H  H344  1  0.446600  0.782900  0.222000  1.0  0.1468
  H  H345  1  0.490800  0.844100  0.190700  1.0  0.286
  H  H346  1  0.113800  0.758800  0.151700  1.0  0.1752
  H  H347  1  0.110000  0.772900  0.213100  1.0  0.1702
  H  H348  1  0.205300  0.790400  0.226900  1.0  0.1436
  H  H349  1  0.150600  0.690000  0.245200  1.0  0.1526
  H  H350  1  0.276300  0.762600  0.298900  1.0  0.1443
  H  H351  1  0.210900  0.641600  0.204200  1.0  0.1389
  H  H352  1  0.237400  0.681500  0.141700  1.0  0.1501
  H  H353  1  0.267200  0.011400  0.523600  1.0  0.1404
  H  H354  1  0.142700  0.842700  0.322700  1.0  0.1323
  H  H355  1  0.128900  0.846800  0.428100  1.0  0.1248
  H  H356  1  0.234300  0.866600  0.412400  1.0  0.1246
  H  H357  1  0.218200  0.890400  0.504600  1.0  0.4075
  H  H358  1  0.163500  0.764100  0.418600  1.0  0.1297
  H  H359  1  0.238000  0.748000  0.382700  1.0  0.4391
  H  H360  1  0.154000  0.057600  0.380000  1.0  0.1687
  H  H361  1  0.218600  0.108500  0.426800  1.0  0.1392
  H  H362  1  0.181200  0.132100  0.484700  1.0  0.4414
  H  H363  1  0.216200  0.019000  0.423600  1.0  0.1337
  H  H364  1  0.042200  0.816500  0.276000  1.0  0.1688
  H  H365  1  0.070900  0.876600  0.335100  1.0  0.1468
  H  H366  1  0.162500  0.002500  0.541200  1.0  0.1357
  H  H367  1  0.107100  0.921500  0.441500  1.0  0.1367
  H  H368  1  0.292700  0.246500  0.468800  1.0  0.1464
  H  H369  1  0.357300  0.268100  0.470500  1.0  0.1451
  H  H370  1  0.332800  0.180500  0.483000  1.0  0.1353
  H  H371  1  0.427600  0.281000  0.594300  1.0  0.1488
  H  H372  1  0.406200  0.157800  0.544500  1.0  0.1364
  H  H373  1  0.482100  0.222200  0.654100  1.0  0.4082
  H  H374  1  0.395000  0.223000  0.645300  1.0  0.1323
  H  H375  1  0.407300  0.129900  0.624700  1.0  0.4365
  H  H376  1  0.294200  0.165800  0.596000  1.0  0.1596
  H  H377  1  0.468400  0.253300  0.359500  1.0  0.1418
  H  H378  1  0.427500  0.281600  0.378400  1.0  0.1501
  H  H379  1  0.456300  0.233000  0.431800  1.0  0.1352
  H  H380  1  0.574400  0.323500  0.481500  1.0  0.1819
  H  H381  1  0.537200  0.237400  0.523500  1.0  0.1428
  H  H382  1  0.572300  0.363200  0.579800  1.0  0.1474
  H  H383  1  0.471700  0.335500  0.565000  1.0  0.1475
  H  H384  1  0.469700  0.202600  0.254100  1.0  0.1419
  H  H385  1  0.463400  0.137000  0.222500  1.0  0.1494
  H  H386  1  0.494200  0.164800  0.321400  1.0  0.1491
  H  H387  1  0.595900  0.170800  0.297400  1.0  0.1769
  H  H388  1  0.578500  0.145600  0.391600  1.0  0.1442
  H  H389  1  0.662800  0.141600  0.395600  1.0  0.3486
  H  H390  1  0.666900  0.248100  0.404100  1.0  0.152
  H  H391  1  0.653400  0.200100  0.470100  1.0  0.3624
  H  H392  1  0.618700  0.303200  0.434700  1.0  0.1655
  H  H393  1  0.385600  0.929000  0.139300  1.0  0.1417
  H  H394  1  0.412900  0.983500  0.128000  1.0  0.1331
  H  H395  1  0.329800  0.955400  0.104500  1.0  0.4324
  H  H396  1  0.454300  0.006100  0.238300  1.0  0.1453
  H  H397  1  0.490000  0.931000  0.173600  1.0  0.1352
  H  H398  1  0.542600  0.002100  0.298900  1.0  0.1467
  H  H399  1  0.587500  0.017100  0.212300  1.0  0.1565
  H  H400  1  0.574400  0.104800  0.230400  1.0  0.1477
  H  H401  1  0.214900  0.093300  0.531500  1.0  0.1418
  H  H402  1  0.509400  0.876800  0.331100  1.0  0.5633
  H  H403  1  0.342800  0.855900  0.379400  1.0  0.1601
  H  H404  1  0.310900  0.901600  0.314300  1.0  0.1768
  H  H405  1  0.309100  0.993400  0.360500  1.0  0.148
  H  H406  1  0.328300  0.033700  0.454300  1.0  0.1432
  H  H407  1  0.364300  0.996200  0.521500  1.0  0.1723
  H  H408  1  0.379400  0.342800  0.855900  1.0  0.1622
  H  H409  1  0.314300  0.310900  0.901600  1.0  0.175
  H  H410  1  0.360500  0.309100  0.993400  1.0  0.1476
  H  H411  1  0.454300  0.328300  0.033700  1.0  0.1419
  H  H412  1  0.521500  0.364300  0.996200  1.0  0.1726
  H  H413  1  0.855900  0.379400  0.342800  1.0  0.1586
  H  H414  1  0.901600  0.314300  0.310900  1.0  0.1756
  H  H415  1  0.993400  0.360500  0.309100  1.0  0.148
  H  H416  1  0.033700  0.454300  0.328300  1.0  0.1398
  H  H417  1  0.996200  0.521500  0.364300  1.0  0.1733
  H  H418  1  0.144100  0.657200  0.620600  1.0  0.1631
  H  H419  1  0.098400  0.689100  0.685700  1.0  0.1747
  H  H420  1  0.006600  0.690900  0.639500  1.0  0.1469
  H  H421  1  0.966300  0.671700  0.545700  1.0  0.1417
  H  H422  1  0.003800  0.635700  0.478500  1.0  0.1717
  H  H423  1  0.657200  0.620600  0.144100  1.0  0.1636
  H  H424  1  0.689100  0.685700  0.098400  1.0  0.1775
  H  H425  1  0.690900  0.639500  0.006600  1.0  0.1461
  H  H426  1  0.671700  0.545700  0.966300  1.0  0.1404
  H  H427  1  0.635700  0.478500  0.003800  1.0  0.1723
  H  H428  1  0.620600  0.144100  0.657200  1.0  0.1619
  H  H429  1  0.685700  0.098400  0.689100  1.0  0.1772
  H  H430  1  0.639500  0.006600  0.690900  1.0  0.1468
  H  H431  1  0.545700  0.966300  0.671700  1.0  0.1415
  H  H432  1  0.478500  0.003800  0.635700  1.0  0.1727
  C  C433  1  0.891200  0.219200  0.713200  1.0  -0.1991
  C  C434  1  0.851900  0.206500  0.664400  1.0  0.0757
  C  C435  1  0.814200  0.228700  0.668200  1.0  0.0518
  C  C436  1  0.771300  0.198900  0.616100  1.0  0.1021
  C  C437  1  0.762800  0.178700  0.555700  1.0  0.1024
  C  C438  1  0.801000  0.156500  0.543900  1.0  -0.0014
  C  C439  1  0.817500  0.255400  0.885100  1.0  -0.0067
  C  C440  1  0.789400  0.251400  0.824800  1.0  0.1138
  C  C441  1  0.740690  0.271010  0.815200  1.0  0.134
  C  C442  1  0.721750  0.277390  0.758460  1.0  0.1231
  C  C443  1  0.777400  0.317800  0.755700  1.0  0.1181
  C  C444  1  0.822300  0.292500  0.763400  1.0  -0.0145
  C  C445  1  0.460700  0.969800  0.755900  1.0  0.1605
  C  C446  1  0.658700  0.173300  0.882100  1.0  0.1341
  C  C447  1  0.591400  0.140300  0.845900  1.0  0.1253
  C  C448  1  0.572900  0.152200  0.793400  1.0  0.1335
  C  C449  1  0.599940  0.218560  0.812500  1.0  0.0891
  C  C450  1  0.664640  0.247860  0.850200  1.0  0.1918
  C  C451  1  0.577100  0.920000  0.818600  1.0  0.0639
  C  C452  1  0.556100  0.963000  0.804700  1.0  0.1323
  C  C453  1  0.680100  0.166200  0.939500  1.0  0.0353
  C  C454  1  0.476600  0.016900  0.816200  1.0  0.0737
  C  C455  1  0.547700  0.048300  0.852600  1.0  -0.0101
  C  C456  1  0.505400  0.737600  0.664400  1.0  0.0964
  C  C457  1  0.482700  0.780900  0.653700  1.0  0.1245
  C  C458  1  0.440400  0.757700  0.587200  1.0  0.1225
  C  C459  1  0.420700  0.804670  0.582130  1.0  0.1171
  C  C460  1  0.389700  0.815470  0.619730  1.0  0.1833
  C  C461  1  0.428100  0.832270  0.683030  1.0  -0.0067
  C  C462  1  0.608200  0.715400  0.531900  1.0  0.0855
  C  C463  1  0.556200  0.724900  0.516500  1.0  0.1148
  C  C464  1  0.526600  0.716800  0.453400  1.0  0.122
  C  C465  1  0.468700  0.721100  0.438600  1.0  0.1434
  C  C466  1  0.428200  0.678000  0.452900  1.0  0.1079
  C  C467  1  0.460600  0.692100  0.517700  1.0  -0.0091
  C  C468  1  0.749400  0.821300  0.508000  1.0  0.0684
  C  C469  1  0.692700  0.817800  0.476700  1.0  0.0959
  C  C470  1  0.685800  0.844200  0.431400  1.0  0.1304
  C  C471  1  0.623100  0.833600  0.395200  1.0  0.1126
  C  C472  1  0.585200  0.770700  0.364900  1.0  0.1306
  C  C473  1  0.589600  0.740500  0.406300  1.0  -0.001
  C  C474  1  0.843300  0.027300  0.599300  1.0  0.019
  C  C475  1  0.799600  0.011200  0.543000  1.0  0.1971
  C  C476  1  0.789700  0.048500  0.513500  1.0  0.1169
  C  C477  1  0.738900  0.015200  0.454200  1.0  0.0914
  C  C478  1  0.750800  0.963200  0.416000  1.0  0.0707
  C  C479  1  0.762800  0.928000  0.449100  1.0  -0.031
  C  C480  1  0.487500  0.929000  0.766300  1.0  0.1212
  C  C481  1  0.713200  0.891200  0.219200  1.0  -0.203
  C  C482  1  0.664400  0.851900  0.206500  1.0  0.078
  C  C483  1  0.668200  0.814200  0.228700  1.0  0.0532
  C  C484  1  0.616100  0.771300  0.198900  1.0  0.1062
  C  C485  1  0.555700  0.762800  0.178700  1.0  0.103
  C  C486  1  0.543900  0.801000  0.156500  1.0  -0.0025
  C  C487  1  0.885100  0.817500  0.255400  1.0  -0.0073
  C  C488  1  0.824800  0.789400  0.251400  1.0  0.1121
  C  C489  1  0.815200  0.740690  0.271010  1.0  0.1339
  C  C490  1  0.758460  0.721750  0.277390  1.0  0.1243
  C  C491  1  0.755700  0.777400  0.317800  1.0  0.1217
  C  C492  1  0.763400  0.822300  0.292500  1.0  -0.0108
  C  C493  1  0.755900  0.460700  0.969800  1.0  0.1579
  C  C494  1  0.882100  0.658700  0.173300  1.0  0.1379
  C  C495  1  0.845900  0.591400  0.140300  1.0  0.1254
  C  C496  1  0.793400  0.572900  0.152200  1.0  0.1322
  C  C497  1  0.812500  0.599940  0.218560  1.0  0.0924
  C  C498  1  0.850200  0.664640  0.247860  1.0  0.1884
  C  C499  1  0.818600  0.577100  0.920000  1.0  0.0684
  C  C500  1  0.804700  0.556100  0.963000  1.0  0.1355
  C  C501  1  0.939500  0.680100  0.166200  1.0  0.0332
  C  C502  1  0.816200  0.476600  0.016900  1.0  0.0756
  C  C503  1  0.852600  0.547700  0.048300  1.0  -0.0148
  C  C504  1  0.664400  0.505400  0.737600  1.0  0.0973
  C  C505  1  0.653700  0.482700  0.780900  1.0  0.1283
  C  C506  1  0.587200  0.440400  0.757700  1.0  0.1214
  C  C507  1  0.582130  0.420700  0.804670  1.0  0.1123
  C  C508  1  0.619730  0.389700  0.815470  1.0  0.1863
  C  C509  1  0.683030  0.428100  0.832270  1.0  -0.0047
  C  C510  1  0.531900  0.608200  0.715400  1.0  0.0835
  C  C511  1  0.516500  0.556200  0.724900  1.0  0.115
  C  C512  1  0.453400  0.526600  0.716800  1.0  0.1208
  C  C513  1  0.438600  0.468700  0.721100  1.0  0.1493
  C  C514  1  0.452900  0.428200  0.678000  1.0  0.1129
  C  C515  1  0.517700  0.460600  0.692100  1.0  -0.0084
  C  C516  1  0.508000  0.749400  0.821300  1.0  0.0744
  C  C517  1  0.476700  0.692700  0.817800  1.0  0.0915
  C  C518  1  0.431400  0.685800  0.844200  1.0  0.1294
  C  C519  1  0.395200  0.623100  0.833600  1.0  0.1126
  C  C520  1  0.364900  0.585200  0.770700  1.0  0.1306
  C  C521  1  0.406300  0.589600  0.740500  1.0  -0.0018
  C  C522  1  0.599300  0.843300  0.027300  1.0  0.0182
  C  C523  1  0.543000  0.799600  0.011200  1.0  0.1984
  C  C524  1  0.513500  0.789700  0.048500  1.0  0.1155
  C  C525  1  0.454200  0.738900  0.015200  1.0  0.0939
  C  C526  1  0.416000  0.750800  0.963200  1.0  0.0648
  C  C527  1  0.449100  0.762800  0.928000  1.0  -0.0278
  C  C528  1  0.766300  0.487500  0.929000  1.0  0.121
  C  C529  1  0.219200  0.713200  0.891200  1.0  -0.2065
  C  C530  1  0.206500  0.664400  0.851900  1.0  0.0765
  C  C531  1  0.228700  0.668200  0.814200  1.0  0.0551
  C  C532  1  0.198900  0.616100  0.771300  1.0  0.1044
  C  C533  1  0.178700  0.555700  0.762800  1.0  0.098
  C  C534  1  0.156500  0.543900  0.801000  1.0  -0.0038
  C  C535  1  0.255400  0.885100  0.817500  1.0  -0.0073
  C  C536  1  0.251400  0.824800  0.789400  1.0  0.1122
  C  C537  1  0.271010  0.815200  0.740690  1.0  0.1347
  C  C538  1  0.277390  0.758460  0.721750  1.0  0.1266
  C  C539  1  0.317800  0.755700  0.777400  1.0  0.1171
  C  C540  1  0.292500  0.763400  0.822300  1.0  -0.0112
  C  C541  1  0.969800  0.755900  0.460700  1.0  0.1624
  C  C542  1  0.173300  0.882100  0.658700  1.0  0.1362
  C  C543  1  0.140300  0.845900  0.591400  1.0  0.1257
  C  C544  1  0.152200  0.793400  0.572900  1.0  0.1342
  C  C545  1  0.218560  0.812500  0.599940  1.0  0.0867
  C  C546  1  0.247860  0.850200  0.664640  1.0  0.1896
  C  C547  1  0.920000  0.818600  0.577100  1.0  0.0651
  C  C548  1  0.963000  0.804700  0.556100  1.0  0.135
  C  C549  1  0.166200  0.939500  0.680100  1.0  0.0364
  C  C550  1  0.016900  0.816200  0.476600  1.0  0.0807
  C  C551  1  0.048300  0.852600  0.547700  1.0  -0.0105
  C  C552  1  0.737600  0.664400  0.505400  1.0  0.094
  C  C553  1  0.780900  0.653700  0.482700  1.0  0.1256
  C  C554  1  0.757700  0.587200  0.440400  1.0  0.1246
  C  C555  1  0.804670  0.582130  0.420700  1.0  0.1143
  C  C556  1  0.815470  0.619730  0.389700  1.0  0.1867
  C  C557  1  0.832270  0.683030  0.428100  1.0  -0.0049
  C  C558  1  0.715400  0.531900  0.608200  1.0  0.0868
  C  C559  1  0.724900  0.516500  0.556200  1.0  0.1174
  C  C560  1  0.716800  0.453400  0.526600  1.0  0.1219
  C  C561  1  0.721100  0.438600  0.468700  1.0  0.1457
  C  C562  1  0.678000  0.452900  0.428200  1.0  0.1093
  C  C563  1  0.692100  0.517700  0.460600  1.0  -0.0121
  C  C564  1  0.821300  0.508000  0.749400  1.0  0.0734
  C  C565  1  0.817800  0.476700  0.692700  1.0  0.0946
  C  C566  1  0.844200  0.431400  0.685800  1.0  0.1287
  C  C567  1  0.833600  0.395200  0.623100  1.0  0.1103
  C  C568  1  0.770700  0.364900  0.585200  1.0  0.1321
  C  C569  1  0.740500  0.406300  0.589600  1.0  -0.0017
  C  C570  1  0.027300  0.599300  0.843300  1.0  0.0164
  C  C571  1  0.011200  0.543000  0.799600  1.0  0.1954
  C  C572  1  0.048500  0.513500  0.789700  1.0  0.1158
  C  C573  1  0.015200  0.454200  0.738900  1.0  0.0935
  C  C574  1  0.963200  0.416000  0.750800  1.0  0.0682
  C  C575  1  0.928000  0.449100  0.762800  1.0  -0.0259
  C  C576  1  0.929000  0.766300  0.487500  1.0  0.1222
  C  C577  1  0.780800  0.108800  0.286800  1.0  -0.1994
  C  C578  1  0.793500  0.148100  0.335600  1.0  0.0794
  C  C579  1  0.771300  0.185800  0.331800  1.0  0.0521
  C  C580  1  0.801100  0.228700  0.383900  1.0  0.1062
  C  C581  1  0.821300  0.237200  0.444300  1.0  0.1001
  C  C582  1  0.843500  0.199000  0.456100  1.0  -0.004
  C  C583  1  0.744600  0.182500  0.114900  1.0  -0.0013
  C  C584  1  0.748600  0.210600  0.175200  1.0  0.1126
  C  C585  1  0.728990  0.259310  0.184800  1.0  0.1338
  C  C586  1  0.722610  0.278250  0.241540  1.0  0.1305
  C  C587  1  0.682200  0.222600  0.244300  1.0  0.119
  C  C588  1  0.707500  0.177700  0.236600  1.0  -0.0104
  C  C589  1  0.030200  0.539300  0.244100  1.0  0.1519
  C  C590  1  0.826700  0.341300  0.117900  1.0  0.137
  C  C591  1  0.859700  0.408600  0.154100  1.0  0.1254
  C  C592  1  0.847800  0.427100  0.206600  1.0  0.1349
  C  C593  1  0.781440  0.400060  0.187500  1.0  0.0878
  C  C594  1  0.752140  0.335360  0.149800  1.0  0.1882
  C  C595  1  0.080000  0.422900  0.181400  1.0  0.0664
  C  C596  1  0.037000  0.443900  0.195300  1.0  0.136
  C  C597  1  0.833800  0.319900  0.060500  1.0  0.036
  C  C598  1  0.983100  0.523400  0.183800  1.0  0.0805
  C  C599  1  0.951700  0.452300  0.147400  1.0  -0.0103
  C  C600  1  0.262400  0.494600  0.335600  1.0  0.0988
  C  C601  1  0.219100  0.517300  0.346300  1.0  0.1259
  C  C602  1  0.242300  0.559600  0.412800  1.0  0.1214
  C  C603  1  0.195330  0.579300  0.417870  1.0  0.1186
  C  C604  1  0.184530  0.610300  0.380270  1.0  0.1889
  C  C605  1  0.167730  0.571900  0.316970  1.0  -0.007
  C  C606  1  0.284600  0.391800  0.468100  1.0  0.0864
  C  C607  1  0.275100  0.443800  0.483500  1.0  0.117
  C  C608  1  0.283200  0.473400  0.546600  1.0  0.1209
  C  C609  1  0.278900  0.531300  0.561400  1.0  0.1456
  C  C610  1  0.322000  0.571800  0.547100  1.0  0.113
  C  C611  1  0.307900  0.539400  0.482300  1.0  -0.0112
  C  C612  1  0.178700  0.250600  0.492000  1.0  0.0719
  C  C613  1  0.182200  0.307300  0.523300  1.0  0.0941
  C  C614  1  0.155800  0.314200  0.568600  1.0  0.1285
  C  C615  1  0.166400  0.376900  0.604800  1.0  0.1113
  C  C616  1  0.229300  0.414800  0.635100  1.0  0.1317
  C  C617  1  0.259500  0.410400  0.593700  1.0  0.0008
  C  C618  1  0.972700  0.156700  0.400700  1.0  0.0169
  C  C619  1  0.988800  0.200400  0.457000  1.0  0.1981
  C  C620  1  0.951500  0.210300  0.486500  1.0  0.114
  C  C621  1  0.984800  0.261100  0.545800  1.0  0.0915
  C  C622  1  0.036800  0.249200  0.584000  1.0  0.0699
  C  C623  1  0.072000  0.237200  0.550900  1.0  -0.0265
  C  C624  1  0.071000  0.512500  0.233700  1.0  0.1227
  C  C625  1  0.108800  0.286800  0.780800  1.0  -0.2006
  C  C626  1  0.148100  0.335600  0.793500  1.0  0.0746
  C  C627  1  0.185800  0.331800  0.771300  1.0  0.0531
  C  C628  1  0.228700  0.383900  0.801100  1.0  0.1027
  C  C629  1  0.237200  0.444300  0.821300  1.0  0.0985
  C  C630  1  0.199000  0.456100  0.843500  1.0  -0.002
  C  C631  1  0.182500  0.114900  0.744600  1.0  -0.0036
  C  C632  1  0.210600  0.175200  0.748600  1.0  0.1146
  C  C633  1  0.259310  0.184800  0.728990  1.0  0.1326
  C  C634  1  0.278250  0.241540  0.722610  1.0  0.1283
  C  C635  1  0.222600  0.244300  0.682200  1.0  0.1219
  C  C636  1  0.177700  0.236600  0.707500  1.0  -0.0098
  C  C637  1  0.539300  0.244100  0.030200  1.0  0.1499
  C  C638  1  0.341300  0.117900  0.826700  1.0  0.1352
  C  C639  1  0.408600  0.154100  0.859700  1.0  0.1247
  C  C640  1  0.427100  0.206600  0.847800  1.0  0.1355
  C  C641  1  0.400060  0.187500  0.781440  1.0  0.0909
  C  C642  1  0.335360  0.149800  0.752140  1.0  0.1892
  C  C643  1  0.422900  0.181400  0.080000  1.0  0.0705
  C  C644  1  0.443900  0.195300  0.037000  1.0  0.1323
  C  C645  1  0.319900  0.060500  0.833800  1.0  0.0364
  C  C646  1  0.523400  0.183800  0.983100  1.0  0.0771
  C  C647  1  0.452300  0.147400  0.951700  1.0  -0.0112
  C  C648  1  0.494600  0.335600  0.262400  1.0  0.098
  C  C649  1  0.517300  0.346300  0.219100  1.0  0.1267
  C  C650  1  0.559600  0.412800  0.242300  1.0  0.123
  C  C651  1  0.579300  0.417870  0.195330  1.0  0.1145
  C  C652  1  0.610300  0.380270  0.184530  1.0  0.1809
  C  C653  1  0.571900  0.316970  0.167730  1.0  -0.0044
  C  C654  1  0.391800  0.468100  0.284600  1.0  0.0877
  C  C655  1  0.443800  0.483500  0.275100  1.0  0.1179
  C  C656  1  0.473400  0.546600  0.283200  1.0  0.1216
  C  C657  1  0.531300  0.561400  0.278900  1.0  0.1487
  C  C658  1  0.571800  0.547100  0.322000  1.0  0.1097
  C  C659  1  0.539400  0.482300  0.307900  1.0  -0.0111
  C  C660  1  0.250600  0.492000  0.178700  1.0  0.0743
  C  C661  1  0.307300  0.523300  0.182200  1.0  0.0922
  C  C662  1  0.314200  0.568600  0.155800  1.0  0.129
  C  C663  1  0.376900  0.604800  0.166400  1.0  0.1123
  C  C664  1  0.414800  0.635100  0.229300  1.0  0.1305
  C  C665  1  0.410400  0.593700  0.259500  1.0  -0.001
  C  C666  1  0.156700  0.400700  0.972700  1.0  0.0108
  C  C667  1  0.200400  0.457000  0.988800  1.0  0.2
  C  C668  1  0.210300  0.486500  0.951500  1.0  0.1163
  C  C669  1  0.261100  0.545800  0.984800  1.0  0.0939
  C  C670  1  0.249200  0.584000  0.036800  1.0  0.07
  C  C671  1  0.237200  0.550900  0.072000  1.0  -0.0301
  C  C672  1  0.512500  0.233700  0.071000  1.0  0.1223
  C  C673  1  0.286800  0.780800  0.108800  1.0  -0.2026
  C  C674  1  0.335600  0.793500  0.148100  1.0  0.0896
  C  C675  1  0.331800  0.771300  0.185800  1.0  0.0526
  C  C676  1  0.383900  0.801100  0.228700  1.0  0.1061
  C  C677  1  0.444300  0.821300  0.237200  1.0  0.0957
  C  C678  1  0.456100  0.843500  0.199000  1.0  0.0002
  C  C679  1  0.114900  0.744600  0.182500  1.0  -0.0092
  C  C680  1  0.175200  0.748600  0.210600  1.0  0.1119
  C  C681  1  0.184800  0.728990  0.259310  1.0  0.1328
  C  C682  1  0.241540  0.722610  0.278250  1.0  0.1274
  C  C683  1  0.244300  0.682200  0.222600  1.0  0.117
  C  C684  1  0.236600  0.707500  0.177700  1.0  -0.0134
  C  C685  1  0.244100  0.030200  0.539300  1.0  0.1588
  C  C686  1  0.117900  0.826700  0.341300  1.0  0.1343
  C  C687  1  0.154100  0.859700  0.408600  1.0  0.1232
  C  C688  1  0.206600  0.847800  0.427100  1.0  0.1308
  C  C689  1  0.187500  0.781440  0.400060  1.0  0.0883
  C  C690  1  0.149800  0.752140  0.335360  1.0  0.1922
  C  C691  1  0.181400  0.080000  0.422900  1.0  0.0659
  C  C692  1  0.195300  0.037000  0.443900  1.0  0.1364
  C  C693  1  0.060500  0.833800  0.319900  1.0  0.0363
  C  C694  1  0.183800  0.983100  0.523400  1.0  0.0788
  C  C695  1  0.147400  0.951700  0.452300  1.0  -0.0172
  C  C696  1  0.335600  0.262400  0.494600  1.0  0.0939
  C  C697  1  0.346300  0.219100  0.517300  1.0  0.1264
  C  C698  1  0.412800  0.242300  0.559600  1.0  0.1231
  C  C699  1  0.417870  0.195330  0.579300  1.0  0.1139
  C  C700  1  0.380270  0.184530  0.610300  1.0  0.1859
  C  C701  1  0.316970  0.167730  0.571900  1.0  -0.0054
  C  C702  1  0.468100  0.284600  0.391800  1.0  0.0853
  C  C703  1  0.483500  0.275100  0.443800  1.0  0.1144
  C  C704  1  0.546600  0.283200  0.473400  1.0  0.1205
  C  C705  1  0.561400  0.278900  0.531300  1.0  0.1474
  C  C706  1  0.547100  0.322000  0.571800  1.0  0.1081
  C  C707  1  0.482300  0.307900  0.539400  1.0  -0.0094
  C  C708  1  0.492000  0.178700  0.250600  1.0  0.0722
  C  C709  1  0.523300  0.182200  0.307300  1.0  0.0912
  C  C710  1  0.568600  0.155800  0.314200  1.0  0.1282
  C  C711  1  0.604800  0.166400  0.376900  1.0  0.1136
  C  C712  1  0.635100  0.229300  0.414800  1.0  0.1345
  C  C713  1  0.593700  0.259500  0.410400  1.0  -0.0003
  C  C714  1  0.400700  0.972700  0.156700  1.0  0.0117
  C  C715  1  0.457000  0.988800  0.200400  1.0  0.1967
  C  C716  1  0.486500  0.951500  0.210300  1.0  0.1155
  C  C717  1  0.545800  0.984800  0.261100  1.0  0.0921
  C  C718  1  0.584000  0.036800  0.249200  1.0  0.0658
  C  C719  1  0.550900  0.072000  0.237200  1.0  -0.0281
  C  C720  1  0.233700  0.071000  0.512500  1.0  0.1218
  C  C721  1  0.373000  0.891500  0.492100  1.0  0.712
  C  C722  1  0.357500  0.923100  0.454400  1.0  -0.0314
  C  C723  1  0.341300  0.892800  0.394700  1.0  -0.011
  C  C724  1  0.321700  0.919500  0.355500  1.0  -0.0434
  C  C725  1  0.320200  0.973900  0.383900  1.0  -0.0595
  C  C726  1  0.333100  0.998700  0.439800  1.0  -0.0703
  C  C727  1  0.353800  0.976700  0.480400  1.0  -0.0788
  C  C728  1  0.492100  0.373000  0.891500  1.0  0.7149
  C  C729  1  0.454400  0.357500  0.923100  1.0  -0.0278
  C  C730  1  0.394700  0.341300  0.892800  1.0  -0.0143
  C  C731  1  0.355500  0.321700  0.919500  1.0  -0.0452
  C  C732  1  0.383900  0.320200  0.973900  1.0  -0.056
  C  C733  1  0.439800  0.333100  0.998700  1.0  -0.0684
  C  C734  1  0.480400  0.353800  0.976700  1.0  -0.082
  C  C735  1  0.891500  0.492100  0.373000  1.0  0.7147
  C  C736  1  0.923100  0.454400  0.357500  1.0  -0.0248
  C  C737  1  0.892800  0.394700  0.341300  1.0  -0.0041
  C  C738  1  0.919500  0.355500  0.321700  1.0  -0.0492
  C  C739  1  0.973900  0.383900  0.320200  1.0  -0.0584
  C  C740  1  0.998700  0.439800  0.333100  1.0  -0.0636
  C  C741  1  0.976700  0.480400  0.353800  1.0  -0.0834
  C  C742  1  0.108500  0.627000  0.507900  1.0  0.7137
  C  C743  1  0.076900  0.642500  0.545600  1.0  -0.0273
  C  C744  1  0.107200  0.658700  0.605300  1.0  -0.0166
  C  C745  1  0.080500  0.678300  0.644500  1.0  -0.0412
  C  C746  1  0.026100  0.679800  0.616100  1.0  -0.0514
  C  C747  1  0.001300  0.666900  0.560200  1.0  -0.0711
  C  C748  1  0.023300  0.646200  0.519600  1.0  -0.0793
  C  C749  1  0.627000  0.507900  0.108500  1.0  0.714
  C  C750  1  0.642500  0.545600  0.076900  1.0  -0.0304
  C  C751  1  0.658700  0.605300  0.107200  1.0  -0.0119
  C  C752  1  0.678300  0.644500  0.080500  1.0  -0.0496
  C  C753  1  0.679800  0.616100  0.026100  1.0  -0.0549
  C  C754  1  0.666900  0.560200  0.001300  1.0  -0.0691
  C  C755  1  0.646200  0.519600  0.023300  1.0  -0.082
  C  C756  1  0.507900  0.108500  0.627000  1.0  0.7144
  C  C757  1  0.545600  0.076900  0.642500  1.0  -0.0233
  C  C758  1  0.605300  0.107200  0.658700  1.0  -0.0067
  C  C759  1  0.644500  0.080500  0.678300  1.0  -0.0448
  C  C760  1  0.616100  0.026100  0.679800  1.0  -0.0575
  C  C761  1  0.560200  0.001300  0.666900  1.0  -0.0708
  C  C762  1  0.519600  0.023300  0.646200  1.0  -0.083
  O  O763  1  0.949700  0.280400  0.773200  1.0  -0.8058
  O  O764  1  0.733500  0.225200  0.603600  1.0  -0.4763
  O  O765  1  0.857800  0.182000  0.611600  1.0  -0.4592
  O  O766  1  0.841800  0.305800  0.931000  1.0  -0.5217
  O  O767  1  0.838160  0.289620  0.817680  1.0  -0.2547
  O  O768  1  0.691320  0.227410  0.813820  1.0  -0.3098
  O  O769  1  0.682730  0.305650  0.756020  1.0  -0.5623
  O  O770  1  0.759170  0.321960  0.700770  1.0  -0.508
  O  O771  1  0.796230  0.235070  0.716040  1.0  -0.2838
  O  O772  1  0.396300  0.939010  0.725690  1.0  -0.5435
  O  O773  1  0.679050  0.233990  0.898530  1.0  -0.3322
  O  O774  1  0.573940  0.077280  0.825820  1.0  -0.2395
  O  O775  1  0.509790  0.126440  0.763740  1.0  -0.4879
  O  O776  1  0.585960  0.230410  0.761230  1.0  -0.503
  O  O777  1  0.551500  0.888800  0.842100  1.0  -0.5026
  O  O778  1  0.663500  0.191600  0.979600  1.0  -0.5578
  O  O779  1  0.457200  0.061500  0.812600  1.0  -0.4648
  O  O780  1  0.566200  0.008300  0.859700  1.0  -0.3312
  O  O781  1  0.457090  0.682360  0.644950  1.0  -0.5211
  O  O782  1  0.379170  0.780770  0.520210  1.0  -0.4939
  O  O783  1  0.367140  0.857460  0.616200  1.0  -0.4888
  O  O784  1  0.450140  0.789040  0.687150  1.0  -0.3382
  O  O785  1  0.598000  0.658100  0.491400  1.0  -0.3826
  O  O786  1  0.514830  0.688130  0.528940  1.0  -0.2332
  O  O787  1  0.564800  0.759350  0.443750  1.0  -0.2441
  O  O788  1  0.440160  0.706270  0.377270  1.0  -0.524
  O  O789  1  0.372610  0.681330  0.439760  1.0  -0.4839
  O  O790  1  0.475150  0.751860  0.553580  1.0  -0.258
  O  O791  1  0.770960  0.799540  0.466800  1.0  -0.5782
  O  O792  1  0.636000  0.862400  0.361900  1.0  -0.4014
  O  O793  1  0.528200  0.765900  0.338500  1.0  -0.4838
  O  O794  1  0.648700  0.751060  0.436240  1.0  -0.4211
  O  O795  1  0.858700  0.024300  0.649600  1.0  -0.5331
  O  O796  1  0.804100  0.956400  0.506600  1.0  -0.4229
  O  O797  1  0.779700  0.093400  0.553600  1.0  -0.5411
  O  O798  1  0.736100  0.053400  0.426000  1.0  -0.5007
  O  O799  1  0.704200  0.934300  0.359800  1.0  -0.591
  O  O800  1  0.717500  0.906200  0.463100  1.0  -0.2554
  O  O801  1  0.477530  0.888830  0.709160  1.0  -0.2473
  O  O802  1  0.027000  0.364300  0.822000  1.0  -0.6038
  O  O803  1  0.699700  0.134000  0.485600  1.0  -0.6554
  O  O804  1  0.773200  0.949700  0.280400  1.0  -0.807
  O  O805  1  0.603600  0.733500  0.225200  1.0  -0.475
  O  O806  1  0.611600  0.857800  0.182000  1.0  -0.4686
  O  O807  1  0.931000  0.841800  0.305800  1.0  -0.525
  O  O808  1  0.817680  0.838160  0.289620  1.0  -0.2554
  O  O809  1  0.813820  0.691320  0.227410  1.0  -0.3095
  O  O810  1  0.756020  0.682730  0.305650  1.0  -0.5636
  O  O811  1  0.700770  0.759170  0.321960  1.0  -0.5093
  O  O812  1  0.716040  0.796230  0.235070  1.0  -0.2853
  O  O813  1  0.725690  0.396300  0.939010  1.0  -0.5513
  O  O814  1  0.898530  0.679050  0.233990  1.0  -0.3353
  O  O815  1  0.825820  0.573940  0.077280  1.0  -0.2398
  O  O816  1  0.763740  0.509790  0.126440  1.0  -0.4909
  O  O817  1  0.761230  0.585960  0.230410  1.0  -0.5042
  O  O818  1  0.842100  0.551500  0.888800  1.0  -0.4984
  O  O819  1  0.979600  0.663500  0.191600  1.0  -0.5538
  O  O820  1  0.812600  0.457200  0.061500  1.0  -0.4679
  O  O821  1  0.859700  0.566200  0.008300  1.0  -0.3362
  O  O822  1  0.644950  0.457090  0.682360  1.0  -0.5171
  O  O823  1  0.520210  0.379170  0.780770  1.0  -0.4965
  O  O824  1  0.616200  0.367140  0.857460  1.0  -0.4816
  O  O825  1  0.687150  0.450140  0.789040  1.0  -0.3388
  O  O826  1  0.491400  0.598000  0.658100  1.0  -0.3749
  O  O827  1  0.528940  0.514830  0.688130  1.0  -0.2361
  O  O828  1  0.443750  0.564800  0.759350  1.0  -0.2471
  O  O829  1  0.377270  0.440160  0.706270  1.0  -0.5283
  O  O830  1  0.439760  0.372610  0.681330  1.0  -0.4892
  O  O831  1  0.553580  0.475150  0.751860  1.0  -0.2624
  O  O832  1  0.466800  0.770960  0.799540  1.0  -0.5767
  O  O833  1  0.361900  0.636000  0.862400  1.0  -0.3969
  O  O834  1  0.338500  0.528200  0.765900  1.0  -0.4852
  O  O835  1  0.436240  0.648700  0.751060  1.0  -0.4186
  O  O836  1  0.649600  0.858700  0.024300  1.0  -0.5327
  O  O837  1  0.506600  0.804100  0.956400  1.0  -0.4194
  O  O838  1  0.553600  0.779700  0.093400  1.0  -0.539
  O  O839  1  0.426000  0.736100  0.053400  1.0  -0.5076
  O  O840  1  0.359800  0.704200  0.934300  1.0  -0.5986
  O  O841  1  0.463100  0.717500  0.906200  1.0  -0.2496
  O  O842  1  0.709160  0.477530  0.888830  1.0  -0.253
  O  O843  1  0.822000  0.027000  0.364300  1.0  -0.6081
  O  O844  1  0.485600  0.699700  0.134000  1.0  -0.6507
  O  O845  1  0.280400  0.773200  0.949700  1.0  -0.8083
  O  O846  1  0.225200  0.603600  0.733500  1.0  -0.4787
  O  O847  1  0.182000  0.611600  0.857800  1.0  -0.4669
  O  O848  1  0.305800  0.931000  0.841800  1.0  -0.518
  O  O849  1  0.289620  0.817680  0.838160  1.0  -0.2537
  O  O850  1  0.227410  0.813820  0.691320  1.0  -0.3097
  O  O851  1  0.305650  0.756020  0.682730  1.0  -0.5615
  O  O852  1  0.321960  0.700770  0.759170  1.0  -0.5036
  O  O853  1  0.235070  0.716040  0.796230  1.0  -0.2816
  O  O854  1  0.939010  0.725690  0.396300  1.0  -0.5288
  O  O855  1  0.233990  0.898530  0.679050  1.0  -0.3321
  O  O856  1  0.077280  0.825820  0.573940  1.0  -0.239
  O  O857  1  0.126440  0.763740  0.509790  1.0  -0.4864
  O  O858  1  0.230410  0.761230  0.585960  1.0  -0.5067
  O  O859  1  0.888800  0.842100  0.551500  1.0  -0.4974
  O  O860  1  0.191600  0.979600  0.663500  1.0  -0.5572
  O  O861  1  0.061500  0.812600  0.457200  1.0  -0.4649
  O  O862  1  0.008300  0.859700  0.566200  1.0  -0.336
  O  O863  1  0.682360  0.644950  0.457090  1.0  -0.5175
  O  O864  1  0.780770  0.520210  0.379170  1.0  -0.4952
  O  O865  1  0.857460  0.616200  0.367140  1.0  -0.4869
  O  O866  1  0.789040  0.687150  0.450140  1.0  -0.3411
  O  O867  1  0.658100  0.491400  0.598000  1.0  -0.3917
  O  O868  1  0.688130  0.528940  0.514830  1.0  -0.2388
  O  O869  1  0.759350  0.443750  0.564800  1.0  -0.2435
  O  O870  1  0.706270  0.377270  0.440160  1.0  -0.5241
  O  O871  1  0.681330  0.439760  0.372610  1.0  -0.4788
  O  O872  1  0.751860  0.553580  0.475150  1.0  -0.256
  O  O873  1  0.799540  0.466800  0.770960  1.0  -0.576
  O  O874  1  0.862400  0.361900  0.636000  1.0  -0.4101
  O  O875  1  0.765900  0.338500  0.528200  1.0  -0.4808
  O  O876  1  0.751060  0.436240  0.648700  1.0  -0.4248
  O  O877  1  0.024300  0.649600  0.858700  1.0  -0.5308
  O  O878  1  0.956400  0.506600  0.804100  1.0  -0.4201
  O  O879  1  0.093400  0.553600  0.779700  1.0  -0.5386
  O  O880  1  0.053400  0.426000  0.736100  1.0  -0.5061
  O  O881  1  0.934300  0.359800  0.704200  1.0  -0.5975
  O  O882  1  0.906200  0.463100  0.717500  1.0  -0.2511
  O  O883  1  0.888830  0.709160  0.477530  1.0  -0.2507
  O  O884  1  0.364300  0.822000  0.027000  1.0  -0.6104
  O  O885  1  0.134000  0.485600  0.699700  1.0  -0.6543
  O  O886  1  0.719600  0.050300  0.226800  1.0  -0.8064
  O  O887  1  0.774800  0.266500  0.396400  1.0  -0.4721
  O  O888  1  0.818000  0.142200  0.388400  1.0  -0.4699
  O  O889  1  0.694200  0.158200  0.069000  1.0  -0.5212
  O  O890  1  0.710380  0.161840  0.182320  1.0  -0.2568
  O  O891  1  0.772590  0.308680  0.186180  1.0  -0.3067
  O  O892  1  0.694350  0.317270  0.243980  1.0  -0.5618
  O  O893  1  0.678040  0.240830  0.299230  1.0  -0.5101
  O  O894  1  0.764930  0.203770  0.283960  1.0  -0.2837
  O  O895  1  0.060990  0.603700  0.274310  1.0  -0.5538
  O  O896  1  0.766010  0.320950  0.101470  1.0  -0.3366
  O  O897  1  0.922720  0.426060  0.174180  1.0  -0.2392
  O  O898  1  0.873560  0.490210  0.236260  1.0  -0.4877
  O  O899  1  0.769590  0.414040  0.238770  1.0  -0.5036
  O  O900  1  0.111200  0.448500  0.157900  1.0  -0.4979
  O  O901  1  0.808400  0.336500  0.020400  1.0  -0.5543
  O  O902  1  0.938500  0.542800  0.187400  1.0  -0.4672
  O  O903  1  0.991700  0.433800  0.140300  1.0  -0.3343
  O  O904  1  0.317640  0.542910  0.355050  1.0  -0.5163
  O  O905  1  0.219230  0.620830  0.479790  1.0  -0.4955
  O  O906  1  0.142540  0.632860  0.383800  1.0  -0.4879
  O  O907  1  0.210960  0.549860  0.312850  1.0  -0.3369
  O  O908  1  0.341900  0.402000  0.508600  1.0  -0.3879
  O  O909  1  0.311870  0.485170  0.471060  1.0  -0.2385
  O  O910  1  0.240650  0.435200  0.556250  1.0  -0.2413
  O  O911  1  0.293730  0.559840  0.622730  1.0  -0.528
  O  O912  1  0.318670  0.627390  0.560240  1.0  -0.4887
  O  O913  1  0.248140  0.524850  0.446420  1.0  -0.2616
  O  O914  1  0.200460  0.229040  0.533200  1.0  -0.5789
  O  O915  1  0.137600  0.364000  0.638100  1.0  -0.403
  O  O916  1  0.234100  0.471800  0.661500  1.0  -0.4822
  O  O917  1  0.248940  0.351300  0.563760  1.0  -0.416
  O  O918  1  0.975700  0.141300  0.350400  1.0  -0.5236
  O  O919  1  0.043600  0.195900  0.493400  1.0  -0.4206
  O  O920  1  0.906600  0.220300  0.446400  1.0  -0.5389
  O  O921  1  0.946600  0.263900  0.574000  1.0  -0.5063
  O  O922  1  0.065700  0.295800  0.640200  1.0  -0.5995
  O  O923  1  0.093800  0.282500  0.536900  1.0  -0.2552
  O  O924  1  0.111170  0.522470  0.290840  1.0  -0.2497
  O  O925  1  0.635700  0.973000  0.178000  1.0  -0.6102
  O  O926  1  0.866000  0.300300  0.514400  1.0  -0.653
  O  O927  1  0.050300  0.226800  0.719600  1.0  -0.8048
  O  O928  1  0.266500  0.396400  0.774800  1.0  -0.4677
  O  O929  1  0.142200  0.388400  0.818000  1.0  -0.4625
  O  O930  1  0.158200  0.069000  0.694200  1.0  -0.5253
  O  O931  1  0.161840  0.182320  0.710380  1.0  -0.253
  O  O932  1  0.308680  0.186180  0.772590  1.0  -0.3096
  O  O933  1  0.317270  0.243980  0.694350  1.0  -0.5608
  O  O934  1  0.240830  0.299230  0.678040  1.0  -0.5047
  O  O935  1  0.203770  0.283960  0.764930  1.0  -0.2836
  O  O936  1  0.603700  0.274310  0.060990  1.0  -0.5251
  O  O937  1  0.320950  0.101470  0.766010  1.0  -0.3353
  O  O938  1  0.426060  0.174180  0.922720  1.0  -0.2409
  O  O939  1  0.490210  0.236260  0.873560  1.0  -0.4886
  O  O940  1  0.414040  0.238770  0.769590  1.0  -0.5005
  O  O941  1  0.448500  0.157900  0.111200  1.0  -0.5041
  O  O942  1  0.336500  0.020400  0.808400  1.0  -0.554
  O  O943  1  0.542800  0.187400  0.938500  1.0  -0.4619
  O  O944  1  0.433800  0.140300  0.991700  1.0  -0.3354
  O  O945  1  0.542910  0.355050  0.317640  1.0  -0.52
  O  O946  1  0.620830  0.479790  0.219230  1.0  -0.4933
  O  O947  1  0.632860  0.383800  0.142540  1.0  -0.483
  O  O948  1  0.549860  0.312850  0.210960  1.0  -0.3418
  O  O949  1  0.402000  0.508600  0.341900  1.0  -0.3806
  O  O950  1  0.485170  0.471060  0.311870  1.0  -0.2357
  O  O951  1  0.435200  0.556250  0.240650  1.0  -0.2473
  O  O952  1  0.559840  0.622730  0.293730  1.0  -0.5239
  O  O953  1  0.627390  0.560240  0.318670  1.0  -0.4869
  O  O954  1  0.524850  0.446420  0.248140  1.0  -0.2578
  O  O955  1  0.229040  0.533200  0.200460  1.0  -0.5766
  O  O956  1  0.364000  0.638100  0.137600  1.0  -0.4017
  O  O957  1  0.471800  0.661500  0.234100  1.0  -0.4885
  O  O958  1  0.351300  0.563760  0.248940  1.0  -0.4249
  O  O959  1  0.141300  0.350400  0.975700  1.0  -0.5323
  O  O960  1  0.195900  0.493400  0.043600  1.0  -0.4267
  O  O961  1  0.220300  0.446400  0.906600  1.0  -0.5366
  O  O962  1  0.263900  0.574000  0.946600  1.0  -0.5028
  O  O963  1  0.295800  0.640200  0.065700  1.0  -0.5994
  O  O964  1  0.282500  0.536900  0.093800  1.0  -0.2522
  O  O965  1  0.522470  0.290840  0.111170  1.0  -0.2516
  O  O966  1  0.973000  0.178000  0.635700  1.0  -0.6126
  O  O967  1  0.300300  0.514400  0.866000  1.0  -0.6489
  O  O968  1  0.226800  0.719600  0.050300  1.0  -0.8044
  O  O969  1  0.396400  0.774800  0.266500  1.0  -0.4755
  O  O970  1  0.388400  0.818000  0.142200  1.0  -0.4639
  O  O971  1  0.069000  0.694200  0.158200  1.0  -0.5204
  O  O972  1  0.182320  0.710380  0.161840  1.0  -0.2597
  O  O973  1  0.186180  0.772590  0.308680  1.0  -0.3069
  O  O974  1  0.243980  0.694350  0.317270  1.0  -0.5622
  O  O975  1  0.299230  0.678040  0.240830  1.0  -0.5072
  O  O976  1  0.283960  0.764930  0.203770  1.0  -0.2849
  O  O977  1  0.274310  0.060990  0.603700  1.0  -0.5361
  O  O978  1  0.101470  0.766010  0.320950  1.0  -0.3336
  O  O979  1  0.174180  0.922720  0.426060  1.0  -0.2416
  O  O980  1  0.236260  0.873560  0.490210  1.0  -0.4818
  O  O981  1  0.238770  0.769590  0.414040  1.0  -0.5067
  O  O982  1  0.157900  0.111200  0.448500  1.0  -0.5028
  O  O983  1  0.020400  0.808400  0.336500  1.0  -0.5553
  O  O984  1  0.187400  0.938500  0.542800  1.0  -0.4636
  O  O985  1  0.140300  0.991700  0.433800  1.0  -0.3388
  O  O986  1  0.355050  0.317640  0.542910  1.0  -0.5169
  O  O987  1  0.479790  0.219230  0.620830  1.0  -0.4971
  O  O988  1  0.383800  0.142540  0.632860  1.0  -0.4847
  O  O989  1  0.312850  0.210960  0.549860  1.0  -0.3415
  O  O990  1  0.508600  0.341900  0.402000  1.0  -0.3823
  O  O991  1  0.471060  0.311870  0.485170  1.0  -0.2363
  O  O992  1  0.556250  0.240650  0.435200  1.0  -0.2456
  O  O993  1  0.622730  0.293730  0.559840  1.0  -0.5259
  O  O994  1  0.560240  0.318670  0.627390  1.0  -0.4811
  O  O995  1  0.446420  0.248140  0.524850  1.0  -0.2572
  O  O996  1  0.533200  0.200460  0.229040  1.0  -0.5768
  O  O997  1  0.638100  0.137600  0.364000  1.0  -0.4033
  O  O998  1  0.661500  0.234100  0.471800  1.0  -0.4808
  O  O999  1  0.563760  0.248940  0.351300  1.0  -0.4253
  O  O1000  1  0.350400  0.975700  0.141300  1.0  -0.5318
  O  O1001  1  0.493400  0.043600  0.195900  1.0  -0.4179
  O  O1002  1  0.446400  0.906600  0.220300  1.0  -0.5391
  O  O1003  1  0.574000  0.946600  0.263900  1.0  -0.5001
  O  O1004  1  0.640200  0.065700  0.295800  1.0  -0.5956
  O  O1005  1  0.536900  0.093800  0.282500  1.0  -0.2524
  O  O1006  1  0.290840  0.111170  0.522470  1.0  -0.2464
  O  O1007  1  0.178000  0.635700  0.973000  1.0  -0.6079
  O  O1008  1  0.514400  0.866000  0.300300  1.0  -0.654
  O  O1009  1  0.628150  0.371850  0.000000  1.0  -0.2043
  O  O1010  1  0.000000  0.628150  0.371850  1.0  -0.2053
  O  O1011  1  0.371850  0.000000  0.628150  1.0  -0.2048
  O  O1012  1  0.396960  0.858890  0.479750  1.0  -0.5367
  O  O1013  1  0.356640  0.898860  0.534190  1.0  -0.5377
  O  O1014  1  0.479750  0.396960  0.858890  1.0  -0.5368
  O  O1015  1  0.534190  0.356640  0.898860  1.0  -0.5357
  O  O1016  1  0.858890  0.479750  0.396960  1.0  -0.5363
  O  O1017  1  0.898860  0.534190  0.356640  1.0  -0.5377
  O  O1018  1  0.141110  0.603040  0.520250  1.0  -0.5349
  O  O1019  1  0.101140  0.643360  0.465810  1.0  -0.5382
  O  O1020  1  0.603040  0.520250  0.141110  1.0  -0.5344
  O  O1021  1  0.643360  0.465810  0.101140  1.0  -0.5376
  O  O1022  1  0.520250  0.141110  0.603040  1.0  -0.5353
  O  O1023  1  0.465810  0.101140  0.643360  1.0  -0.5372
