# generated using pymatgen
data_InH16C16(NO2)4
_symmetry_space_group_name_H-M   'P 1'
_cell_length_a   15.15500000
_cell_length_b   26.13900000
_cell_length_c   31.90800000
_cell_angle_alpha   90.00000000
_cell_angle_beta   90.00000000
_cell_angle_gamma   90.00000000
_symmetry_Int_Tables_number   1
_chemical_formula_structural   InH16C16(NO2)4
_chemical_formula_sum   'In16 H256 C256 N64 O128'
_cell_volume   12639.92487786
_cell_formula_units_Z   16
loop_
 _symmetry_equiv_pos_site_id
 _symmetry_equiv_pos_as_xyz
  1  'x, y, z'
loop_
 _atom_site_type_symbol
 _atom_site_label
 _atom_site_symmetry_multiplicity
 _atom_site_fract_x
 _atom_site_fract_y
 _atom_site_fract_z
 _atom_site_occupancy
 _atom_site_charge
  In  In1  1  0.375000  0.375000  0.565600  1.0  1.5208
  In  In2  1  0.375000  0.875000  0.065600  1.0  1.5208
  In  In3  1  0.875000  0.375000  0.065600  1.0  1.5208
  In  In4  1  0.875000  0.875000  0.565600  1.0  1.5208
  In  In5  1  0.625000  0.625000  0.815600  1.0  1.5208
  In  In6  1  0.625000  0.125000  0.315600  1.0  1.5208
  In  In7  1  0.125000  0.625000  0.315600  1.0  1.5208
  In  In8  1  0.125000  0.125000  0.815600  1.0  1.5208
  In  In9  1  0.375000  0.375000  0.184400  1.0  1.5203
  In  In10  1  0.375000  0.875000  0.684400  1.0  1.5203
  In  In11  1  0.875000  0.375000  0.684400  1.0  1.5203
  In  In12  1  0.875000  0.875000  0.184400  1.0  1.5203
  In  In13  1  0.625000  0.625000  0.434400  1.0  1.5203
  In  In14  1  0.625000  0.125000  0.934400  1.0  1.5203
  In  In15  1  0.125000  0.625000  0.934400  1.0  1.5203
  In  In16  1  0.125000  0.125000  0.434400  1.0  1.5203
  H  H17  1  0.593500  0.307800  0.475600  1.0  0.1053
  H  H18  1  0.408500  0.190800  0.407700  1.0  0.1031
  H  H19  1  0.295000  0.212700  0.453600  1.0  0.2001
  H  H20  1  0.304600  0.253500  0.487400  1.0  0.1647
  H  H21  1  0.647700  0.258400  0.420000  1.0  0.3016
  H  H22  1  0.645700  0.490100  0.713200  1.0  0.3378
  H  H23  1  0.294800  0.538100  0.678900  1.0  0.2405
  H  H24  1  0.302900  0.496700  0.645400  1.0  0.2012
  H  H25  1  0.593500  0.807800  0.975600  1.0  0.1053
  H  H26  1  0.408500  0.690800  0.907700  1.0  0.1031
  H  H27  1  0.295000  0.712700  0.953600  1.0  0.2001
  H  H28  1  0.304600  0.753500  0.987400  1.0  0.1647
  H  H29  1  0.647700  0.758400  0.920000  1.0  0.3016
  H  H30  1  0.645700  0.990100  0.213200  1.0  0.3378
  H  H31  1  0.294800  0.038100  0.178900  1.0  0.2405
  H  H32  1  0.302900  0.996700  0.145400  1.0  0.2012
  H  H33  1  0.093500  0.307800  0.975600  1.0  0.1053
  H  H34  1  0.908500  0.190800  0.907700  1.0  0.1031
  H  H35  1  0.795000  0.212700  0.953600  1.0  0.2001
  H  H36  1  0.804600  0.253500  0.987400  1.0  0.1647
  H  H37  1  0.147700  0.258400  0.920000  1.0  0.3016
  H  H38  1  0.145700  0.490100  0.213200  1.0  0.3378
  H  H39  1  0.794800  0.538100  0.178900  1.0  0.2405
  H  H40  1  0.802900  0.496700  0.145400  1.0  0.2012
  H  H41  1  0.093500  0.807800  0.475600  1.0  0.1053
  H  H42  1  0.908500  0.690800  0.407700  1.0  0.1031
  H  H43  1  0.795000  0.712700  0.453600  1.0  0.2001
  H  H44  1  0.804600  0.753500  0.487400  1.0  0.1647
  H  H45  1  0.147700  0.758400  0.420000  1.0  0.3016
  H  H46  1  0.145700  0.990100  0.713200  1.0  0.3378
  H  H47  1  0.794800  0.038100  0.678900  1.0  0.2405
  H  H48  1  0.802900  0.996700  0.645400  1.0  0.2012
  H  H49  1  0.156500  0.442200  0.475600  1.0  0.1047
  H  H50  1  0.341500  0.559200  0.407700  1.0  0.1034
  H  H51  1  0.455000  0.537300  0.453600  1.0  0.2018
  H  H52  1  0.445400  0.496500  0.487400  1.0  0.1615
  H  H53  1  0.102300  0.491600  0.420000  1.0  0.3011
  H  H54  1  0.104300  0.259900  0.713200  1.0  0.3393
  H  H55  1  0.455200  0.211900  0.678900  1.0  0.2439
  H  H56  1  0.447100  0.253300  0.645400  1.0  0.2046
  H  H57  1  0.156500  0.942200  0.975600  1.0  0.1047
  H  H58  1  0.341500  0.059200  0.907700  1.0  0.1034
  H  H59  1  0.455000  0.037300  0.953600  1.0  0.2018
  H  H60  1  0.445400  0.996500  0.987400  1.0  0.1615
  H  H61  1  0.102300  0.991600  0.920000  1.0  0.3011
  H  H62  1  0.104300  0.759900  0.213200  1.0  0.3393
  H  H63  1  0.455200  0.711900  0.178900  1.0  0.2439
  H  H64  1  0.447100  0.753300  0.145400  1.0  0.2046
  H  H65  1  0.656500  0.442200  0.975600  1.0  0.1047
  H  H66  1  0.841500  0.559200  0.907700  1.0  0.1034
  H  H67  1  0.955000  0.537300  0.953600  1.0  0.2018
  H  H68  1  0.945400  0.496500  0.987400  1.0  0.1615
  H  H69  1  0.602300  0.491600  0.920000  1.0  0.3011
  H  H70  1  0.604300  0.259900  0.213200  1.0  0.3393
  H  H71  1  0.955200  0.211900  0.178900  1.0  0.2439
  H  H72  1  0.947100  0.253300  0.145400  1.0  0.2046
  H  H73  1  0.656500  0.942200  0.475600  1.0  0.1047
  H  H74  1  0.841500  0.059200  0.407700  1.0  0.1034
  H  H75  1  0.955000  0.037300  0.453600  1.0  0.2018
  H  H76  1  0.945400  0.996500  0.487400  1.0  0.1615
  H  H77  1  0.602300  0.991600  0.420000  1.0  0.3011
  H  H78  1  0.604300  0.759900  0.713200  1.0  0.3393
  H  H79  1  0.955200  0.711900  0.678900  1.0  0.2439
  H  H80  1  0.947100  0.753300  0.645400  1.0  0.2046
  H  H81  1  0.843500  0.692200  0.725600  1.0  0.1052
  H  H82  1  0.658500  0.809200  0.657700  1.0  0.1038
  H  H83  1  0.545000  0.787300  0.703600  1.0  0.2021
  H  H84  1  0.554600  0.746500  0.737400  1.0  0.1626
  H  H85  1  0.897700  0.741600  0.670000  1.0  0.3016
  H  H86  1  0.895700  0.509900  0.963200  1.0  0.3378
  H  H87  1  0.544800  0.461900  0.928900  1.0  0.2425
  H  H88  1  0.552900  0.503300  0.895400  1.0  0.2032
  H  H89  1  0.843500  0.192200  0.225600  1.0  0.1052
  H  H90  1  0.658500  0.309200  0.157700  1.0  0.1038
  H  H91  1  0.545000  0.287300  0.203600  1.0  0.2021
  H  H92  1  0.554600  0.246500  0.237400  1.0  0.1626
  H  H93  1  0.897700  0.241600  0.170000  1.0  0.3016
  H  H94  1  0.895700  0.009900  0.463200  1.0  0.3378
  H  H95  1  0.544800  0.961900  0.428900  1.0  0.2425
  H  H96  1  0.552900  0.003300  0.395400  1.0  0.2032
  H  H97  1  0.343500  0.692200  0.225600  1.0  0.1052
  H  H98  1  0.158500  0.809200  0.157700  1.0  0.1038
  H  H99  1  0.045000  0.787300  0.203600  1.0  0.2021
  H  H100  1  0.054600  0.746500  0.237400  1.0  0.1626
  H  H101  1  0.397700  0.741600  0.170000  1.0  0.3016
  H  H102  1  0.395700  0.509900  0.463200  1.0  0.3378
  H  H103  1  0.044800  0.461900  0.428900  1.0  0.2425
  H  H104  1  0.052900  0.503300  0.395400  1.0  0.2032
  H  H105  1  0.343500  0.192200  0.725600  1.0  0.1052
  H  H106  1  0.158500  0.309200  0.657700  1.0  0.1038
  H  H107  1  0.045000  0.287300  0.703600  1.0  0.2021
  H  H108  1  0.054600  0.246500  0.737400  1.0  0.1626
  H  H109  1  0.397700  0.241600  0.670000  1.0  0.3016
  H  H110  1  0.395700  0.009900  0.963200  1.0  0.3378
  H  H111  1  0.044800  0.961900  0.928900  1.0  0.2425
  H  H112  1  0.052900  0.003300  0.895400  1.0  0.2032
  H  H113  1  0.406500  0.557800  0.725600  1.0  0.1051
  H  H114  1  0.591500  0.440800  0.657700  1.0  0.1027
  H  H115  1  0.705000  0.462700  0.703600  1.0  0.1995
  H  H116  1  0.695400  0.503500  0.737400  1.0  0.163
  H  H117  1  0.352300  0.508400  0.670000  1.0  0.3009
  H  H118  1  0.354300  0.740100  0.963200  1.0  0.3389
  H  H119  1  0.705200  0.788100  0.928900  1.0  0.2432
  H  H120  1  0.697100  0.746700  0.895400  1.0  0.2022
  H  H121  1  0.406500  0.057800  0.225600  1.0  0.1051
  H  H122  1  0.591500  0.940800  0.157700  1.0  0.1027
  H  H123  1  0.705000  0.962700  0.203600  1.0  0.1995
  H  H124  1  0.695400  0.003500  0.237400  1.0  0.163
  H  H125  1  0.352300  0.008400  0.170000  1.0  0.3009
  H  H126  1  0.354300  0.240100  0.463200  1.0  0.3389
  H  H127  1  0.705200  0.288100  0.428900  1.0  0.2432
  H  H128  1  0.697100  0.246700  0.395400  1.0  0.2022
  H  H129  1  0.906500  0.557800  0.225600  1.0  0.1051
  H  H130  1  0.091500  0.440800  0.157700  1.0  0.1027
  H  H131  1  0.205000  0.462700  0.203600  1.0  0.1995
  H  H132  1  0.195400  0.503500  0.237400  1.0  0.163
  H  H133  1  0.852300  0.508400  0.170000  1.0  0.3009
  H  H134  1  0.854300  0.740100  0.463200  1.0  0.3389
  H  H135  1  0.205200  0.788100  0.428900  1.0  0.2432
  H  H136  1  0.197100  0.746700  0.395400  1.0  0.2022
  H  H137  1  0.906500  0.057800  0.725600  1.0  0.1051
  H  H138  1  0.091500  0.940800  0.657700  1.0  0.1027
  H  H139  1  0.205000  0.962700  0.703600  1.0  0.1995
  H  H140  1  0.195400  0.003500  0.737400  1.0  0.163
  H  H141  1  0.852300  0.008400  0.670000  1.0  0.3009
  H  H142  1  0.854300  0.240100  0.963200  1.0  0.3389
  H  H143  1  0.205200  0.288100  0.928900  1.0  0.2432
  H  H144  1  0.197100  0.246700  0.895400  1.0  0.2022
  H  H145  1  0.156500  0.307800  0.274400  1.0  0.106
  H  H146  1  0.341500  0.190800  0.342300  1.0  0.1015
  H  H147  1  0.455000  0.212700  0.296400  1.0  0.1997
  H  H148  1  0.445400  0.253500  0.262600  1.0  0.1604
  H  H149  1  0.102300  0.258400  0.330000  1.0  0.3013
  H  H150  1  0.104300  0.490100  0.036800  1.0  0.339
  H  H151  1  0.455200  0.538100  0.071100  1.0  0.2414
  H  H152  1  0.447100  0.496700  0.104600  1.0  0.2017
  H  H153  1  0.156500  0.807800  0.774400  1.0  0.106
  H  H154  1  0.341500  0.690800  0.842300  1.0  0.1015
  H  H155  1  0.455000  0.712700  0.796400  1.0  0.1997
  H  H156  1  0.445400  0.753500  0.762600  1.0  0.1604
  H  H157  1  0.102300  0.758400  0.830000  1.0  0.3013
  H  H158  1  0.104300  0.990100  0.536800  1.0  0.339
  H  H159  1  0.455200  0.038100  0.571100  1.0  0.2414
  H  H160  1  0.447100  0.996700  0.604600  1.0  0.2017
  H  H161  1  0.656500  0.307800  0.774400  1.0  0.106
  H  H162  1  0.841500  0.190800  0.842300  1.0  0.1015
  H  H163  1  0.955000  0.212700  0.796400  1.0  0.1997
  H  H164  1  0.945400  0.253500  0.762600  1.0  0.1604
  H  H165  1  0.602300  0.258400  0.830000  1.0  0.3013
  H  H166  1  0.604300  0.490100  0.536800  1.0  0.339
  H  H167  1  0.955200  0.538100  0.571100  1.0  0.2414
  H  H168  1  0.947100  0.496700  0.604600  1.0  0.2017
  H  H169  1  0.656500  0.807800  0.274400  1.0  0.106
  H  H170  1  0.841500  0.690800  0.342300  1.0  0.1015
  H  H171  1  0.955000  0.712700  0.296400  1.0  0.1997
  H  H172  1  0.945400  0.753500  0.262600  1.0  0.1604
  H  H173  1  0.602300  0.758400  0.330000  1.0  0.3013
  H  H174  1  0.604300  0.990100  0.036800  1.0  0.339
  H  H175  1  0.955200  0.038100  0.071100  1.0  0.2414
  H  H176  1  0.947100  0.996700  0.104600  1.0  0.2017
  H  H177  1  0.593500  0.442200  0.274400  1.0  0.1057
  H  H178  1  0.408500  0.559200  0.342300  1.0  0.1019
  H  H179  1  0.295000  0.537300  0.296400  1.0  0.2016
  H  H180  1  0.304600  0.496500  0.262600  1.0  0.1592
  H  H181  1  0.647700  0.491600  0.330000  1.0  0.3022
  H  H182  1  0.645700  0.259900  0.036800  1.0  0.338
  H  H183  1  0.294800  0.211900  0.071100  1.0  0.2429
  H  H184  1  0.302900  0.253300  0.104600  1.0  0.2054
  H  H185  1  0.593500  0.942200  0.774400  1.0  0.1057
  H  H186  1  0.408500  0.059200  0.842300  1.0  0.1019
  H  H187  1  0.295000  0.037300  0.796400  1.0  0.2016
  H  H188  1  0.304600  0.996500  0.762600  1.0  0.1592
  H  H189  1  0.647700  0.991600  0.830000  1.0  0.3022
  H  H190  1  0.645700  0.759900  0.536800  1.0  0.338
  H  H191  1  0.294800  0.711900  0.571100  1.0  0.2429
  H  H192  1  0.302900  0.753300  0.604600  1.0  0.2054
  H  H193  1  0.093500  0.442200  0.774400  1.0  0.1057
  H  H194  1  0.908500  0.559200  0.842300  1.0  0.1019
  H  H195  1  0.795000  0.537300  0.796400  1.0  0.2016
  H  H196  1  0.804600  0.496500  0.762600  1.0  0.1592
  H  H197  1  0.147700  0.491600  0.830000  1.0  0.3022
  H  H198  1  0.145700  0.259900  0.536800  1.0  0.338
  H  H199  1  0.794800  0.211900  0.571100  1.0  0.2429
  H  H200  1  0.802900  0.253300  0.604600  1.0  0.2054
  H  H201  1  0.093500  0.942200  0.274400  1.0  0.1057
  H  H202  1  0.908500  0.059200  0.342300  1.0  0.1019
  H  H203  1  0.795000  0.037300  0.296400  1.0  0.2016
  H  H204  1  0.804600  0.996500  0.262600  1.0  0.1592
  H  H205  1  0.147700  0.991600  0.330000  1.0  0.3022
  H  H206  1  0.145700  0.759900  0.036800  1.0  0.338
  H  H207  1  0.794800  0.711900  0.071100  1.0  0.2429
  H  H208  1  0.802900  0.753300  0.104600  1.0  0.2054
  H  H209  1  0.406500  0.692200  0.524400  1.0  0.1056
  H  H210  1  0.591500  0.809200  0.592300  1.0  0.1016
  H  H211  1  0.705000  0.787300  0.546400  1.0  0.2012
  H  H212  1  0.695400  0.746500  0.512600  1.0  0.1591
  H  H213  1  0.352300  0.741600  0.580000  1.0  0.3012
  H  H214  1  0.354300  0.509900  0.286800  1.0  0.3396
  H  H215  1  0.705200  0.461900  0.321100  1.0  0.2424
  H  H216  1  0.697100  0.503300  0.354600  1.0  0.2059
  H  H217  1  0.406500  0.192200  0.024400  1.0  0.1056
  H  H218  1  0.591500  0.309200  0.092300  1.0  0.1016
  H  H219  1  0.705000  0.287300  0.046400  1.0  0.2012
  H  H220  1  0.695400  0.246500  0.012600  1.0  0.1591
  H  H221  1  0.352300  0.241600  0.080000  1.0  0.3012
  H  H222  1  0.354300  0.009900  0.786800  1.0  0.3396
  H  H223  1  0.705200  0.961900  0.821100  1.0  0.2424
  H  H224  1  0.697100  0.003300  0.854600  1.0  0.2059
  H  H225  1  0.906500  0.692200  0.024400  1.0  0.1056
  H  H226  1  0.091500  0.809200  0.092300  1.0  0.1016
  H  H227  1  0.205000  0.787300  0.046400  1.0  0.2012
  H  H228  1  0.195400  0.746500  0.012600  1.0  0.1591
  H  H229  1  0.852300  0.741600  0.080000  1.0  0.3012
  H  H230  1  0.854300  0.509900  0.786800  1.0  0.3396
  H  H231  1  0.205200  0.461900  0.821100  1.0  0.2424
  H  H232  1  0.197100  0.503300  0.854600  1.0  0.2059
  H  H233  1  0.906500  0.192200  0.524400  1.0  0.1056
  H  H234  1  0.091500  0.309200  0.592300  1.0  0.1016
  H  H235  1  0.205000  0.287300  0.546400  1.0  0.2012
  H  H236  1  0.195400  0.246500  0.512600  1.0  0.1591
  H  H237  1  0.852300  0.241600  0.580000  1.0  0.3012
  H  H238  1  0.854300  0.009900  0.286800  1.0  0.3396
  H  H239  1  0.205200  0.961900  0.321100  1.0  0.2424
  H  H240  1  0.197100  0.003300  0.354600  1.0  0.2059
  H  H241  1  0.843500  0.557800  0.524400  1.0  0.106
  H  H242  1  0.658500  0.440800  0.592300  1.0  0.1015
  H  H243  1  0.545000  0.462700  0.546400  1.0  0.1998
  H  H244  1  0.554600  0.503500  0.512600  1.0  0.1625
  H  H245  1  0.897700  0.508400  0.580000  1.0  0.3023
  H  H246  1  0.895700  0.740100  0.286800  1.0  0.3378
  H  H247  1  0.544800  0.788100  0.321100  1.0  0.2397
  H  H248  1  0.552900  0.746700  0.354600  1.0  0.2017
  H  H249  1  0.843500  0.057800  0.024400  1.0  0.106
  H  H250  1  0.658500  0.940800  0.092300  1.0  0.1015
  H  H251  1  0.545000  0.962700  0.046400  1.0  0.1998
  H  H252  1  0.554600  0.003500  0.012600  1.0  0.1625
  H  H253  1  0.897700  0.008400  0.080000  1.0  0.3023
  H  H254  1  0.895700  0.240100  0.786800  1.0  0.3378
  H  H255  1  0.544800  0.288100  0.821100  1.0  0.2397
  H  H256  1  0.552900  0.246700  0.854600  1.0  0.2017
  H  H257  1  0.343500  0.557800  0.024400  1.0  0.106
  H  H258  1  0.158500  0.440800  0.092300  1.0  0.1015
  H  H259  1  0.045000  0.462700  0.046400  1.0  0.1998
  H  H260  1  0.054600  0.503500  0.012600  1.0  0.1625
  H  H261  1  0.397700  0.508400  0.080000  1.0  0.3023
  H  H262  1  0.395700  0.740100  0.786800  1.0  0.3378
  H  H263  1  0.044800  0.788100  0.821100  1.0  0.2397
  H  H264  1  0.052900  0.746700  0.854600  1.0  0.2017
  H  H265  1  0.343500  0.057800  0.524400  1.0  0.106
  H  H266  1  0.158500  0.940800  0.592300  1.0  0.1015
  H  H267  1  0.045000  0.962700  0.546400  1.0  0.1998
  H  H268  1  0.054600  0.003500  0.512600  1.0  0.1625
  H  H269  1  0.397700  0.008400  0.580000  1.0  0.3023
  H  H270  1  0.395700  0.240100  0.286800  1.0  0.3378
  H  H271  1  0.044800  0.288100  0.321100  1.0  0.2397
  H  H272  1  0.052900  0.246700  0.354600  1.0  0.2017
  C  C273  1  0.436700  0.310600  0.509500  1.0  0.6467
  C  C274  1  0.468800  0.278600  0.474600  1.0  -0.1623
  C  C275  1  0.413800  0.243800  0.454400  1.0  -0.1071
  C  C276  1  0.555900  0.284000  0.461800  1.0  -0.1859
  C  C277  1  0.446000  0.214500  0.421500  1.0  -0.1697
  C  C278  1  0.588100  0.254700  0.428800  1.0  -0.048
  C  C279  1  0.533200  0.220000  0.408650  1.0  -0.1414
  C  C280  1  0.564900  0.187000  0.373300  1.0  0.6351
  C  C281  1  0.436700  0.810600  0.009500  1.0  0.6467
  C  C282  1  0.468800  0.778600  0.974600  1.0  -0.1623
  C  C283  1  0.413800  0.743800  0.954400  1.0  -0.1071
  C  C284  1  0.555900  0.784000  0.961800  1.0  -0.1859
  C  C285  1  0.446000  0.714500  0.921500  1.0  -0.1697
  C  C286  1  0.588100  0.754700  0.928800  1.0  -0.048
  C  C287  1  0.533200  0.720000  0.908650  1.0  -0.1414
  C  C288  1  0.564900  0.687000  0.873300  1.0  0.6351
  C  C289  1  0.936700  0.310600  0.009500  1.0  0.6467
  C  C290  1  0.968800  0.278600  0.974600  1.0  -0.1623
  C  C291  1  0.913800  0.243800  0.954400  1.0  -0.1071
  C  C292  1  0.055900  0.284000  0.961800  1.0  -0.1859
  C  C293  1  0.946000  0.214500  0.921500  1.0  -0.1697
  C  C294  1  0.088100  0.254700  0.928800  1.0  -0.048
  C  C295  1  0.033200  0.220000  0.908650  1.0  -0.1414
  C  C296  1  0.064900  0.187000  0.873300  1.0  0.6351
  C  C297  1  0.936700  0.810600  0.509500  1.0  0.6467
  C  C298  1  0.968800  0.778600  0.474600  1.0  -0.1623
  C  C299  1  0.913800  0.743800  0.454400  1.0  -0.1071
  C  C300  1  0.055900  0.784000  0.461800  1.0  -0.1859
  C  C301  1  0.946000  0.714500  0.421500  1.0  -0.1697
  C  C302  1  0.088100  0.754700  0.428800  1.0  -0.048
  C  C303  1  0.033200  0.720000  0.408650  1.0  -0.1414
  C  C304  1  0.064900  0.687000  0.373300  1.0  0.6351
  C  C305  1  0.313300  0.439400  0.509500  1.0  0.6481
  C  C306  1  0.281200  0.471400  0.474600  1.0  -0.1629
  C  C307  1  0.336200  0.506200  0.454400  1.0  -0.1026
  C  C308  1  0.194100  0.466000  0.461800  1.0  -0.1908
  C  C309  1  0.304000  0.535500  0.421500  1.0  -0.1686
  C  C310  1  0.161900  0.495300  0.428800  1.0  -0.0516
  C  C311  1  0.216800  0.530000  0.408650  1.0  -0.1411
  C  C312  1  0.185100  0.563000  0.373300  1.0  0.6347
  C  C313  1  0.313300  0.939400  0.009500  1.0  0.6481
  C  C314  1  0.281200  0.971400  0.974600  1.0  -0.1629
  C  C315  1  0.336200  0.006200  0.954400  1.0  -0.1026
  C  C316  1  0.194100  0.966000  0.961800  1.0  -0.1908
  C  C317  1  0.304000  0.035500  0.921500  1.0  -0.1686
  C  C318  1  0.161900  0.995300  0.928800  1.0  -0.0516
  C  C319  1  0.216800  0.030000  0.908650  1.0  -0.1411
  C  C320  1  0.185100  0.063000  0.873300  1.0  0.6347
  C  C321  1  0.813300  0.439400  0.009500  1.0  0.6481
  C  C322  1  0.781200  0.471400  0.974600  1.0  -0.1629
  C  C323  1  0.836200  0.506200  0.954400  1.0  -0.1026
  C  C324  1  0.694100  0.466000  0.961800  1.0  -0.1908
  C  C325  1  0.804000  0.535500  0.921500  1.0  -0.1686
  C  C326  1  0.661900  0.495300  0.928800  1.0  -0.0516
  C  C327  1  0.716800  0.530000  0.908650  1.0  -0.1411
  C  C328  1  0.685100  0.563000  0.873300  1.0  0.6347
  C  C329  1  0.813300  0.939400  0.509500  1.0  0.6481
  C  C330  1  0.781200  0.971400  0.474600  1.0  -0.1629
  C  C331  1  0.836200  0.006200  0.454400  1.0  -0.1026
  C  C332  1  0.694100  0.966000  0.461800  1.0  -0.1908
  C  C333  1  0.804000  0.035500  0.421500  1.0  -0.1686
  C  C334  1  0.661900  0.995300  0.428800  1.0  -0.0516
  C  C335  1  0.716800  0.030000  0.408650  1.0  -0.1411
  C  C336  1  0.685100  0.063000  0.373300  1.0  0.6347
  C  C337  1  0.686700  0.689400  0.759500  1.0  0.6464
  C  C338  1  0.718800  0.721400  0.724600  1.0  -0.1622
  C  C339  1  0.663800  0.756200  0.704400  1.0  -0.1067
  C  C340  1  0.805900  0.716000  0.711800  1.0  -0.1885
  C  C341  1  0.696000  0.785500  0.671500  1.0  -0.1705
  C  C342  1  0.838100  0.745300  0.678800  1.0  -0.0491
  C  C343  1  0.783200  0.780000  0.658650  1.0  -0.1412
  C  C344  1  0.814900  0.813000  0.623300  1.0  0.6342
  C  C345  1  0.686700  0.189400  0.259500  1.0  0.6464
  C  C346  1  0.718800  0.221400  0.224600  1.0  -0.1622
  C  C347  1  0.663800  0.256200  0.204400  1.0  -0.1067
  C  C348  1  0.805900  0.216000  0.211800  1.0  -0.1885
  C  C349  1  0.696000  0.285500  0.171500  1.0  -0.1705
  C  C350  1  0.838100  0.245300  0.178800  1.0  -0.0491
  C  C351  1  0.783200  0.280000  0.158650  1.0  -0.1412
  C  C352  1  0.814900  0.313000  0.123300  1.0  0.6342
  C  C353  1  0.186700  0.689400  0.259500  1.0  0.6464
  C  C354  1  0.218800  0.721400  0.224600  1.0  -0.1622
  C  C355  1  0.163800  0.756200  0.204400  1.0  -0.1067
  C  C356  1  0.305900  0.716000  0.211800  1.0  -0.1885
  C  C357  1  0.196000  0.785500  0.171500  1.0  -0.1705
  C  C358  1  0.338100  0.745300  0.178800  1.0  -0.0491
  C  C359  1  0.283200  0.780000  0.158650  1.0  -0.1412
  C  C360  1  0.314900  0.813000  0.123300  1.0  0.6342
  C  C361  1  0.186700  0.189400  0.759500  1.0  0.6464
  C  C362  1  0.218800  0.221400  0.724600  1.0  -0.1622
  C  C363  1  0.163800  0.256200  0.704400  1.0  -0.1067
  C  C364  1  0.305900  0.216000  0.711800  1.0  -0.1885
  C  C365  1  0.196000  0.285500  0.671500  1.0  -0.1705
  C  C366  1  0.338100  0.245300  0.678800  1.0  -0.0491
  C  C367  1  0.283200  0.280000  0.658650  1.0  -0.1412
  C  C368  1  0.314900  0.313000  0.623300  1.0  0.6342
  C  C369  1  0.563300  0.560600  0.759500  1.0  0.6486
  C  C370  1  0.531200  0.528600  0.724600  1.0  -0.1629
  C  C371  1  0.586200  0.493800  0.704400  1.0  -0.1028
  C  C372  1  0.444100  0.534000  0.711800  1.0  -0.1891
  C  C373  1  0.554000  0.464500  0.671500  1.0  -0.1686
  C  C374  1  0.411900  0.504700  0.678800  1.0  -0.0511
  C  C375  1  0.466800  0.470000  0.658650  1.0  -0.142
  C  C376  1  0.435100  0.437000  0.623300  1.0  0.6355
  C  C377  1  0.563300  0.060600  0.259500  1.0  0.6486
  C  C378  1  0.531200  0.028600  0.224600  1.0  -0.1629
  C  C379  1  0.586200  0.993800  0.204400  1.0  -0.1028
  C  C380  1  0.444100  0.034000  0.211800  1.0  -0.1891
  C  C381  1  0.554000  0.964500  0.171500  1.0  -0.1686
  C  C382  1  0.411900  0.004700  0.178800  1.0  -0.0511
  C  C383  1  0.466800  0.970000  0.158650  1.0  -0.142
  C  C384  1  0.435100  0.937000  0.123300  1.0  0.6355
  C  C385  1  0.063300  0.560600  0.259500  1.0  0.6486
  C  C386  1  0.031200  0.528600  0.224600  1.0  -0.1629
  C  C387  1  0.086200  0.493800  0.204400  1.0  -0.1028
  C  C388  1  0.944100  0.534000  0.211800  1.0  -0.1891
  C  C389  1  0.054000  0.464500  0.171500  1.0  -0.1686
  C  C390  1  0.911900  0.504700  0.178800  1.0  -0.0511
  C  C391  1  0.966800  0.470000  0.158650  1.0  -0.142
  C  C392  1  0.935100  0.437000  0.123300  1.0  0.6355
  C  C393  1  0.063300  0.060600  0.759500  1.0  0.6486
  C  C394  1  0.031200  0.028600  0.724600  1.0  -0.1629
  C  C395  1  0.086200  0.993800  0.704400  1.0  -0.1028
  C  C396  1  0.944100  0.034000  0.711800  1.0  -0.1891
  C  C397  1  0.054000  0.964500  0.671500  1.0  -0.1686
  C  C398  1  0.911900  0.004700  0.678800  1.0  -0.0511
  C  C399  1  0.966800  0.970000  0.658650  1.0  -0.142
  C  C400  1  0.935100  0.937000  0.623300  1.0  0.6355
  C  C401  1  0.313300  0.310600  0.240500  1.0  0.6492
  C  C402  1  0.281200  0.278600  0.275400  1.0  -0.1619
  C  C403  1  0.336200  0.243800  0.295600  1.0  -0.1026
  C  C404  1  0.194100  0.284000  0.288200  1.0  -0.189
  C  C405  1  0.304000  0.214500  0.328500  1.0  -0.1694
  C  C406  1  0.161900  0.254700  0.321200  1.0  -0.0518
  C  C407  1  0.216800  0.220000  0.341350  1.0  -0.1414
  C  C408  1  0.185100  0.187000  0.376700  1.0  0.6361
  C  C409  1  0.313300  0.810600  0.740500  1.0  0.6492
  C  C410  1  0.281200  0.778600  0.775400  1.0  -0.1619
  C  C411  1  0.336200  0.743800  0.795600  1.0  -0.1026
  C  C412  1  0.194100  0.784000  0.788200  1.0  -0.189
  C  C413  1  0.304000  0.714500  0.828500  1.0  -0.1694
  C  C414  1  0.161900  0.754700  0.821200  1.0  -0.0518
  C  C415  1  0.216800  0.720000  0.841350  1.0  -0.1414
  C  C416  1  0.185100  0.687000  0.876700  1.0  0.6361
  C  C417  1  0.813300  0.310600  0.740500  1.0  0.6492
  C  C418  1  0.781200  0.278600  0.775400  1.0  -0.1619
  C  C419  1  0.836200  0.243800  0.795600  1.0  -0.1026
  C  C420  1  0.694100  0.284000  0.788200  1.0  -0.189
  C  C421  1  0.804000  0.214500  0.828500  1.0  -0.1694
  C  C422  1  0.661900  0.254700  0.821200  1.0  -0.0518
  C  C423  1  0.716800  0.220000  0.841350  1.0  -0.1414
  C  C424  1  0.685100  0.187000  0.876700  1.0  0.6361
  C  C425  1  0.813300  0.810600  0.240500  1.0  0.6492
  C  C426  1  0.781200  0.778600  0.275400  1.0  -0.1619
  C  C427  1  0.836200  0.743800  0.295600  1.0  -0.1026
  C  C428  1  0.694100  0.784000  0.288200  1.0  -0.189
  C  C429  1  0.804000  0.714500  0.328500  1.0  -0.1694
  C  C430  1  0.661900  0.754700  0.321200  1.0  -0.0518
  C  C431  1  0.716800  0.720000  0.341350  1.0  -0.1414
  C  C432  1  0.685100  0.687000  0.376700  1.0  0.6361
  C  C433  1  0.436700  0.439400  0.240500  1.0  0.6473
  C  C434  1  0.468800  0.471400  0.275400  1.0  -0.163
  C  C435  1  0.413800  0.506200  0.295600  1.0  -0.1054
  C  C436  1  0.555900  0.466000  0.288200  1.0  -0.1873
  C  C437  1  0.446000  0.535500  0.328500  1.0  -0.1713
  C  C438  1  0.588100  0.495300  0.321200  1.0  -0.0503
  C  C439  1  0.533200  0.530000  0.341350  1.0  -0.1417
  C  C440  1  0.564900  0.563000  0.376700  1.0  0.6348
  C  C441  1  0.436700  0.939400  0.740500  1.0  0.6473
  C  C442  1  0.468800  0.971400  0.775400  1.0  -0.163
  C  C443  1  0.413800  0.006200  0.795600  1.0  -0.1054
  C  C444  1  0.555900  0.966000  0.788200  1.0  -0.1873
  C  C445  1  0.446000  0.035500  0.828500  1.0  -0.1713
  C  C446  1  0.588100  0.995300  0.821200  1.0  -0.0503
  C  C447  1  0.533200  0.030000  0.841350  1.0  -0.1417
  C  C448  1  0.564900  0.063000  0.876700  1.0  0.6348
  C  C449  1  0.936700  0.439400  0.740500  1.0  0.6473
  C  C450  1  0.968800  0.471400  0.775400  1.0  -0.163
  C  C451  1  0.913800  0.506200  0.795600  1.0  -0.1054
  C  C452  1  0.055900  0.466000  0.788200  1.0  -0.1873
  C  C453  1  0.946000  0.535500  0.828500  1.0  -0.1713
  C  C454  1  0.088100  0.495300  0.821200  1.0  -0.0503
  C  C455  1  0.033200  0.530000  0.841350  1.0  -0.1417
  C  C456  1  0.064900  0.563000  0.876700  1.0  0.6348
  C  C457  1  0.936700  0.939400  0.240500  1.0  0.6473
  C  C458  1  0.968800  0.971400  0.275400  1.0  -0.163
  C  C459  1  0.913800  0.006200  0.295600  1.0  -0.1054
  C  C460  1  0.055900  0.966000  0.288200  1.0  -0.1873
  C  C461  1  0.946000  0.035500  0.328500  1.0  -0.1713
  C  C462  1  0.088100  0.995300  0.321200  1.0  -0.0503
  C  C463  1  0.033200  0.030000  0.341350  1.0  -0.1417
  C  C464  1  0.064900  0.063000  0.376700  1.0  0.6348
  C  C465  1  0.563300  0.689400  0.490500  1.0  0.6486
  C  C466  1  0.531200  0.721400  0.525400  1.0  -0.1638
  C  C467  1  0.586200  0.756200  0.545600  1.0  -0.1023
  C  C468  1  0.444100  0.716000  0.538200  1.0  -0.1895
  C  C469  1  0.554000  0.785500  0.578500  1.0  -0.1694
  C  C470  1  0.411900  0.745300  0.571200  1.0  -0.0522
  C  C471  1  0.466800  0.780000  0.591350  1.0  -0.1413
  C  C472  1  0.435100  0.813000  0.626700  1.0  0.635
  C  C473  1  0.563300  0.189400  0.990500  1.0  0.6486
  C  C474  1  0.531200  0.221400  0.025400  1.0  -0.1638
  C  C475  1  0.586200  0.256200  0.045600  1.0  -0.1023
  C  C476  1  0.444100  0.216000  0.038200  1.0  -0.1895
  C  C477  1  0.554000  0.285500  0.078500  1.0  -0.1694
  C  C478  1  0.411900  0.245300  0.071200  1.0  -0.0522
  C  C479  1  0.466800  0.280000  0.091350  1.0  -0.1413
  C  C480  1  0.435100  0.313000  0.126700  1.0  0.635
  C  C481  1  0.063300  0.689400  0.990500  1.0  0.6486
  C  C482  1  0.031200  0.721400  0.025400  1.0  -0.1638
  C  C483  1  0.086200  0.756200  0.045600  1.0  -0.1023
  C  C484  1  0.944100  0.716000  0.038200  1.0  -0.1895
  C  C485  1  0.054000  0.785500  0.078500  1.0  -0.1694
  C  C486  1  0.911900  0.745300  0.071200  1.0  -0.0522
  C  C487  1  0.966800  0.780000  0.091350  1.0  -0.1413
  C  C488  1  0.935100  0.813000  0.126700  1.0  0.635
  C  C489  1  0.063300  0.189400  0.490500  1.0  0.6486
  C  C490  1  0.031200  0.221400  0.525400  1.0  -0.1638
  C  C491  1  0.086200  0.256200  0.545600  1.0  -0.1023
  C  C492  1  0.944100  0.216000  0.538200  1.0  -0.1895
  C  C493  1  0.054000  0.285500  0.578500  1.0  -0.1694
  C  C494  1  0.911900  0.245300  0.571200  1.0  -0.0522
  C  C495  1  0.966800  0.280000  0.591350  1.0  -0.1413
  C  C496  1  0.935100  0.313000  0.626700  1.0  0.635
  C  C497  1  0.686700  0.560600  0.490500  1.0  0.6474
  C  C498  1  0.718800  0.528600  0.525400  1.0  -0.1614
  C  C499  1  0.663800  0.493800  0.545600  1.0  -0.1061
  C  C500  1  0.805900  0.534000  0.538200  1.0  -0.1865
  C  C501  1  0.696000  0.464500  0.578500  1.0  -0.1703
  C  C502  1  0.838100  0.504700  0.571200  1.0  -0.0489
  C  C503  1  0.783200  0.470000  0.591350  1.0  -0.1413
  C  C504  1  0.814900  0.437000  0.626700  1.0  0.6359
  C  C505  1  0.686700  0.060600  0.990500  1.0  0.6474
  C  C506  1  0.718800  0.028600  0.025400  1.0  -0.1614
  C  C507  1  0.663800  0.993800  0.045600  1.0  -0.1061
  C  C508  1  0.805900  0.034000  0.038200  1.0  -0.1865
  C  C509  1  0.696000  0.964500  0.078500  1.0  -0.1703
  C  C510  1  0.838100  0.004700  0.071200  1.0  -0.0489
  C  C511  1  0.783200  0.970000  0.091350  1.0  -0.1413
  C  C512  1  0.814900  0.937000  0.126700  1.0  0.6359
  C  C513  1  0.186700  0.560600  0.990500  1.0  0.6474
  C  C514  1  0.218800  0.528600  0.025400  1.0  -0.1614
  C  C515  1  0.163800  0.493800  0.045600  1.0  -0.1061
  C  C516  1  0.305900  0.534000  0.038200  1.0  -0.1865
  C  C517  1  0.196000  0.464500  0.078500  1.0  -0.1703
  C  C518  1  0.338100  0.504700  0.071200  1.0  -0.0489
  C  C519  1  0.283200  0.470000  0.091350  1.0  -0.1413
  C  C520  1  0.314900  0.437000  0.126700  1.0  0.6359
  C  C521  1  0.186700  0.060600  0.490500  1.0  0.6474
  C  C522  1  0.218800  0.028600  0.525400  1.0  -0.1614
  C  C523  1  0.163800  0.993800  0.545600  1.0  -0.1061
  C  C524  1  0.305900  0.034000  0.538200  1.0  -0.1865
  C  C525  1  0.196000  0.964500  0.578500  1.0  -0.1703
  C  C526  1  0.338100  0.004700  0.571200  1.0  -0.0489
  C  C527  1  0.283200  0.970000  0.591350  1.0  -0.1413
  C  C528  1  0.314900  0.937000  0.626700  1.0  0.6359
  N  N529  1  0.327300  0.235700  0.466600  1.0  -0.1835
  N  N530  1  0.326000  0.514000  0.666100  1.0  -0.2946
  N  N531  1  0.327300  0.735700  0.966600  1.0  -0.1835
  N  N532  1  0.326000  0.014000  0.166100  1.0  -0.2946
  N  N533  1  0.827300  0.235700  0.966600  1.0  -0.1835
  N  N534  1  0.826000  0.514000  0.166100  1.0  -0.2946
  N  N535  1  0.827300  0.735700  0.466600  1.0  -0.1835
  N  N536  1  0.826000  0.014000  0.666100  1.0  -0.2946
  N  N537  1  0.422700  0.514300  0.466600  1.0  -0.1806
  N  N538  1  0.424000  0.236000  0.666100  1.0  -0.2906
  N  N539  1  0.422700  0.014300  0.966600  1.0  -0.1806
  N  N540  1  0.424000  0.736000  0.166100  1.0  -0.2906
  N  N541  1  0.922700  0.514300  0.966600  1.0  -0.1806
  N  N542  1  0.924000  0.236000  0.166100  1.0  -0.2906
  N  N543  1  0.922700  0.014300  0.466600  1.0  -0.1806
  N  N544  1  0.924000  0.736000  0.666100  1.0  -0.2906
  N  N545  1  0.577300  0.764300  0.716600  1.0  -0.1823
  N  N546  1  0.576000  0.486000  0.916100  1.0  -0.2924
  N  N547  1  0.577300  0.264300  0.216600  1.0  -0.1823
  N  N548  1  0.576000  0.986000  0.416100  1.0  -0.2924
  N  N549  1  0.077300  0.764300  0.216600  1.0  -0.1823
  N  N550  1  0.076000  0.486000  0.416100  1.0  -0.2924
  N  N551  1  0.077300  0.264300  0.716600  1.0  -0.1823
  N  N552  1  0.076000  0.986000  0.916100  1.0  -0.2924
  N  N553  1  0.672700  0.485700  0.716600  1.0  -0.1809
  N  N554  1  0.674000  0.764000  0.916100  1.0  -0.2896
  N  N555  1  0.672700  0.985700  0.216600  1.0  -0.1809
  N  N556  1  0.674000  0.264000  0.416100  1.0  -0.2896
  N  N557  1  0.172700  0.485700  0.216600  1.0  -0.1809
  N  N558  1  0.174000  0.764000  0.416100  1.0  -0.2896
  N  N559  1  0.172700  0.985700  0.716600  1.0  -0.1809
  N  N560  1  0.174000  0.264000  0.916100  1.0  -0.2896
  N  N561  1  0.422700  0.235700  0.283400  1.0  -0.181
  N  N562  1  0.424000  0.514000  0.083900  1.0  -0.2918
  N  N563  1  0.422700  0.735700  0.783400  1.0  -0.181
  N  N564  1  0.424000  0.014000  0.583900  1.0  -0.2918
  N  N565  1  0.922700  0.235700  0.783400  1.0  -0.181
  N  N566  1  0.924000  0.514000  0.583900  1.0  -0.2918
  N  N567  1  0.922700  0.735700  0.283400  1.0  -0.181
  N  N568  1  0.924000  0.014000  0.083900  1.0  -0.2918
  N  N569  1  0.327300  0.514300  0.283400  1.0  -0.1827
  N  N570  1  0.326000  0.236000  0.083900  1.0  -0.2942
  N  N571  1  0.327300  0.014300  0.783400  1.0  -0.1827
  N  N572  1  0.326000  0.736000  0.583900  1.0  -0.2942
  N  N573  1  0.827300  0.514300  0.783400  1.0  -0.1827
  N  N574  1  0.826000  0.236000  0.583900  1.0  -0.2942
  N  N575  1  0.827300  0.014300  0.283400  1.0  -0.1827
  N  N576  1  0.826000  0.736000  0.083900  1.0  -0.2942
  N  N577  1  0.672700  0.764300  0.533400  1.0  -0.1806
  N  N578  1  0.674000  0.486000  0.333900  1.0  -0.2899
  N  N579  1  0.672700  0.264300  0.033400  1.0  -0.1806
  N  N580  1  0.674000  0.986000  0.833900  1.0  -0.2899
  N  N581  1  0.172700  0.764300  0.033400  1.0  -0.1806
  N  N582  1  0.174000  0.486000  0.833900  1.0  -0.2899
  N  N583  1  0.172700  0.264300  0.533400  1.0  -0.1806
  N  N584  1  0.174000  0.986000  0.333900  1.0  -0.2899
  N  N585  1  0.577300  0.485700  0.533400  1.0  -0.1838
  N  N586  1  0.576000  0.764000  0.333900  1.0  -0.2947
  N  N587  1  0.577300  0.985700  0.033400  1.0  -0.1838
  N  N588  1  0.576000  0.264000  0.833900  1.0  -0.2947
  N  N589  1  0.077300  0.485700  0.033400  1.0  -0.1838
  N  N590  1  0.076000  0.764000  0.833900  1.0  -0.2947
  N  N591  1  0.077300  0.985700  0.533400  1.0  -0.1838
  N  N592  1  0.076000  0.264000  0.333900  1.0  -0.2947
  O  O593  1  0.488700  0.411900  0.601750  1.0  -0.6011
  O  O594  1  0.354200  0.434000  0.615700  1.0  -0.5998
  O  O595  1  0.489100  0.339100  0.529800  1.0  -0.5906
  O  O596  1  0.355200  0.312600  0.518300  1.0  -0.6169
  O  O597  1  0.488700  0.911900  0.101750  1.0  -0.6011
  O  O598  1  0.354200  0.934000  0.115700  1.0  -0.5998
  O  O599  1  0.489100  0.839100  0.029800  1.0  -0.5906
  O  O600  1  0.355200  0.812600  0.018300  1.0  -0.6169
  O  O601  1  0.988700  0.411900  0.101750  1.0  -0.6011
  O  O602  1  0.854200  0.434000  0.115700  1.0  -0.5998
  O  O603  1  0.989100  0.339100  0.029800  1.0  -0.5906
  O  O604  1  0.855200  0.312600  0.018300  1.0  -0.6169
  O  O605  1  0.988700  0.911900  0.601750  1.0  -0.6011
  O  O606  1  0.854200  0.934000  0.615700  1.0  -0.5998
  O  O607  1  0.989100  0.839100  0.529800  1.0  -0.5906
  O  O608  1  0.855200  0.812600  0.518300  1.0  -0.6169
  O  O609  1  0.261300  0.338100  0.601750  1.0  -0.6006
  O  O610  1  0.395800  0.316000  0.615700  1.0  -0.6
  O  O611  1  0.260900  0.410900  0.529800  1.0  -0.5908
  O  O612  1  0.394800  0.437400  0.518300  1.0  -0.6153
  O  O613  1  0.261300  0.838100  0.101750  1.0  -0.6006
  O  O614  1  0.395800  0.816000  0.115700  1.0  -0.6
  O  O615  1  0.260900  0.910900  0.029800  1.0  -0.5908
  O  O616  1  0.394800  0.937400  0.018300  1.0  -0.6153
  O  O617  1  0.761300  0.338100  0.101750  1.0  -0.6006
  O  O618  1  0.895800  0.316000  0.115700  1.0  -0.6
  O  O619  1  0.760900  0.410900  0.029800  1.0  -0.5908
  O  O620  1  0.894800  0.437400  0.018300  1.0  -0.6153
  O  O621  1  0.761300  0.838100  0.601750  1.0  -0.6006
  O  O622  1  0.895800  0.816000  0.615700  1.0  -0.6
  O  O623  1  0.760900  0.910900  0.529800  1.0  -0.5908
  O  O624  1  0.894800  0.937400  0.518300  1.0  -0.6153
  O  O625  1  0.738700  0.588100  0.851750  1.0  -0.6002
  O  O626  1  0.604200  0.566000  0.865700  1.0  -0.5993
  O  O627  1  0.739100  0.660900  0.779800  1.0  -0.5909
  O  O628  1  0.605200  0.687400  0.768300  1.0  -0.6173
  O  O629  1  0.738700  0.088100  0.351750  1.0  -0.6002
  O  O630  1  0.604200  0.066000  0.365700  1.0  -0.5993
  O  O631  1  0.739100  0.160900  0.279800  1.0  -0.5909
  O  O632  1  0.605200  0.187400  0.268300  1.0  -0.6173
  O  O633  1  0.238700  0.588100  0.351750  1.0  -0.6002
  O  O634  1  0.104200  0.566000  0.365700  1.0  -0.5993
  O  O635  1  0.239100  0.660900  0.279800  1.0  -0.5909
  O  O636  1  0.105200  0.687400  0.268300  1.0  -0.6173
  O  O637  1  0.238700  0.088100  0.851750  1.0  -0.6002
  O  O638  1  0.104200  0.066000  0.865700  1.0  -0.5993
  O  O639  1  0.239100  0.160900  0.779800  1.0  -0.5909
  O  O640  1  0.105200  0.187400  0.768300  1.0  -0.6173
  O  O641  1  0.511300  0.661900  0.851750  1.0  -0.6016
  O  O642  1  0.645800  0.684000  0.865700  1.0  -0.5999
  O  O643  1  0.510900  0.589100  0.779800  1.0  -0.5902
  O  O644  1  0.644800  0.562600  0.768300  1.0  -0.6152
  O  O645  1  0.511300  0.161900  0.351750  1.0  -0.6016
  O  O646  1  0.645800  0.184000  0.365700  1.0  -0.5999
  O  O647  1  0.510900  0.089100  0.279800  1.0  -0.5902
  O  O648  1  0.644800  0.062600  0.268300  1.0  -0.6152
  O  O649  1  0.011300  0.661900  0.351750  1.0  -0.6016
  O  O650  1  0.145800  0.684000  0.365700  1.0  -0.5999
  O  O651  1  0.010900  0.589100  0.279800  1.0  -0.5902
  O  O652  1  0.144800  0.562600  0.268300  1.0  -0.6152
  O  O653  1  0.011300  0.161900  0.851750  1.0  -0.6016
  O  O654  1  0.145800  0.184000  0.865700  1.0  -0.5999
  O  O655  1  0.010900  0.089100  0.779800  1.0  -0.5902
  O  O656  1  0.144800  0.062600  0.768300  1.0  -0.6152
  O  O657  1  0.261300  0.411900  0.148250  1.0  -0.6015
  O  O658  1  0.395800  0.434000  0.134300  1.0  -0.6002
  O  O659  1  0.260900  0.339100  0.220200  1.0  -0.5912
  O  O660  1  0.394800  0.312600  0.231700  1.0  -0.6152
  O  O661  1  0.261300  0.911900  0.648250  1.0  -0.6015
  O  O662  1  0.395800  0.934000  0.634300  1.0  -0.6002
  O  O663  1  0.260900  0.839100  0.720200  1.0  -0.5912
  O  O664  1  0.394800  0.812600  0.731700  1.0  -0.6152
  O  O665  1  0.761300  0.411900  0.648250  1.0  -0.6015
  O  O666  1  0.895800  0.434000  0.634300  1.0  -0.6002
  O  O667  1  0.760900  0.339100  0.720200  1.0  -0.5912
  O  O668  1  0.894800  0.312600  0.731700  1.0  -0.6152
  O  O669  1  0.761300  0.911900  0.148250  1.0  -0.6015
  O  O670  1  0.895800  0.934000  0.134300  1.0  -0.6002
  O  O671  1  0.760900  0.839100  0.220200  1.0  -0.5912
  O  O672  1  0.894800  0.812600  0.231700  1.0  -0.6152
  O  O673  1  0.488700  0.338100  0.148250  1.0  -0.6004
  O  O674  1  0.354200  0.316000  0.134300  1.0  -0.5991
  O  O675  1  0.489100  0.410900  0.220200  1.0  -0.5919
  O  O676  1  0.355200  0.437400  0.231700  1.0  -0.6168
  O  O677  1  0.488700  0.838100  0.648250  1.0  -0.6004
  O  O678  1  0.354200  0.816000  0.634300  1.0  -0.5991
  O  O679  1  0.489100  0.910900  0.720200  1.0  -0.5919
  O  O680  1  0.355200  0.937400  0.731700  1.0  -0.6168
  O  O681  1  0.988700  0.338100  0.648250  1.0  -0.6004
  O  O682  1  0.854200  0.316000  0.634300  1.0  -0.5991
  O  O683  1  0.989100  0.410900  0.720200  1.0  -0.5919
  O  O684  1  0.855200  0.437400  0.731700  1.0  -0.6168
  O  O685  1  0.988700  0.838100  0.148250  1.0  -0.6004
  O  O686  1  0.854200  0.816000  0.134300  1.0  -0.5991
  O  O687  1  0.989100  0.910900  0.220200  1.0  -0.5919
  O  O688  1  0.855200  0.937400  0.231700  1.0  -0.6168
  O  O689  1  0.511300  0.588100  0.398250  1.0  -0.6009
  O  O690  1  0.645800  0.566000  0.384300  1.0  -0.6005
  O  O691  1  0.510900  0.660900  0.470200  1.0  -0.5918
  O  O692  1  0.644800  0.687400  0.481700  1.0  -0.6149
  O  O693  1  0.511300  0.088100  0.898250  1.0  -0.6009
  O  O694  1  0.645800  0.066000  0.884300  1.0  -0.6005
  O  O695  1  0.510900  0.160900  0.970200  1.0  -0.5918
  O  O696  1  0.644800  0.187400  0.981700  1.0  -0.6149
  O  O697  1  0.011300  0.588100  0.898250  1.0  -0.6009
  O  O698  1  0.145800  0.566000  0.884300  1.0  -0.6005
  O  O699  1  0.010900  0.660900  0.970200  1.0  -0.5918
  O  O700  1  0.144800  0.687400  0.981700  1.0  -0.6149
  O  O701  1  0.011300  0.088100  0.398250  1.0  -0.6009
  O  O702  1  0.145800  0.066000  0.384300  1.0  -0.6005
  O  O703  1  0.010900  0.160900  0.470200  1.0  -0.5918
  O  O704  1  0.144800  0.187400  0.481700  1.0  -0.6149
  O  O705  1  0.738700  0.661900  0.398250  1.0  -0.6011
  O  O706  1  0.604200  0.684000  0.384300  1.0  -0.5995
  O  O707  1  0.739100  0.589100  0.470200  1.0  -0.5912
  O  O708  1  0.605200  0.562600  0.481700  1.0  -0.6166
  O  O709  1  0.738700  0.161900  0.898250  1.0  -0.6011
  O  O710  1  0.604200  0.184000  0.884300  1.0  -0.5995
  O  O711  1  0.739100  0.089100  0.970200  1.0  -0.5912
  O  O712  1  0.605200  0.062600  0.981700  1.0  -0.6166
  O  O713  1  0.238700  0.661900  0.898250  1.0  -0.6011
  O  O714  1  0.104200  0.684000  0.884300  1.0  -0.5995
  O  O715  1  0.239100  0.589100  0.970200  1.0  -0.5912
  O  O716  1  0.105200  0.562600  0.981700  1.0  -0.6166
  O  O717  1  0.238700  0.161900  0.398250  1.0  -0.6011
  O  O718  1  0.104200  0.184000  0.384300  1.0  -0.5995
  O  O719  1  0.239100  0.089100  0.470200  1.0  -0.5912
  O  O720  1  0.105200  0.062600  0.481700  1.0  -0.6166
