# generated using pymatgen
data_CuH14(C11O2)2
_symmetry_space_group_name_H-M   'P 1'
_cell_length_a   33.32610000
_cell_length_b   33.32610000
_cell_length_c   33.32610000
_cell_angle_alpha   90.00000000
_cell_angle_beta   90.00000000
_cell_angle_gamma   90.00000000
_symmetry_Int_Tables_number   1
_chemical_formula_structural   CuH14(C11O2)2
_chemical_formula_sum   'Cu24 H336 C528 O96'
_cell_volume   37012.93115766
_cell_formula_units_Z   24
loop_
 _symmetry_equiv_pos_site_id
 _symmetry_equiv_pos_as_xyz
  1  'x, y, z'
loop_
 _atom_site_type_symbol
 _atom_site_label
 _atom_site_symmetry_multiplicity
 _atom_site_fract_x
 _atom_site_fract_y
 _atom_site_fract_z
 _atom_site_occupancy
 _atom_site_charge
  Cu  Cu1  1  0.040020  0.750000  0.250000  1.0  0.88
  Cu  Cu2  1  0.459980  0.750000  0.250000  1.0  0.8801
  Cu  Cu3  1  0.250000  0.040020  0.750000  1.0  0.879
  Cu  Cu4  1  0.250000  0.459980  0.750000  1.0  0.8831
  Cu  Cu5  1  0.750000  0.250000  0.040020  1.0  0.8756
  Cu  Cu6  1  0.750000  0.250000  0.459980  1.0  0.8759
  Cu  Cu7  1  0.250000  0.959980  0.750000  1.0  0.8831
  Cu  Cu8  1  0.250000  0.540020  0.750000  1.0  0.879
  Cu  Cu9  1  0.959980  0.750000  0.250000  1.0  0.8801
  Cu  Cu10  1  0.540020  0.750000  0.250000  1.0  0.88
  Cu  Cu11  1  0.750000  0.250000  0.540020  1.0  0.8756
  Cu  Cu12  1  0.750000  0.250000  0.959980  1.0  0.8759
  Cu  Cu13  1  0.750000  0.040020  0.250000  1.0  0.879
  Cu  Cu14  1  0.750000  0.459980  0.250000  1.0  0.8831
  Cu  Cu15  1  0.040020  0.250000  0.750000  1.0  0.88
  Cu  Cu16  1  0.459980  0.250000  0.750000  1.0  0.8801
  Cu  Cu17  1  0.250000  0.750000  0.459980  1.0  0.8759
  Cu  Cu18  1  0.250000  0.750000  0.040020  1.0  0.8756
  Cu  Cu19  1  0.959980  0.250000  0.750000  1.0  0.8801
  Cu  Cu20  1  0.540020  0.250000  0.750000  1.0  0.88
  Cu  Cu21  1  0.750000  0.959980  0.250000  1.0  0.8831
  Cu  Cu22  1  0.750000  0.540020  0.250000  1.0  0.879
  Cu  Cu23  1  0.250000  0.750000  0.959980  1.0  0.8759
  Cu  Cu24  1  0.250000  0.750000  0.540020  1.0  0.8756
  H  H25  1  0.919100  0.962800  0.017900  1.0  0.1285
  H  H26  1  0.912100  0.901700  0.039500  1.0  0.1207
  H  H27  1  0.917100  0.859600  0.094700  1.0  0.1127
  H  H28  1  0.037400  0.862800  0.086100  1.0  0.1226
  H  H29  1  0.032300  0.904800  0.030800  1.0  0.1137
  H  H30  1  0.952600  0.824700  0.142800  1.0  0.1084
  H  H31  1  0.032100  0.823900  0.141700  1.0  0.0891
  H  H32  1  0.580900  0.537200  0.017900  1.0  0.1284
  H  H33  1  0.587900  0.598300  0.039500  1.0  0.1202
  H  H34  1  0.582900  0.640400  0.094700  1.0  0.1129
  H  H35  1  0.462600  0.637200  0.086100  1.0  0.1224
  H  H36  1  0.467700  0.595200  0.030800  1.0  0.1139
  H  H37  1  0.547400  0.675300  0.142800  1.0  0.108
  H  H38  1  0.467900  0.676100  0.141700  1.0  0.0892
  H  H39  1  0.580900  0.962800  0.482100  1.0  0.1288
  H  H40  1  0.587900  0.901700  0.460500  1.0  0.1205
  H  H41  1  0.582900  0.859600  0.405300  1.0  0.113
  H  H42  1  0.462600  0.862800  0.413900  1.0  0.1231
  H  H43  1  0.467700  0.904800  0.469200  1.0  0.1136
  H  H44  1  0.547400  0.824700  0.357200  1.0  0.1077
  H  H45  1  0.467900  0.823900  0.358300  1.0  0.0888
  H  H46  1  0.919100  0.537200  0.482100  1.0  0.1294
  H  H47  1  0.912100  0.598300  0.460500  1.0  0.1206
  H  H48  1  0.917100  0.640400  0.405300  1.0  0.1128
  H  H49  1  0.037400  0.637200  0.413900  1.0  0.1223
  H  H50  1  0.032300  0.595200  0.469200  1.0  0.1136
  H  H51  1  0.952600  0.675300  0.357200  1.0  0.1085
  H  H52  1  0.032100  0.676100  0.358300  1.0  0.0883
  H  H53  1  0.017900  0.919100  0.962800  1.0  0.1284
  H  H54  1  0.039500  0.912100  0.901700  1.0  0.1192
  H  H55  1  0.094700  0.917100  0.859600  1.0  0.1139
  H  H56  1  0.086100  0.037400  0.862800  1.0  0.123
  H  H57  1  0.030800  0.032300  0.904800  1.0  0.1158
  H  H58  1  0.142800  0.952600  0.824700  1.0  0.1068
  H  H59  1  0.141700  0.032100  0.823900  1.0  0.0892
  H  H60  1  0.017900  0.580900  0.537200  1.0  0.129
  H  H61  1  0.039500  0.587900  0.598300  1.0  0.1193
  H  H62  1  0.094700  0.582900  0.640400  1.0  0.1143
  H  H63  1  0.086100  0.462600  0.637200  1.0  0.1229
  H  H64  1  0.030800  0.467700  0.595200  1.0  0.1155
  H  H65  1  0.142800  0.547400  0.675300  1.0  0.1068
  H  H66  1  0.141700  0.467900  0.676100  1.0  0.0886
  H  H67  1  0.482100  0.580900  0.962800  1.0  0.1295
  H  H68  1  0.460500  0.587900  0.901700  1.0  0.1199
  H  H69  1  0.405300  0.582900  0.859600  1.0  0.114
  H  H70  1  0.413900  0.462600  0.862800  1.0  0.1231
  H  H71  1  0.469200  0.467700  0.904800  1.0  0.1156
  H  H72  1  0.357200  0.547400  0.824700  1.0  0.106
  H  H73  1  0.358300  0.467900  0.823900  1.0  0.0885
  H  H74  1  0.482100  0.919100  0.537200  1.0  0.1285
  H  H75  1  0.460500  0.912100  0.598300  1.0  0.1193
  H  H76  1  0.405300  0.917100  0.640400  1.0  0.1141
  H  H77  1  0.413900  0.037400  0.637200  1.0  0.1233
  H  H78  1  0.469200  0.032300  0.595200  1.0  0.1156
  H  H79  1  0.357200  0.952600  0.675300  1.0  0.1062
  H  H80  1  0.358300  0.032100  0.676100  1.0  0.0893
  H  H81  1  0.962800  0.017900  0.919100  1.0  0.1295
  H  H82  1  0.901700  0.039500  0.912100  1.0  0.1184
  H  H83  1  0.859600  0.094700  0.917100  1.0  0.1127
  H  H84  1  0.862800  0.086100  0.037400  1.0  0.1228
  H  H85  1  0.904800  0.030800  0.032300  1.0  0.1139
  H  H86  1  0.824700  0.142800  0.952600  1.0  0.1077
  H  H87  1  0.823900  0.141700  0.032100  1.0  0.0875
  H  H88  1  0.537200  0.017900  0.580900  1.0  0.1308
  H  H89  1  0.598300  0.039500  0.587900  1.0  0.1176
  H  H90  1  0.640400  0.094700  0.582900  1.0  0.1127
  H  H91  1  0.637200  0.086100  0.462600  1.0  0.1232
  H  H92  1  0.595200  0.030800  0.467700  1.0  0.1146
  H  H93  1  0.675300  0.142800  0.547400  1.0  0.1068
  H  H94  1  0.676100  0.141700  0.467900  1.0  0.0892
  H  H95  1  0.962800  0.482100  0.580900  1.0  0.1308
  H  H96  1  0.901700  0.460500  0.587900  1.0  0.1186
  H  H97  1  0.859600  0.405300  0.582900  1.0  0.1132
  H  H98  1  0.862800  0.413900  0.462600  1.0  0.123
  H  H99  1  0.904800  0.469200  0.467700  1.0  0.1131
  H  H100  1  0.824700  0.357200  0.547400  1.0  0.107
  H  H101  1  0.823900  0.358300  0.467900  1.0  0.0889
  H  H102  1  0.537200  0.482100  0.919100  1.0  0.1299
  H  H103  1  0.598300  0.460500  0.912100  1.0  0.1196
  H  H104  1  0.640400  0.405300  0.917100  1.0  0.1133
  H  H105  1  0.637200  0.413900  0.037400  1.0  0.122
  H  H106  1  0.595200  0.469200  0.032300  1.0  0.1144
  H  H107  1  0.675300  0.357200  0.952600  1.0  0.1073
  H  H108  1  0.676100  0.358300  0.032100  1.0  0.088
  H  H109  1  0.037200  0.080900  0.517900  1.0  0.1284
  H  H110  1  0.098300  0.087900  0.539500  1.0  0.1183
  H  H111  1  0.140400  0.082900  0.594700  1.0  0.1128
  H  H112  1  0.137200  0.962600  0.586100  1.0  0.1218
  H  H113  1  0.095200  0.967700  0.530800  1.0  0.1137
  H  H114  1  0.175300  0.047400  0.642800  1.0  0.1068
  H  H115  1  0.176100  0.967900  0.641700  1.0  0.0882
  H  H116  1  0.462800  0.419100  0.517900  1.0  0.128
  H  H117  1  0.401700  0.412100  0.539500  1.0  0.1176
  H  H118  1  0.359600  0.417100  0.594700  1.0  0.1124
  H  H119  1  0.362800  0.537400  0.586100  1.0  0.1225
  H  H120  1  0.404800  0.532300  0.530800  1.0  0.1126
  H  H121  1  0.324700  0.452600  0.642800  1.0  0.1066
  H  H122  1  0.323900  0.532100  0.641700  1.0  0.0885
  H  H123  1  0.037200  0.419100  0.982100  1.0  0.1281
  H  H124  1  0.098300  0.412100  0.960500  1.0  0.1178
  H  H125  1  0.140400  0.417100  0.905300  1.0  0.1129
  H  H126  1  0.137200  0.537400  0.913900  1.0  0.122
  H  H127  1  0.095200  0.532300  0.969200  1.0  0.1129
  H  H128  1  0.175300  0.452600  0.857200  1.0  0.1068
  H  H129  1  0.176100  0.532100  0.858300  1.0  0.0884
  H  H130  1  0.462800  0.080900  0.982100  1.0  0.1287
  H  H131  1  0.401700  0.087900  0.960500  1.0  0.118
  H  H132  1  0.359600  0.082900  0.905300  1.0  0.1132
  H  H133  1  0.362800  0.962600  0.913900  1.0  0.1219
  H  H134  1  0.404800  0.967700  0.969200  1.0  0.1126
  H  H135  1  0.324700  0.047400  0.857200  1.0  0.1065
  H  H136  1  0.323900  0.967900  0.858300  1.0  0.088
  H  H137  1  0.080900  0.982100  0.462800  1.0  0.1294
  H  H138  1  0.087900  0.960500  0.401700  1.0  0.1197
  H  H139  1  0.082900  0.905300  0.359600  1.0  0.1138
  H  H140  1  0.962600  0.913900  0.362800  1.0  0.1225
  H  H141  1  0.967700  0.969200  0.404800  1.0  0.1161
  H  H142  1  0.047400  0.857200  0.324700  1.0  0.1079
  H  H143  1  0.967900  0.858300  0.323900  1.0  0.0883
  H  H144  1  0.419100  0.982100  0.037200  1.0  0.1296
  H  H145  1  0.412100  0.960500  0.098300  1.0  0.1194
  H  H146  1  0.417100  0.905300  0.140400  1.0  0.1137
  H  H147  1  0.537400  0.913900  0.137200  1.0  0.122
  H  H148  1  0.532300  0.969200  0.095200  1.0  0.1155
  H  H149  1  0.452600  0.857200  0.175300  1.0  0.1082
  H  H150  1  0.532100  0.858300  0.176100  1.0  0.0886
  H  H151  1  0.419100  0.517900  0.462800  1.0  0.13
  H  H152  1  0.412100  0.539500  0.401700  1.0  0.1192
  H  H153  1  0.417100  0.594700  0.359600  1.0  0.1134
  H  H154  1  0.537400  0.586100  0.362800  1.0  0.1225
  H  H155  1  0.532300  0.530800  0.404800  1.0  0.1155
  H  H156  1  0.452600  0.642800  0.324700  1.0  0.1083
  H  H157  1  0.532100  0.641700  0.323900  1.0  0.0879
  H  H158  1  0.080900  0.517900  0.037200  1.0  0.1289
  H  H159  1  0.087900  0.539500  0.098300  1.0  0.1191
  H  H160  1  0.082900  0.594700  0.140400  1.0  0.1137
  H  H161  1  0.962600  0.586100  0.137200  1.0  0.1224
  H  H162  1  0.967700  0.530800  0.095200  1.0  0.1154
  H  H163  1  0.047400  0.642800  0.175300  1.0  0.1079
  H  H164  1  0.967900  0.641700  0.176100  1.0  0.0886
  H  H165  1  0.982100  0.037200  0.419100  1.0  0.1292
  H  H166  1  0.960500  0.098300  0.412100  1.0  0.1207
  H  H167  1  0.905300  0.140400  0.417100  1.0  0.1133
  H  H168  1  0.913900  0.137200  0.537400  1.0  0.1238
  H  H169  1  0.969200  0.095200  0.532300  1.0  0.1149
  H  H170  1  0.857200  0.175300  0.452600  1.0  0.1072
  H  H171  1  0.858300  0.176100  0.532100  1.0  0.0886
  H  H172  1  0.982100  0.462800  0.080900  1.0  0.1301
  H  H173  1  0.960500  0.401700  0.087900  1.0  0.1207
  H  H174  1  0.905300  0.359600  0.082900  1.0  0.1132
  H  H175  1  0.913900  0.362800  0.962600  1.0  0.1246
  H  H176  1  0.969200  0.404800  0.967700  1.0  0.1142
  H  H177  1  0.857200  0.324700  0.047400  1.0  0.1063
  H  H178  1  0.858300  0.323900  0.967900  1.0  0.0904
  H  H179  1  0.517900  0.037200  0.080900  1.0  0.1304
  H  H180  1  0.539500  0.098300  0.087900  1.0  0.1209
  H  H181  1  0.594700  0.140400  0.082900  1.0  0.1132
  H  H182  1  0.586100  0.137200  0.962600  1.0  0.1237
  H  H183  1  0.530800  0.095200  0.967700  1.0  0.1138
  H  H184  1  0.642800  0.175300  0.047400  1.0  0.1063
  H  H185  1  0.641700  0.176100  0.967900  1.0  0.0904
  H  H186  1  0.517900  0.462800  0.419100  1.0  0.1294
  H  H187  1  0.539500  0.401700  0.412100  1.0  0.1209
  H  H188  1  0.594700  0.359600  0.417100  1.0  0.1134
  H  H189  1  0.586100  0.362800  0.537400  1.0  0.1239
  H  H190  1  0.530800  0.404800  0.532300  1.0  0.1141
  H  H191  1  0.642800  0.324700  0.452600  1.0  0.1073
  H  H192  1  0.641700  0.323900  0.532100  1.0  0.0893
  H  H193  1  0.962800  0.919100  0.482100  1.0  0.1282
  H  H194  1  0.901700  0.912100  0.460500  1.0  0.1181
  H  H195  1  0.859600  0.917100  0.405300  1.0  0.1125
  H  H196  1  0.862800  0.037400  0.413900  1.0  0.1224
  H  H197  1  0.904800  0.032300  0.469200  1.0  0.1123
  H  H198  1  0.824700  0.952600  0.357200  1.0  0.1066
  H  H199  1  0.823900  0.032100  0.358300  1.0  0.0881
  H  H200  1  0.537200  0.580900  0.482100  1.0  0.1289
  H  H201  1  0.598300  0.587900  0.460500  1.0  0.1175
  H  H202  1  0.640400  0.582900  0.405300  1.0  0.1134
  H  H203  1  0.637200  0.462600  0.413900  1.0  0.122
  H  H204  1  0.595200  0.467700  0.469200  1.0  0.1132
  H  H205  1  0.675300  0.547400  0.357200  1.0  0.1062
  H  H206  1  0.676100  0.467900  0.358300  1.0  0.0879
  H  H207  1  0.962800  0.580900  0.017900  1.0  0.1282
  H  H208  1  0.901700  0.587900  0.039500  1.0  0.1185
  H  H209  1  0.859600  0.582900  0.094700  1.0  0.1127
  H  H210  1  0.862800  0.462600  0.086100  1.0  0.1219
  H  H211  1  0.904800  0.467700  0.030800  1.0  0.1124
  H  H212  1  0.824700  0.547400  0.142800  1.0  0.107
  H  H213  1  0.823900  0.467900  0.141700  1.0  0.088
  H  H214  1  0.537200  0.919100  0.017900  1.0  0.128
  H  H215  1  0.598300  0.912100  0.039500  1.0  0.1176
  H  H216  1  0.640400  0.917100  0.094700  1.0  0.1127
  H  H217  1  0.637200  0.037400  0.086100  1.0  0.1219
  H  H218  1  0.595200  0.032300  0.030800  1.0  0.1135
  H  H219  1  0.675300  0.952600  0.142800  1.0  0.1069
  H  H220  1  0.676100  0.032100  0.141700  1.0  0.0889
  H  H221  1  0.919100  0.017900  0.537200  1.0  0.13
  H  H222  1  0.912100  0.039500  0.598300  1.0  0.1195
  H  H223  1  0.917100  0.094700  0.640400  1.0  0.1135
  H  H224  1  0.037400  0.086100  0.637200  1.0  0.122
  H  H225  1  0.032300  0.030800  0.595200  1.0  0.1151
  H  H226  1  0.952600  0.142800  0.675300  1.0  0.1083
  H  H227  1  0.032100  0.141700  0.676100  1.0  0.0882
  H  H228  1  0.580900  0.017900  0.962800  1.0  0.1292
  H  H229  1  0.587900  0.039500  0.901700  1.0  0.1192
  H  H230  1  0.582900  0.094700  0.859600  1.0  0.114
  H  H231  1  0.462600  0.086100  0.862800  1.0  0.1226
  H  H232  1  0.467700  0.030800  0.904800  1.0  0.1158
  H  H233  1  0.547400  0.142800  0.824700  1.0  0.1082
  H  H234  1  0.467900  0.141700  0.823900  1.0  0.0882
  H  H235  1  0.580900  0.482100  0.537200  1.0  0.1291
  H  H236  1  0.587900  0.460500  0.598300  1.0  0.119
  H  H237  1  0.582900  0.405300  0.640400  1.0  0.1137
  H  H238  1  0.462600  0.413900  0.637200  1.0  0.1224
  H  H239  1  0.467700  0.469200  0.595200  1.0  0.1158
  H  H240  1  0.547400  0.357200  0.675300  1.0  0.1079
  H  H241  1  0.467900  0.358300  0.676100  1.0  0.0886
  H  H242  1  0.919100  0.482100  0.962800  1.0  0.1295
  H  H243  1  0.912100  0.460500  0.901700  1.0  0.1193
  H  H244  1  0.917100  0.405300  0.859600  1.0  0.1136
  H  H245  1  0.037400  0.413900  0.862800  1.0  0.122
  H  H246  1  0.032300  0.469200  0.904800  1.0  0.1156
  H  H247  1  0.952600  0.357200  0.824700  1.0  0.1082
  H  H248  1  0.032100  0.358300  0.823900  1.0  0.0884
  H  H249  1  0.017900  0.962800  0.580900  1.0  0.131
  H  H250  1  0.039500  0.901700  0.587900  1.0  0.1214
  H  H251  1  0.094700  0.859600  0.582900  1.0  0.1133
  H  H252  1  0.086100  0.862800  0.462600  1.0  0.1243
  H  H253  1  0.030800  0.904800  0.467700  1.0  0.1143
  H  H254  1  0.142800  0.824700  0.547400  1.0  0.1063
  H  H255  1  0.141700  0.823900  0.467900  1.0  0.0908
  H  H256  1  0.017900  0.537200  0.919100  1.0  0.1293
  H  H257  1  0.039500  0.598300  0.912100  1.0  0.1206
  H  H258  1  0.094700  0.640400  0.917100  1.0  0.1134
  H  H259  1  0.086100  0.637200  0.037400  1.0  0.1234
  H  H260  1  0.030800  0.595200  0.032300  1.0  0.1146
  H  H261  1  0.142800  0.675300  0.952600  1.0  0.1073
  H  H262  1  0.141700  0.676100  0.032100  1.0  0.0886
  H  H263  1  0.482100  0.962800  0.919100  1.0  0.1289
  H  H264  1  0.460500  0.901700  0.912100  1.0  0.1207
  H  H265  1  0.405300  0.859600  0.917100  1.0  0.1132
  H  H266  1  0.413900  0.862800  0.037400  1.0  0.1244
  H  H267  1  0.469200  0.904800  0.032300  1.0  0.1142
  H  H268  1  0.357200  0.824700  0.952600  1.0  0.1074
  H  H269  1  0.358300  0.823900  0.032100  1.0  0.0892
  H  H270  1  0.482100  0.537200  0.580900  1.0  0.13
  H  H271  1  0.460500  0.598300  0.587900  1.0  0.1204
  H  H272  1  0.405300  0.640400  0.582900  1.0  0.1131
  H  H273  1  0.413900  0.637200  0.462600  1.0  0.1241
  H  H274  1  0.469200  0.595200  0.467700  1.0  0.114
  H  H275  1  0.357200  0.675300  0.547400  1.0  0.1064
  H  H276  1  0.358300  0.676100  0.467900  1.0  0.0901
  H  H277  1  0.080900  0.037200  0.982100  1.0  0.1288
  H  H278  1  0.087900  0.098300  0.960500  1.0  0.1202
  H  H279  1  0.082900  0.140400  0.905300  1.0  0.1134
  H  H280  1  0.962600  0.137200  0.913900  1.0  0.1226
  H  H281  1  0.967700  0.095200  0.969200  1.0  0.1141
  H  H282  1  0.047400  0.175300  0.857200  1.0  0.1081
  H  H283  1  0.967900  0.176100  0.858300  1.0  0.0886
  H  H284  1  0.419100  0.462800  0.982100  1.0  0.1287
  H  H285  1  0.412100  0.401700  0.960500  1.0  0.1213
  H  H286  1  0.417100  0.359600  0.905300  1.0  0.1125
  H  H287  1  0.537400  0.362800  0.913900  1.0  0.1225
  H  H288  1  0.532300  0.404800  0.969200  1.0  0.1132
  H  H289  1  0.452600  0.324700  0.857200  1.0  0.1083
  H  H290  1  0.532100  0.323900  0.858300  1.0  0.0888
  H  H291  1  0.419100  0.037200  0.517900  1.0  0.1289
  H  H292  1  0.412100  0.098300  0.539500  1.0  0.1202
  H  H293  1  0.417100  0.140400  0.594700  1.0  0.1126
  H  H294  1  0.537400  0.137200  0.586100  1.0  0.1222
  H  H295  1  0.532300  0.095200  0.530800  1.0  0.1136
  H  H296  1  0.452600  0.175300  0.642800  1.0  0.1084
  H  H297  1  0.532100  0.176100  0.641700  1.0  0.0889
  H  H298  1  0.080900  0.462800  0.517900  1.0  0.1285
  H  H299  1  0.087900  0.401700  0.539500  1.0  0.12
  H  H300  1  0.082900  0.359600  0.594700  1.0  0.1129
  H  H301  1  0.962600  0.362800  0.586100  1.0  0.123
  H  H302  1  0.967700  0.404800  0.530800  1.0  0.114
  H  H303  1  0.047400  0.324700  0.642800  1.0  0.108
  H  H304  1  0.967900  0.323900  0.641700  1.0  0.0893
  H  H305  1  0.982100  0.080900  0.037200  1.0  0.1288
  H  H306  1  0.960500  0.087900  0.098300  1.0  0.1188
  H  H307  1  0.905300  0.082900  0.140400  1.0  0.1141
  H  H308  1  0.913900  0.962600  0.137200  1.0  0.1228
  H  H309  1  0.969200  0.967700  0.095200  1.0  0.1156
  H  H310  1  0.857200  0.047400  0.175300  1.0  0.1065
  H  H311  1  0.858300  0.967900  0.176100  1.0  0.0887
  H  H312  1  0.982100  0.419100  0.462800  1.0  0.1284
  H  H313  1  0.960500  0.412100  0.401700  1.0  0.1194
  H  H314  1  0.905300  0.417100  0.359600  1.0  0.1138
  H  H315  1  0.913900  0.537400  0.362800  1.0  0.1236
  H  H316  1  0.969200  0.532300  0.404800  1.0  0.1157
  H  H317  1  0.857200  0.452600  0.324700  1.0  0.1068
  H  H318  1  0.858300  0.532100  0.323900  1.0  0.0892
  H  H319  1  0.517900  0.419100  0.037200  1.0  0.1291
  H  H320  1  0.539500  0.412100  0.098300  1.0  0.1193
  H  H321  1  0.594700  0.417100  0.140400  1.0  0.1142
  H  H322  1  0.586100  0.537400  0.137200  1.0  0.1229
  H  H323  1  0.530800  0.532300  0.095200  1.0  0.1154
  H  H324  1  0.642800  0.452600  0.175300  1.0  0.1065
  H  H325  1  0.641700  0.532100  0.176100  1.0  0.0894
  H  H326  1  0.517900  0.080900  0.462800  1.0  0.1293
  H  H327  1  0.539500  0.087900  0.401700  1.0  0.1203
  H  H328  1  0.594700  0.082900  0.359600  1.0  0.1139
  H  H329  1  0.586100  0.962600  0.362800  1.0  0.1231
  H  H330  1  0.530800  0.967700  0.404800  1.0  0.1157
  H  H331  1  0.642800  0.047400  0.324700  1.0  0.1061
  H  H332  1  0.641700  0.967900  0.323900  1.0  0.0883
  H  H333  1  0.037200  0.982100  0.080900  1.0  0.1305
  H  H334  1  0.098300  0.960500  0.087900  1.0  0.1177
  H  H335  1  0.140400  0.905300  0.082900  1.0  0.1126
  H  H336  1  0.137200  0.913900  0.962600  1.0  0.1229
  H  H337  1  0.095200  0.969200  0.967700  1.0  0.1147
  H  H338  1  0.175300  0.857200  0.047400  1.0  0.1066
  H  H339  1  0.176100  0.858300  0.967900  1.0  0.0895
  H  H340  1  0.462800  0.982100  0.419100  1.0  0.1294
  H  H341  1  0.401700  0.960500  0.412100  1.0  0.1183
  H  H342  1  0.359600  0.905300  0.417100  1.0  0.1128
  H  H343  1  0.362800  0.913900  0.537400  1.0  0.1228
  H  H344  1  0.404800  0.969200  0.532300  1.0  0.1139
  H  H345  1  0.324700  0.857200  0.452600  1.0  0.1078
  H  H346  1  0.323900  0.858300  0.532100  1.0  0.0878
  H  H347  1  0.037200  0.517900  0.419100  1.0  0.13
  H  H348  1  0.098300  0.539500  0.412100  1.0  0.1193
  H  H349  1  0.140400  0.594700  0.417100  1.0  0.1137
  H  H350  1  0.137200  0.586100  0.537400  1.0  0.1221
  H  H351  1  0.095200  0.530800  0.532300  1.0  0.1142
  H  H352  1  0.175300  0.642800  0.452600  1.0  0.1074
  H  H353  1  0.176100  0.641700  0.532100  1.0  0.0877
  H  H354  1  0.462800  0.517900  0.080900  1.0  0.1308
  H  H355  1  0.401700  0.539500  0.087900  1.0  0.119
  H  H356  1  0.359600  0.594700  0.082900  1.0  0.113
  H  H357  1  0.362800  0.586100  0.962600  1.0  0.1231
  H  H358  1  0.404800  0.530800  0.967700  1.0  0.1133
  H  H359  1  0.324700  0.642800  0.047400  1.0  0.1071
  H  H360  1  0.323900  0.641700  0.967900  1.0  0.0886
  C  C361  1  0.938610  0.964900  0.998120  1.0  -0.2078
  C  C362  1  0.970000  0.937360  0.995700  1.0  -0.0035
  C  C363  1  0.971700  0.907420  0.029660  1.0  0.0713
  C  C364  1  0.937180  0.893870  0.048800  1.0  -0.1125
  C  C365  1  0.940220  0.868670  0.081890  1.0  -0.0869
  C  C366  1  0.977800  0.857020  0.095850  1.0  0.0182
  C  C367  1  0.012250  0.870570  0.076700  1.0  -0.1031
  C  C368  1  0.009210  0.895770  0.043630  1.0  -0.1033
  C  C369  1  0.977800  0.831300  0.132700  1.0  -0.0682
  C  C370  1  0.006600  0.817800  0.151340  1.0  -0.1313
  C  C371  1  0.003900  0.791000  0.190100  1.0  0.6329
  C  C372  1  0.561390  0.535100  0.998120  1.0  -0.2065
  C  C373  1  0.530000  0.562640  0.995700  1.0  -0.0058
  C  C374  1  0.528300  0.592580  0.029660  1.0  0.0707
  C  C375  1  0.562820  0.606130  0.048800  1.0  -0.1121
  C  C376  1  0.559780  0.631330  0.081890  1.0  -0.0846
  C  C377  1  0.522200  0.642980  0.095850  1.0  0.019
  C  C378  1  0.487750  0.629430  0.076700  1.0  -0.1042
  C  C379  1  0.490790  0.604230  0.043630  1.0  -0.102
  C  C380  1  0.522200  0.668700  0.132700  1.0  -0.0674
  C  C381  1  0.493400  0.682200  0.151340  1.0  -0.1333
  C  C382  1  0.496100  0.709000  0.190100  1.0  0.6329
  C  C383  1  0.561390  0.964900  0.501880  1.0  -0.2075
  C  C384  1  0.530000  0.937360  0.504300  1.0  -0.0014
  C  C385  1  0.528300  0.907420  0.470340  1.0  0.0709
  C  C386  1  0.562820  0.893870  0.451200  1.0  -0.1121
  C  C387  1  0.559780  0.868670  0.418110  1.0  -0.0834
  C  C388  1  0.522200  0.857020  0.404150  1.0  0.0185
  C  C389  1  0.487750  0.870570  0.423300  1.0  -0.104
  C  C390  1  0.490790  0.895770  0.456370  1.0  -0.1015
  C  C391  1  0.522200  0.831300  0.367300  1.0  -0.0679
  C  C392  1  0.493400  0.817800  0.348660  1.0  -0.1342
  C  C393  1  0.496100  0.791000  0.309900  1.0  0.6335
  C  C394  1  0.938610  0.535100  0.501880  1.0  -0.2095
  C  C395  1  0.970000  0.562640  0.504300  1.0  -0.0053
  C  C396  1  0.971700  0.592580  0.470340  1.0  0.0721
  C  C397  1  0.937180  0.606130  0.451200  1.0  -0.1125
  C  C398  1  0.940220  0.631330  0.418110  1.0  -0.0869
  C  C399  1  0.977800  0.642980  0.404150  1.0  0.0186
  C  C400  1  0.012250  0.629430  0.423300  1.0  -0.102
  C  C401  1  0.009210  0.604230  0.456370  1.0  -0.1017
  C  C402  1  0.977800  0.668700  0.367300  1.0  -0.0685
  C  C403  1  0.006600  0.682200  0.348660  1.0  -0.1311
  C  C404  1  0.003900  0.709000  0.309900  1.0  0.633
  C  C405  1  0.998120  0.938610  0.964900  1.0  -0.2086
  C  C406  1  0.995700  0.970000  0.937360  1.0  -0.0063
  C  C407  1  0.029660  0.971700  0.907420  1.0  0.0692
  C  C408  1  0.048800  0.937180  0.893870  1.0  -0.1155
  C  C409  1  0.081890  0.940220  0.868670  1.0  -0.0852
  C  C410  1  0.095850  0.977800  0.857020  1.0  0.0147
  C  C411  1  0.076700  0.012250  0.870570  1.0  -0.1083
  C  C412  1  0.043630  0.009210  0.895770  1.0  -0.0994
  C  C413  1  0.132700  0.977800  0.831300  1.0  -0.0674
  C  C414  1  0.151340  0.006600  0.817800  1.0  -0.1311
  C  C415  1  0.190100  0.003900  0.791000  1.0  0.6332
  C  C416  1  0.998120  0.561390  0.535100  1.0  -0.2083
  C  C417  1  0.995700  0.530000  0.562640  1.0  -0.0042
  C  C418  1  0.029660  0.528300  0.592580  1.0  0.0691
  C  C419  1  0.048800  0.562820  0.606130  1.0  -0.1179
  C  C420  1  0.081890  0.559780  0.631330  1.0  -0.0845
  C  C421  1  0.095850  0.522200  0.642980  1.0  0.0183
  C  C422  1  0.076700  0.487750  0.629430  1.0  -0.1076
  C  C423  1  0.043630  0.490790  0.604230  1.0  -0.101
  C  C424  1  0.132700  0.522200  0.668700  1.0  -0.0668
  C  C425  1  0.151340  0.493400  0.682200  1.0  -0.1323
  C  C426  1  0.190100  0.496100  0.709000  1.0  0.6335
  C  C427  1  0.501880  0.561390  0.964900  1.0  -0.2096
  C  C428  1  0.504300  0.530000  0.937360  1.0  -0.0078
  C  C429  1  0.470340  0.528300  0.907420  1.0  0.0684
  C  C430  1  0.451200  0.562820  0.893870  1.0  -0.1161
  C  C431  1  0.418110  0.559780  0.868670  1.0  -0.0876
  C  C432  1  0.404150  0.522200  0.857020  1.0  0.0153
  C  C433  1  0.423300  0.487750  0.870570  1.0  -0.1073
  C  C434  1  0.456370  0.490790  0.895770  1.0  -0.1002
  C  C435  1  0.367300  0.522200  0.831300  1.0  -0.0677
  C  C436  1  0.348660  0.493400  0.817800  1.0  -0.1292
  C  C437  1  0.309900  0.496100  0.791000  1.0  0.6321
  C  C438  1  0.501880  0.938610  0.535100  1.0  -0.2101
  C  C439  1  0.504300  0.970000  0.562640  1.0  -0.0015
  C  C440  1  0.470340  0.971700  0.592580  1.0  0.0716
  C  C441  1  0.451200  0.937180  0.606130  1.0  -0.1184
  C  C442  1  0.418110  0.940220  0.631330  1.0  -0.0873
  C  C443  1  0.404150  0.977800  0.642980  1.0  0.0183
  C  C444  1  0.423300  0.012250  0.629430  1.0  -0.1089
  C  C445  1  0.456370  0.009210  0.604230  1.0  -0.1006
  C  C446  1  0.367300  0.977800  0.668700  1.0  -0.0675
  C  C447  1  0.348660  0.006600  0.682200  1.0  -0.1287
  C  C448  1  0.309900  0.003900  0.709000  1.0  0.6329
  C  C449  1  0.964900  0.998120  0.938610  1.0  -0.2062
  C  C450  1  0.937360  0.995700  0.970000  1.0  -0.0074
  C  C451  1  0.907420  0.029660  0.971700  1.0  0.0706
  C  C452  1  0.893870  0.048800  0.937180  1.0  -0.1091
  C  C453  1  0.868670  0.081890  0.940220  1.0  -0.085
  C  C454  1  0.857020  0.095850  0.977800  1.0  0.0187
  C  C455  1  0.870570  0.076700  0.012250  1.0  -0.1002
  C  C456  1  0.895770  0.043630  0.009210  1.0  -0.1015
  C  C457  1  0.831300  0.132700  0.977800  1.0  -0.0681
  C  C458  1  0.817800  0.151340  0.006600  1.0  -0.1324
  C  C459  1  0.791000  0.190100  0.003900  1.0  0.6328
  C  C460  1  0.535100  0.998120  0.561390  1.0  -0.2094
  C  C461  1  0.562640  0.995700  0.530000  1.0  -0.0027
  C  C462  1  0.592580  0.029660  0.528300  1.0  0.0698
  C  C463  1  0.606130  0.048800  0.562820  1.0  -0.1071
  C  C464  1  0.631330  0.081890  0.559780  1.0  -0.0857
  C  C465  1  0.642980  0.095850  0.522200  1.0  0.0153
  C  C466  1  0.629430  0.076700  0.487750  1.0  -0.1027
  C  C467  1  0.604230  0.043630  0.490790  1.0  -0.1003
  C  C468  1  0.668700  0.132700  0.522200  1.0  -0.067
  C  C469  1  0.682200  0.151340  0.493400  1.0  -0.1333
  C  C470  1  0.709000  0.190100  0.496100  1.0  0.6332
  C  C471  1  0.964900  0.501880  0.561390  1.0  -0.2076
  C  C472  1  0.937360  0.504300  0.530000  1.0  -0.0053
  C  C473  1  0.907420  0.470340  0.528300  1.0  0.0706
  C  C474  1  0.893870  0.451200  0.562820  1.0  -0.1081
  C  C475  1  0.868670  0.418110  0.559780  1.0  -0.0853
  C  C476  1  0.857020  0.404150  0.522200  1.0  0.0175
  C  C477  1  0.870570  0.423300  0.487750  1.0  -0.0991
  C  C478  1  0.895770  0.456370  0.490790  1.0  -0.0996
  C  C479  1  0.831300  0.367300  0.522200  1.0  -0.0683
  C  C480  1  0.817800  0.348660  0.493400  1.0  -0.1321
  C  C481  1  0.791000  0.309900  0.496100  1.0  0.6328
  C  C482  1  0.535100  0.501880  0.938610  1.0  -0.2066
  C  C483  1  0.562640  0.504300  0.970000  1.0  -0.0062
  C  C484  1  0.592580  0.470340  0.971700  1.0  0.0704
  C  C485  1  0.606130  0.451200  0.937180  1.0  -0.1073
  C  C486  1  0.631330  0.418110  0.940220  1.0  -0.0849
  C  C487  1  0.642980  0.404150  0.977800  1.0  0.0144
  C  C488  1  0.629430  0.423300  0.012250  1.0  -0.1011
  C  C489  1  0.604230  0.456370  0.009210  1.0  -0.1006
  C  C490  1  0.668700  0.367300  0.977800  1.0  -0.0681
  C  C491  1  0.682200  0.348660  0.006600  1.0  -0.1335
  C  C492  1  0.709000  0.309900  0.003900  1.0  0.6324
  C  C493  1  0.035100  0.061390  0.498120  1.0  -0.2054
  C  C494  1  0.062640  0.030000  0.495700  1.0  -0.0048
  C  C495  1  0.092580  0.028300  0.529660  1.0  0.0704
  C  C496  1  0.106130  0.062820  0.548800  1.0  -0.1116
  C  C497  1  0.131330  0.059780  0.581890  1.0  -0.0841
  C  C498  1  0.142980  0.022200  0.595850  1.0  0.0151
  C  C499  1  0.129430  0.987750  0.576700  1.0  -0.103
  C  C500  1  0.104230  0.990790  0.543630  1.0  -0.099
  C  C501  1  0.168700  0.022200  0.632700  1.0  -0.0675
  C  C502  1  0.182200  0.993400  0.651340  1.0  -0.1325
  C  C503  1  0.209000  0.996100  0.690100  1.0  0.6325
  C  C504  1  0.464900  0.438610  0.498120  1.0  -0.2046
  C  C505  1  0.437360  0.470000  0.495700  1.0  -0.005
  C  C506  1  0.407420  0.471700  0.529660  1.0  0.0712
  C  C507  1  0.393870  0.437180  0.548800  1.0  -0.1131
  C  C508  1  0.368670  0.440220  0.581890  1.0  -0.0824
  C  C509  1  0.357020  0.477800  0.595850  1.0  0.0177
  C  C510  1  0.370570  0.512250  0.576700  1.0  -0.1031
  C  C511  1  0.395770  0.509210  0.543630  1.0  -0.0998
  C  C512  1  0.331300  0.477800  0.632700  1.0  -0.0679
  C  C513  1  0.317800  0.506600  0.651340  1.0  -0.1297
  C  C514  1  0.291000  0.503900  0.690100  1.0  0.6323
  C  C515  1  0.035100  0.438610  0.001880  1.0  -0.2063
  C  C516  1  0.062640  0.470000  0.004300  1.0  -0.0011
  C  C517  1  0.092580  0.471700  0.970340  1.0  0.0703
  C  C518  1  0.106130  0.437180  0.951200  1.0  -0.1098
  C  C519  1  0.131330  0.440220  0.918110  1.0  -0.081
  C  C520  1  0.142980  0.477800  0.904150  1.0  0.0145
  C  C521  1  0.129430  0.512250  0.923300  1.0  -0.1033
  C  C522  1  0.104230  0.509210  0.956370  1.0  -0.0996
  C  C523  1  0.168700  0.477800  0.867300  1.0  -0.0681
  C  C524  1  0.182200  0.506600  0.848660  1.0  -0.1325
  C  C525  1  0.209000  0.503900  0.809900  1.0  0.6324
  C  C526  1  0.464900  0.061390  0.001880  1.0  -0.2066
  C  C527  1  0.437360  0.030000  0.004300  1.0  -0.0047
  C  C528  1  0.407420  0.028300  0.970340  1.0  0.071
  C  C529  1  0.393870  0.062820  0.951200  1.0  -0.1118
  C  C530  1  0.368670  0.059780  0.918110  1.0  -0.0828
  C  C531  1  0.357020  0.022200  0.904150  1.0  0.0173
  C  C532  1  0.370570  0.987750  0.923300  1.0  -0.1011
  C  C533  1  0.395770  0.990790  0.956370  1.0  -0.099
  C  C534  1  0.331300  0.022200  0.867300  1.0  -0.0682
  C  C535  1  0.317800  0.993400  0.848660  1.0  -0.1314
  C  C536  1  0.291000  0.996100  0.809900  1.0  0.6325
  C  C537  1  0.061390  0.001880  0.464900  1.0  -0.2094
  C  C538  1  0.030000  0.004300  0.437360  1.0  -0.008
  C  C539  1  0.028300  0.970340  0.407420  1.0  0.0686
  C  C540  1  0.062820  0.951200  0.393870  1.0  -0.11
  C  C541  1  0.059780  0.918110  0.368670  1.0  -0.0853
  C  C542  1  0.022200  0.904150  0.357020  1.0  0.0148
  C  C543  1  0.987750  0.923300  0.370570  1.0  -0.1018
  C  C544  1  0.990790  0.956370  0.395770  1.0  -0.0993
  C  C545  1  0.022200  0.867300  0.331300  1.0  -0.0682
  C  C546  1  0.993400  0.848660  0.317800  1.0  -0.1328
  C  C547  1  0.996100  0.809900  0.291000  1.0  0.6322
  C  C548  1  0.438610  0.001880  0.035100  1.0  -0.2095
  C  C549  1  0.470000  0.004300  0.062640  1.0  -0.004
  C  C550  1  0.471700  0.970340  0.092580  1.0  0.0689
  C  C551  1  0.437180  0.951200  0.106130  1.0  -0.1127
  C  C552  1  0.440220  0.918110  0.131330  1.0  -0.0879
  C  C553  1  0.477800  0.904150  0.142980  1.0  0.0181
  C  C554  1  0.512250  0.923300  0.129430  1.0  -0.1017
  C  C555  1  0.509210  0.956370  0.104230  1.0  -0.1018
  C  C556  1  0.477800  0.867300  0.168700  1.0  -0.0688
  C  C557  1  0.506600  0.848660  0.182200  1.0  -0.131
  C  C558  1  0.503900  0.809900  0.209000  1.0  0.6323
  C  C559  1  0.438610  0.498120  0.464900  1.0  -0.2108
  C  C560  1  0.470000  0.495700  0.437360  1.0  -0.0069
  C  C561  1  0.471700  0.529660  0.407420  1.0  0.0674
  C  C562  1  0.437180  0.548800  0.393870  1.0  -0.1102
  C  C563  1  0.440220  0.581890  0.368670  1.0  -0.089
  C  C564  1  0.477800  0.595850  0.357020  1.0  0.0158
  C  C565  1  0.512250  0.576700  0.370570  1.0  -0.1018
  C  C566  1  0.509210  0.543630  0.395770  1.0  -0.1007
  C  C567  1  0.477800  0.632700  0.331300  1.0  -0.0683
  C  C568  1  0.506600  0.651340  0.317800  1.0  -0.1301
  C  C569  1  0.503900  0.690100  0.291000  1.0  0.6321
  C  C570  1  0.061390  0.498120  0.035100  1.0  -0.2095
  C  C571  1  0.030000  0.495700  0.062640  1.0  -0.0018
  C  C572  1  0.028300  0.529660  0.092580  1.0  0.0701
  C  C573  1  0.062820  0.548800  0.106130  1.0  -0.1104
  C  C574  1  0.059780  0.581890  0.131330  1.0  -0.0842
  C  C575  1  0.022200  0.595850  0.142980  1.0  0.0191
  C  C576  1  0.987750  0.576700  0.129430  1.0  -0.1046
  C  C577  1  0.990790  0.543630  0.104230  1.0  -0.1017
  C  C578  1  0.022200  0.632700  0.168700  1.0  -0.0673
  C  C579  1  0.993400  0.651340  0.182200  1.0  -0.133
  C  C580  1  0.996100  0.690100  0.209000  1.0  0.6329
  C  C581  1  0.001880  0.035100  0.438610  1.0  -0.2094
  C  C582  1  0.004300  0.062640  0.470000  1.0  -0.0079
  C  C583  1  0.970340  0.092580  0.471700  1.0  0.0713
  C  C584  1  0.951200  0.106130  0.437180  1.0  -0.1181
  C  C585  1  0.918110  0.131330  0.440220  1.0  -0.0893
  C  C586  1  0.904150  0.142980  0.477800  1.0  0.019
  C  C587  1  0.923300  0.129430  0.512250  1.0  -0.1079
  C  C588  1  0.956370  0.104230  0.509210  1.0  -0.1034
  C  C589  1  0.867300  0.168700  0.477800  1.0  -0.0677
  C  C590  1  0.848660  0.182200  0.506600  1.0  -0.1312
  C  C591  1  0.809900  0.209000  0.503900  1.0  0.6319
  C  C592  1  0.001880  0.464900  0.061390  1.0  -0.2107
  C  C593  1  0.004300  0.437360  0.030000  1.0  -0.0029
  C  C594  1  0.970340  0.407420  0.028300  1.0  0.0708
  C  C595  1  0.951200  0.393870  0.062820  1.0  -0.1181
  C  C596  1  0.918110  0.368670  0.059780  1.0  -0.0908
  C  C597  1  0.904150  0.357020  0.022200  1.0  0.0182
  C  C598  1  0.923300  0.370570  0.987750  1.0  -0.1072
  C  C599  1  0.956370  0.395770  0.990790  1.0  -0.1038
  C  C600  1  0.867300  0.331300  0.022200  1.0  -0.0673
  C  C601  1  0.848660  0.317800  0.993400  1.0  -0.1313
  C  C602  1  0.809900  0.291000  0.996100  1.0  0.6324
  C  C603  1  0.498120  0.035100  0.061390  1.0  -0.2107
  C  C604  1  0.495700  0.062640  0.030000  1.0  -0.0062
  C  C605  1  0.529660  0.092580  0.028300  1.0  0.0719
  C  C606  1  0.548800  0.106130  0.062820  1.0  -0.117
  C  C607  1  0.581890  0.131330  0.059780  1.0  -0.0868
  C  C608  1  0.595850  0.142980  0.022200  1.0  0.0187
  C  C609  1  0.576700  0.129430  0.987750  1.0  -0.108
  C  C610  1  0.543630  0.104230  0.990790  1.0  -0.1027
  C  C611  1  0.632700  0.168700  0.022200  1.0  -0.0663
  C  C612  1  0.651340  0.182200  0.993400  1.0  -0.1335
  C  C613  1  0.690100  0.209000  0.996100  1.0  0.6333
  C  C614  1  0.498120  0.464900  0.438610  1.0  -0.2075
  C  C615  1  0.495700  0.437360  0.470000  1.0  -0.0058
  C  C616  1  0.529660  0.407420  0.471700  1.0  0.0711
  C  C617  1  0.548800  0.393870  0.437180  1.0  -0.1149
  C  C618  1  0.581890  0.368670  0.440220  1.0  -0.0872
  C  C619  1  0.595850  0.357020  0.477800  1.0  0.0186
  C  C620  1  0.576700  0.370570  0.512250  1.0  -0.1075
  C  C621  1  0.543630  0.395770  0.509210  1.0  -0.1041
  C  C622  1  0.632700  0.331300  0.477800  1.0  -0.0673
  C  C623  1  0.651340  0.317800  0.506600  1.0  -0.1338
  C  C624  1  0.690100  0.291000  0.503900  1.0  0.6333
  C  C625  1  0.964900  0.938610  0.501880  1.0  -0.2063
  C  C626  1  0.937360  0.970000  0.504300  1.0  -0.0031
  C  C627  1  0.907420  0.971700  0.470340  1.0  0.0711
  C  C628  1  0.893870  0.937180  0.451200  1.0  -0.1123
  C  C629  1  0.868670  0.940220  0.418110  1.0  -0.0816
  C  C630  1  0.857020  0.977800  0.404150  1.0  0.0169
  C  C631  1  0.870570  0.012250  0.423300  1.0  -0.1026
  C  C632  1  0.895770  0.009210  0.456370  1.0  -0.0995
  C  C633  1  0.831300  0.977800  0.367300  1.0  -0.0683
  C  C634  1  0.817800  0.006600  0.348660  1.0  -0.1305
  C  C635  1  0.791000  0.003900  0.309900  1.0  0.6331
  C  C636  1  0.535100  0.561390  0.501880  1.0  -0.206
  C  C637  1  0.562640  0.530000  0.504300  1.0  -0.0027
  C  C638  1  0.592580  0.528300  0.470340  1.0  0.0699
  C  C639  1  0.606130  0.562820  0.451200  1.0  -0.1109
  C  C640  1  0.631330  0.559780  0.418110  1.0  -0.0834
  C  C641  1  0.642980  0.522200  0.404150  1.0  0.0145
  C  C642  1  0.629430  0.487750  0.423300  1.0  -0.1027
  C  C643  1  0.604230  0.490790  0.456370  1.0  -0.0985
  C  C644  1  0.668700  0.522200  0.367300  1.0  -0.0678
  C  C645  1  0.682200  0.493400  0.348660  1.0  -0.1337
  C  C646  1  0.709000  0.496100  0.309900  1.0  0.6327
  C  C647  1  0.964900  0.561390  0.998120  1.0  -0.205
  C  C648  1  0.937360  0.530000  0.995700  1.0  -0.0058
  C  C649  1  0.907420  0.528300  0.029660  1.0  0.0711
  C  C650  1  0.893870  0.562820  0.048800  1.0  -0.1127
  C  C651  1  0.868670  0.559780  0.081890  1.0  -0.0835
  C  C652  1  0.857020  0.522200  0.095850  1.0  0.0183
  C  C653  1  0.870570  0.487750  0.076700  1.0  -0.1016
  C  C654  1  0.895770  0.490790  0.043630  1.0  -0.0989
  C  C655  1  0.831300  0.522200  0.132700  1.0  -0.0681
  C  C656  1  0.817800  0.493400  0.151340  1.0  -0.1303
  C  C657  1  0.791000  0.496100  0.190100  1.0  0.6327
  C  C658  1  0.535100  0.938610  0.998120  1.0  -0.2055
  C  C659  1  0.562640  0.970000  0.995700  1.0  -0.0036
  C  C660  1  0.592580  0.971700  0.029660  1.0  0.0703
  C  C661  1  0.606130  0.937180  0.048800  1.0  -0.1097
  C  C662  1  0.631330  0.940220  0.081890  1.0  -0.0819
  C  C663  1  0.642980  0.977800  0.095850  1.0  0.0147
  C  C664  1  0.629430  0.012250  0.076700  1.0  -0.1038
  C  C665  1  0.604230  0.009210  0.043630  1.0  -0.1002
  C  C666  1  0.668700  0.977800  0.132700  1.0  -0.0673
  C  C667  1  0.682200  0.006600  0.151340  1.0  -0.1316
  C  C668  1  0.709000  0.003900  0.190100  1.0  0.6329
  C  C669  1  0.938610  0.998120  0.535100  1.0  -0.2104
  C  C670  1  0.970000  0.995700  0.562640  1.0  -0.0017
  C  C671  1  0.971700  0.029660  0.592580  1.0  0.0699
  C  C672  1  0.937180  0.048800  0.606130  1.0  -0.112
  C  C673  1  0.940220  0.081890  0.631330  1.0  -0.0891
  C  C674  1  0.977800  0.095850  0.642980  1.0  0.0183
  C  C675  1  0.012250  0.076700  0.629430  1.0  -0.102
  C  C676  1  0.009210  0.043630  0.604230  1.0  -0.1024
  C  C677  1  0.977800  0.132700  0.668700  1.0  -0.068
  C  C678  1  0.006600  0.151340  0.682200  1.0  -0.1305
  C  C679  1  0.003900  0.190100  0.709000  1.0  0.6331
  C  C680  1  0.561390  0.998120  0.964900  1.0  -0.21
  C  C681  1  0.530000  0.995700  0.937360  1.0  -0.0074
  C  C682  1  0.528300  0.029660  0.907420  1.0  0.0662
  C  C683  1  0.562820  0.048800  0.893870  1.0  -0.1108
  C  C684  1  0.559780  0.081890  0.868670  1.0  -0.0852
  C  C685  1  0.522200  0.095850  0.857020  1.0  0.016
  C  C686  1  0.487750  0.076700  0.870570  1.0  -0.1025
  C  C687  1  0.490790  0.043630  0.895770  1.0  -0.0997
  C  C688  1  0.522200  0.132700  0.831300  1.0  -0.0679
  C  C689  1  0.493400  0.151340  0.817800  1.0  -0.1329
  C  C690  1  0.496100  0.190100  0.791000  1.0  0.6329
  C  C691  1  0.561390  0.501880  0.535100  1.0  -0.2096
  C  C692  1  0.530000  0.504300  0.562640  1.0  -0.0041
  C  C693  1  0.528300  0.470340  0.592580  1.0  0.0696
  C  C694  1  0.562820  0.451200  0.606130  1.0  -0.1101
  C  C695  1  0.559780  0.418110  0.631330  1.0  -0.084
  C  C696  1  0.522200  0.404150  0.642980  1.0  0.0189
  C  C697  1  0.487750  0.423300  0.629430  1.0  -0.1045
  C  C698  1  0.490790  0.456370  0.604230  1.0  -0.1011
  C  C699  1  0.522200  0.367300  0.668700  1.0  -0.0676
  C  C700  1  0.493400  0.348660  0.682200  1.0  -0.1326
  C  C701  1  0.496100  0.309900  0.709000  1.0  0.6329
  C  C702  1  0.938610  0.501880  0.964900  1.0  -0.209
  C  C703  1  0.970000  0.504300  0.937360  1.0  -0.0074
  C  C704  1  0.971700  0.470340  0.907420  1.0  0.0702
  C  C705  1  0.937180  0.451200  0.893870  1.0  -0.1107
  C  C706  1  0.940220  0.418110  0.868670  1.0  -0.0883
  C  C707  1  0.977800  0.404150  0.857020  1.0  0.0144
  C  C708  1  0.012250  0.423300  0.870570  1.0  -0.1011
  C  C709  1  0.009210  0.456370  0.895770  1.0  -0.1001
  C  C710  1  0.977800  0.367300  0.831300  1.0  -0.069
  C  C711  1  0.006600  0.348660  0.817800  1.0  -0.1307
  C  C712  1  0.003900  0.309900  0.791000  1.0  0.6324
  C  C713  1  0.998120  0.964900  0.561390  1.0  -0.2101
  C  C714  1  0.995700  0.937360  0.530000  1.0  -0.003
  C  C715  1  0.029660  0.907420  0.528300  1.0  0.0709
  C  C716  1  0.048800  0.893870  0.562820  1.0  -0.1192
  C  C717  1  0.081890  0.868670  0.559780  1.0  -0.0891
  C  C718  1  0.095850  0.857020  0.522200  1.0  0.0185
  C  C719  1  0.076700  0.870570  0.487750  1.0  -0.1078
  C  C720  1  0.043630  0.895770  0.490790  1.0  -0.1034
  C  C721  1  0.132700  0.831300  0.522200  1.0  -0.0664
  C  C722  1  0.151340  0.817800  0.493400  1.0  -0.1336
  C  C723  1  0.190100  0.791000  0.496100  1.0  0.6342
  C  C724  1  0.998120  0.535100  0.938610  1.0  -0.2083
  C  C725  1  0.995700  0.562640  0.970000  1.0  -0.0081
  C  C726  1  0.029660  0.592580  0.971700  1.0  0.0712
  C  C727  1  0.048800  0.606130  0.937180  1.0  -0.1161
  C  C728  1  0.081890  0.631330  0.940220  1.0  -0.0885
  C  C729  1  0.095850  0.642980  0.977800  1.0  0.0188
  C  C730  1  0.076700  0.629430  0.012250  1.0  -0.1062
  C  C731  1  0.043630  0.604230  0.009210  1.0  -0.1029
  C  C732  1  0.132700  0.668700  0.977800  1.0  -0.067
  C  C733  1  0.151340  0.682200  0.006600  1.0  -0.1341
  C  C734  1  0.190100  0.709000  0.003900  1.0  0.6333
  C  C735  1  0.501880  0.964900  0.938610  1.0  -0.2087
  C  C736  1  0.504300  0.937360  0.970000  1.0  -0.0056
  C  C737  1  0.470340  0.907420  0.971700  1.0  0.0714
  C  C738  1  0.451200  0.893870  0.937180  1.0  -0.1174
  C  C739  1  0.418110  0.868670  0.940220  1.0  -0.087
  C  C740  1  0.404150  0.857020  0.977800  1.0  0.0182
  C  C741  1  0.423300  0.870570  0.012250  1.0  -0.1087
  C  C742  1  0.456370  0.895770  0.009210  1.0  -0.1047
  C  C743  1  0.367300  0.831300  0.977800  1.0  -0.0675
  C  C744  1  0.348660  0.817800  0.006600  1.0  -0.1314
  C  C745  1  0.309900  0.791000  0.003900  1.0  0.6328
  C  C746  1  0.501880  0.535100  0.561390  1.0  -0.2112
  C  C747  1  0.504300  0.562640  0.530000  1.0  -0.0053
  C  C748  1  0.470340  0.592580  0.528300  1.0  0.0712
  C  C749  1  0.451200  0.606130  0.562820  1.0  -0.1146
  C  C750  1  0.418110  0.631330  0.559780  1.0  -0.0894
  C  C751  1  0.404150  0.642980  0.522200  1.0  0.0188
  C  C752  1  0.423300  0.629430  0.487750  1.0  -0.108
  C  C753  1  0.456370  0.604230  0.490790  1.0  -0.1027
  C  C754  1  0.367300  0.668700  0.522200  1.0  -0.0677
  C  C755  1  0.348660  0.682200  0.493400  1.0  -0.1308
  C  C756  1  0.309900  0.709000  0.496100  1.0  0.6327
  C  C757  1  0.061390  0.035100  0.001880  1.0  -0.2077
  C  C758  1  0.030000  0.062640  0.004300  1.0  -0.0044
  C  C759  1  0.028300  0.092580  0.970340  1.0  0.0716
  C  C760  1  0.062820  0.106130  0.951200  1.0  -0.112
  C  C761  1  0.059780  0.131330  0.918110  1.0  -0.0843
  C  C762  1  0.022200  0.142980  0.904150  1.0  0.0188
  C  C763  1  0.987750  0.129430  0.923300  1.0  -0.1034
  C  C764  1  0.990790  0.104230  0.956370  1.0  -0.1011
  C  C765  1  0.022200  0.168700  0.867300  1.0  -0.068
  C  C766  1  0.993400  0.182200  0.848660  1.0  -0.1342
  C  C767  1  0.996100  0.209000  0.809900  1.0  0.6328
  C  C768  1  0.438610  0.464900  0.001880  1.0  -0.2093
  C  C769  1  0.470000  0.437360  0.004300  1.0  -0.0018
  C  C770  1  0.471700  0.407420  0.970340  1.0  0.0715
  C  C771  1  0.437180  0.393870  0.951200  1.0  -0.1121
  C  C772  1  0.440220  0.368670  0.918110  1.0  -0.0857
  C  C773  1  0.477800  0.357020  0.904150  1.0  0.018
  C  C774  1  0.512250  0.370570  0.923300  1.0  -0.1023
  C  C775  1  0.509210  0.395770  0.956370  1.0  -0.1027
  C  C776  1  0.477800  0.331300  0.867300  1.0  -0.0684
  C  C777  1  0.506600  0.317800  0.848660  1.0  -0.1321
  C  C778  1  0.503900  0.291000  0.809900  1.0  0.6327
  C  C779  1  0.438610  0.035100  0.498120  1.0  -0.2075
  C  C780  1  0.470000  0.062640  0.495700  1.0  -0.0056
  C  C781  1  0.471700  0.092580  0.529660  1.0  0.0706
  C  C782  1  0.437180  0.106130  0.548800  1.0  -0.1121
  C  C783  1  0.440220  0.131330  0.581890  1.0  -0.088
  C  C784  1  0.477800  0.142980  0.595850  1.0  0.0188
  C  C785  1  0.512250  0.129430  0.576700  1.0  -0.1024
  C  C786  1  0.509210  0.104230  0.543630  1.0  -0.1024
  C  C787  1  0.477800  0.168700  0.632700  1.0  -0.068
  C  C788  1  0.506600  0.182200  0.651340  1.0  -0.1308
  C  C789  1  0.503900  0.209000  0.690100  1.0  0.6321
  C  C790  1  0.061390  0.464900  0.498120  1.0  -0.2068
  C  C791  1  0.030000  0.437360  0.495700  1.0  -0.004
  C  C792  1  0.028300  0.407420  0.529660  1.0  0.071
  C  C793  1  0.062820  0.393870  0.548800  1.0  -0.1126
  C  C794  1  0.059780  0.368670  0.581890  1.0  -0.0839
  C  C795  1  0.022200  0.357020  0.595850  1.0  0.0187
  C  C796  1  0.987750  0.370570  0.576700  1.0  -0.1045
  C  C797  1  0.990790  0.395770  0.543630  1.0  -0.102
  C  C798  1  0.022200  0.331300  0.632700  1.0  -0.0675
  C  C799  1  0.993400  0.317800  0.651340  1.0  -0.1329
  C  C800  1  0.996100  0.291000  0.690100  1.0  0.6329
  C  C801  1  0.001880  0.061390  0.035100  1.0  -0.21
  C  C802  1  0.004300  0.030000  0.062640  1.0  -0.0042
  C  C803  1  0.970340  0.028300  0.092580  1.0  0.0704
  C  C804  1  0.951200  0.062820  0.106130  1.0  -0.116
  C  C805  1  0.918110  0.059780  0.131330  1.0  -0.0862
  C  C806  1  0.904150  0.022200  0.142980  1.0  0.0189
  C  C807  1  0.923300  0.987750  0.129430  1.0  -0.1092
  C  C808  1  0.956370  0.990790  0.104230  1.0  -0.1006
  C  C809  1  0.867300  0.022200  0.168700  1.0  -0.0677
  C  C810  1  0.848660  0.993400  0.182200  1.0  -0.1295
  C  C811  1  0.809900  0.996100  0.209000  1.0  0.6322
  C  C812  1  0.001880  0.438610  0.464900  1.0  -0.2094
  C  C813  1  0.004300  0.470000  0.437360  1.0  -0.0072
  C  C814  1  0.970340  0.471700  0.407420  1.0  0.0686
  C  C815  1  0.951200  0.437180  0.393870  1.0  -0.1168
  C  C816  1  0.918110  0.440220  0.368670  1.0  -0.0858
  C  C817  1  0.904150  0.477800  0.357020  1.0  0.015
  C  C818  1  0.923300  0.512250  0.370570  1.0  -0.1087
  C  C819  1  0.956370  0.509210  0.395770  1.0  -0.0998
  C  C820  1  0.867300  0.477800  0.331300  1.0  -0.0676
  C  C821  1  0.848660  0.506600  0.317800  1.0  -0.1281
  C  C822  1  0.809900  0.503900  0.291000  1.0  0.6317
  C  C823  1  0.498120  0.438610  0.035100  1.0  -0.2087
  C  C824  1  0.495700  0.470000  0.062640  1.0  -0.0015
  C  C825  1  0.529660  0.471700  0.092580  1.0  0.07
  C  C826  1  0.548800  0.437180  0.106130  1.0  -0.1182
  C  C827  1  0.581890  0.440220  0.131330  1.0  -0.0863
  C  C828  1  0.595850  0.477800  0.142980  1.0  0.0177
  C  C829  1  0.576700  0.512250  0.129430  1.0  -0.107
  C  C830  1  0.543630  0.509210  0.104230  1.0  -0.1011
  C  C831  1  0.632700  0.477800  0.168700  1.0  -0.0667
  C  C832  1  0.651340  0.506600  0.182200  1.0  -0.1314
  C  C833  1  0.690100  0.503900  0.209000  1.0  0.6334
  C  C834  1  0.498120  0.061390  0.464900  1.0  -0.2085
  C  C835  1  0.495700  0.030000  0.437360  1.0  -0.0067
  C  C836  1  0.529660  0.028300  0.407420  1.0  0.0694
  C  C837  1  0.548800  0.062820  0.393870  1.0  -0.116
  C  C838  1  0.581890  0.059780  0.368670  1.0  -0.0863
  C  C839  1  0.595850  0.022200  0.357020  1.0  0.0148
  C  C840  1  0.576700  0.987750  0.370570  1.0  -0.1068
  C  C841  1  0.543630  0.990790  0.395770  1.0  -0.0999
  C  C842  1  0.632700  0.022200  0.331300  1.0  -0.0675
  C  C843  1  0.651340  0.993400  0.317800  1.0  -0.1325
  C  C844  1  0.690100  0.996100  0.291000  1.0  0.6326
  C  C845  1  0.035100  0.001880  0.061390  1.0  -0.2081
  C  C846  1  0.062640  0.004300  0.030000  1.0  -0.0038
  C  C847  1  0.092580  0.970340  0.028300  1.0  0.0699
  C  C848  1  0.106130  0.951200  0.062820  1.0  -0.1069
  C  C849  1  0.131330  0.918110  0.059780  1.0  -0.0854
  C  C850  1  0.142980  0.904150  0.022200  1.0  0.0148
  C  C851  1  0.129430  0.923300  0.987750  1.0  -0.1023
  C  C852  1  0.104230  0.956370  0.990790  1.0  -0.0996
  C  C853  1  0.168700  0.867300  0.022200  1.0  -0.0676
  C  C854  1  0.182200  0.848660  0.993400  1.0  -0.1339
  C  C855  1  0.209000  0.809900  0.996100  1.0  0.6325
  C  C856  1  0.464900  0.001880  0.438610  1.0  -0.2055
  C  C857  1  0.437360  0.004300  0.470000  1.0  -0.0077
  C  C858  1  0.407420  0.970340  0.471700  1.0  0.0712
  C  C859  1  0.393870  0.951200  0.437180  1.0  -0.1095
  C  C860  1  0.368670  0.918110  0.440220  1.0  -0.0842
  C  C861  1  0.357020  0.904150  0.477800  1.0  0.0176
  C  C862  1  0.370570  0.923300  0.512250  1.0  -0.1002
  C  C863  1  0.395770  0.956370  0.509210  1.0  -0.101
  C  C864  1  0.331300  0.867300  0.477800  1.0  -0.0685
  C  C865  1  0.317800  0.848660  0.506600  1.0  -0.1317
  C  C866  1  0.291000  0.809900  0.503900  1.0  0.6322
  C  C867  1  0.035100  0.498120  0.438610  1.0  -0.2078
  C  C868  1  0.062640  0.495700  0.470000  1.0  -0.0059
  C  C869  1  0.092580  0.529660  0.471700  1.0  0.0703
  C  C870  1  0.106130  0.548800  0.437180  1.0  -0.108
  C  C871  1  0.131330  0.581890  0.440220  1.0  -0.0855
  C  C872  1  0.142980  0.595850  0.477800  1.0  0.015
  C  C873  1  0.129430  0.576700  0.512250  1.0  -0.1011
  C  C874  1  0.104230  0.543630  0.509210  1.0  -0.101
  C  C875  1  0.168700  0.632700  0.477800  1.0  -0.068
  C  C876  1  0.182200  0.651340  0.506600  1.0  -0.1342
  C  C877  1  0.209000  0.690100  0.503900  1.0  0.6324
  C  C878  1  0.464900  0.498120  0.061390  1.0  -0.2089
  C  C879  1  0.437360  0.495700  0.030000  1.0  -0.0042
  C  C880  1  0.407420  0.529660  0.028300  1.0  0.0697
  C  C881  1  0.393870  0.548800  0.062820  1.0  -0.1075
  C  C882  1  0.368670  0.581890  0.059780  1.0  -0.0863
  C  C883  1  0.357020  0.595850  0.022200  1.0  0.0185
  C  C884  1  0.370570  0.576700  0.987750  1.0  -0.0996
  C  C885  1  0.395770  0.543630  0.990790  1.0  -0.1006
  C  C886  1  0.331300  0.632700  0.022200  1.0  -0.0676
  C  C887  1  0.317800  0.651340  0.993400  1.0  -0.1314
  C  C888  1  0.291000  0.690100  0.996100  1.0  0.6325
  O  O889  1  0.038600  0.782270  0.202100  1.0  -0.5919
  O  O890  1  0.968880  0.783540  0.199990  1.0  -0.5517
  O  O891  1  0.461400  0.717730  0.202100  1.0  -0.5911
  O  O892  1  0.531120  0.716460  0.199990  1.0  -0.5502
  O  O893  1  0.461400  0.782270  0.297900  1.0  -0.5915
  O  O894  1  0.531120  0.783540  0.300010  1.0  -0.5502
  O  O895  1  0.038600  0.717730  0.297900  1.0  -0.5905
  O  O896  1  0.968880  0.716460  0.300010  1.0  -0.552
  O  O897  1  0.202100  0.038600  0.782270  1.0  -0.5874
  O  O898  1  0.199990  0.968880  0.783540  1.0  -0.5499
  O  O899  1  0.202100  0.461400  0.717730  1.0  -0.5906
  O  O900  1  0.199990  0.531120  0.716460  1.0  -0.5508
  O  O901  1  0.297900  0.461400  0.782270  1.0  -0.5894
  O  O902  1  0.300010  0.531120  0.783540  1.0  -0.5499
  O  O903  1  0.297900  0.038600  0.717730  1.0  -0.5875
  O  O904  1  0.300010  0.968880  0.716460  1.0  -0.5504
  O  O905  1  0.782270  0.202100  0.038600  1.0  -0.5868
  O  O906  1  0.783540  0.199990  0.968880  1.0  -0.5455
  O  O907  1  0.717730  0.202100  0.461400  1.0  -0.5861
  O  O908  1  0.716460  0.199990  0.531120  1.0  -0.5446
  O  O909  1  0.782270  0.297900  0.461400  1.0  -0.5868
  O  O910  1  0.783540  0.300010  0.531120  1.0  -0.5459
  O  O911  1  0.717730  0.297900  0.038600  1.0  -0.588
  O  O912  1  0.716460  0.300010  0.968880  1.0  -0.5452
  O  O913  1  0.217730  0.961400  0.702100  1.0  -0.5907
  O  O914  1  0.216460  0.031120  0.699990  1.0  -0.5494
  O  O915  1  0.282270  0.538600  0.702100  1.0  -0.5885
  O  O916  1  0.283540  0.468880  0.699990  1.0  -0.5502
  O  O917  1  0.217730  0.538600  0.797900  1.0  -0.5885
  O  O918  1  0.216460  0.468880  0.800010  1.0  -0.5495
  O  O919  1  0.282270  0.961400  0.797900  1.0  -0.59
  O  O920  1  0.283540  0.031120  0.800010  1.0  -0.55
  O  O921  1  0.961400  0.797900  0.282270  1.0  -0.5924
  O  O922  1  0.031120  0.800010  0.283540  1.0  -0.5491
  O  O923  1  0.538600  0.797900  0.217730  1.0  -0.5928
  O  O924  1  0.468880  0.800010  0.216460  1.0  -0.5514
  O  O925  1  0.538600  0.702100  0.282270  1.0  -0.5915
  O  O926  1  0.468880  0.699990  0.283540  1.0  -0.5513
  O  O927  1  0.961400  0.702100  0.217730  1.0  -0.5925
  O  O928  1  0.031120  0.699990  0.216460  1.0  -0.5493
  O  O929  1  0.797900  0.217730  0.538600  1.0  -0.5873
  O  O930  1  0.800010  0.216460  0.468880  1.0  -0.5465
  O  O931  1  0.797900  0.282270  0.961400  1.0  -0.588
  O  O932  1  0.800010  0.283540  0.031120  1.0  -0.5467
  O  O933  1  0.702100  0.217730  0.961400  1.0  -0.5872
  O  O934  1  0.699990  0.216460  0.031120  1.0  -0.5474
  O  O935  1  0.702100  0.282270  0.538600  1.0  -0.5894
  O  O936  1  0.699990  0.283540  0.468880  1.0  -0.5474
  O  O937  1  0.782270  0.038600  0.297900  1.0  -0.587
  O  O938  1  0.783540  0.968880  0.300010  1.0  -0.55
  O  O939  1  0.717730  0.461400  0.297900  1.0  -0.5901
  O  O940  1  0.716460  0.531120  0.300010  1.0  -0.5494
  O  O941  1  0.782270  0.461400  0.202100  1.0  -0.5893
  O  O942  1  0.783540  0.531120  0.199990  1.0  -0.5496
  O  O943  1  0.717730  0.038600  0.202100  1.0  -0.5877
  O  O944  1  0.716460  0.968880  0.199990  1.0  -0.5491
  O  O945  1  0.038600  0.202100  0.717730  1.0  -0.592
  O  O946  1  0.968880  0.199990  0.716460  1.0  -0.5507
  O  O947  1  0.461400  0.202100  0.782270  1.0  -0.5917
  O  O948  1  0.531120  0.199990  0.783540  1.0  -0.5492
  O  O949  1  0.461400  0.297900  0.717730  1.0  -0.591
  O  O950  1  0.531120  0.300010  0.716460  1.0  -0.5493
  O  O951  1  0.038600  0.297900  0.782270  1.0  -0.591
  O  O952  1  0.968880  0.300010  0.783540  1.0  -0.5511
  O  O953  1  0.202100  0.782270  0.461400  1.0  -0.5875
  O  O954  1  0.199990  0.783540  0.531120  1.0  -0.5472
  O  O955  1  0.202100  0.717730  0.038600  1.0  -0.5885
  O  O956  1  0.199990  0.716460  0.968880  1.0  -0.5465
  O  O957  1  0.297900  0.782270  0.038600  1.0  -0.5864
  O  O958  1  0.300010  0.783540  0.968880  1.0  -0.5468
  O  O959  1  0.297900  0.717730  0.461400  1.0  -0.586
  O  O960  1  0.300010  0.716460  0.531120  1.0  -0.5464
  O  O961  1  0.961400  0.217730  0.797900  1.0  -0.5925
  O  O962  1  0.031120  0.216460  0.800010  1.0  -0.55
  O  O963  1  0.538600  0.282270  0.797900  1.0  -0.5913
  O  O964  1  0.468880  0.283540  0.800010  1.0  -0.5527
  O  O965  1  0.538600  0.217730  0.702100  1.0  -0.5923
  O  O966  1  0.468880  0.216460  0.699990  1.0  -0.5522
  O  O967  1  0.961400  0.282270  0.702100  1.0  -0.5918
  O  O968  1  0.031120  0.283540  0.699990  1.0  -0.55
  O  O969  1  0.797900  0.961400  0.217730  1.0  -0.5904
  O  O970  1  0.800010  0.031120  0.216460  1.0  -0.5502
  O  O971  1  0.797900  0.538600  0.282270  1.0  -0.5879
  O  O972  1  0.800010  0.468880  0.283540  1.0  -0.5506
  O  O973  1  0.702100  0.538600  0.217730  1.0  -0.5886
  O  O974  1  0.699990  0.468880  0.216460  1.0  -0.5504
  O  O975  1  0.702100  0.961400  0.282270  1.0  -0.5914
  O  O976  1  0.699990  0.031120  0.283540  1.0  -0.5511
  O  O977  1  0.217730  0.797900  0.961400  1.0  -0.5881
  O  O978  1  0.216460  0.800010  0.031120  1.0  -0.5458
  O  O979  1  0.282270  0.797900  0.538600  1.0  -0.5873
  O  O980  1  0.283540  0.800010  0.468880  1.0  -0.546
  O  O981  1  0.217730  0.702100  0.538600  1.0  -0.5891
  O  O982  1  0.216460  0.699990  0.468880  1.0  -0.5453
  O  O983  1  0.282270  0.702100  0.961400  1.0  -0.5867
  O  O984  1  0.283540  0.699990  0.031120  1.0  -0.5455
