# generated using pymatgen
data_Cu2H8C17O10
_symmetry_space_group_name_H-M   'P 1'
_cell_length_a   23.56700000
_cell_length_b   23.56700000
_cell_length_c   46.99700000
_cell_angle_alpha   90.00000000
_cell_angle_beta   90.00000000
_cell_angle_gamma   90.00000000
_symmetry_Int_Tables_number   1
_chemical_formula_structural   Cu2H8C17O10
_chemical_formula_sum   'Cu48 H192 C408 O240'
_cell_volume   26102.29777253
_cell_formula_units_Z   24
loop_
 _symmetry_equiv_pos_site_id
 _symmetry_equiv_pos_as_xyz
  1  'x, y, z'
loop_
 _atom_site_type_symbol
 _atom_site_label
 _atom_site_symmetry_multiplicity
 _atom_site_fract_x
 _atom_site_fract_y
 _atom_site_fract_z
 _atom_site_occupancy
 _atom_site_charge
  Cu  Cu1  1  0.684590  0.960640  0.159050  1.0  0.9144
  Cu  Cu2  1  0.762730  0.969610  0.118890  1.0  0.9177
  Cu  Cu3  1  0.315410  0.039360  0.159050  1.0  0.9142
  Cu  Cu4  1  0.237270  0.030390  0.118890  1.0  0.9194
  Cu  Cu5  1  0.039360  0.684590  0.159050  1.0  0.9138
  Cu  Cu6  1  0.030390  0.762730  0.118890  1.0  0.9193
  Cu  Cu7  1  0.960640  0.315410  0.159050  1.0  0.9155
  Cu  Cu8  1  0.969610  0.237270  0.118890  1.0  0.9186
  Cu  Cu9  1  0.315410  0.960640  0.340950  1.0  0.9124
  Cu  Cu10  1  0.237270  0.969610  0.381110  1.0  0.9195
  Cu  Cu11  1  0.684590  0.039360  0.340950  1.0  0.9148
  Cu  Cu12  1  0.762730  0.030390  0.381110  1.0  0.9195
  Cu  Cu13  1  0.960640  0.684590  0.340950  1.0  0.9138
  Cu  Cu14  1  0.969610  0.762730  0.381110  1.0  0.9205
  Cu  Cu15  1  0.039360  0.315410  0.340950  1.0  0.9141
  Cu  Cu16  1  0.030390  0.237270  0.381110  1.0  0.9197
  Cu  Cu17  1  0.315410  0.039360  0.840950  1.0  0.9127
  Cu  Cu18  1  0.237270  0.030390  0.881110  1.0  0.9198
  Cu  Cu19  1  0.684590  0.960640  0.840950  1.0  0.9146
  Cu  Cu20  1  0.762730  0.969610  0.881110  1.0  0.9194
  Cu  Cu21  1  0.960640  0.315410  0.840950  1.0  0.9147
  Cu  Cu22  1  0.969610  0.237270  0.881110  1.0  0.9196
  Cu  Cu23  1  0.039360  0.684590  0.840950  1.0  0.9131
  Cu  Cu24  1  0.030390  0.762730  0.881110  1.0  0.9208
  Cu  Cu25  1  0.684590  0.039360  0.659050  1.0  0.9145
  Cu  Cu26  1  0.762730  0.030390  0.618890  1.0  0.9178
  Cu  Cu27  1  0.315410  0.960640  0.659050  1.0  0.914
  Cu  Cu28  1  0.237270  0.969610  0.618890  1.0  0.9195
  Cu  Cu29  1  0.039360  0.315410  0.659050  1.0  0.9151
  Cu  Cu30  1  0.030390  0.237270  0.618890  1.0  0.9189
  Cu  Cu31  1  0.960640  0.684590  0.659050  1.0  0.9139
  Cu  Cu32  1  0.969610  0.762730  0.618890  1.0  0.9188
  Cu  Cu33  1  0.786730  0.736270  0.000000  1.0  0.9043
  Cu  Cu34  1  0.716930  0.648810  0.000000  1.0  0.9037
  Cu  Cu35  1  0.213270  0.263730  0.000000  1.0  0.9045
  Cu  Cu36  1  0.283070  0.351190  0.000000  1.0  0.9031
  Cu  Cu37  1  0.263730  0.786730  0.000000  1.0  0.9042
  Cu  Cu38  1  0.351190  0.716930  0.000000  1.0  0.9039
  Cu  Cu39  1  0.736270  0.213270  0.000000  1.0  0.9042
  Cu  Cu40  1  0.648810  0.283070  0.000000  1.0  0.9041
  Cu  Cu41  1  0.213270  0.736270  0.500000  1.0  0.9044
  Cu  Cu42  1  0.283070  0.648810  0.500000  1.0  0.9035
  Cu  Cu43  1  0.786730  0.263730  0.500000  1.0  0.9036
  Cu  Cu44  1  0.716930  0.351190  0.500000  1.0  0.903
  Cu  Cu45  1  0.736270  0.786730  0.500000  1.0  0.9056
  Cu  Cu46  1  0.648810  0.716930  0.500000  1.0  0.9038
  Cu  Cu47  1  0.263730  0.213270  0.500000  1.0  0.9046
  Cu  Cu48  1  0.351190  0.283070  0.500000  1.0  0.9058
  H  H49  1  0.714300  0.828700  0.068400  1.0  0.1094
  H  H50  1  0.589800  0.714900  0.058200  1.0  0.1237
  H  H51  1  0.578900  0.831700  0.120300  1.0  0.1156
  H  H52  1  0.519700  0.755000  0.136400  1.0  0.1177
  H  H53  1  0.461000  0.740300  0.122700  1.0  0.1153
  H  H54  1  0.421200  0.904400  0.132500  1.0  0.1241
  H  H55  1  0.435500  0.781500  0.074000  1.0  0.115
  H  H56  1  0.314200  0.900800  0.066600  1.0  0.1158
  H  H57  1  0.901500  0.733800  0.212100  1.0  0.1268
  H  H58  1  0.762700  0.831500  0.210200  1.0  0.1175
  H  H59  1  0.882200  0.848900  0.150200  1.0  0.1122
  H  H60  1  0.751400  0.731000  0.265000  1.0  0.1106
  H  H61  1  0.285700  0.171300  0.068400  1.0  0.1092
  H  H62  1  0.410200  0.285100  0.058200  1.0  0.1234
  H  H63  1  0.421100  0.168300  0.120300  1.0  0.116
  H  H64  1  0.480300  0.245000  0.136400  1.0  0.1173
  H  H65  1  0.539000  0.259700  0.122700  1.0  0.1147
  H  H66  1  0.578800  0.095600  0.132500  1.0  0.1245
  H  H67  1  0.564500  0.218500  0.074000  1.0  0.1153
  H  H68  1  0.685800  0.099200  0.066600  1.0  0.1157
  H  H69  1  0.098500  0.266200  0.212100  1.0  0.1278
  H  H70  1  0.237300  0.168500  0.210200  1.0  0.118
  H  H71  1  0.117800  0.151100  0.150200  1.0  0.1121
  H  H72  1  0.248600  0.269000  0.265000  1.0  0.1103
  H  H73  1  0.171300  0.714300  0.068400  1.0  0.1095
  H  H74  1  0.285100  0.589800  0.058200  1.0  0.1232
  H  H75  1  0.168300  0.578900  0.120300  1.0  0.1156
  H  H76  1  0.245000  0.519700  0.136400  1.0  0.1179
  H  H77  1  0.259700  0.461000  0.122700  1.0  0.1159
  H  H78  1  0.095600  0.421200  0.132500  1.0  0.1241
  H  H79  1  0.218500  0.435500  0.074000  1.0  0.1138
  H  H80  1  0.099200  0.314200  0.066600  1.0  0.1153
  H  H81  1  0.266200  0.901500  0.212100  1.0  0.127
  H  H82  1  0.168500  0.762700  0.210200  1.0  0.1182
  H  H83  1  0.151100  0.882200  0.150200  1.0  0.1117
  H  H84  1  0.269000  0.751400  0.265000  1.0  0.1116
  H  H85  1  0.828700  0.285700  0.068400  1.0  0.1093
  H  H86  1  0.714900  0.410200  0.058200  1.0  0.1238
  H  H87  1  0.831700  0.421100  0.120300  1.0  0.1156
  H  H88  1  0.755000  0.480300  0.136400  1.0  0.118
  H  H89  1  0.740300  0.539000  0.122700  1.0  0.1173
  H  H90  1  0.904400  0.578800  0.132500  1.0  0.1239
  H  H91  1  0.781500  0.564500  0.074000  1.0  0.1145
  H  H92  1  0.900800  0.685800  0.066600  1.0  0.1152
  H  H93  1  0.733800  0.098500  0.212100  1.0  0.1277
  H  H94  1  0.831500  0.237300  0.210200  1.0  0.1184
  H  H95  1  0.848900  0.117800  0.150200  1.0  0.1115
  H  H96  1  0.731000  0.248600  0.265000  1.0  0.1125
  H  H97  1  0.285700  0.828700  0.431600  1.0  0.109
  H  H98  1  0.410200  0.714900  0.441800  1.0  0.1238
  H  H99  1  0.421100  0.831700  0.379700  1.0  0.115
  H  H100  1  0.480300  0.755000  0.363600  1.0  0.1157
  H  H101  1  0.539000  0.740300  0.377300  1.0  0.1154
  H  H102  1  0.578800  0.904400  0.367500  1.0  0.1244
  H  H103  1  0.564500  0.781500  0.426000  1.0  0.1147
  H  H104  1  0.685800  0.900800  0.433400  1.0  0.1157
  H  H105  1  0.098500  0.733800  0.287900  1.0  0.1266
  H  H106  1  0.237300  0.831500  0.289800  1.0  0.1183
  H  H107  1  0.117800  0.848900  0.349800  1.0  0.1123
  H  H108  1  0.248600  0.731000  0.235000  1.0  0.1087
  H  H109  1  0.714300  0.171300  0.431600  1.0  0.1092
  H  H110  1  0.589800  0.285100  0.441800  1.0  0.1238
  H  H111  1  0.578900  0.168300  0.379700  1.0  0.1152
  H  H112  1  0.519700  0.245000  0.363600  1.0  0.1154
  H  H113  1  0.461000  0.259700  0.377300  1.0  0.1149
  H  H114  1  0.421200  0.095600  0.367500  1.0  0.1242
  H  H115  1  0.435500  0.218500  0.426000  1.0  0.1148
  H  H116  1  0.314200  0.099200  0.433400  1.0  0.116
  H  H117  1  0.901500  0.266200  0.287900  1.0  0.1266
  H  H118  1  0.762700  0.168500  0.289800  1.0  0.1177
  H  H119  1  0.882200  0.151100  0.349800  1.0  0.1124
  H  H120  1  0.751400  0.269000  0.235000  1.0  0.11
  H  H121  1  0.828700  0.714300  0.431600  1.0  0.1095
  H  H122  1  0.714900  0.589800  0.441800  1.0  0.1241
  H  H123  1  0.831700  0.578900  0.379700  1.0  0.115
  H  H124  1  0.755000  0.519700  0.363600  1.0  0.1161
  H  H125  1  0.740300  0.461000  0.377300  1.0  0.1164
  H  H126  1  0.904400  0.421200  0.367500  1.0  0.1239
  H  H127  1  0.781500  0.435500  0.426000  1.0  0.1139
  H  H128  1  0.900800  0.314200  0.433400  1.0  0.1152
  H  H129  1  0.733800  0.901500  0.287900  1.0  0.1274
  H  H130  1  0.831500  0.762700  0.289800  1.0  0.1181
  H  H131  1  0.848900  0.882200  0.349800  1.0  0.1119
  H  H132  1  0.731000  0.751400  0.235000  1.0  0.1117
  H  H133  1  0.171300  0.285700  0.431600  1.0  0.109
  H  H134  1  0.285100  0.410200  0.441800  1.0  0.1235
  H  H135  1  0.168300  0.421100  0.379700  1.0  0.1149
  H  H136  1  0.245000  0.480300  0.363600  1.0  0.1169
  H  H137  1  0.259700  0.539000  0.377300  1.0  0.117
  H  H138  1  0.095600  0.578800  0.367500  1.0  0.1241
  H  H139  1  0.218500  0.564500  0.426000  1.0  0.1137
  H  H140  1  0.099200  0.685800  0.433400  1.0  0.1155
  H  H141  1  0.266200  0.098500  0.287900  1.0  0.1265
  H  H142  1  0.168500  0.237300  0.289800  1.0  0.1185
  H  H143  1  0.151100  0.117800  0.349800  1.0  0.1119
  H  H144  1  0.269000  0.248600  0.235000  1.0  0.1115
  H  H145  1  0.285700  0.171300  0.931600  1.0  0.109
  H  H146  1  0.410200  0.285100  0.941800  1.0  0.1234
  H  H147  1  0.421100  0.168300  0.879700  1.0  0.1154
  H  H148  1  0.480300  0.245000  0.863600  1.0  0.1157
  H  H149  1  0.539000  0.259700  0.877300  1.0  0.1152
  H  H150  1  0.578800  0.095600  0.867500  1.0  0.1245
  H  H151  1  0.564500  0.218500  0.926000  1.0  0.115
  H  H152  1  0.685800  0.099200  0.933400  1.0  0.1157
  H  H153  1  0.098500  0.266200  0.787900  1.0  0.1276
  H  H154  1  0.237300  0.168500  0.789800  1.0  0.1181
  H  H155  1  0.117800  0.151100  0.849800  1.0  0.1125
  H  H156  1  0.248600  0.269000  0.735000  1.0  0.1098
  H  H157  1  0.714300  0.828700  0.931600  1.0  0.1092
  H  H158  1  0.589800  0.714900  0.941800  1.0  0.1241
  H  H159  1  0.578900  0.831700  0.879700  1.0  0.115
  H  H160  1  0.519700  0.755000  0.863600  1.0  0.1154
  H  H161  1  0.461000  0.740300  0.877300  1.0  0.1146
  H  H162  1  0.421200  0.904400  0.867500  1.0  0.1241
  H  H163  1  0.435500  0.781500  0.926000  1.0  0.1146
  H  H164  1  0.314200  0.900800  0.933400  1.0  0.1158
  H  H165  1  0.901500  0.733800  0.787900  1.0  0.1265
  H  H166  1  0.762700  0.831500  0.789800  1.0  0.1177
  H  H167  1  0.882200  0.848900  0.849800  1.0  0.1124
  H  H168  1  0.751400  0.731000  0.735000  1.0  0.1095
  H  H169  1  0.828700  0.285700  0.931600  1.0  0.1091
  H  H170  1  0.714900  0.410200  0.941800  1.0  0.1239
  H  H171  1  0.831700  0.421100  0.879700  1.0  0.1148
  H  H172  1  0.755000  0.480300  0.863600  1.0  0.1158
  H  H173  1  0.740300  0.539000  0.877300  1.0  0.1166
  H  H174  1  0.904400  0.578800  0.867500  1.0  0.1238
  H  H175  1  0.781500  0.564500  0.926000  1.0  0.1143
  H  H176  1  0.900800  0.685800  0.933400  1.0  0.1151
  H  H177  1  0.733800  0.098500  0.787900  1.0  0.1271
  H  H178  1  0.831500  0.237300  0.789800  1.0  0.1185
  H  H179  1  0.848900  0.117800  0.849800  1.0  0.1116
  H  H180  1  0.731000  0.248600  0.735000  1.0  0.1119
  H  H181  1  0.171300  0.714300  0.931600  1.0  0.1093
  H  H182  1  0.285100  0.589800  0.941800  1.0  0.1236
  H  H183  1  0.168300  0.578900  0.879700  1.0  0.1151
  H  H184  1  0.245000  0.519700  0.863600  1.0  0.117
  H  H185  1  0.259700  0.461000  0.877300  1.0  0.1166
  H  H186  1  0.095600  0.421200  0.867500  1.0  0.1244
  H  H187  1  0.218500  0.435500  0.926000  1.0  0.1135
  H  H188  1  0.099200  0.314200  0.933400  1.0  0.1154
  H  H189  1  0.266200  0.901500  0.787900  1.0  0.1267
  H  H190  1  0.168500  0.762700  0.789800  1.0  0.1182
  H  H191  1  0.151100  0.882200  0.849800  1.0  0.112
  H  H192  1  0.269000  0.751400  0.735000  1.0  0.1117
  H  H193  1  0.714300  0.171300  0.568400  1.0  0.1091
  H  H194  1  0.589800  0.285100  0.558200  1.0  0.1236
  H  H195  1  0.578900  0.168300  0.620300  1.0  0.1158
  H  H196  1  0.519700  0.245000  0.636400  1.0  0.1175
  H  H197  1  0.461000  0.259700  0.622700  1.0  0.1155
  H  H198  1  0.421200  0.095600  0.632500  1.0  0.1242
  H  H199  1  0.435500  0.218500  0.574000  1.0  0.1153
  H  H200  1  0.314200  0.099200  0.566600  1.0  0.116
  H  H201  1  0.901500  0.266200  0.712100  1.0  0.1268
  H  H202  1  0.762700  0.168500  0.710200  1.0  0.1177
  H  H203  1  0.882200  0.151100  0.650200  1.0  0.1122
  H  H204  1  0.751400  0.269000  0.765000  1.0  0.1102
  H  H205  1  0.285700  0.828700  0.568400  1.0  0.1093
  H  H206  1  0.410200  0.714900  0.558200  1.0  0.1236
  H  H207  1  0.421100  0.831700  0.620300  1.0  0.1158
  H  H208  1  0.480300  0.755000  0.636400  1.0  0.1174
  H  H209  1  0.539000  0.740300  0.622700  1.0  0.1147
  H  H210  1  0.578800  0.904400  0.632500  1.0  0.1242
  H  H211  1  0.564500  0.781500  0.574000  1.0  0.115
  H  H212  1  0.685800  0.900800  0.566600  1.0  0.1157
  H  H213  1  0.098500  0.733800  0.712100  1.0  0.1271
  H  H214  1  0.237300  0.831500  0.710200  1.0  0.1181
  H  H215  1  0.117800  0.848900  0.650200  1.0  0.1121
  H  H216  1  0.248600  0.731000  0.765000  1.0  0.1093
  H  H217  1  0.171300  0.285700  0.568400  1.0  0.1091
  H  H218  1  0.285100  0.410200  0.558200  1.0  0.1234
  H  H219  1  0.168300  0.421100  0.620300  1.0  0.1156
  H  H220  1  0.245000  0.480300  0.636400  1.0  0.1176
  H  H221  1  0.259700  0.539000  0.622700  1.0  0.1163
  H  H222  1  0.095600  0.578800  0.632500  1.0  0.124
  H  H223  1  0.218500  0.564500  0.574000  1.0  0.1139
  H  H224  1  0.099200  0.685800  0.566600  1.0  0.1154
  H  H225  1  0.266200  0.098500  0.712100  1.0  0.127
  H  H226  1  0.168500  0.237300  0.710200  1.0  0.1184
  H  H227  1  0.151100  0.117800  0.650200  1.0  0.1115
  H  H228  1  0.269000  0.248600  0.765000  1.0  0.111
  H  H229  1  0.828700  0.714300  0.568400  1.0  0.1095
  H  H230  1  0.714900  0.589800  0.558200  1.0  0.1237
  H  H231  1  0.831700  0.578900  0.620300  1.0  0.1156
  H  H232  1  0.755000  0.519700  0.636400  1.0  0.1179
  H  H233  1  0.740300  0.461000  0.622700  1.0  0.1169
  H  H234  1  0.904400  0.421200  0.632500  1.0  0.1241
  H  H235  1  0.781500  0.435500  0.574000  1.0  0.1143
  H  H236  1  0.900800  0.314200  0.566600  1.0  0.1154
  H  H237  1  0.733800  0.901500  0.712100  1.0  0.1277
  H  H238  1  0.831500  0.762700  0.710200  1.0  0.1181
  H  H239  1  0.848900  0.882200  0.650200  1.0  0.1118
  H  H240  1  0.731000  0.751400  0.765000  1.0  0.1124
  C  C241  1  0.676280  0.885770  0.112640  1.0  0.6928
  C  C242  1  0.651340  0.837000  0.096730  1.0  -0.1467
  C  C243  1  0.679890  0.813280  0.074300  1.0  0.0255
  C  C244  1  0.657680  0.766410  0.060320  1.0  -0.1593
  C  C245  1  0.691760  0.737620  0.037600  1.0  0.6735
  C  C246  1  0.605170  0.745810  0.067870  1.0  -0.1068
  C  C247  1  0.574880  0.771300  0.090010  1.0  0.2697
  C  C248  1  0.598160  0.815820  0.104950  1.0  -0.1335
  C  C249  1  0.494600  0.763600  0.120640  1.0  0.1442
  C  C250  1  0.332270  0.959820  0.113930  1.0  0.6793
  C  C251  1  0.363010  0.909830  0.101220  1.0  -0.1619
  C  C252  1  0.408510  0.887040  0.115900  1.0  -0.1191
  C  C253  1  0.434820  0.839140  0.106170  1.0  0.2781
  C  C254  1  0.417130  0.813520  0.080930  1.0  -0.1591
  C  C255  1  0.371270  0.837130  0.066390  1.0  -0.1504
  C  C256  1  0.349670  0.808150  0.039790  1.0  0.7089
  C  C257  1  0.344540  0.885180  0.076490  1.0  0.0294
  C  C258  1  0.953350  0.767400  0.165020  1.0  0.6952
  C  C259  1  0.899940  0.787960  0.178940  1.0  -0.1698
  C  C260  1  0.880200  0.762270  0.203460  1.0  -0.1054
  C  C261  1  0.829380  0.778610  0.215060  1.0  0.2707
  C  C262  1  0.797320  0.820760  0.202420  1.0  -0.1536
  C  C263  1  0.868600  0.830840  0.166460  1.0  0.0452
  C  C264  1  0.817440  0.846840  0.177930  1.0  -0.1379
  C  C265  1  0.782860  0.892300  0.164030  1.0  0.6983
  C  C266  1  0.323720  0.114230  0.112640  1.0  0.6931
  C  C267  1  0.348660  0.163000  0.096730  1.0  -0.1467
  C  C268  1  0.320110  0.186720  0.074300  1.0  0.0251
  C  C269  1  0.342320  0.233590  0.060320  1.0  -0.1591
  C  C270  1  0.308240  0.262380  0.037600  1.0  0.6737
  C  C271  1  0.394830  0.254190  0.067870  1.0  -0.1066
  C  C272  1  0.425120  0.228700  0.090010  1.0  0.2699
  C  C273  1  0.401840  0.184180  0.104950  1.0  -0.1333
  C  C274  1  0.505400  0.236400  0.120640  1.0  0.1419
  C  C275  1  0.667730  0.040180  0.113930  1.0  0.68
  C  C276  1  0.636990  0.090170  0.101220  1.0  -0.1618
  C  C277  1  0.591490  0.112960  0.115900  1.0  -0.1195
  C  C278  1  0.565180  0.160860  0.106170  1.0  0.2787
  C  C279  1  0.582870  0.186480  0.080930  1.0  -0.1611
  C  C280  1  0.628730  0.162870  0.066390  1.0  -0.1498
  C  C281  1  0.650330  0.191850  0.039790  1.0  0.7085
  C  C282  1  0.655460  0.114820  0.076490  1.0  0.0287
  C  C283  1  0.046650  0.232600  0.165020  1.0  0.6948
  C  C284  1  0.100060  0.212040  0.178940  1.0  -0.1704
  C  C285  1  0.119800  0.237730  0.203460  1.0  -0.1066
  C  C286  1  0.170620  0.221390  0.215060  1.0  0.2695
  C  C287  1  0.202680  0.179240  0.202420  1.0  -0.151
  C  C288  1  0.131400  0.169160  0.166460  1.0  0.0461
  C  C289  1  0.182560  0.153160  0.177930  1.0  -0.1378
  C  C290  1  0.217140  0.107700  0.164030  1.0  0.6976
  C  C291  1  0.114230  0.676280  0.112640  1.0  0.6924
  C  C292  1  0.163000  0.651340  0.096730  1.0  -0.1463
  C  C293  1  0.186720  0.679890  0.074300  1.0  0.0271
  C  C294  1  0.233590  0.657680  0.060320  1.0  -0.159
  C  C295  1  0.262380  0.691760  0.037600  1.0  0.6743
  C  C296  1  0.254190  0.605170  0.067870  1.0  -0.1054
  C  C297  1  0.228700  0.574880  0.090010  1.0  0.2679
  C  C298  1  0.184180  0.598160  0.104950  1.0  -0.1351
  C  C299  1  0.236400  0.494600  0.120640  1.0  0.142
  C  C300  1  0.040180  0.332270  0.113930  1.0  0.6795
  C  C301  1  0.090170  0.363010  0.101220  1.0  -0.1622
  C  C302  1  0.112960  0.408510  0.115900  1.0  -0.1192
  C  C303  1  0.160860  0.434820  0.106170  1.0  0.2765
  C  C304  1  0.186480  0.417130  0.080930  1.0  -0.1611
  C  C305  1  0.162870  0.371270  0.066390  1.0  -0.1525
  C  C306  1  0.191850  0.349670  0.039790  1.0  0.7077
  C  C307  1  0.114820  0.344540  0.076490  1.0  0.029
  C  C308  1  0.232600  0.953350  0.165020  1.0  0.6954
  C  C309  1  0.212040  0.899940  0.178940  1.0  -0.1686
  C  C310  1  0.237730  0.880200  0.203460  1.0  -0.1058
  C  C311  1  0.221390  0.829380  0.215060  1.0  0.2702
  C  C312  1  0.179240  0.797320  0.202420  1.0  -0.1516
  C  C313  1  0.169160  0.868600  0.166460  1.0  0.0463
  C  C314  1  0.153160  0.817440  0.177930  1.0  -0.1398
  C  C315  1  0.107700  0.782860  0.164030  1.0  0.6987
  C  C316  1  0.885770  0.323720  0.112640  1.0  0.6923
  C  C317  1  0.837000  0.348660  0.096730  1.0  -0.1468
  C  C318  1  0.813280  0.320110  0.074300  1.0  0.0272
  C  C319  1  0.766410  0.342320  0.060320  1.0  -0.1592
  C  C320  1  0.737620  0.308240  0.037600  1.0  0.6738
  C  C321  1  0.745810  0.394830  0.067870  1.0  -0.1056
  C  C322  1  0.771300  0.425120  0.090010  1.0  0.267
  C  C323  1  0.815820  0.401840  0.104950  1.0  -0.1348
  C  C324  1  0.763600  0.505400  0.120640  1.0  0.1446
  C  C325  1  0.959820  0.667730  0.113930  1.0  0.6795
  C  C326  1  0.909830  0.636990  0.101220  1.0  -0.1618
  C  C327  1  0.887040  0.591490  0.115900  1.0  -0.1188
  C  C328  1  0.839140  0.565180  0.106170  1.0  0.2778
  C  C329  1  0.813520  0.582870  0.080930  1.0  -0.1616
  C  C330  1  0.837130  0.628730  0.066390  1.0  -0.152
  C  C331  1  0.808150  0.650330  0.039790  1.0  0.7082
  C  C332  1  0.885180  0.655460  0.076490  1.0  0.0303
  C  C333  1  0.767400  0.046650  0.165020  1.0  0.6955
  C  C334  1  0.787960  0.100060  0.178940  1.0  -0.1698
  C  C335  1  0.762270  0.119800  0.203460  1.0  -0.1048
  C  C336  1  0.778610  0.170620  0.215060  1.0  0.2699
  C  C337  1  0.820760  0.202680  0.202420  1.0  -0.1502
  C  C338  1  0.830840  0.131400  0.166460  1.0  0.0454
  C  C339  1  0.846840  0.182560  0.177930  1.0  -0.1389
  C  C340  1  0.892300  0.217140  0.164030  1.0  0.6988
  C  C341  1  0.323720  0.885770  0.387360  1.0  0.693
  C  C342  1  0.348660  0.837000  0.403270  1.0  -0.1467
  C  C343  1  0.320110  0.813280  0.425700  1.0  0.0251
  C  C344  1  0.342320  0.766410  0.439680  1.0  -0.1596
  C  C345  1  0.308240  0.737620  0.462400  1.0  0.6736
  C  C346  1  0.394830  0.745810  0.432130  1.0  -0.1066
  C  C347  1  0.425120  0.771300  0.409990  1.0  0.2705
  C  C348  1  0.401840  0.815820  0.395050  1.0  -0.1326
  C  C349  1  0.505400  0.763600  0.379360  1.0  0.1433
  C  C350  1  0.667730  0.959820  0.386070  1.0  0.6802
  C  C351  1  0.636990  0.909830  0.398780  1.0  -0.1612
  C  C352  1  0.591490  0.887040  0.384100  1.0  -0.1209
  C  C353  1  0.565180  0.839140  0.393830  1.0  0.2773
  C  C354  1  0.582870  0.813520  0.419070  1.0  -0.1617
  C  C355  1  0.628730  0.837130  0.433610  1.0  -0.1515
  C  C356  1  0.650330  0.808150  0.460210  1.0  0.709
  C  C357  1  0.655460  0.885180  0.423510  1.0  0.0288
  C  C358  1  0.046650  0.767400  0.334980  1.0  0.6944
  C  C359  1  0.100060  0.787960  0.321060  1.0  -0.1709
  C  C360  1  0.119800  0.762270  0.296540  1.0  -0.1043
  C  C361  1  0.170620  0.778610  0.284940  1.0  0.2697
  C  C362  1  0.202680  0.820760  0.297580  1.0  -0.1517
  C  C363  1  0.131400  0.830840  0.333540  1.0  0.0453
  C  C364  1  0.182560  0.846840  0.322070  1.0  -0.1374
  C  C365  1  0.217140  0.892300  0.335970  1.0  0.6978
  C  C366  1  0.676280  0.114230  0.387360  1.0  0.6928
  C  C367  1  0.651340  0.163000  0.403270  1.0  -0.1469
  C  C368  1  0.679890  0.186720  0.425700  1.0  0.0257
  C  C369  1  0.657680  0.233590  0.439680  1.0  -0.1598
  C  C370  1  0.691760  0.262380  0.462400  1.0  0.6737
  C  C371  1  0.605170  0.254190  0.432130  1.0  -0.1069
  C  C372  1  0.574880  0.228700  0.409990  1.0  0.2702
  C  C373  1  0.598160  0.184180  0.395050  1.0  -0.1329
  C  C374  1  0.494600  0.236400  0.379360  1.0  0.1453
  C  C375  1  0.332270  0.040180  0.386070  1.0  0.6793
  C  C376  1  0.363010  0.090170  0.398780  1.0  -0.1622
  C  C377  1  0.408510  0.112960  0.384100  1.0  -0.121
  C  C378  1  0.434820  0.160860  0.393830  1.0  0.2777
  C  C379  1  0.417130  0.186480  0.419070  1.0  -0.1609
  C  C380  1  0.371270  0.162870  0.433610  1.0  -0.1518
  C  C381  1  0.349670  0.191850  0.460210  1.0  0.7093
  C  C382  1  0.344540  0.114820  0.423510  1.0  0.0291
  C  C383  1  0.953350  0.232600  0.334980  1.0  0.6951
  C  C384  1  0.899940  0.212040  0.321060  1.0  -0.1702
  C  C385  1  0.880200  0.237730  0.296540  1.0  -0.1053
  C  C386  1  0.829380  0.221390  0.284940  1.0  0.2706
  C  C387  1  0.797320  0.179240  0.297580  1.0  -0.1532
  C  C388  1  0.868600  0.169160  0.333540  1.0  0.0456
  C  C389  1  0.817440  0.153160  0.322070  1.0  -0.1385
  C  C390  1  0.782860  0.107700  0.335970  1.0  0.6983
  C  C391  1  0.885770  0.676280  0.387360  1.0  0.6923
  C  C392  1  0.837000  0.651340  0.403270  1.0  -0.1471
  C  C393  1  0.813280  0.679890  0.425700  1.0  0.0262
  C  C394  1  0.766410  0.657680  0.439680  1.0  -0.1596
  C  C395  1  0.737620  0.691760  0.462400  1.0  0.6741
  C  C396  1  0.745810  0.605170  0.432130  1.0  -0.105
  C  C397  1  0.771300  0.574880  0.409990  1.0  0.2674
  C  C398  1  0.815820  0.598160  0.395050  1.0  -0.1341
  C  C399  1  0.763600  0.494600  0.379360  1.0  0.1472
  C  C400  1  0.959820  0.332270  0.386070  1.0  0.6795
  C  C401  1  0.909830  0.363010  0.398780  1.0  -0.1617
  C  C402  1  0.887040  0.408510  0.384100  1.0  -0.1217
  C  C403  1  0.839140  0.434820  0.393830  1.0  0.277
  C  C404  1  0.813520  0.417130  0.419070  1.0  -0.1629
  C  C405  1  0.837130  0.371270  0.433610  1.0  -0.1536
  C  C406  1  0.808150  0.349670  0.460210  1.0  0.7089
  C  C407  1  0.885180  0.344540  0.423510  1.0  0.0297
  C  C408  1  0.767400  0.953350  0.334980  1.0  0.6952
  C  C409  1  0.787960  0.899940  0.321060  1.0  -0.1697
  C  C410  1  0.762270  0.880200  0.296540  1.0  -0.1047
  C  C411  1  0.778610  0.829380  0.284940  1.0  0.2696
  C  C412  1  0.820760  0.797320  0.297580  1.0  -0.1504
  C  C413  1  0.830840  0.868600  0.333540  1.0  0.0448
  C  C414  1  0.846840  0.817440  0.322070  1.0  -0.1391
  C  C415  1  0.892300  0.782860  0.335970  1.0  0.6987
  C  C416  1  0.114230  0.323720  0.387360  1.0  0.6921
  C  C417  1  0.163000  0.348660  0.403270  1.0  -0.1468
  C  C418  1  0.186720  0.320110  0.425700  1.0  0.0271
  C  C419  1  0.233590  0.342320  0.439680  1.0  -0.1595
  C  C420  1  0.262380  0.308240  0.462400  1.0  0.6742
  C  C421  1  0.254190  0.394830  0.432130  1.0  -0.1051
  C  C422  1  0.228700  0.425120  0.409990  1.0  0.2682
  C  C423  1  0.184180  0.401840  0.395050  1.0  -0.1343
  C  C424  1  0.236400  0.505400  0.379360  1.0  0.1432
  C  C425  1  0.040180  0.667730  0.386070  1.0  0.6792
  C  C426  1  0.090170  0.636990  0.398780  1.0  -0.1625
  C  C427  1  0.112960  0.591490  0.384100  1.0  -0.1198
  C  C428  1  0.160860  0.565180  0.393830  1.0  0.2758
  C  C429  1  0.186480  0.582870  0.419070  1.0  -0.1612
  C  C430  1  0.162870  0.628730  0.433610  1.0  -0.1544
  C  C431  1  0.191850  0.650330  0.460210  1.0  0.7079
  C  C432  1  0.114820  0.655460  0.423510  1.0  0.0299
  C  C433  1  0.232600  0.046650  0.334980  1.0  0.6949
  C  C434  1  0.212040  0.100060  0.321060  1.0  -0.1698
  C  C435  1  0.237730  0.119800  0.296540  1.0  -0.1052
  C  C436  1  0.221390  0.170620  0.284940  1.0  0.2711
  C  C437  1  0.179240  0.202680  0.297580  1.0  -0.1513
  C  C438  1  0.169160  0.131400  0.333540  1.0  0.0454
  C  C439  1  0.153160  0.182560  0.322070  1.0  -0.1398
  C  C440  1  0.107700  0.217140  0.335970  1.0  0.6994
  C  C441  1  0.323720  0.114230  0.887360  1.0  0.6932
  C  C442  1  0.348660  0.163000  0.903270  1.0  -0.1471
  C  C443  1  0.320110  0.186720  0.925700  1.0  0.0256
  C  C444  1  0.342320  0.233590  0.939680  1.0  -0.1597
  C  C445  1  0.308240  0.262380  0.962400  1.0  0.6738
  C  C446  1  0.394830  0.254190  0.932130  1.0  -0.1065
  C  C447  1  0.425120  0.228700  0.909990  1.0  0.2705
  C  C448  1  0.401840  0.184180  0.895050  1.0  -0.1327
  C  C449  1  0.505400  0.236400  0.879360  1.0  0.1429
  C  C450  1  0.667730  0.040180  0.886070  1.0  0.68
  C  C451  1  0.636990  0.090170  0.898780  1.0  -0.1617
  C  C452  1  0.591490  0.112960  0.884100  1.0  -0.1206
  C  C453  1  0.565180  0.160860  0.893830  1.0  0.2774
  C  C454  1  0.582870  0.186480  0.919070  1.0  -0.1619
  C  C455  1  0.628730  0.162870  0.933610  1.0  -0.1516
  C  C456  1  0.650330  0.191850  0.960210  1.0  0.7091
  C  C457  1  0.655460  0.114820  0.923510  1.0  0.0288
  C  C458  1  0.046650  0.232600  0.834980  1.0  0.6947
  C  C459  1  0.100060  0.212040  0.821060  1.0  -0.171
  C  C460  1  0.119800  0.237730  0.796540  1.0  -0.1057
  C  C461  1  0.170620  0.221390  0.784940  1.0  0.2695
  C  C462  1  0.202680  0.179240  0.797580  1.0  -0.1511
  C  C463  1  0.131400  0.169160  0.833540  1.0  0.0453
  C  C464  1  0.182560  0.153160  0.822070  1.0  -0.1378
  C  C465  1  0.217140  0.107700  0.835970  1.0  0.6979
  C  C466  1  0.676280  0.885770  0.887360  1.0  0.6927
  C  C467  1  0.651340  0.837000  0.903270  1.0  -0.1469
  C  C468  1  0.679890  0.813280  0.925700  1.0  0.0252
  C  C469  1  0.657680  0.766410  0.939680  1.0  -0.1595
  C  C470  1  0.691760  0.737620  0.962400  1.0  0.6735
  C  C471  1  0.605170  0.745810  0.932130  1.0  -0.1062
  C  C472  1  0.574880  0.771300  0.909990  1.0  0.2702
  C  C473  1  0.598160  0.815820  0.895050  1.0  -0.1327
  C  C474  1  0.494600  0.763600  0.879360  1.0  0.1466
  C  C475  1  0.332270  0.959820  0.886070  1.0  0.6793
  C  C476  1  0.363010  0.909830  0.898780  1.0  -0.1617
  C  C477  1  0.408510  0.887040  0.884100  1.0  -0.1217
  C  C478  1  0.434820  0.839140  0.893830  1.0  0.2776
  C  C479  1  0.417130  0.813520  0.919070  1.0  -0.1605
  C  C480  1  0.371270  0.837130  0.933610  1.0  -0.1518
  C  C481  1  0.349670  0.808150  0.960210  1.0  0.7093
  C  C482  1  0.344540  0.885180  0.923510  1.0  0.0287
  C  C483  1  0.953350  0.767400  0.834980  1.0  0.6949
  C  C484  1  0.899940  0.787960  0.821060  1.0  -0.1703
  C  C485  1  0.880200  0.762270  0.796540  1.0  -0.105
  C  C486  1  0.829380  0.778610  0.784940  1.0  0.2708
  C  C487  1  0.797320  0.820760  0.797580  1.0  -0.1537
  C  C488  1  0.868600  0.830840  0.833540  1.0  0.0453
  C  C489  1  0.817440  0.846840  0.822070  1.0  -0.1381
  C  C490  1  0.782860  0.892300  0.835970  1.0  0.6985
  C  C491  1  0.885770  0.323720  0.887360  1.0  0.6922
  C  C492  1  0.837000  0.348660  0.903270  1.0  -0.147
  C  C493  1  0.813280  0.320110  0.925700  1.0  0.0273
  C  C494  1  0.766410  0.342320  0.939680  1.0  -0.1595
  C  C495  1  0.737620  0.308240  0.962400  1.0  0.6739
  C  C496  1  0.745810  0.394830  0.932130  1.0  -0.1058
  C  C497  1  0.771300  0.425120  0.909990  1.0  0.2675
  C  C498  1  0.815820  0.401840  0.895050  1.0  -0.1347
  C  C499  1  0.763600  0.505400  0.879360  1.0  0.1464
  C  C500  1  0.959820  0.667730  0.886070  1.0  0.6795
  C  C501  1  0.909830  0.636990  0.898780  1.0  -0.1618
  C  C502  1  0.887040  0.591490  0.884100  1.0  -0.121
  C  C503  1  0.839140  0.565180  0.893830  1.0  0.2768
  C  C504  1  0.813520  0.582870  0.919070  1.0  -0.1629
  C  C505  1  0.837130  0.628730  0.933610  1.0  -0.1536
  C  C506  1  0.808150  0.650330  0.960210  1.0  0.7088
  C  C507  1  0.885180  0.655460  0.923510  1.0  0.0307
  C  C508  1  0.767400  0.046650  0.834980  1.0  0.6952
  C  C509  1  0.787960  0.100060  0.821060  1.0  -0.1701
  C  C510  1  0.762270  0.119800  0.796540  1.0  -0.1043
  C  C511  1  0.778610  0.170620  0.784940  1.0  0.2701
  C  C512  1  0.820760  0.202680  0.797580  1.0  -0.1505
  C  C513  1  0.830840  0.131400  0.833540  1.0  0.0455
  C  C514  1  0.846840  0.182560  0.822070  1.0  -0.1392
  C  C515  1  0.892300  0.217140  0.835970  1.0  0.6991
  C  C516  1  0.114230  0.676280  0.887360  1.0  0.6923
  C  C517  1  0.163000  0.651340  0.903270  1.0  -0.1466
  C  C518  1  0.186720  0.679890  0.925700  1.0  0.0265
  C  C519  1  0.233590  0.657680  0.939680  1.0  -0.1597
  C  C520  1  0.262380  0.691760  0.962400  1.0  0.6744
  C  C521  1  0.254190  0.605170  0.932130  1.0  -0.1046
  C  C522  1  0.228700  0.574880  0.909990  1.0  0.2683
  C  C523  1  0.184180  0.598160  0.895050  1.0  -0.1336
  C  C524  1  0.236400  0.494600  0.879360  1.0  0.1437
  C  C525  1  0.040180  0.332270  0.886070  1.0  0.6792
  C  C526  1  0.090170  0.363010  0.898780  1.0  -0.1622
  C  C527  1  0.112960  0.408510  0.884100  1.0  -0.1202
  C  C528  1  0.160860  0.434820  0.893830  1.0  0.2759
  C  C529  1  0.186480  0.417130  0.919070  1.0  -0.1615
  C  C530  1  0.162870  0.371270  0.933610  1.0  -0.1543
  C  C531  1  0.191850  0.349670  0.960210  1.0  0.7081
  C  C532  1  0.114820  0.344540  0.923510  1.0  0.0288
  C  C533  1  0.232600  0.953350  0.834980  1.0  0.695
  C  C534  1  0.212040  0.899940  0.821060  1.0  -0.1693
  C  C535  1  0.237730  0.880200  0.796540  1.0  -0.1048
  C  C536  1  0.221390  0.829380  0.784940  1.0  0.2704
  C  C537  1  0.179240  0.797320  0.797580  1.0  -0.1517
  C  C538  1  0.169160  0.868600  0.833540  1.0  0.0451
  C  C539  1  0.153160  0.817440  0.822070  1.0  -0.1397
  C  C540  1  0.107700  0.782860  0.835970  1.0  0.6989
  C  C541  1  0.676280  0.114230  0.612640  1.0  0.6927
  C  C542  1  0.651340  0.163000  0.596730  1.0  -0.1466
  C  C543  1  0.679890  0.186720  0.574300  1.0  0.0256
  C  C544  1  0.657680  0.233590  0.560320  1.0  -0.1591
  C  C545  1  0.691760  0.262380  0.537600  1.0  0.6737
  C  C546  1  0.605170  0.254190  0.567870  1.0  -0.1068
  C  C547  1  0.574880  0.228700  0.590010  1.0  0.2696
  C  C548  1  0.598160  0.184180  0.604950  1.0  -0.1336
  C  C549  1  0.494600  0.236400  0.620640  1.0  0.1417
  C  C550  1  0.332270  0.040180  0.613930  1.0  0.6793
  C  C551  1  0.363010  0.090170  0.601220  1.0  -0.1622
  C  C552  1  0.408510  0.112960  0.615900  1.0  -0.1185
  C  C553  1  0.434820  0.160860  0.606170  1.0  0.279
  C  C554  1  0.417130  0.186480  0.580930  1.0  -0.1603
  C  C555  1  0.371270  0.162870  0.566390  1.0  -0.1502
  C  C556  1  0.349670  0.191850  0.539790  1.0  0.7088
  C  C557  1  0.344540  0.114820  0.576490  1.0  0.0296
  C  C558  1  0.953350  0.232600  0.665020  1.0  0.6955
  C  C559  1  0.899940  0.212040  0.678940  1.0  -0.1697
  C  C560  1  0.880200  0.237730  0.703460  1.0  -0.1063
  C  C561  1  0.829380  0.221390  0.715060  1.0  0.2705
  C  C562  1  0.797320  0.179240  0.702420  1.0  -0.1528
  C  C563  1  0.868600  0.169160  0.666460  1.0  0.0454
  C  C564  1  0.817440  0.153160  0.677930  1.0  -0.1385
  C  C565  1  0.782860  0.107700  0.664030  1.0  0.6981
  C  C566  1  0.323720  0.885770  0.612640  1.0  0.693
  C  C567  1  0.348660  0.837000  0.596730  1.0  -0.1465
  C  C568  1  0.320110  0.813280  0.574300  1.0  0.0251
  C  C569  1  0.342320  0.766410  0.560320  1.0  -0.1594
  C  C570  1  0.308240  0.737620  0.537600  1.0  0.6736
  C  C571  1  0.394830  0.745810  0.567870  1.0  -0.1071
  C  C572  1  0.425120  0.771300  0.590010  1.0  0.27
  C  C573  1  0.401840  0.815820  0.604950  1.0  -0.1333
  C  C574  1  0.505400  0.763600  0.620640  1.0  0.1432
  C  C575  1  0.667730  0.959820  0.613930  1.0  0.6803
  C  C576  1  0.636990  0.909830  0.601220  1.0  -0.1614
  C  C577  1  0.591490  0.887040  0.615900  1.0  -0.1201
  C  C578  1  0.565180  0.839140  0.606170  1.0  0.2779
  C  C579  1  0.582870  0.813520  0.580930  1.0  -0.1602
  C  C580  1  0.628730  0.837130  0.566390  1.0  -0.1499
  C  C581  1  0.650330  0.808150  0.539790  1.0  0.7085
  C  C582  1  0.655460  0.885180  0.576490  1.0  0.0289
  C  C583  1  0.046650  0.767400  0.665020  1.0  0.6945
  C  C584  1  0.100060  0.787960  0.678940  1.0  -0.1704
  C  C585  1  0.119800  0.762270  0.703460  1.0  -0.1048
  C  C586  1  0.170620  0.778610  0.715060  1.0  0.2696
  C  C587  1  0.202680  0.820760  0.702420  1.0  -0.1516
  C  C588  1  0.131400  0.830840  0.666460  1.0  0.0464
  C  C589  1  0.182560  0.846840  0.677930  1.0  -0.1372
  C  C590  1  0.217140  0.892300  0.664030  1.0  0.6976
  C  C591  1  0.114230  0.323720  0.612640  1.0  0.6922
  C  C592  1  0.163000  0.348660  0.596730  1.0  -0.1464
  C  C593  1  0.186720  0.320110  0.574300  1.0  0.0271
  C  C594  1  0.233590  0.342320  0.560320  1.0  -0.1591
  C  C595  1  0.262380  0.308240  0.537600  1.0  0.6741
  C  C596  1  0.254190  0.394830  0.567870  1.0  -0.1052
  C  C597  1  0.228700  0.425120  0.590010  1.0  0.2679
  C  C598  1  0.184180  0.401840  0.604950  1.0  -0.1352
  C  C599  1  0.236400  0.505400  0.620640  1.0  0.1428
  C  C600  1  0.040180  0.667730  0.613930  1.0  0.6794
  C  C601  1  0.090170  0.636990  0.601220  1.0  -0.1625
  C  C602  1  0.112960  0.591490  0.615900  1.0  -0.119
  C  C603  1  0.160860  0.565180  0.606170  1.0  0.2767
  C  C604  1  0.186480  0.582870  0.580930  1.0  -0.1605
  C  C605  1  0.162870  0.628730  0.566390  1.0  -0.1523
  C  C606  1  0.191850  0.650330  0.539790  1.0  0.7073
  C  C607  1  0.114820  0.655460  0.576490  1.0  0.0303
  C  C608  1  0.232600  0.046650  0.665020  1.0  0.6953
  C  C609  1  0.212040  0.100060  0.678940  1.0  -0.1694
  C  C610  1  0.237730  0.119800  0.703460  1.0  -0.1058
  C  C611  1  0.221390  0.170620  0.715060  1.0  0.2709
  C  C612  1  0.179240  0.202680  0.702420  1.0  -0.1509
  C  C613  1  0.169160  0.131400  0.666460  1.0  0.0461
  C  C614  1  0.153160  0.182560  0.677930  1.0  -0.1397
  C  C615  1  0.107700  0.217140  0.664030  1.0  0.6992
  C  C616  1  0.885770  0.676280  0.612640  1.0  0.6924
  C  C617  1  0.837000  0.651340  0.596730  1.0  -0.147
  C  C618  1  0.813280  0.679890  0.574300  1.0  0.0268
  C  C619  1  0.766410  0.657680  0.560320  1.0  -0.159
  C  C620  1  0.737620  0.691760  0.537600  1.0  0.6741
  C  C621  1  0.745810  0.605170  0.567870  1.0  -0.1057
  C  C622  1  0.771300  0.574880  0.590010  1.0  0.267
  C  C623  1  0.815820  0.598160  0.604950  1.0  -0.1347
  C  C624  1  0.763600  0.494600  0.620640  1.0  0.144
  C  C625  1  0.959820  0.332270  0.613930  1.0  0.6796
  C  C626  1  0.909830  0.363010  0.601220  1.0  -0.1616
  C  C627  1  0.887040  0.408510  0.615900  1.0  -0.1189
  C  C628  1  0.839140  0.434820  0.606170  1.0  0.2776
  C  C629  1  0.813520  0.417130  0.580930  1.0  -0.162
  C  C630  1  0.837130  0.371270  0.566390  1.0  -0.1522
  C  C631  1  0.808150  0.349670  0.539790  1.0  0.7083
  C  C632  1  0.885180  0.344540  0.576490  1.0  0.0292
  C  C633  1  0.767400  0.953350  0.665020  1.0  0.6955
  C  C634  1  0.787960  0.899940  0.678940  1.0  -0.1691
  C  C635  1  0.762270  0.880200  0.703460  1.0  -0.1057
  C  C636  1  0.778610  0.829380  0.715060  1.0  0.2695
  C  C637  1  0.820760  0.797320  0.702420  1.0  -0.1505
  C  C638  1  0.830840  0.868600  0.666460  1.0  0.0449
  C  C639  1  0.846840  0.817440  0.677930  1.0  -0.1389
  C  C640  1  0.892300  0.782860  0.664030  1.0  0.6985
  C  C641  1  0.758400  0.758400  0.250000  1.0  0.137
  C  C642  1  0.241600  0.241600  0.250000  1.0  0.134
  C  C643  1  0.241600  0.758400  0.250000  1.0  0.1361
  C  C644  1  0.758400  0.241600  0.250000  1.0  0.1358
  C  C645  1  0.241600  0.241600  0.750000  1.0  0.134
  C  C646  1  0.758400  0.758400  0.750000  1.0  0.137
  C  C647  1  0.758400  0.241600  0.750000  1.0  0.1358
  C  C648  1  0.241600  0.758400  0.750000  1.0  0.1361
  O  O649  1  0.650760  0.902580  0.134190  1.0  -0.5636
  O  O650  1  0.722010  0.905240  0.102860  1.0  -0.5802
  O  O651  1  0.735070  0.763750  0.029210  1.0  -0.5739
  O  O652  1  0.674570  0.690650  0.028530  1.0  -0.5667
  O  O653  1  0.351200  0.979650  0.136760  1.0  -0.5749
  O  O654  1  0.290070  0.977970  0.100410  1.0  -0.5729
  O  O655  1  0.377960  0.767590  0.030660  1.0  -0.5769
  O  O656  1  0.305190  0.827520  0.029840  1.0  -0.5767
  O  O657  1  0.522440  0.748390  0.094780  1.0  -0.2695
  O  O658  1  0.479070  0.819720  0.122220  1.0  -0.293
  O  O659  1  0.980480  0.729090  0.177520  1.0  -0.5773
  O  O660  1  0.966500  0.789570  0.141800  1.0  -0.5706
  O  O661  1  0.734710  0.902250  0.174560  1.0  -0.5669
  O  O662  1  0.804330  0.916600  0.143050  1.0  -0.5747
  O  O663  1  0.813850  0.749370  0.238970  1.0  -0.27
  O  O664  1  0.349240  0.097420  0.134190  1.0  -0.5641
  O  O665  1  0.277990  0.094760  0.102860  1.0  -0.5794
  O  O666  1  0.264930  0.236250  0.029210  1.0  -0.5736
  O  O667  1  0.325430  0.309350  0.028530  1.0  -0.5667
  O  O668  1  0.648800  0.020350  0.136760  1.0  -0.5745
  O  O669  1  0.709930  0.022030  0.100410  1.0  -0.5736
  O  O670  1  0.622040  0.232410  0.030660  1.0  -0.5772
  O  O671  1  0.694810  0.172480  0.029840  1.0  -0.5767
  O  O672  1  0.477560  0.251610  0.094780  1.0  -0.2741
  O  O673  1  0.520930  0.180280  0.122220  1.0  -0.2928
  O  O674  1  0.019520  0.270910  0.177520  1.0  -0.5779
  O  O675  1  0.033500  0.210430  0.141800  1.0  -0.5698
  O  O676  1  0.265290  0.097750  0.174560  1.0  -0.5675
  O  O677  1  0.195670  0.083400  0.143050  1.0  -0.5755
  O  O678  1  0.186150  0.250630  0.238970  1.0  -0.2714
  O  O679  1  0.097420  0.650760  0.134190  1.0  -0.5645
  O  O680  1  0.094760  0.722010  0.102860  1.0  -0.5798
  O  O681  1  0.236250  0.735070  0.029210  1.0  -0.572
  O  O682  1  0.309350  0.674570  0.028530  1.0  -0.5677
  O  O683  1  0.020350  0.351200  0.136760  1.0  -0.5745
  O  O684  1  0.022030  0.290070  0.100410  1.0  -0.5741
  O  O685  1  0.232410  0.377960  0.030660  1.0  -0.5764
  O  O686  1  0.172480  0.305190  0.029840  1.0  -0.5756
  O  O687  1  0.251610  0.522440  0.094780  1.0  -0.2694
  O  O688  1  0.180280  0.479070  0.122220  1.0  -0.2933
  O  O689  1  0.270910  0.980480  0.177520  1.0  -0.578
  O  O690  1  0.210430  0.966500  0.141800  1.0  -0.5706
  O  O691  1  0.097750  0.734710  0.174560  1.0  -0.5674
  O  O692  1  0.083400  0.804330  0.143050  1.0  -0.5748
  O  O693  1  0.250630  0.813850  0.238970  1.0  -0.271
  O  O694  1  0.902580  0.349240  0.134190  1.0  -0.5643
  O  O695  1  0.905240  0.277990  0.102860  1.0  -0.5804
  O  O696  1  0.763750  0.264930  0.029210  1.0  -0.5734
  O  O697  1  0.690650  0.325430  0.028530  1.0  -0.567
  O  O698  1  0.979650  0.648800  0.136760  1.0  -0.5748
  O  O699  1  0.977970  0.709930  0.100410  1.0  -0.574
  O  O700  1  0.767590  0.622040  0.030660  1.0  -0.5764
  O  O701  1  0.827520  0.694810  0.029840  1.0  -0.5757
  O  O702  1  0.748390  0.477560  0.094780  1.0  -0.269
  O  O703  1  0.819720  0.520930  0.122220  1.0  -0.294
  O  O704  1  0.729090  0.019520  0.177520  1.0  -0.5784
  O  O705  1  0.789570  0.033500  0.141800  1.0  -0.5712
  O  O706  1  0.902250  0.265290  0.174560  1.0  -0.5662
  O  O707  1  0.916600  0.195670  0.143050  1.0  -0.5743
  O  O708  1  0.749370  0.186150  0.238970  1.0  -0.2706
  O  O709  1  0.349240  0.902580  0.365810  1.0  -0.5644
  O  O710  1  0.277990  0.905240  0.397140  1.0  -0.5793
  O  O711  1  0.264930  0.763750  0.470790  1.0  -0.573
  O  O712  1  0.325430  0.690650  0.471470  1.0  -0.5681
  O  O713  1  0.648800  0.979650  0.363240  1.0  -0.5742
  O  O714  1  0.709930  0.977970  0.399590  1.0  -0.5732
  O  O715  1  0.622040  0.767590  0.469340  1.0  -0.576
  O  O716  1  0.694810  0.827520  0.470160  1.0  -0.577
  O  O717  1  0.477560  0.748390  0.405220  1.0  -0.2706
  O  O718  1  0.520930  0.819720  0.377780  1.0  -0.2942
  O  O719  1  0.019520  0.729090  0.322480  1.0  -0.5778
  O  O720  1  0.033500  0.789570  0.358200  1.0  -0.5704
  O  O721  1  0.265290  0.902250  0.325440  1.0  -0.5679
  O  O722  1  0.195670  0.916600  0.356950  1.0  -0.5745
  O  O723  1  0.186150  0.749370  0.261030  1.0  -0.2713
  O  O724  1  0.650760  0.097420  0.365810  1.0  -0.5634
  O  O725  1  0.722010  0.094760  0.397140  1.0  -0.58
  O  O726  1  0.735070  0.236250  0.470790  1.0  -0.5736
  O  O727  1  0.674570  0.309350  0.471470  1.0  -0.567
  O  O728  1  0.351200  0.020350  0.363240  1.0  -0.5742
  O  O729  1  0.290070  0.022030  0.399590  1.0  -0.5732
  O  O730  1  0.377960  0.232410  0.469340  1.0  -0.5775
  O  O731  1  0.305190  0.172480  0.470160  1.0  -0.5753
  O  O732  1  0.522440  0.251610  0.405220  1.0  -0.2707
  O  O733  1  0.479070  0.180280  0.377780  1.0  -0.293
  O  O734  1  0.980480  0.270910  0.322480  1.0  -0.5792
  O  O735  1  0.966500  0.210430  0.358200  1.0  -0.5713
  O  O736  1  0.734710  0.097750  0.325440  1.0  -0.5672
  O  O737  1  0.804330  0.083400  0.356950  1.0  -0.5757
  O  O738  1  0.813850  0.250630  0.261030  1.0  -0.271
  O  O739  1  0.902580  0.650760  0.365810  1.0  -0.5646
  O  O740  1  0.905240  0.722010  0.397140  1.0  -0.5803
  O  O741  1  0.763750  0.735070  0.470790  1.0  -0.5735
  O  O742  1  0.690650  0.674570  0.471470  1.0  -0.5678
  O  O743  1  0.979650  0.351200  0.363240  1.0  -0.574
  O  O744  1  0.977970  0.290070  0.399590  1.0  -0.5738
  O  O745  1  0.767590  0.377960  0.469340  1.0  -0.5764
  O  O746  1  0.827520  0.305190  0.470160  1.0  -0.5755
  O  O747  1  0.748390  0.522440  0.405220  1.0  -0.2699
  O  O748  1  0.819720  0.479070  0.377780  1.0  -0.2957
  O  O749  1  0.729090  0.980480  0.322480  1.0  -0.5788
  O  O750  1  0.789570  0.966500  0.358200  1.0  -0.5719
  O  O751  1  0.902250  0.734710  0.325440  1.0  -0.5671
  O  O752  1  0.916600  0.804330  0.356950  1.0  -0.5744
  O  O753  1  0.749370  0.813850  0.261030  1.0  -0.2708
  O  O754  1  0.097420  0.349240  0.365810  1.0  -0.5647
  O  O755  1  0.094760  0.277990  0.397140  1.0  -0.5809
  O  O756  1  0.236250  0.264930  0.470790  1.0  -0.5722
  O  O757  1  0.309350  0.325430  0.471470  1.0  -0.5681
  O  O758  1  0.020350  0.648800  0.363240  1.0  -0.5743
  O  O759  1  0.022030  0.709930  0.399590  1.0  -0.5738
  O  O760  1  0.232410  0.622040  0.469340  1.0  -0.5762
  O  O761  1  0.172480  0.694810  0.470160  1.0  -0.5758
  O  O762  1  0.251610  0.477560  0.405220  1.0  -0.2694
  O  O763  1  0.180280  0.520930  0.377780  1.0  -0.2931
  O  O764  1  0.270910  0.019520  0.322480  1.0  -0.5791
  O  O765  1  0.210430  0.033500  0.358200  1.0  -0.5706
  O  O766  1  0.097750  0.265290  0.325440  1.0  -0.5668
  O  O767  1  0.083400  0.195670  0.356950  1.0  -0.5747
  O  O768  1  0.250630  0.186150  0.261030  1.0  -0.2704
  O  O769  1  0.349240  0.097420  0.865810  1.0  -0.5646
  O  O770  1  0.277990  0.094760  0.897140  1.0  -0.5794
  O  O771  1  0.264930  0.236250  0.970790  1.0  -0.5736
  O  O772  1  0.325430  0.309350  0.971470  1.0  -0.5673
  O  O773  1  0.648800  0.020350  0.863240  1.0  -0.5743
  O  O774  1  0.709930  0.022030  0.899590  1.0  -0.5733
  O  O775  1  0.622040  0.232410  0.969340  1.0  -0.5767
  O  O776  1  0.694810  0.172480  0.970160  1.0  -0.5765
  O  O777  1  0.477560  0.251610  0.905220  1.0  -0.2718
  O  O778  1  0.520930  0.180280  0.877780  1.0  -0.2934
  O  O779  1  0.019520  0.270910  0.822480  1.0  -0.578
  O  O780  1  0.033500  0.210430  0.858200  1.0  -0.571
  O  O781  1  0.265290  0.097750  0.825440  1.0  -0.5679
  O  O782  1  0.195670  0.083400  0.856950  1.0  -0.5746
  O  O783  1  0.186150  0.250630  0.761030  1.0  -0.2717
  O  O784  1  0.650760  0.902580  0.865810  1.0  -0.5634
  O  O785  1  0.722010  0.905240  0.897140  1.0  -0.5798
  O  O786  1  0.735070  0.763750  0.970790  1.0  -0.574
  O  O787  1  0.674570  0.690650  0.971470  1.0  -0.5669
  O  O788  1  0.351200  0.979650  0.863240  1.0  -0.5743
  O  O789  1  0.290070  0.977970  0.899590  1.0  -0.5732
  O  O790  1  0.377960  0.767590  0.969340  1.0  -0.5768
  O  O791  1  0.305190  0.827520  0.970160  1.0  -0.5764
  O  O792  1  0.522440  0.748390  0.905220  1.0  -0.2694
  O  O793  1  0.479070  0.819720  0.877780  1.0  -0.2938
  O  O794  1  0.980480  0.729090  0.822480  1.0  -0.5789
  O  O795  1  0.966500  0.789570  0.858200  1.0  -0.5705
  O  O796  1  0.734710  0.902250  0.825440  1.0  -0.5672
  O  O797  1  0.804330  0.916600  0.856950  1.0  -0.5755
  O  O798  1  0.813850  0.749370  0.761030  1.0  -0.2698
  O  O799  1  0.902580  0.349240  0.865810  1.0  -0.5648
  O  O800  1  0.905240  0.277990  0.897140  1.0  -0.5811
  O  O801  1  0.763750  0.264930  0.970790  1.0  -0.5736
  O  O802  1  0.690650  0.325430  0.971470  1.0  -0.5674
  O  O803  1  0.979650  0.648800  0.863240  1.0  -0.574
  O  O804  1  0.977970  0.709930  0.899590  1.0  -0.5736
  O  O805  1  0.767590  0.622040  0.969340  1.0  -0.5764
  O  O806  1  0.827520  0.694810  0.970160  1.0  -0.5757
  O  O807  1  0.748390  0.477560  0.905220  1.0  -0.2693
  O  O808  1  0.819720  0.520930  0.877780  1.0  -0.2961
  O  O809  1  0.729090  0.019520  0.822480  1.0  -0.5787
  O  O810  1  0.789570  0.033500  0.858200  1.0  -0.572
  O  O811  1  0.902250  0.265290  0.825440  1.0  -0.5664
  O  O812  1  0.916600  0.195670  0.856950  1.0  -0.5743
  O  O813  1  0.749370  0.186150  0.761030  1.0  -0.2711
  O  O814  1  0.097420  0.650760  0.865810  1.0  -0.5644
  O  O815  1  0.094760  0.722010  0.897140  1.0  -0.5803
  O  O816  1  0.236250  0.735070  0.970790  1.0  -0.572
  O  O817  1  0.309350  0.674570  0.971470  1.0  -0.5682
  O  O818  1  0.020350  0.351200  0.863240  1.0  -0.5744
  O  O819  1  0.022030  0.290070  0.899590  1.0  -0.5736
  O  O820  1  0.232410  0.377960  0.969340  1.0  -0.5765
  O  O821  1  0.172480  0.305190  0.970160  1.0  -0.5752
  O  O822  1  0.251610  0.522440  0.905220  1.0  -0.2695
  O  O823  1  0.180280  0.479070  0.877780  1.0  -0.2926
  O  O824  1  0.270910  0.980480  0.822480  1.0  -0.5793
  O  O825  1  0.210430  0.966500  0.858200  1.0  -0.5708
  O  O826  1  0.097750  0.734710  0.825440  1.0  -0.5676
  O  O827  1  0.083400  0.804330  0.856950  1.0  -0.5748
  O  O828  1  0.250630  0.813850  0.761030  1.0  -0.2708
  O  O829  1  0.650760  0.097420  0.634190  1.0  -0.5633
  O  O830  1  0.722010  0.094760  0.602860  1.0  -0.5807
  O  O831  1  0.735070  0.236250  0.529210  1.0  -0.5739
  O  O832  1  0.674570  0.309350  0.528530  1.0  -0.5666
  O  O833  1  0.351200  0.020350  0.636760  1.0  -0.5747
  O  O834  1  0.290070  0.022030  0.600410  1.0  -0.5731
  O  O835  1  0.377960  0.232410  0.530660  1.0  -0.5778
  O  O836  1  0.305190  0.172480  0.529840  1.0  -0.5757
  O  O837  1  0.522440  0.251610  0.594780  1.0  -0.273
  O  O838  1  0.479070  0.180280  0.622220  1.0  -0.2927
  O  O839  1  0.980480  0.270910  0.677520  1.0  -0.5775
  O  O840  1  0.966500  0.210430  0.641800  1.0  -0.5702
  O  O841  1  0.734710  0.097750  0.674560  1.0  -0.567
  O  O842  1  0.804330  0.083400  0.643050  1.0  -0.575
  O  O843  1  0.813850  0.250630  0.738970  1.0  -0.2711
  O  O844  1  0.349240  0.902580  0.634190  1.0  -0.5642
  O  O845  1  0.277990  0.905240  0.602860  1.0  -0.5792
  O  O846  1  0.264930  0.763750  0.529210  1.0  -0.5731
  O  O847  1  0.325430  0.690650  0.528530  1.0  -0.5676
  O  O848  1  0.648800  0.979650  0.636760  1.0  -0.5747
  O  O849  1  0.709930  0.977970  0.600410  1.0  -0.5733
  O  O850  1  0.622040  0.767590  0.530660  1.0  -0.5765
  O  O851  1  0.694810  0.827520  0.529840  1.0  -0.5772
  O  O852  1  0.477560  0.748390  0.594780  1.0  -0.2703
  O  O853  1  0.520930  0.819720  0.622220  1.0  -0.2928
  O  O854  1  0.019520  0.729090  0.677520  1.0  -0.5777
  O  O855  1  0.033500  0.789570  0.641800  1.0  -0.5704
  O  O856  1  0.265290  0.902250  0.674560  1.0  -0.5674
  O  O857  1  0.195670  0.916600  0.643050  1.0  -0.575
  O  O858  1  0.186150  0.749370  0.738970  1.0  -0.2712
  O  O859  1  0.097420  0.349240  0.634190  1.0  -0.5642
  O  O860  1  0.094760  0.277990  0.602860  1.0  -0.5807
  O  O861  1  0.236250  0.264930  0.529210  1.0  -0.5724
  O  O862  1  0.309350  0.325430  0.528530  1.0  -0.5676
  O  O863  1  0.020350  0.648800  0.636760  1.0  -0.5752
  O  O864  1  0.022030  0.709930  0.600410  1.0  -0.5739
  O  O865  1  0.232410  0.622040  0.530660  1.0  -0.5765
  O  O866  1  0.172480  0.694810  0.529840  1.0  -0.576
  O  O867  1  0.251610  0.477560  0.594780  1.0  -0.269
  O  O868  1  0.180280  0.520930  0.622220  1.0  -0.2925
  O  O869  1  0.270910  0.019520  0.677520  1.0  -0.5786
  O  O870  1  0.210430  0.033500  0.641800  1.0  -0.5704
  O  O871  1  0.097750  0.265290  0.674560  1.0  -0.5667
  O  O872  1  0.083400  0.195670  0.643050  1.0  -0.5747
  O  O873  1  0.250630  0.186150  0.738970  1.0  -0.2704
  O  O874  1  0.902580  0.650760  0.634190  1.0  -0.5647
  O  O875  1  0.905240  0.722010  0.602860  1.0  -0.5795
  O  O876  1  0.763750  0.735070  0.529210  1.0  -0.5732
  O  O877  1  0.690650  0.674570  0.528530  1.0  -0.5673
  O  O878  1  0.979650  0.351200  0.636760  1.0  -0.5739
  O  O879  1  0.977970  0.290070  0.600410  1.0  -0.5742
  O  O880  1  0.767590  0.377960  0.530660  1.0  -0.577
  O  O881  1  0.827520  0.305190  0.529840  1.0  -0.5758
  O  O882  1  0.748390  0.522440  0.594780  1.0  -0.2706
  O  O883  1  0.819720  0.479070  0.622220  1.0  -0.2942
  O  O884  1  0.729090  0.980480  0.677520  1.0  -0.5781
  O  O885  1  0.789570  0.966500  0.641800  1.0  -0.5711
  O  O886  1  0.902250  0.734710  0.674560  1.0  -0.5669
  O  O887  1  0.916600  0.804330  0.643050  1.0  -0.5742
  O  O888  1  0.749370  0.813850  0.738970  1.0  -0.2704
