# generated using pymatgen
data_CoH16C26(SN5)2
_symmetry_space_group_name_H-M   'P 1'
_cell_length_a   45.29580000
_cell_length_b   45.29580000
_cell_length_c   45.29580000
_cell_angle_alpha   60.00000000
_cell_angle_beta   60.00000000
_cell_angle_gamma   60.00000000
_symmetry_Int_Tables_number   1
_chemical_formula_structural   CoH16C26(SN5)2
_chemical_formula_sum   'Co48 H768 C1248 S96 N480'
_cell_volume   65714.13648958
_cell_formula_units_Z   48
loop_
 _symmetry_equiv_pos_site_id
 _symmetry_equiv_pos_as_xyz
  1  'x, y, z'
loop_
 _atom_site_type_symbol
 _atom_site_label
 _atom_site_symmetry_multiplicity
 _atom_site_fract_x
 _atom_site_fract_y
 _atom_site_fract_z
 _atom_site_occupancy
 _atom_site_charge
  Co  Co1  1  0.989520  0.010480  0.250000  1.0  0.7159
  Co  Co2  1  0.510480  0.489520  0.750000  1.0  0.7168
  Co  Co3  1  0.750000  0.750000  0.489520  1.0  0.7165
  Co  Co4  1  0.250000  0.250000  0.010480  1.0  0.7164
  Co  Co5  1  0.989520  0.250000  0.750000  1.0  0.7155
  Co  Co6  1  0.510480  0.750000  0.250000  1.0  0.7165
  Co  Co7  1  0.750000  0.489520  0.010480  1.0  0.717
  Co  Co8  1  0.250000  0.010480  0.489520  1.0  0.7161
  Co  Co9  1  0.989520  0.750000  0.010480  1.0  0.7158
  Co  Co10  1  0.510480  0.250000  0.489520  1.0  0.7162
  Co  Co11  1  0.750000  0.010480  0.750000  1.0  0.7164
  Co  Co12  1  0.250000  0.489520  0.250000  1.0  0.7168
  Co  Co13  1  0.010480  0.989520  0.750000  1.0  0.7168
  Co  Co14  1  0.489520  0.510480  0.250000  1.0  0.7159
  Co  Co15  1  0.250000  0.250000  0.510480  1.0  0.7164
  Co  Co16  1  0.750000  0.750000  0.989520  1.0  0.7165
  Co  Co17  1  0.010480  0.750000  0.250000  1.0  0.7165
  Co  Co18  1  0.489520  0.250000  0.750000  1.0  0.7155
  Co  Co19  1  0.250000  0.510480  0.989520  1.0  0.7161
  Co  Co20  1  0.750000  0.989520  0.510480  1.0  0.717
  Co  Co21  1  0.010480  0.250000  0.989520  1.0  0.7162
  Co  Co22  1  0.489520  0.750000  0.510480  1.0  0.7158
  Co  Co23  1  0.250000  0.989520  0.250000  1.0  0.7168
  Co  Co24  1  0.750000  0.510480  0.750000  1.0  0.7164
  Co  Co25  1  0.002200  0.247800  0.247800  1.0  0.593
  Co  Co26  1  0.747800  0.502200  0.502200  1.0  0.5939
  Co  Co27  1  0.002200  0.247800  0.502200  1.0  0.5936
  Co  Co28  1  0.747800  0.502200  0.247800  1.0  0.5936
  Co  Co29  1  0.002200  0.502200  0.247800  1.0  0.5906
  Co  Co30  1  0.747800  0.247800  0.502200  1.0  0.5938
  Co  Co31  1  0.752200  0.997800  0.252200  1.0  0.5936
  Co  Co32  1  0.497800  0.252200  0.997800  1.0  0.5936
  Co  Co33  1  0.752200  0.997800  0.997800  1.0  0.593
  Co  Co34  1  0.497800  0.252200  0.252200  1.0  0.5939
  Co  Co35  1  0.497800  0.997800  0.252200  1.0  0.5938
  Co  Co36  1  0.752200  0.252200  0.997800  1.0  0.5906
  Co  Co37  1  0.997800  0.752200  0.752200  1.0  0.5939
  Co  Co38  1  0.252200  0.497800  0.497800  1.0  0.593
  Co  Co39  1  0.997800  0.752200  0.497800  1.0  0.5936
  Co  Co40  1  0.252200  0.497800  0.752200  1.0  0.5936
  Co  Co41  1  0.997800  0.497800  0.752200  1.0  0.5938
  Co  Co42  1  0.252200  0.752200  0.497800  1.0  0.5906
  Co  Co43  1  0.247800  0.002200  0.747800  1.0  0.5936
  Co  Co44  1  0.502200  0.747800  0.002200  1.0  0.5936
  Co  Co45  1  0.247800  0.002200  0.002200  1.0  0.5939
  Co  Co46  1  0.502200  0.747800  0.747800  1.0  0.593
  Co  Co47  1  0.502200  0.002200  0.747800  1.0  0.5906
  Co  Co48  1  0.247800  0.747800  0.002200  1.0  0.5938
  H  H49  1  0.953200  0.045600  0.313200  1.0  0.0894
  H  H50  1  0.935100  0.100900  0.318300  1.0  0.1199
  H  H51  1  0.945600  0.150400  0.266000  1.0  0.1185
  H  H52  1  0.979100  0.088900  0.207500  1.0  0.0815
  H  H53  1  0.992600  0.179200  0.017600  1.0  0.085
  H  H54  1  0.983100  0.130100  0.069100  1.0  0.1203
  H  H55  1  0.976200  0.129400  0.124600  1.0  0.1134
  H  H56  1  0.992100  0.225500  0.071700  1.0  0.086
  H  H57  1  0.991700  0.209700  0.216500  1.0  0.0823
  H  H58  1  0.020800  0.295800  0.165400  1.0  0.0902
  H  H59  1  0.017400  0.304000  0.112800  1.0  0.1204
  H  H60  1  0.004400  0.261600  0.109600  1.0  0.1204
  H  H61  1  0.928900  0.274700  0.238500  1.0  0.0831
  H  H62  1  0.881900  0.325900  0.225300  1.0  0.1216
  H  H63  1  0.878500  0.380700  0.222500  1.0  0.1181
  H  H64  1  0.971000  0.327800  0.245600  1.0  0.091
  H  H65  1  0.545600  0.453200  0.688000  1.0  0.0895
  H  H66  1  0.600900  0.435100  0.645700  1.0  0.1196
  H  H67  1  0.650400  0.445600  0.638000  1.0  0.1193
  H  H68  1  0.588900  0.479100  0.724500  1.0  0.0824
  H  H69  1  0.679200  0.492600  0.810600  1.0  0.0849
  H  H70  1  0.630100  0.483100  0.817700  1.0  0.1196
  H  H71  1  0.629400  0.476200  0.769800  1.0  0.1141
  H  H72  1  0.725500  0.492100  0.710700  1.0  0.0856
  H  H73  1  0.709700  0.491700  0.582100  1.0  0.0818
  H  H74  1  0.795800  0.520800  0.518000  1.0  0.0908
  H  H75  1  0.804000  0.517400  0.565800  1.0  0.1193
  H  H76  1  0.761600  0.504400  0.624400  1.0  0.1206
  H  H77  1  0.774700  0.428900  0.557900  1.0  0.0828
  H  H78  1  0.825900  0.381900  0.566900  1.0  0.1238
  H  H79  1  0.880700  0.378500  0.518300  1.0  0.1184
  H  H80  1  0.827800  0.471000  0.455600  1.0  0.091
  H  H81  1  0.813200  0.688000  0.453200  1.0  0.0871
  H  H82  1  0.818300  0.645700  0.435100  1.0  0.1213
  H  H83  1  0.766000  0.638000  0.445600  1.0  0.119
  H  H84  1  0.707500  0.724500  0.479100  1.0  0.0803
  H  H85  1  0.517600  0.810600  0.492600  1.0  0.0854
  H  H86  1  0.569100  0.817700  0.483100  1.0  0.1221
  H  H87  1  0.624600  0.769800  0.476200  1.0  0.115
  H  H88  1  0.571700  0.710700  0.492100  1.0  0.0854
  H  H89  1  0.716500  0.582100  0.491700  1.0  0.0824
  H  H90  1  0.665400  0.518000  0.520800  1.0  0.0918
  H  H91  1  0.612800  0.565800  0.517400  1.0  0.1194
  H  H92  1  0.609600  0.624400  0.504400  1.0  0.1193
  H  H93  1  0.738500  0.557900  0.428900  1.0  0.083
  H  H94  1  0.725300  0.566900  0.381900  1.0  0.123
  H  H95  1  0.722500  0.518300  0.378500  1.0  0.1182
  H  H96  1  0.745600  0.455600  0.471000  1.0  0.0906
  H  H97  1  0.188000  0.313200  0.045600  1.0  0.0882
  H  H98  1  0.145700  0.318300  0.100900  1.0  0.1217
  H  H99  1  0.138000  0.266000  0.150400  1.0  0.1203
  H  H100  1  0.224500  0.207500  0.088900  1.0  0.0809
  H  H101  1  0.310600  0.017600  0.179200  1.0  0.0852
  H  H102  1  0.317700  0.069100  0.130100  1.0  0.1203
  H  H103  1  0.269800  0.124600  0.129400  1.0  0.1142
  H  H104  1  0.210700  0.071700  0.225500  1.0  0.0851
  H  H105  1  0.082100  0.216500  0.209700  1.0  0.0827
  H  H106  1  0.018000  0.165400  0.295800  1.0  0.0917
  H  H107  1  0.065800  0.112800  0.304000  1.0  0.1194
  H  H108  1  0.124400  0.109600  0.261600  1.0  0.121
  H  H109  1  0.057900  0.238500  0.274700  1.0  0.0815
  H  H110  1  0.066900  0.225300  0.325900  1.0  0.1219
  H  H111  1  0.018300  0.222500  0.380700  1.0  0.1176
  H  H112  1  0.955600  0.245600  0.327800  1.0  0.0895
  H  H113  1  0.953200  0.313200  0.688000  1.0  0.0882
  H  H114  1  0.935100  0.318300  0.645700  1.0  0.1219
  H  H115  1  0.945600  0.266000  0.638000  1.0  0.1197
  H  H116  1  0.979100  0.207500  0.724500  1.0  0.0802
  H  H117  1  0.992600  0.017600  0.810600  1.0  0.0849
  H  H118  1  0.983100  0.069100  0.817700  1.0  0.1213
  H  H119  1  0.976200  0.124600  0.769800  1.0  0.1141
  H  H120  1  0.992100  0.071700  0.710700  1.0  0.0876
  H  H121  1  0.991700  0.216500  0.582100  1.0  0.0827
  H  H122  1  0.020800  0.165400  0.518000  1.0  0.0949
  H  H123  1  0.017400  0.112800  0.565800  1.0  0.1195
  H  H124  1  0.004400  0.109600  0.624400  1.0  0.1201
  H  H125  1  0.928900  0.238500  0.557900  1.0  0.0838
  H  H126  1  0.881900  0.225300  0.566900  1.0  0.1223
  H  H127  1  0.878500  0.222500  0.518300  1.0  0.117
  H  H128  1  0.971000  0.245600  0.455600  1.0  0.0902
  H  H129  1  0.545600  0.688000  0.313200  1.0  0.0875
  H  H130  1  0.600900  0.645700  0.318300  1.0  0.1201
  H  H131  1  0.650400  0.638000  0.266000  1.0  0.1203
  H  H132  1  0.588900  0.724500  0.207500  1.0  0.08
  H  H133  1  0.679200  0.810600  0.017600  1.0  0.0834
  H  H134  1  0.630100  0.817700  0.069100  1.0  0.1222
  H  H135  1  0.629400  0.769800  0.124600  1.0  0.1139
  H  H136  1  0.725500  0.710700  0.071700  1.0  0.0862
  H  H137  1  0.709700  0.582100  0.216500  1.0  0.0812
  H  H138  1  0.795800  0.518000  0.165400  1.0  0.092
  H  H139  1  0.804000  0.565800  0.112800  1.0  0.1189
  H  H140  1  0.761600  0.624400  0.109600  1.0  0.1196
  H  H141  1  0.774700  0.557900  0.238500  1.0  0.0833
  H  H142  1  0.825900  0.566900  0.225300  1.0  0.1236
  H  H143  1  0.880700  0.518300  0.222500  1.0  0.1177
  H  H144  1  0.827800  0.455600  0.245600  1.0  0.0913
  H  H145  1  0.813200  0.453200  0.045600  1.0  0.0885
  H  H146  1  0.818300  0.435100  0.100900  1.0  0.1206
  H  H147  1  0.766000  0.445600  0.150400  1.0  0.1196
  H  H148  1  0.707500  0.479100  0.088900  1.0  0.0786
  H  H149  1  0.517600  0.492600  0.179200  1.0  0.0847
  H  H150  1  0.569100  0.483100  0.130100  1.0  0.12
  H  H151  1  0.624600  0.476200  0.129400  1.0  0.1141
  H  H152  1  0.571700  0.492100  0.225500  1.0  0.0874
  H  H153  1  0.716500  0.491700  0.209700  1.0  0.0825
  H  H154  1  0.665400  0.520800  0.295800  1.0  0.0919
  H  H155  1  0.612800  0.517400  0.304000  1.0  0.1191
  H  H156  1  0.609600  0.504400  0.261600  1.0  0.12
  H  H157  1  0.738500  0.428900  0.274700  1.0  0.0839
  H  H158  1  0.725300  0.381900  0.325900  1.0  0.1223
  H  H159  1  0.722500  0.378500  0.380700  1.0  0.117
  H  H160  1  0.745600  0.471000  0.327800  1.0  0.0907
  H  H161  1  0.188000  0.045600  0.453200  1.0  0.0882
  H  H162  1  0.145700  0.100900  0.435100  1.0  0.1194
  H  H163  1  0.138000  0.150400  0.445600  1.0  0.1199
  H  H164  1  0.224500  0.088900  0.479100  1.0  0.0797
  H  H165  1  0.310600  0.179200  0.492600  1.0  0.0844
  H  H166  1  0.317700  0.130100  0.483100  1.0  0.1211
  H  H167  1  0.269800  0.129400  0.476200  1.0  0.1129
  H  H168  1  0.210700  0.225500  0.492100  1.0  0.0858
  H  H169  1  0.082100  0.209700  0.491700  1.0  0.0814
  H  H170  1  0.018000  0.295800  0.520800  1.0  0.0946
  H  H171  1  0.065800  0.304000  0.517400  1.0  0.1181
  H  H172  1  0.124400  0.261600  0.504400  1.0  0.1198
  H  H173  1  0.057900  0.274700  0.428900  1.0  0.0821
  H  H174  1  0.066900  0.325900  0.381900  1.0  0.1205
  H  H175  1  0.018300  0.380700  0.378500  1.0  0.1176
  H  H176  1  0.955600  0.327800  0.471000  1.0  0.0899
  H  H177  1  0.953200  0.688000  0.045600  1.0  0.0901
  H  H178  1  0.935100  0.645700  0.100900  1.0  0.1199
  H  H179  1  0.945600  0.638000  0.150400  1.0  0.1191
  H  H180  1  0.979100  0.724500  0.088900  1.0  0.0804
  H  H181  1  0.992600  0.810600  0.179200  1.0  0.0844
  H  H182  1  0.983100  0.817700  0.130100  1.0  0.1228
  H  H183  1  0.976200  0.769800  0.129400  1.0  0.115
  H  H184  1  0.992100  0.710700  0.225500  1.0  0.0856
  H  H185  1  0.991700  0.582100  0.209700  1.0  0.0838
  H  H186  1  0.020800  0.518000  0.295800  1.0  0.0935
  H  H187  1  0.017400  0.565800  0.304000  1.0  0.1181
  H  H188  1  0.004400  0.624400  0.261600  1.0  0.1201
  H  H189  1  0.928900  0.557900  0.274700  1.0  0.0824
  H  H190  1  0.881900  0.566900  0.325900  1.0  0.1229
  H  H191  1  0.878500  0.518300  0.380700  1.0  0.117
  H  H192  1  0.971000  0.455600  0.327800  1.0  0.0914
  H  H193  1  0.545600  0.313200  0.453200  1.0  0.0888
  H  H194  1  0.600900  0.318300  0.435100  1.0  0.1209
  H  H195  1  0.650400  0.266000  0.445600  1.0  0.1192
  H  H196  1  0.588900  0.207500  0.479100  1.0  0.0813
  H  H197  1  0.679200  0.017600  0.492600  1.0  0.0826
  H  H198  1  0.630100  0.069100  0.483100  1.0  0.12
  H  H199  1  0.629400  0.124600  0.476200  1.0  0.1149
  H  H200  1  0.725500  0.071700  0.492100  1.0  0.0849
  H  H201  1  0.709700  0.216500  0.491700  1.0  0.0826
  H  H202  1  0.795800  0.165400  0.520800  1.0  0.0909
  H  H203  1  0.804000  0.112800  0.517400  1.0  0.1196
  H  H204  1  0.761600  0.109600  0.504400  1.0  0.1208
  H  H205  1  0.774700  0.238500  0.428900  1.0  0.0837
  H  H206  1  0.825900  0.225300  0.381900  1.0  0.1202
  H  H207  1  0.880700  0.222500  0.378500  1.0  0.1177
  H  H208  1  0.827800  0.245600  0.471000  1.0  0.0914
  H  H209  1  0.813200  0.045600  0.688000  1.0  0.0883
  H  H210  1  0.818300  0.100900  0.645700  1.0  0.1203
  H  H211  1  0.766000  0.150400  0.638000  1.0  0.119
  H  H212  1  0.707500  0.088900  0.724500  1.0  0.079
  H  H213  1  0.517600  0.179200  0.810600  1.0  0.0839
  H  H214  1  0.569100  0.130100  0.817700  1.0  0.1223
  H  H215  1  0.624600  0.129400  0.769800  1.0  0.1148
  H  H216  1  0.571700  0.225500  0.710700  1.0  0.0855
  H  H217  1  0.716500  0.209700  0.582100  1.0  0.0826
  H  H218  1  0.665400  0.295800  0.518000  1.0  0.0915
  H  H219  1  0.612800  0.304000  0.565800  1.0  0.1204
  H  H220  1  0.609600  0.261600  0.624400  1.0  0.1204
  H  H221  1  0.738500  0.274700  0.557900  1.0  0.0847
  H  H222  1  0.725300  0.325900  0.566900  1.0  0.1211
  H  H223  1  0.722500  0.380700  0.518300  1.0  0.117
  H  H224  1  0.745600  0.327800  0.455600  1.0  0.0919
  H  H225  1  0.188000  0.453200  0.313200  1.0  0.0905
  H  H226  1  0.145700  0.435100  0.318300  1.0  0.1204
  H  H227  1  0.138000  0.445600  0.266000  1.0  0.1193
  H  H228  1  0.224500  0.479100  0.207500  1.0  0.0793
  H  H229  1  0.310600  0.492600  0.017600  1.0  0.0852
  H  H230  1  0.317700  0.483100  0.069100  1.0  0.1201
  H  H231  1  0.269800  0.476200  0.124600  1.0  0.1138
  H  H232  1  0.210700  0.492100  0.071700  1.0  0.0847
  H  H233  1  0.082100  0.491700  0.216500  1.0  0.0846
  H  H234  1  0.018000  0.520800  0.165400  1.0  0.0938
  H  H235  1  0.065800  0.517400  0.112800  1.0  0.1162
  H  H236  1  0.124400  0.504400  0.109600  1.0  0.1201
  H  H237  1  0.057900  0.428900  0.238500  1.0  0.0815
  H  H238  1  0.066900  0.381900  0.225300  1.0  0.1232
  H  H239  1  0.018300  0.378500  0.222500  1.0  0.1164
  H  H240  1  0.955600  0.471000  0.245600  1.0  0.0902
  H  H241  1  0.954400  0.046800  0.186800  1.0  0.0882
  H  H242  1  0.899100  0.064900  0.181700  1.0  0.1193
  H  H243  1  0.849600  0.054400  0.234000  1.0  0.1196
  H  H244  1  0.911100  0.020900  0.292500  1.0  0.0821
  H  H245  1  0.820800  0.007400  0.482400  1.0  0.0847
  H  H246  1  0.869900  0.016900  0.430900  1.0  0.12
  H  H247  1  0.870600  0.023800  0.375400  1.0  0.1142
  H  H248  1  0.774500  0.007900  0.428300  1.0  0.0855
  H  H249  1  0.790300  0.008300  0.283500  1.0  0.082
  H  H250  1  0.704200  0.979200  0.334600  1.0  0.0904
  H  H251  1  0.696000  0.982600  0.387200  1.0  0.1193
  H  H252  1  0.738400  0.995600  0.390400  1.0  0.1205
  H  H253  1  0.725300  0.071100  0.261500  1.0  0.0826
  H  H254  1  0.674100  0.118100  0.274700  1.0  0.1234
  H  H255  1  0.619300  0.121500  0.277500  1.0  0.1186
  H  H256  1  0.672200  0.029000  0.254400  1.0  0.0911
  H  H257  1  0.546800  0.454400  0.812000  1.0  0.0885
  H  H258  1  0.564900  0.399100  0.854300  1.0  0.1204
  H  H259  1  0.554400  0.349600  0.862000  1.0  0.1186
  H  H260  1  0.520900  0.411100  0.775500  1.0  0.0814
  H  H261  1  0.507400  0.320800  0.689400  1.0  0.0854
  H  H262  1  0.516900  0.369900  0.682300  1.0  0.1214
  H  H263  1  0.523800  0.370600  0.730200  1.0  0.1136
  H  H264  1  0.507900  0.274500  0.789300  1.0  0.0863
  H  H265  1  0.508300  0.290300  0.917900  1.0  0.0822
  H  H266  1  0.479200  0.204200  0.982000  1.0  0.0907
  H  H267  1  0.482600  0.196000  0.934200  1.0  0.1191
  H  H268  1  0.495600  0.238400  0.875600  1.0  0.1204
  H  H269  1  0.571100  0.225300  0.942100  1.0  0.0831
  H  H270  1  0.618100  0.174100  0.933100  1.0  0.1219
  H  H271  1  0.621500  0.119300  0.981700  1.0  0.1178
  H  H272  1  0.529000  0.172200  0.044400  1.0  0.0903
  H  H273  1  0.312000  0.186800  0.046800  1.0  0.0889
  H  H274  1  0.354300  0.181700  0.064900  1.0  0.122
  H  H275  1  0.362000  0.234000  0.054400  1.0  0.1206
  H  H276  1  0.275500  0.292500  0.020900  1.0  0.0805
  H  H277  1  0.189400  0.482400  0.007400  1.0  0.0845
  H  H278  1  0.182300  0.430900  0.016900  1.0  0.1202
  H  H279  1  0.230200  0.375400  0.023800  1.0  0.1139
  H  H280  1  0.289300  0.428300  0.007900  1.0  0.0856
  H  H281  1  0.417900  0.283500  0.008300  1.0  0.0825
  H  H282  1  0.482000  0.334600  0.979200  1.0  0.0928
  H  H283  1  0.434200  0.387200  0.982600  1.0  0.1198
  H  H284  1  0.375600  0.390400  0.995600  1.0  0.1215
  H  H285  1  0.442100  0.261500  0.071100  1.0  0.0818
  H  H286  1  0.433100  0.274700  0.118100  1.0  0.1217
  H  H287  1  0.481700  0.277500  0.121500  1.0  0.1178
  H  H288  1  0.544400  0.254400  0.029000  1.0  0.0893
  H  H289  1  0.686800  0.812000  0.454400  1.0  0.0872
  H  H290  1  0.681700  0.854300  0.399100  1.0  0.1209
  H  H291  1  0.734000  0.862000  0.349600  1.0  0.1188
  H  H292  1  0.792500  0.775500  0.411100  1.0  0.0806
  H  H293  1  0.982400  0.689400  0.320800  1.0  0.0847
  H  H294  1  0.930900  0.682300  0.369900  1.0  0.1221
  H  H295  1  0.875400  0.730200  0.370600  1.0  0.1147
  H  H296  1  0.928300  0.789300  0.274500  1.0  0.0853
  H  H297  1  0.783500  0.917900  0.290300  1.0  0.083
  H  H298  1  0.834600  0.982000  0.204200  1.0  0.0924
  H  H299  1  0.887200  0.934200  0.196000  1.0  0.1179
  H  H300  1  0.890400  0.875600  0.238400  1.0  0.1197
  H  H301  1  0.761500  0.942100  0.225300  1.0  0.0824
  H  H302  1  0.774700  0.933100  0.174100  1.0  0.1238
  H  H303  1  0.777500  0.981700  0.119300  1.0  0.1175
  H  H304  1  0.754400  0.044400  0.172200  1.0  0.0906
  H  H305  1  0.686800  0.046800  0.812000  1.0  0.0883
  H  H306  1  0.681700  0.064900  0.854300  1.0  0.1202
  H  H307  1  0.734000  0.054400  0.862000  1.0  0.1202
  H  H308  1  0.792500  0.020900  0.775500  1.0  0.078
  H  H309  1  0.982400  0.007400  0.689400  1.0  0.0846
  H  H310  1  0.930900  0.016900  0.682300  1.0  0.1201
  H  H311  1  0.875400  0.023800  0.730200  1.0  0.1148
  H  H312  1  0.928300  0.007900  0.789300  1.0  0.0871
  H  H313  1  0.783500  0.008300  0.917900  1.0  0.0826
  H  H314  1  0.834600  0.979200  0.982000  1.0  0.0904
  H  H315  1  0.887200  0.982600  0.934200  1.0  0.1181
  H  H316  1  0.890400  0.995600  0.875600  1.0  0.1193
  H  H317  1  0.761500  0.071100  0.942100  1.0  0.0834
  H  H318  1  0.774700  0.118100  0.933100  1.0  0.1233
  H  H319  1  0.777500  0.121500  0.981700  1.0  0.1174
  H  H320  1  0.754400  0.029000  0.044400  1.0  0.0909
  H  H321  1  0.312000  0.454400  0.186800  1.0  0.0878
  H  H322  1  0.354300  0.399100  0.181700  1.0  0.1203
  H  H323  1  0.362000  0.349600  0.234000  1.0  0.1202
  H  H324  1  0.275500  0.411100  0.292500  1.0  0.0797
  H  H325  1  0.189400  0.320800  0.482400  1.0  0.0837
  H  H326  1  0.182300  0.369900  0.430900  1.0  0.1213
  H  H327  1  0.230200  0.370600  0.375400  1.0  0.1131
  H  H328  1  0.289300  0.274500  0.428300  1.0  0.0855
  H  H329  1  0.417900  0.290300  0.283500  1.0  0.082
  H  H330  1  0.482000  0.204200  0.334600  1.0  0.0943
  H  H331  1  0.434200  0.196000  0.387200  1.0  0.121
  H  H332  1  0.375600  0.238400  0.390400  1.0  0.1205
  H  H333  1  0.442100  0.225300  0.261500  1.0  0.0826
  H  H334  1  0.433100  0.174100  0.274700  1.0  0.1201
  H  H335  1  0.481700  0.119300  0.277500  1.0  0.1169
  H  H336  1  0.544400  0.172200  0.254400  1.0  0.0899
  H  H337  1  0.546800  0.186800  0.454400  1.0  0.0892
  H  H338  1  0.564900  0.181700  0.399100  1.0  0.1216
  H  H339  1  0.554400  0.234000  0.349600  1.0  0.1199
  H  H340  1  0.520900  0.292500  0.411100  1.0  0.0793
  H  H341  1  0.507400  0.482400  0.320800  1.0  0.0844
  H  H342  1  0.516900  0.430900  0.369900  1.0  0.1208
  H  H343  1  0.523800  0.375400  0.370600  1.0  0.1138
  H  H344  1  0.507900  0.428300  0.274500  1.0  0.0874
  H  H345  1  0.508300  0.283500  0.290300  1.0  0.0829
  H  H346  1  0.479200  0.334600  0.204200  1.0  0.0947
  H  H347  1  0.482600  0.387200  0.196000  1.0  0.1193
  H  H348  1  0.495600  0.390400  0.238400  1.0  0.1205
  H  H349  1  0.571100  0.261500  0.225300  1.0  0.0826
  H  H350  1  0.618100  0.274700  0.174100  1.0  0.1216
  H  H351  1  0.621500  0.277500  0.119300  1.0  0.1171
  H  H352  1  0.529000  0.254400  0.172200  1.0  0.0899
  H  H353  1  0.954400  0.812000  0.046800  1.0  0.0868
  H  H354  1  0.899100  0.854300  0.064900  1.0  0.1199
  H  H355  1  0.849600  0.862000  0.054400  1.0  0.1196
  H  H356  1  0.911100  0.775500  0.020900  1.0  0.0801
  H  H357  1  0.820800  0.689400  0.007400  1.0  0.0835
  H  H358  1  0.869900  0.682300  0.016900  1.0  0.1216
  H  H359  1  0.870600  0.730200  0.023800  1.0  0.1136
  H  H360  1  0.774500  0.789300  0.007900  1.0  0.0867
  H  H361  1  0.790300  0.917900  0.008300  1.0  0.0821
  H  H362  1  0.704200  0.982000  0.979200  1.0  0.0928
  H  H363  1  0.696000  0.934200  0.982600  1.0  0.1172
  H  H364  1  0.738400  0.875600  0.995600  1.0  0.1204
  H  H365  1  0.725300  0.942100  0.071100  1.0  0.0828
  H  H366  1  0.674100  0.933100  0.118100  1.0  0.1245
  H  H367  1  0.619300  0.981700  0.121500  1.0  0.1179
  H  H368  1  0.672200  0.044400  0.029000  1.0  0.0909
  H  H369  1  0.312000  0.046800  0.454400  1.0  0.0889
  H  H370  1  0.354300  0.064900  0.399100  1.0  0.1207
  H  H371  1  0.362000  0.054400  0.349600  1.0  0.1195
  H  H372  1  0.275500  0.020900  0.411100  1.0  0.0792
  H  H373  1  0.189400  0.007400  0.320800  1.0  0.0847
  H  H374  1  0.182300  0.016900  0.369900  1.0  0.12
  H  H375  1  0.230200  0.023800  0.370600  1.0  0.1139
  H  H376  1  0.289300  0.007900  0.274500  1.0  0.0853
  H  H377  1  0.417900  0.008300  0.290300  1.0  0.0845
  H  H378  1  0.482000  0.979200  0.204200  1.0  0.0939
  H  H379  1  0.434200  0.982600  0.196000  1.0  0.1174
  H  H380  1  0.375600  0.995600  0.238400  1.0  0.1207
  H  H381  1  0.442100  0.071100  0.225300  1.0  0.0818
  H  H382  1  0.433100  0.118100  0.174100  1.0  0.1231
  H  H383  1  0.481700  0.121500  0.119300  1.0  0.117
  H  H384  1  0.544400  0.029000  0.172200  1.0  0.0901
  H  H385  1  0.686800  0.454400  0.046800  1.0  0.0884
  H  H386  1  0.681700  0.399100  0.064900  1.0  0.1207
  H  H387  1  0.734000  0.349600  0.054400  1.0  0.1188
  H  H388  1  0.792500  0.411100  0.020900  1.0  0.0793
  H  H389  1  0.982400  0.320800  0.007400  1.0  0.0844
  H  H390  1  0.930900  0.369900  0.016900  1.0  0.1211
  H  H391  1  0.875400  0.370600  0.023800  1.0  0.1148
  H  H392  1  0.928300  0.274500  0.007900  1.0  0.0844
  H  H393  1  0.783500  0.290300  0.008300  1.0  0.0827
  H  H394  1  0.834600  0.204200  0.979200  1.0  0.0921
  H  H395  1  0.887200  0.196000  0.982600  1.0  0.1202
  H  H396  1  0.890400  0.238400  0.995600  1.0  0.1202
  H  H397  1  0.761500  0.225300  0.071100  1.0  0.0842
  H  H398  1  0.774700  0.174100  0.118100  1.0  0.1216
  H  H399  1  0.777500  0.119300  0.121500  1.0  0.117
  H  H400  1  0.754400  0.172200  0.029000  1.0  0.0918
  H  H401  1  0.954400  0.186800  0.812000  1.0  0.089
  H  H402  1  0.899100  0.181700  0.854300  1.0  0.1207
  H  H403  1  0.849600  0.234000  0.862000  1.0  0.1198
  H  H404  1  0.911100  0.292500  0.775500  1.0  0.0808
  H  H405  1  0.820800  0.482400  0.689400  1.0  0.083
  H  H406  1  0.869900  0.430900  0.682300  1.0  0.1203
  H  H407  1  0.870600  0.375400  0.730200  1.0  0.1145
  H  H408  1  0.774500  0.428300  0.789300  1.0  0.0848
  H  H409  1  0.790300  0.283500  0.917900  1.0  0.0825
  H  H410  1  0.704200  0.334600  0.982000  1.0  0.0921
  H  H411  1  0.696000  0.387200  0.934200  1.0  0.118
  H  H412  1  0.738400  0.390400  0.875600  1.0  0.1211
  H  H413  1  0.725300  0.261500  0.942100  1.0  0.0831
  H  H414  1  0.674100  0.274700  0.933100  1.0  0.1199
  H  H415  1  0.619300  0.277500  0.981700  1.0  0.1181
  H  H416  1  0.672200  0.254400  0.044400  1.0  0.0916
  H  H417  1  0.546800  0.812000  0.186800  1.0  0.089
  H  H418  1  0.564900  0.854300  0.181700  1.0  0.1208
  H  H419  1  0.554400  0.862000  0.234000  1.0  0.1184
  H  H420  1  0.520900  0.775500  0.292500  1.0  0.0807
  H  H421  1  0.507400  0.689400  0.482400  1.0  0.084
  H  H422  1  0.516900  0.682300  0.430900  1.0  0.1216
  H  H423  1  0.523800  0.730200  0.375400  1.0  0.115
  H  H424  1  0.507900  0.789300  0.428300  1.0  0.0857
  H  H425  1  0.508300  0.917900  0.283500  1.0  0.0845
  H  H426  1  0.479200  0.982000  0.334600  1.0  0.0937
  H  H427  1  0.482600  0.934200  0.387200  1.0  0.1166
  H  H428  1  0.495600  0.875600  0.390400  1.0  0.121
  H  H429  1  0.571100  0.942100  0.261500  1.0  0.0818
  H  H430  1  0.618100  0.933100  0.274700  1.0  0.1233
  H  H431  1  0.621500  0.981700  0.277500  1.0  0.1169
  H  H432  1  0.529000  0.044400  0.254400  1.0  0.0913
  H  H433  1  0.046800  0.954400  0.686800  1.0  0.089
  H  H434  1  0.064900  0.899100  0.681700  1.0  0.1202
  H  H435  1  0.054400  0.849600  0.734000  1.0  0.1186
  H  H436  1  0.020900  0.911100  0.792500  1.0  0.0824
  H  H437  1  0.007400  0.820800  0.982400  1.0  0.0857
  H  H438  1  0.016900  0.869900  0.930900  1.0  0.1208
  H  H439  1  0.023800  0.870600  0.875400  1.0  0.1138
  H  H440  1  0.007900  0.774500  0.928300  1.0  0.0858
  H  H441  1  0.008300  0.790300  0.783500  1.0  0.0827
  H  H442  1  0.979200  0.704200  0.834600  1.0  0.0901
  H  H443  1  0.982600  0.696000  0.887200  1.0  0.1212
  H  H444  1  0.995600  0.738400  0.890400  1.0  0.1209
  H  H445  1  0.071100  0.725300  0.761500  1.0  0.0824
  H  H446  1  0.118100  0.674100  0.774700  1.0  0.1219
  H  H447  1  0.121500  0.619300  0.777500  1.0  0.1175
  H  H448  1  0.029000  0.672200  0.754400  1.0  0.09
  H  H449  1  0.454400  0.546800  0.312000  1.0  0.0882
  H  H450  1  0.399100  0.564900  0.354300  1.0  0.1202
  H  H451  1  0.349600  0.554400  0.362000  1.0  0.1196
  H  H452  1  0.411100  0.520900  0.275500  1.0  0.0814
  H  H453  1  0.320800  0.507400  0.189400  1.0  0.0849
  H  H454  1  0.369900  0.516900  0.182300  1.0  0.1202
  H  H455  1  0.370600  0.523800  0.230200  1.0  0.114
  H  H456  1  0.274500  0.507900  0.289300  1.0  0.0858
  H  H457  1  0.290300  0.508300  0.417900  1.0  0.0816
  H  H458  1  0.204200  0.479200  0.482000  1.0  0.0906
  H  H459  1  0.196000  0.482600  0.434200  1.0  0.1193
  H  H460  1  0.238400  0.495600  0.375600  1.0  0.1201
  H  H461  1  0.225300  0.571100  0.442100  1.0  0.0822
  H  H462  1  0.174100  0.618100  0.433100  1.0  0.1235
  H  H463  1  0.119300  0.621500  0.481700  1.0  0.119
  H  H464  1  0.172200  0.529000  0.544400  1.0  0.0917
  H  H465  1  0.186800  0.312000  0.546800  1.0  0.0877
  H  H466  1  0.181700  0.354300  0.564900  1.0  0.1202
  H  H467  1  0.234000  0.362000  0.554400  1.0  0.1187
  H  H468  1  0.292500  0.275500  0.520900  1.0  0.0805
  H  H469  1  0.482400  0.189400  0.507400  1.0  0.0841
  H  H470  1  0.430900  0.182300  0.516900  1.0  0.1214
  H  H471  1  0.375400  0.230200  0.523800  1.0  0.1145
  H  H472  1  0.428300  0.289300  0.507900  1.0  0.0853
  H  H473  1  0.283500  0.417900  0.508300  1.0  0.0826
  H  H474  1  0.334600  0.482000  0.479200  1.0  0.0923
  H  H475  1  0.387200  0.434200  0.482600  1.0  0.1194
  H  H476  1  0.390400  0.375600  0.495600  1.0  0.1198
  H  H477  1  0.261500  0.442100  0.571100  1.0  0.0823
  H  H478  1  0.274700  0.433100  0.618100  1.0  0.1248
  H  H479  1  0.277500  0.481700  0.621500  1.0  0.1175
  H  H480  1  0.254400  0.544400  0.529000  1.0  0.0908
  H  H481  1  0.812000  0.686800  0.954400  1.0  0.0885
  H  H482  1  0.854300  0.681700  0.899100  1.0  0.1224
  H  H483  1  0.862000  0.734000  0.849600  1.0  0.1201
  H  H484  1  0.775500  0.792500  0.911100  1.0  0.0805
  H  H485  1  0.689400  0.982400  0.820800  1.0  0.0854
  H  H486  1  0.682300  0.930900  0.869900  1.0  0.1203
  H  H487  1  0.730200  0.875400  0.870600  1.0  0.114
  H  H488  1  0.789300  0.928300  0.774500  1.0  0.0851
  H  H489  1  0.917900  0.783500  0.790300  1.0  0.0827
  H  H490  1  0.982000  0.834600  0.704200  1.0  0.0927
  H  H491  1  0.934200  0.887200  0.696000  1.0  0.1192
  H  H492  1  0.875600  0.890400  0.738400  1.0  0.1215
  H  H493  1  0.942100  0.761500  0.725300  1.0  0.0818
  H  H494  1  0.933100  0.774700  0.674100  1.0  0.1209
  H  H495  1  0.981700  0.777500  0.619300  1.0  0.1181
  H  H496  1  0.044400  0.754400  0.672200  1.0  0.0895
  H  H497  1  0.046800  0.686800  0.312000  1.0  0.0897
  H  H498  1  0.064900  0.681700  0.354300  1.0  0.1217
  H  H499  1  0.054400  0.734000  0.362000  1.0  0.12
  H  H500  1  0.020900  0.792500  0.275500  1.0  0.0793
  H  H501  1  0.007400  0.982400  0.189400  1.0  0.0849
  H  H502  1  0.016900  0.930900  0.182300  1.0  0.1213
  H  H503  1  0.023800  0.875400  0.230200  1.0  0.1136
  H  H504  1  0.007900  0.928300  0.289300  1.0  0.0869
  H  H505  1  0.008300  0.783500  0.417900  1.0  0.0828
  H  H506  1  0.979200  0.834600  0.482000  1.0  0.094
  H  H507  1  0.982600  0.887200  0.434200  1.0  0.1195
  H  H508  1  0.995600  0.890400  0.375600  1.0  0.1205
  H  H509  1  0.071100  0.761500  0.442100  1.0  0.0833
  H  H510  1  0.118100  0.774700  0.433100  1.0  0.1216
  H  H511  1  0.121500  0.777500  0.481700  1.0  0.1169
  H  H512  1  0.029000  0.754400  0.544400  1.0  0.09
  H  H513  1  0.454400  0.312000  0.686800  1.0  0.0869
  H  H514  1  0.399100  0.354300  0.681700  1.0  0.1192
  H  H515  1  0.349600  0.362000  0.734000  1.0  0.1196
  H  H516  1  0.411100  0.275500  0.792500  1.0  0.0805
  H  H517  1  0.320800  0.189400  0.982400  1.0  0.0834
  H  H518  1  0.369900  0.182300  0.930900  1.0  0.1224
  H  H519  1  0.370600  0.230200  0.875400  1.0  0.1139
  H  H520  1  0.274500  0.289300  0.928300  1.0  0.0862
  H  H521  1  0.290300  0.417900  0.783500  1.0  0.0822
  H  H522  1  0.204200  0.482000  0.834600  1.0  0.093
  H  H523  1  0.196000  0.434200  0.887200  1.0  0.1191
  H  H524  1  0.238400  0.375600  0.890400  1.0  0.1202
  H  H525  1  0.225300  0.442100  0.761500  1.0  0.0827
  H  H526  1  0.174100  0.433100  0.774700  1.0  0.124
  H  H527  1  0.119300  0.481700  0.777500  1.0  0.1181
  H  H528  1  0.172200  0.544400  0.754400  1.0  0.091
  H  H529  1  0.186800  0.546800  0.954400  1.0  0.0878
  H  H530  1  0.181700  0.564900  0.899100  1.0  0.1203
  H  H531  1  0.234000  0.554400  0.849600  1.0  0.1197
  H  H532  1  0.292500  0.520900  0.911100  1.0  0.0789
  H  H533  1  0.482400  0.507400  0.820800  1.0  0.0848
  H  H534  1  0.430900  0.516900  0.869900  1.0  0.1205
  H  H535  1  0.375400  0.523800  0.870600  1.0  0.1147
  H  H536  1  0.428300  0.507900  0.774500  1.0  0.0876
  H  H537  1  0.283500  0.508300  0.790300  1.0  0.0826
  H  H538  1  0.334600  0.479200  0.704200  1.0  0.092
  H  H539  1  0.387200  0.482600  0.696000  1.0  0.1188
  H  H540  1  0.390400  0.495600  0.738400  1.0  0.1194
  H  H541  1  0.261500  0.571100  0.725300  1.0  0.0834
  H  H542  1  0.274700  0.618100  0.674100  1.0  0.1229
  H  H543  1  0.277500  0.621500  0.619300  1.0  0.1175
  H  H544  1  0.254400  0.529000  0.672200  1.0  0.0909
  H  H545  1  0.812000  0.954400  0.546800  1.0  0.0871
  H  H546  1  0.854300  0.899100  0.564900  1.0  0.1202
  H  H547  1  0.862000  0.849600  0.554400  1.0  0.1204
  H  H548  1  0.775500  0.911100  0.520900  1.0  0.0795
  H  H549  1  0.689400  0.820800  0.507400  1.0  0.0837
  H  H550  1  0.682300  0.869900  0.516900  1.0  0.1212
  H  H551  1  0.730200  0.870600  0.523800  1.0  0.1124
  H  H552  1  0.789300  0.774500  0.507900  1.0  0.0857
  H  H553  1  0.917900  0.790300  0.508300  1.0  0.0815
  H  H554  1  0.982000  0.704200  0.479200  1.0  0.094
  H  H555  1  0.934200  0.696000  0.482600  1.0  0.1183
  H  H556  1  0.875600  0.738400  0.495600  1.0  0.1204
  H  H557  1  0.942100  0.725300  0.571100  1.0  0.0827
  H  H558  1  0.933100  0.674100  0.618100  1.0  0.1204
  H  H559  1  0.981700  0.619300  0.621500  1.0  0.1168
  H  H560  1  0.044400  0.672200  0.529000  1.0  0.09
  H  H561  1  0.046800  0.312000  0.954400  1.0  0.0887
  H  H562  1  0.064900  0.354300  0.899100  1.0  0.1206
  H  H563  1  0.054400  0.362000  0.849600  1.0  0.1187
  H  H564  1  0.020900  0.275500  0.911100  1.0  0.0804
  H  H565  1  0.007400  0.189400  0.820800  1.0  0.0846
  H  H566  1  0.016900  0.182300  0.869900  1.0  0.1229
  H  H567  1  0.023800  0.230200  0.870600  1.0  0.114
  H  H568  1  0.007900  0.289300  0.774500  1.0  0.0857
  H  H569  1  0.008300  0.417900  0.790300  1.0  0.0843
  H  H570  1  0.979200  0.482000  0.704200  1.0  0.0935
  H  H571  1  0.982600  0.434200  0.696000  1.0  0.1176
  H  H572  1  0.995600  0.375600  0.738400  1.0  0.1208
  H  H573  1  0.071100  0.442100  0.725300  1.0  0.0813
  H  H574  1  0.118100  0.433100  0.674100  1.0  0.1239
  H  H575  1  0.121500  0.481700  0.619300  1.0  0.1167
  H  H576  1  0.029000  0.544400  0.672200  1.0  0.0916
  H  H577  1  0.454400  0.686800  0.546800  1.0  0.089
  H  H578  1  0.399100  0.681700  0.564900  1.0  0.1202
  H  H579  1  0.349600  0.734000  0.554400  1.0  0.1197
  H  H580  1  0.411100  0.792500  0.520900  1.0  0.0807
  H  H581  1  0.320800  0.982400  0.507400  1.0  0.0829
  H  H582  1  0.369900  0.930900  0.516900  1.0  0.1201
  H  H583  1  0.370600  0.875400  0.523800  1.0  0.1146
  H  H584  1  0.274500  0.928300  0.507900  1.0  0.0844
  H  H585  1  0.290300  0.783500  0.508300  1.0  0.0823
  H  H586  1  0.204200  0.834600  0.479200  1.0  0.0919
  H  H587  1  0.196000  0.887200  0.482600  1.0  0.1201
  H  H588  1  0.238400  0.890400  0.495600  1.0  0.1209
  H  H589  1  0.225300  0.761500  0.571100  1.0  0.0843
  H  H590  1  0.174100  0.774700  0.618100  1.0  0.1208
  H  H591  1  0.119300  0.777500  0.621500  1.0  0.1176
  H  H592  1  0.172200  0.754400  0.529000  1.0  0.0918
  H  H593  1  0.186800  0.954400  0.312000  1.0  0.0884
  H  H594  1  0.181700  0.899100  0.354300  1.0  0.121
  H  H595  1  0.234000  0.849600  0.362000  1.0  0.1188
  H  H596  1  0.292500  0.911100  0.275500  1.0  0.0795
  H  H597  1  0.482400  0.820800  0.189400  1.0  0.0835
  H  H598  1  0.430900  0.869900  0.182300  1.0  0.1222
  H  H599  1  0.375400  0.870600  0.230200  1.0  0.1148
  H  H600  1  0.428300  0.774500  0.289300  1.0  0.0848
  H  H601  1  0.283500  0.790300  0.417900  1.0  0.0826
  H  H602  1  0.334600  0.704200  0.482000  1.0  0.0915
  H  H603  1  0.387200  0.696000  0.434200  1.0  0.1199
  H  H604  1  0.390400  0.738400  0.375600  1.0  0.1202
  H  H605  1  0.261500  0.725300  0.442100  1.0  0.0839
  H  H606  1  0.274700  0.674100  0.433100  1.0  0.1209
  H  H607  1  0.277500  0.619300  0.481700  1.0  0.1171
  H  H608  1  0.254400  0.672200  0.544400  1.0  0.0915
  H  H609  1  0.812000  0.546800  0.686800  1.0  0.0899
  H  H610  1  0.854300  0.564900  0.681700  1.0  0.1209
  H  H611  1  0.862000  0.554400  0.734000  1.0  0.1193
  H  H612  1  0.775500  0.520900  0.792500  1.0  0.0799
  H  H613  1  0.689400  0.507400  0.982400  1.0  0.0843
  H  H614  1  0.682300  0.516900  0.930900  1.0  0.12
  H  H615  1  0.730200  0.523800  0.875400  1.0  0.1154
  H  H616  1  0.789300  0.507900  0.928300  1.0  0.0852
  H  H617  1  0.917900  0.508300  0.783500  1.0  0.0848
  H  H618  1  0.982000  0.479200  0.834600  1.0  0.0942
  H  H619  1  0.934200  0.482600  0.887200  1.0  0.1165
  H  H620  1  0.875600  0.495600  0.890400  1.0  0.1207
  H  H621  1  0.942100  0.571100  0.761500  1.0  0.0819
  H  H622  1  0.933100  0.618100  0.774700  1.0  0.1229
  H  H623  1  0.981700  0.621500  0.777500  1.0  0.1166
  H  H624  1  0.044400  0.529000  0.754400  1.0  0.09
  H  H625  1  0.045600  0.953200  0.813200  1.0  0.089
  H  H626  1  0.100900  0.935100  0.818300  1.0  0.12
  H  H627  1  0.150400  0.945600  0.766000  1.0  0.1196
  H  H628  1  0.088900  0.979100  0.707500  1.0  0.0821
  H  H629  1  0.179200  0.992600  0.517600  1.0  0.0844
  H  H630  1  0.130100  0.983100  0.569100  1.0  0.1192
  H  H631  1  0.129400  0.976200  0.624600  1.0  0.1141
  H  H632  1  0.225500  0.992100  0.571700  1.0  0.0857
  H  H633  1  0.209700  0.991700  0.716500  1.0  0.0817
  H  H634  1  0.295800  0.020800  0.665400  1.0  0.0908
  H  H635  1  0.304000  0.017400  0.612800  1.0  0.1189
  H  H636  1  0.261600  0.004400  0.609600  1.0  0.1202
  H  H637  1  0.274700  0.928900  0.738500  1.0  0.0828
  H  H638  1  0.325900  0.881900  0.725300  1.0  0.1228
  H  H639  1  0.380700  0.878500  0.722500  1.0  0.1187
  H  H640  1  0.327800  0.971000  0.745600  1.0  0.0911
  H  H641  1  0.453200  0.545600  0.188000  1.0  0.09
  H  H642  1  0.435100  0.600900  0.145700  1.0  0.1194
  H  H643  1  0.445600  0.650400  0.138000  1.0  0.1187
  H  H644  1  0.479100  0.588900  0.224500  1.0  0.0821
  H  H645  1  0.492600  0.679200  0.310600  1.0  0.085
  H  H646  1  0.483100  0.630100  0.317700  1.0  0.1212
  H  H647  1  0.476200  0.629400  0.269800  1.0  0.1133
  H  H648  1  0.492100  0.725500  0.210700  1.0  0.0857
  H  H649  1  0.491700  0.709700  0.082100  1.0  0.0823
  H  H650  1  0.520800  0.795800  0.018000  1.0  0.0901
  H  H651  1  0.517400  0.804000  0.065800  1.0  0.119
  H  H652  1  0.504400  0.761600  0.124400  1.0  0.1209
  H  H653  1  0.428900  0.774700  0.057900  1.0  0.0834
  H  H654  1  0.381900  0.825900  0.066900  1.0  0.1223
  H  H655  1  0.378500  0.880700  0.018300  1.0  0.1174
  H  H656  1  0.471000  0.827800  0.955600  1.0  0.0904
  H  H657  1  0.688000  0.813200  0.953200  1.0  0.088
  H  H658  1  0.645700  0.818300  0.935100  1.0  0.1224
  H  H659  1  0.638000  0.766000  0.945600  1.0  0.1202
  H  H660  1  0.724500  0.707500  0.979100  1.0  0.0811
  H  H661  1  0.810600  0.517600  0.992600  1.0  0.0859
  H  H662  1  0.817700  0.569100  0.983100  1.0  0.1204
  H  H663  1  0.769800  0.624600  0.976200  1.0  0.1139
  H  H664  1  0.710700  0.571700  0.992100  1.0  0.0852
  H  H665  1  0.582100  0.716500  0.991700  1.0  0.0827
  H  H666  1  0.518000  0.665400  0.020800  1.0  0.0918
  H  H667  1  0.565800  0.612800  0.017400  1.0  0.1201
  H  H668  1  0.624400  0.609600  0.004400  1.0  0.1208
  H  H669  1  0.557900  0.738500  0.928900  1.0  0.0821
  H  H670  1  0.566900  0.725300  0.881900  1.0  0.1217
  H  H671  1  0.518300  0.722500  0.878500  1.0  0.1178
  H  H672  1  0.455600  0.745600  0.971000  1.0  0.0891
  H  H673  1  0.313200  0.188000  0.545600  1.0  0.0875
  H  H674  1  0.318300  0.145700  0.600900  1.0  0.1207
  H  H675  1  0.266000  0.138000  0.650400  1.0  0.1193
  H  H676  1  0.207500  0.224500  0.588900  1.0  0.0799
  H  H677  1  0.017600  0.310600  0.679200  1.0  0.0846
  H  H678  1  0.069100  0.317700  0.630100  1.0  0.1221
  H  H679  1  0.124600  0.269800  0.629400  1.0  0.1151
  H  H680  1  0.071700  0.210700  0.725500  1.0  0.0855
  H  H681  1  0.216500  0.082100  0.709700  1.0  0.0822
  H  H682  1  0.165400  0.018000  0.795800  1.0  0.0921
  H  H683  1  0.112800  0.065800  0.804000  1.0  0.1179
  H  H684  1  0.109600  0.124400  0.761600  1.0  0.1196
  H  H685  1  0.238500  0.057900  0.774700  1.0  0.0822
  H  H686  1  0.225300  0.066900  0.825900  1.0  0.1232
  H  H687  1  0.222500  0.018300  0.880700  1.0  0.118
  H  H688  1  0.245600  0.955600  0.827800  1.0  0.0905
  H  H689  1  0.313200  0.953200  0.188000  1.0  0.0883
  H  H690  1  0.318300  0.935100  0.145700  1.0  0.1206
  H  H691  1  0.266000  0.945600  0.138000  1.0  0.1197
  H  H692  1  0.207500  0.979100  0.224500  1.0  0.0789
  H  H693  1  0.017600  0.992600  0.310600  1.0  0.0845
  H  H694  1  0.069100  0.983100  0.317700  1.0  0.1205
  H  H695  1  0.124600  0.976200  0.269800  1.0  0.1144
  H  H696  1  0.071700  0.992100  0.210700  1.0  0.0878
  H  H697  1  0.216500  0.991700  0.082100  1.0  0.0828
  H  H698  1  0.165400  0.020800  0.018000  1.0  0.0924
  H  H699  1  0.112800  0.017400  0.065800  1.0  0.1181
  H  H700  1  0.109600  0.004400  0.124400  1.0  0.1198
  H  H701  1  0.238500  0.928900  0.057900  1.0  0.0834
  H  H702  1  0.225300  0.881900  0.066900  1.0  0.1235
  H  H703  1  0.222500  0.878500  0.018300  1.0  0.1167
  H  H704  1  0.245600  0.971000  0.955600  1.0  0.0908
  H  H705  1  0.688000  0.545600  0.813200  1.0  0.0889
  H  H706  1  0.645700  0.600900  0.818300  1.0  0.12
  H  H707  1  0.638000  0.650400  0.766000  1.0  0.12
  H  H708  1  0.724500  0.588900  0.707500  1.0  0.0796
  H  H709  1  0.810600  0.679200  0.517600  1.0  0.0844
  H  H710  1  0.817700  0.630100  0.569100  1.0  0.1209
  H  H711  1  0.769800  0.629400  0.624600  1.0  0.1125
  H  H712  1  0.710700  0.725500  0.571700  1.0  0.0861
  H  H713  1  0.582100  0.709700  0.716500  1.0  0.0812
  H  H714  1  0.518000  0.795800  0.665400  1.0  0.0949
  H  H715  1  0.565800  0.804000  0.612800  1.0  0.1201
  H  H716  1  0.624400  0.761600  0.609600  1.0  0.1199
  H  H717  1  0.557900  0.774700  0.738500  1.0  0.0823
  H  H718  1  0.566900  0.825900  0.725300  1.0  0.1202
  H  H719  1  0.518300  0.880700  0.722500  1.0  0.1168
  H  H720  1  0.455600  0.827800  0.745600  1.0  0.0901
  H  H721  1  0.453200  0.813200  0.545600  1.0  0.0885
  H  H722  1  0.435100  0.818300  0.600900  1.0  0.1216
  H  H723  1  0.445600  0.766000  0.650400  1.0  0.1204
  H  H724  1  0.479100  0.707500  0.588900  1.0  0.0794
  H  H725  1  0.492600  0.517600  0.679200  1.0  0.0848
  H  H726  1  0.483100  0.569100  0.630100  1.0  0.1201
  H  H727  1  0.476200  0.624600  0.629400  1.0  0.1142
  H  H728  1  0.492100  0.571700  0.725500  1.0  0.087
  H  H729  1  0.491700  0.716500  0.709700  1.0  0.0828
  H  H730  1  0.520800  0.665400  0.795800  1.0  0.0937
  H  H731  1  0.517400  0.612800  0.804000  1.0  0.1208
  H  H732  1  0.504400  0.609600  0.761600  1.0  0.1201
  H  H733  1  0.428900  0.738500  0.774700  1.0  0.0839
  H  H734  1  0.381900  0.725300  0.825900  1.0  0.1216
  H  H735  1  0.378500  0.722500  0.880700  1.0  0.1169
  H  H736  1  0.471000  0.745600  0.827800  1.0  0.0905
  H  H737  1  0.045600  0.188000  0.953200  1.0  0.0879
  H  H738  1  0.100900  0.145700  0.935100  1.0  0.12
  H  H739  1  0.150400  0.138000  0.945600  1.0  0.1201
  H  H740  1  0.088900  0.224500  0.979100  1.0  0.08
  H  H741  1  0.179200  0.310600  0.992600  1.0  0.0833
  H  H742  1  0.130100  0.317700  0.983100  1.0  0.1219
  H  H743  1  0.129400  0.269800  0.976200  1.0  0.1144
  H  H744  1  0.225500  0.210700  0.992100  1.0  0.0858
  H  H745  1  0.209700  0.082100  0.991700  1.0  0.0817
  H  H746  1  0.295800  0.018000  0.020800  1.0  0.0914
  H  H747  1  0.304000  0.065800  0.017400  1.0  0.1172
  H  H748  1  0.261600  0.124400  0.004400  1.0  0.1193
  H  H749  1  0.274700  0.057900  0.928900  1.0  0.0831
  H  H750  1  0.325900  0.066900  0.881900  1.0  0.1239
  H  H751  1  0.380700  0.018300  0.878500  1.0  0.1182
  H  H752  1  0.327800  0.955600  0.971000  1.0  0.0912
  H  H753  1  0.688000  0.953200  0.545600  1.0  0.0904
  H  H754  1  0.645700  0.935100  0.600900  1.0  0.12
  H  H755  1  0.638000  0.945600  0.650400  1.0  0.1194
  H  H756  1  0.724500  0.979100  0.588900  1.0  0.0798
  H  H757  1  0.810600  0.992600  0.679200  1.0  0.0853
  H  H758  1  0.817700  0.983100  0.630100  1.0  0.1201
  H  H759  1  0.769800  0.976200  0.629400  1.0  0.115
  H  H760  1  0.710700  0.992100  0.725500  1.0  0.0847
  H  H761  1  0.582100  0.991700  0.709700  1.0  0.0851
  H  H762  1  0.518000  0.020800  0.795800  1.0  0.0936
  H  H763  1  0.565800  0.017400  0.804000  1.0  0.1178
  H  H764  1  0.624400  0.004400  0.761600  1.0  0.1203
  H  H765  1  0.557900  0.928900  0.774700  1.0  0.0818
  H  H766  1  0.566900  0.881900  0.825900  1.0  0.1228
  H  H767  1  0.518300  0.878500  0.880700  1.0  0.1166
  H  H768  1  0.455600  0.971000  0.827800  1.0  0.0899
  H  H769  1  0.313200  0.545600  0.953200  1.0  0.0887
  H  H770  1  0.318300  0.600900  0.935100  1.0  0.1202
  H  H771  1  0.266000  0.650400  0.945600  1.0  0.1185
  H  H772  1  0.207500  0.588900  0.979100  1.0  0.0787
  H  H773  1  0.017600  0.679200  0.992600  1.0  0.0834
  H  H774  1  0.069100  0.630100  0.983100  1.0  0.1206
  H  H775  1  0.124600  0.629400  0.976200  1.0  0.1146
  H  H776  1  0.071700  0.725500  0.992100  1.0  0.085
  H  H777  1  0.216500  0.709700  0.991700  1.0  0.0827
  H  H778  1  0.165400  0.795800  0.020800  1.0  0.0916
  H  H779  1  0.112800  0.804000  0.017400  1.0  0.1195
  H  H780  1  0.109600  0.761600  0.004400  1.0  0.1209
  H  H781  1  0.238500  0.774700  0.928900  1.0  0.0842
  H  H782  1  0.225300  0.825900  0.881900  1.0  0.1205
  H  H783  1  0.222500  0.880700  0.878500  1.0  0.1177
  H  H784  1  0.245600  0.827800  0.971000  1.0  0.0914
  H  H785  1  0.045600  0.813200  0.188000  1.0  0.0886
  H  H786  1  0.100900  0.818300  0.145700  1.0  0.1209
  H  H787  1  0.150400  0.766000  0.138000  1.0  0.1195
  H  H788  1  0.088900  0.707500  0.224500  1.0  0.0811
  H  H789  1  0.179200  0.517600  0.310600  1.0  0.0837
  H  H790  1  0.130100  0.569100  0.317700  1.0  0.1203
  H  H791  1  0.129400  0.624600  0.269800  1.0  0.115
  H  H792  1  0.225500  0.571700  0.210700  1.0  0.0849
  H  H793  1  0.209700  0.716500  0.082100  1.0  0.0826
  H  H794  1  0.295800  0.665400  0.018000  1.0  0.0917
  H  H795  1  0.304000  0.612800  0.065800  1.0  0.1186
  H  H796  1  0.261600  0.609600  0.124400  1.0  0.1205
  H  H797  1  0.274700  0.738500  0.057900  1.0  0.0842
  H  H798  1  0.325900  0.725300  0.066900  1.0  0.1208
  H  H799  1  0.380700  0.722500  0.018300  1.0  0.1178
  H  H800  1  0.327800  0.745600  0.955600  1.0  0.0923
  H  H801  1  0.453200  0.188000  0.813200  1.0  0.0899
  H  H802  1  0.435100  0.145700  0.818300  1.0  0.1207
  H  H803  1  0.445600  0.138000  0.766000  1.0  0.119
  H  H804  1  0.479100  0.224500  0.707500  1.0  0.0799
  H  H805  1  0.492600  0.310600  0.517600  1.0  0.0848
  H  H806  1  0.483100  0.317700  0.569100  1.0  0.1224
  H  H807  1  0.476200  0.269800  0.624600  1.0  0.1139
  H  H808  1  0.492100  0.210700  0.571700  1.0  0.0853
  H  H809  1  0.491700  0.082100  0.716500  1.0  0.0835
  H  H810  1  0.520800  0.018000  0.665400  1.0  0.0939
  H  H811  1  0.517400  0.065800  0.612800  1.0  0.1162
  H  H812  1  0.504400  0.124400  0.609600  1.0  0.1201
  H  H813  1  0.428900  0.057900  0.738500  1.0  0.082
  H  H814  1  0.381900  0.066900  0.725300  1.0  0.1231
  H  H815  1  0.378500  0.018300  0.722500  1.0  0.1173
  H  H816  1  0.471000  0.955600  0.745600  1.0  0.0916
  C  C817  1  0.960140  0.977780  0.335820  1.0  0.242
  C  C818  1  0.955630  0.065970  0.291890  1.0  0.1753
  C  C819  1  0.945450  0.098690  0.295150  1.0  -0.1536
  C  C820  1  0.950540  0.128200  0.264380  1.0  -0.0119
  C  C821  1  0.962920  0.124500  0.231340  1.0  -0.1504
  C  C822  1  0.971270  0.091050  0.230330  1.0  0.1724
  C  C823  1  0.990740  0.178840  0.039600  1.0  0.1745
  C  C824  1  0.984720  0.149560  0.070240  1.0  -0.1763
  C  C825  1  0.981000  0.148940  0.102940  1.0  -0.0297
  C  C826  1  0.984470  0.177610  0.103110  1.0  -0.1659
  C  C827  1  0.990440  0.205680  0.071240  1.0  0.2015
  C  C828  1  0.981680  0.178220  0.136740  1.0  0.4101
  C  C829  1  0.970740  0.153960  0.196860  1.0  0.3172
  C  C830  1  0.985350  0.204210  0.165350  1.0  0.4114
  C  C831  1  0.995300  0.231380  0.164060  1.0  -0.1743
  C  C832  1  0.997040  0.229040  0.194900  1.0  0.1927
  C  C833  1  0.013860  0.279300  0.165140  1.0  0.163
  C  C834  1  0.012530  0.283890  0.133650  1.0  -0.1435
  C  C835  1  0.004120  0.259460  0.131760  1.0  -0.0536
  C  C836  1  0.945800  0.204580  0.296780  1.0  0.2876
  C  C837  1  0.927960  0.296780  0.237120  1.0  0.1657
  C  C838  1  0.899950  0.326830  0.229550  1.0  -0.156
  C  C839  1  0.897820  0.359180  0.228080  1.0  -0.0273
  C  C840  1  0.924190  0.359550  0.234810  1.0  -0.1876
  C  C841  1  0.952530  0.327530  0.241610  1.0  0.1875
  C  C842  1  0.923440  0.393100  0.233560  1.0  0.4148
  C  C843  1  0.477780  0.460140  0.726260  1.0  0.2456
  C  C844  1  0.565970  0.455630  0.686510  1.0  0.1764
  C  C845  1  0.598690  0.445450  0.660710  1.0  -0.1549
  C  C846  1  0.628200  0.450540  0.656880  1.0  -0.0102
  C  C847  1  0.624500  0.462920  0.681240  1.0  -0.1516
  C  C848  1  0.591050  0.471270  0.707350  1.0  0.1716
  C  C849  1  0.678840  0.490740  0.790820  1.0  0.1792
  C  C850  1  0.649560  0.484720  0.795480  1.0  -0.1737
  C  C851  1  0.648940  0.481000  0.767120  1.0  -0.0276
  C  C852  1  0.677610  0.484470  0.734810  1.0  -0.1654
  C  C853  1  0.705680  0.490440  0.732640  1.0  0.2039
  C  C854  1  0.678220  0.481680  0.703360  1.0  0.4096
  C  C855  1  0.653960  0.470740  0.678440  1.0  0.3175
  C  C856  1  0.704210  0.485350  0.645090  1.0  0.4109
  C  C857  1  0.731380  0.495300  0.609260  1.0  -0.1734
  C  C858  1  0.729040  0.497040  0.579020  1.0  0.1921
  C  C859  1  0.779300  0.513860  0.541700  1.0  0.1652
  C  C860  1  0.783890  0.512530  0.569930  1.0  -0.1397
  C  C861  1  0.759460  0.504120  0.604660  1.0  -0.0529
  C  C862  1  0.704580  0.445800  0.552840  1.0  0.2874
  C  C863  1  0.796780  0.427960  0.538140  1.0  0.1665
  C  C864  1  0.826830  0.399950  0.543670  1.0  -0.1604
  C  C865  1  0.859180  0.397820  0.514920  1.0  -0.0279
  C  C866  1  0.859550  0.424190  0.481450  1.0  -0.1872
  C  C867  1  0.827530  0.452530  0.478330  1.0  0.1875
  C  C868  1  0.893100  0.423440  0.449900  1.0  0.4148
  C  C869  1  0.835820  0.726260  0.460140  1.0  0.2508
  C  C870  1  0.791890  0.686510  0.455630  1.0  0.1775
  C  C871  1  0.795150  0.660710  0.445450  1.0  -0.1549
  C  C872  1  0.764380  0.656880  0.450540  1.0  -0.0149
  C  C873  1  0.731340  0.681240  0.462920  1.0  -0.1491
  C  C874  1  0.730330  0.707350  0.471270  1.0  0.1699
  C  C875  1  0.539600  0.790820  0.490740  1.0  0.1732
  C  C876  1  0.570240  0.795480  0.484720  1.0  -0.1724
  C  C877  1  0.602940  0.767120  0.481000  1.0  -0.0276
  C  C878  1  0.603110  0.734810  0.484470  1.0  -0.1671
  C  C879  1  0.571240  0.732640  0.490440  1.0  0.203
  C  C880  1  0.636740  0.703360  0.481680  1.0  0.4105
  C  C881  1  0.696860  0.678440  0.470740  1.0  0.3166
  C  C882  1  0.665350  0.645090  0.485350  1.0  0.4118
  C  C883  1  0.664060  0.609260  0.495300  1.0  -0.1765
  C  C884  1  0.694900  0.579020  0.497040  1.0  0.188
  C  C885  1  0.665140  0.541700  0.513860  1.0  0.1594
  C  C886  1  0.633650  0.569930  0.512530  1.0  -0.1394
  C  C887  1  0.631760  0.604660  0.504120  1.0  -0.0542
  C  C888  1  0.796780  0.552840  0.445800  1.0  0.2907
  C  C889  1  0.737120  0.538140  0.427960  1.0  0.1649
  C  C890  1  0.729550  0.543670  0.399950  1.0  -0.1603
  C  C891  1  0.728080  0.514920  0.397820  1.0  -0.0275
  C  C892  1  0.734810  0.481450  0.424190  1.0  -0.183
  C  C893  1  0.741610  0.478330  0.452530  1.0  0.1898
  C  C894  1  0.733560  0.449900  0.423440  1.0  0.4154
  C  C895  1  0.226260  0.335820  0.977780  1.0  0.2449
  C  C896  1  0.186510  0.291890  0.065970  1.0  0.1767
  C  C897  1  0.160710  0.295150  0.098690  1.0  -0.1592
  C  C898  1  0.156880  0.264380  0.128200  1.0  -0.012
  C  C899  1  0.181240  0.231340  0.124500  1.0  -0.1489
  C  C900  1  0.207350  0.230330  0.091050  1.0  0.1698
  C  C901  1  0.290820  0.039600  0.178840  1.0  0.1772
  C  C902  1  0.295480  0.070240  0.149560  1.0  -0.1709
  C  C903  1  0.267120  0.102940  0.148940  1.0  -0.0275
  C  C904  1  0.234810  0.103110  0.177610  1.0  -0.1673
  C  C905  1  0.232640  0.071240  0.205680  1.0  0.2038
  C  C906  1  0.203360  0.136740  0.178220  1.0  0.4106
  C  C907  1  0.178440  0.196860  0.153960  1.0  0.3169
  C  C908  1  0.145090  0.165350  0.204210  1.0  0.412
  C  C909  1  0.109260  0.164060  0.231380  1.0  -0.1779
  C  C910  1  0.079020  0.194900  0.229040  1.0  0.1908
  C  C911  1  0.041700  0.165140  0.279300  1.0  0.1592
  C  C912  1  0.069930  0.133650  0.283890  1.0  -0.1425
  C  C913  1  0.104660  0.131760  0.259460  1.0  -0.0526
  C  C914  1  0.052840  0.296780  0.204580  1.0  0.2889
  C  C915  1  0.038140  0.237120  0.296780  1.0  0.1677
  C  C916  1  0.043670  0.229550  0.326830  1.0  -0.1559
  C  C917  1  0.014920  0.228080  0.359180  1.0  -0.0271
  C  C918  1  0.981450  0.234810  0.359550  1.0  -0.183
  C  C919  1  0.978330  0.241610  0.327530  1.0  0.1893
  C  C920  1  0.949900  0.233560  0.393100  1.0  0.4145
  C  C921  1  0.960140  0.335820  0.726260  1.0  0.244
  C  C922  1  0.955630  0.291890  0.686510  1.0  0.1792
  C  C923  1  0.945450  0.295150  0.660710  1.0  -0.1578
  C  C924  1  0.950540  0.264380  0.656880  1.0  -0.0139
  C  C925  1  0.962920  0.231340  0.681240  1.0  -0.15
  C  C926  1  0.971270  0.230330  0.707350  1.0  0.1732
  C  C927  1  0.990740  0.039600  0.790820  1.0  0.1745
  C  C928  1  0.984720  0.070240  0.795480  1.0  -0.1718
  C  C929  1  0.981000  0.102940  0.767120  1.0  -0.0282
  C  C930  1  0.984470  0.103110  0.734810  1.0  -0.166
  C  C931  1  0.990440  0.071240  0.732640  1.0  0.2041
  C  C932  1  0.981680  0.136740  0.703360  1.0  0.4107
  C  C933  1  0.970740  0.196860  0.678440  1.0  0.3175
  C  C934  1  0.985350  0.165350  0.645090  1.0  0.4111
  C  C935  1  0.995300  0.164060  0.609260  1.0  -0.1775
  C  C936  1  0.997040  0.194900  0.579020  1.0  0.1922
  C  C937  1  0.013860  0.165140  0.541700  1.0  0.1618
  C  C938  1  0.012530  0.133650  0.569930  1.0  -0.1414
  C  C939  1  0.004120  0.131760  0.604660  1.0  -0.0522
  C  C940  1  0.945800  0.296780  0.552840  1.0  0.2815
  C  C941  1  0.927960  0.237120  0.538140  1.0  0.167
  C  C942  1  0.899950  0.229550  0.543670  1.0  -0.1558
  C  C943  1  0.897820  0.228080  0.514920  1.0  -0.0279
  C  C944  1  0.924190  0.234810  0.481450  1.0  -0.1867
  C  C945  1  0.952530  0.241610  0.478330  1.0  0.1877
  C  C946  1  0.923440  0.233560  0.449900  1.0  0.4143
  C  C947  1  0.477780  0.726260  0.335820  1.0  0.2436
  C  C948  1  0.565970  0.686510  0.291890  1.0  0.1751
  C  C949  1  0.598690  0.660710  0.295150  1.0  -0.1556
  C  C950  1  0.628200  0.656880  0.264380  1.0  -0.0126
  C  C951  1  0.624500  0.681240  0.231340  1.0  -0.1502
  C  C952  1  0.591050  0.707350  0.230330  1.0  0.1718
  C  C953  1  0.678840  0.790820  0.039600  1.0  0.1732
  C  C954  1  0.649560  0.795480  0.070240  1.0  -0.1735
  C  C955  1  0.648940  0.767120  0.102940  1.0  -0.0286
  C  C956  1  0.677610  0.734810  0.103110  1.0  -0.1669
  C  C957  1  0.705680  0.732640  0.071240  1.0  0.2016
  C  C958  1  0.678220  0.703360  0.136740  1.0  0.4105
  C  C959  1  0.653960  0.678440  0.196860  1.0  0.3172
  C  C960  1  0.704210  0.645090  0.165350  1.0  0.4121
  C  C961  1  0.731380  0.609260  0.164060  1.0  -0.1745
  C  C962  1  0.729040  0.579020  0.194900  1.0  0.1935
  C  C963  1  0.779300  0.541700  0.165140  1.0  0.1596
  C  C964  1  0.783890  0.569930  0.133650  1.0  -0.1416
  C  C965  1  0.759460  0.604660  0.131760  1.0  -0.0529
  C  C966  1  0.704580  0.552840  0.296780  1.0  0.279
  C  C967  1  0.796780  0.538140  0.237120  1.0  0.162
  C  C968  1  0.826830  0.543670  0.229550  1.0  -0.1573
  C  C969  1  0.859180  0.514920  0.228080  1.0  -0.0274
  C  C970  1  0.859550  0.481450  0.234810  1.0  -0.1869
  C  C971  1  0.827530  0.478330  0.241610  1.0  0.1854
  C  C972  1  0.893100  0.449900  0.233560  1.0  0.416
  C  C973  1  0.835820  0.460140  0.977780  1.0  0.2506
  C  C974  1  0.791890  0.455630  0.065970  1.0  0.1815
  C  C975  1  0.795150  0.445450  0.098690  1.0  -0.1571
  C  C976  1  0.764380  0.450540  0.128200  1.0  -0.0116
  C  C977  1  0.731340  0.462920  0.124500  1.0  -0.1488
  C  C978  1  0.730330  0.471270  0.091050  1.0  0.1707
  C  C979  1  0.539600  0.490740  0.178840  1.0  0.1762
  C  C980  1  0.570240  0.484720  0.149560  1.0  -0.1687
  C  C981  1  0.602940  0.481000  0.148940  1.0  -0.029
  C  C982  1  0.603110  0.484470  0.177610  1.0  -0.1672
  C  C983  1  0.571240  0.490440  0.205680  1.0  0.2037
  C  C984  1  0.636740  0.481680  0.178220  1.0  0.4099
  C  C985  1  0.696860  0.470740  0.153960  1.0  0.3167
  C  C986  1  0.665350  0.485350  0.204210  1.0  0.4112
  C  C987  1  0.664060  0.495300  0.231380  1.0  -0.1771
  C  C988  1  0.694900  0.497040  0.229040  1.0  0.192
  C  C989  1  0.665140  0.513860  0.279300  1.0  0.163
  C  C990  1  0.633650  0.512530  0.283890  1.0  -0.1422
  C  C991  1  0.631760  0.504120  0.259460  1.0  -0.0521
  C  C992  1  0.796780  0.445800  0.204580  1.0  0.2873
  C  C993  1  0.737120  0.427960  0.296780  1.0  0.1637
  C  C994  1  0.729550  0.399950  0.326830  1.0  -0.1588
  C  C995  1  0.728080  0.397820  0.359180  1.0  -0.0286
  C  C996  1  0.734810  0.424190  0.359550  1.0  -0.1861
  C  C997  1  0.741610  0.452530  0.327530  1.0  0.1879
  C  C998  1  0.733560  0.423440  0.393100  1.0  0.4143
  C  C999  1  0.226260  0.977780  0.460140  1.0  0.2454
  C  C1000  1  0.186510  0.065970  0.455630  1.0  0.1764
  C  C1001  1  0.160710  0.098690  0.445450  1.0  -0.1553
  C  C1002  1  0.156880  0.128200  0.450540  1.0  -0.0126
  C  C1003  1  0.181240  0.124500  0.462920  1.0  -0.1508
  C  C1004  1  0.207350  0.091050  0.471270  1.0  0.17
  C  C1005  1  0.290820  0.178840  0.490740  1.0  0.1766
  C  C1006  1  0.295480  0.149560  0.484720  1.0  -0.1731
  C  C1007  1  0.267120  0.148940  0.481000  1.0  -0.031
  C  C1008  1  0.234810  0.177610  0.484470  1.0  -0.1652
  C  C1009  1  0.232640  0.205680  0.490440  1.0  0.2017
  C  C1010  1  0.203360  0.178220  0.481680  1.0  0.4101
  C  C1011  1  0.178440  0.153960  0.470740  1.0  0.3173
  C  C1012  1  0.145090  0.204210  0.485350  1.0  0.4125
  C  C1013  1  0.109260  0.231380  0.495300  1.0  -0.1769
  C  C1014  1  0.079020  0.229040  0.497040  1.0  0.1883
  C  C1015  1  0.041700  0.279300  0.513860  1.0  0.158
  C  C1016  1  0.069930  0.283890  0.512530  1.0  -0.144
  C  C1017  1  0.104660  0.259460  0.504120  1.0  -0.0525
  C  C1018  1  0.052840  0.204580  0.445800  1.0  0.2862
  C  C1019  1  0.038140  0.296780  0.427960  1.0  0.1652
  C  C1020  1  0.043670  0.326830  0.399950  1.0  -0.1541
  C  C1021  1  0.014920  0.359180  0.397820  1.0  -0.0266
  C  C1022  1  0.981450  0.359550  0.424190  1.0  -0.1862
  C  C1023  1  0.978330  0.327530  0.452530  1.0  0.1871
  C  C1024  1  0.949900  0.393100  0.423440  1.0  0.4154
  C  C1025  1  0.960140  0.726260  0.977780  1.0  0.2463
  C  C1026  1  0.955630  0.686510  0.065970  1.0  0.1769
  C  C1027  1  0.945450  0.660710  0.098690  1.0  -0.1566
  C  C1028  1  0.950540  0.656880  0.128200  1.0  -0.0124
  C  C1029  1  0.962920  0.681240  0.124500  1.0  -0.1499
  C  C1030  1  0.971270  0.707350  0.091050  1.0  0.169
  C  C1031  1  0.990740  0.790820  0.178840  1.0  0.1776
  C  C1032  1  0.984720  0.795480  0.149560  1.0  -0.1718
  C  C1033  1  0.981000  0.767120  0.148940  1.0  -0.0301
  C  C1034  1  0.984470  0.734810  0.177610  1.0  -0.1667
  C  C1035  1  0.990440  0.732640  0.205680  1.0  0.2042
  C  C1036  1  0.981680  0.703360  0.178220  1.0  0.4105
  C  C1037  1  0.970740  0.678440  0.153960  1.0  0.317
  C  C1038  1  0.985350  0.645090  0.204210  1.0  0.4114
  C  C1039  1  0.995300  0.609260  0.231380  1.0  -0.1758
  C  C1040  1  0.997040  0.579020  0.229040  1.0  0.1911
  C  C1041  1  0.013860  0.541700  0.279300  1.0  0.1582
  C  C1042  1  0.012530  0.569930  0.283890  1.0  -0.1385
  C  C1043  1  0.004120  0.604660  0.259460  1.0  -0.0542
  C  C1044  1  0.945800  0.552840  0.204580  1.0  0.2808
  C  C1045  1  0.927960  0.538140  0.296780  1.0  0.1665
  C  C1046  1  0.899950  0.543670  0.326830  1.0  -0.1564
  C  C1047  1  0.897820  0.514920  0.359180  1.0  -0.0269
  C  C1048  1  0.924190  0.481450  0.359550  1.0  -0.1876
  C  C1049  1  0.952530  0.478330  0.327530  1.0  0.1873
  C  C1050  1  0.923440  0.449900  0.393100  1.0  0.4159
  C  C1051  1  0.477780  0.335820  0.460140  1.0  0.2458
  C  C1052  1  0.565970  0.291890  0.455630  1.0  0.1772
  C  C1053  1  0.598690  0.295150  0.445450  1.0  -0.157
  C  C1054  1  0.628200  0.264380  0.450540  1.0  -0.0104
  C  C1055  1  0.624500  0.231340  0.462920  1.0  -0.1506
  C  C1056  1  0.591050  0.230330  0.471270  1.0  0.1711
  C  C1057  1  0.678840  0.039600  0.490740  1.0  0.1761
  C  C1058  1  0.649560  0.070240  0.484720  1.0  -0.1746
  C  C1059  1  0.648940  0.102940  0.481000  1.0  -0.0286
  C  C1060  1  0.677610  0.103110  0.484470  1.0  -0.1657
  C  C1061  1  0.705680  0.071240  0.490440  1.0  0.2031
  C  C1062  1  0.678220  0.136740  0.481680  1.0  0.4104
  C  C1063  1  0.653960  0.196860  0.470740  1.0  0.3167
  C  C1064  1  0.704210  0.165350  0.485350  1.0  0.4107
  C  C1065  1  0.731380  0.164060  0.495300  1.0  -0.1783
  C  C1066  1  0.729040  0.194900  0.497040  1.0  0.1915
  C  C1067  1  0.779300  0.165140  0.513860  1.0  0.1603
  C  C1068  1  0.783890  0.133650  0.512530  1.0  -0.1422
  C  C1069  1  0.759460  0.131760  0.504120  1.0  -0.054
  C  C1070  1  0.704580  0.296780  0.445800  1.0  0.2786
  C  C1071  1  0.796780  0.237120  0.427960  1.0  0.1645
  C  C1072  1  0.826830  0.229550  0.399950  1.0  -0.1502
  C  C1073  1  0.859180  0.228080  0.397820  1.0  -0.0293
  C  C1074  1  0.859550  0.234810  0.424190  1.0  -0.1863
  C  C1075  1  0.827530  0.241610  0.452530  1.0  0.1875
  C  C1076  1  0.893100  0.233560  0.423440  1.0  0.4152
  C  C1077  1  0.835820  0.977780  0.726260  1.0  0.2491
  C  C1078  1  0.791890  0.065970  0.686510  1.0  0.1792
  C  C1079  1  0.795150  0.098690  0.660710  1.0  -0.1532
  C  C1080  1  0.764380  0.128200  0.656880  1.0  -0.0116
  C  C1081  1  0.731340  0.124500  0.681240  1.0  -0.151
  C  C1082  1  0.730330  0.091050  0.707350  1.0  0.1702
  C  C1083  1  0.539600  0.178840  0.790820  1.0  0.1755
  C  C1084  1  0.570240  0.149560  0.795480  1.0  -0.1764
  C  C1085  1  0.602940  0.148940  0.767120  1.0  -0.0287
  C  C1086  1  0.603110  0.177610  0.734810  1.0  -0.1675
  C  C1087  1  0.571240  0.205680  0.732640  1.0  0.2013
  C  C1088  1  0.636740  0.178220  0.703360  1.0  0.4101
  C  C1089  1  0.696860  0.153960  0.678440  1.0  0.3175
  C  C1090  1  0.665350  0.204210  0.645090  1.0  0.4115
  C  C1091  1  0.664060  0.231380  0.609260  1.0  -0.1783
  C  C1092  1  0.694900  0.229040  0.579020  1.0  0.1895
  C  C1093  1  0.665140  0.279300  0.541700  1.0  0.1616
  C  C1094  1  0.633650  0.283890  0.569930  1.0  -0.1421
  C  C1095  1  0.631760  0.259460  0.604660  1.0  -0.0522
  C  C1096  1  0.796780  0.204580  0.552840  1.0  0.2878
  C  C1097  1  0.737120  0.296780  0.538140  1.0  0.1638
  C  C1098  1  0.729550  0.326830  0.543670  1.0  -0.1535
  C  C1099  1  0.728080  0.359180  0.514920  1.0  -0.0283
  C  C1100  1  0.734810  0.359550  0.481450  1.0  -0.1868
  C  C1101  1  0.741610  0.327530  0.478330  1.0  0.1865
  C  C1102  1  0.733560  0.393100  0.449900  1.0  0.4149
  C  C1103  1  0.226260  0.460140  0.335820  1.0  0.2437
  C  C1104  1  0.186510  0.455630  0.291890  1.0  0.1795
  C  C1105  1  0.160710  0.445450  0.295150  1.0  -0.1571
  C  C1106  1  0.156880  0.450540  0.264380  1.0  -0.0107
  C  C1107  1  0.181240  0.462920  0.231340  1.0  -0.1499
  C  C1108  1  0.207350  0.471270  0.230330  1.0  0.1707
  C  C1109  1  0.290820  0.490740  0.039600  1.0  0.1813
  C  C1110  1  0.295480  0.484720  0.070240  1.0  -0.1702
  C  C1111  1  0.267120  0.481000  0.102940  1.0  -0.0297
  C  C1112  1  0.234810  0.484470  0.103110  1.0  -0.165
  C  C1113  1  0.232640  0.490440  0.071240  1.0  0.2035
  C  C1114  1  0.203360  0.481680  0.136740  1.0  0.4097
  C  C1115  1  0.178440  0.470740  0.196860  1.0  0.3173
  C  C1116  1  0.145090  0.485350  0.165350  1.0  0.4118
  C  C1117  1  0.109260  0.495300  0.164060  1.0  -0.1764
  C  C1118  1  0.079020  0.497040  0.194900  1.0  0.1922
  C  C1119  1  0.041700  0.513860  0.165140  1.0  0.1609
  C  C1120  1  0.069930  0.512530  0.133650  1.0  -0.1362
  C  C1121  1  0.104660  0.504120  0.131760  1.0  -0.0548
  C  C1122  1  0.052840  0.445800  0.296780  1.0  0.2857
  C  C1123  1  0.038140  0.427960  0.237120  1.0  0.1674
  C  C1124  1  0.043670  0.399950  0.229550  1.0  -0.1568
  C  C1125  1  0.014920  0.397820  0.228080  1.0  -0.0301
  C  C1126  1  0.981450  0.424190  0.234810  1.0  -0.1863
  C  C1127  1  0.978330  0.452530  0.241610  1.0  0.1878
  C  C1128  1  0.949900  0.423440  0.233560  1.0  0.4149
  C  C1129  1  0.022220  0.039860  0.164180  1.0  0.2443
  C  C1130  1  0.934030  0.044370  0.208110  1.0  0.177
  C  C1131  1  0.901310  0.054550  0.204850  1.0  -0.1541
  C  C1132  1  0.871800  0.049460  0.235620  1.0  -0.0123
  C  C1133  1  0.875500  0.037080  0.268660  1.0  -0.151
  C  C1134  1  0.908950  0.028730  0.269670  1.0  0.1702
  C  C1135  1  0.821160  0.009260  0.460400  1.0  0.1794
  C  C1136  1  0.850440  0.015280  0.429760  1.0  -0.1715
  C  C1137  1  0.851060  0.019000  0.397060  1.0  -0.0277
  C  C1138  1  0.822390  0.015530  0.396890  1.0  -0.1656
  C  C1139  1  0.794320  0.009560  0.428760  1.0  0.2051
  C  C1140  1  0.821780  0.018320  0.363260  1.0  0.4099
  C  C1141  1  0.846040  0.029260  0.303140  1.0  0.3167
  C  C1142  1  0.795790  0.014650  0.334650  1.0  0.411
  C  C1143  1  0.768620  0.004700  0.335940  1.0  -0.1738
  C  C1144  1  0.770960  0.002960  0.305100  1.0  0.1904
  C  C1145  1  0.720700  0.986140  0.334860  1.0  0.1644
  C  C1146  1  0.716110  0.987470  0.366350  1.0  -0.1391
  C  C1147  1  0.740540  0.995880  0.368240  1.0  -0.0533
  C  C1148  1  0.795420  0.054200  0.203220  1.0  0.2853
  C  C1149  1  0.703220  0.072040  0.262880  1.0  0.1659
  C  C1150  1  0.673170  0.100050  0.270450  1.0  -0.1584
  C  C1151  1  0.640820  0.102180  0.271920  1.0  -0.0266
  C  C1152  1  0.640450  0.075810  0.265190  1.0  -0.1884
  C  C1153  1  0.672470  0.047470  0.258390  1.0  0.1863
  C  C1154  1  0.606900  0.076560  0.266440  1.0  0.4147
  C  C1155  1  0.539860  0.522220  0.773740  1.0  0.2403
  C  C1156  1  0.544370  0.434030  0.813490  1.0  0.1759
  C  C1157  1  0.554550  0.401310  0.839290  1.0  -0.1527
  C  C1158  1  0.549460  0.371800  0.843120  1.0  -0.0105
  C  C1159  1  0.537080  0.375500  0.818760  1.0  -0.1512
  C  C1160  1  0.528730  0.408950  0.792650  1.0  0.172
  C  C1161  1  0.509260  0.321160  0.709180  1.0  0.1747
  C  C1162  1  0.515280  0.350440  0.704520  1.0  -0.1746
  C  C1163  1  0.519000  0.351060  0.732880  1.0  -0.0298
  C  C1164  1  0.515530  0.322390  0.765190  1.0  -0.1668
  C  C1165  1  0.509560  0.294320  0.767360  1.0  0.2018
  C  C1166  1  0.518320  0.321780  0.796640  1.0  0.4101
  C  C1167  1  0.529260  0.346040  0.821560  1.0  0.3178
  C  C1168  1  0.514650  0.295790  0.854910  1.0  0.411
  C  C1169  1  0.504700  0.268620  0.890740  1.0  -0.1736
  C  C1170  1  0.502960  0.270960  0.920980  1.0  0.1911
  C  C1171  1  0.486140  0.220700  0.958300  1.0  0.1648
  C  C1172  1  0.487470  0.216110  0.930070  1.0  -0.1427
  C  C1173  1  0.495880  0.240540  0.895340  1.0  -0.0524
  C  C1174  1  0.554200  0.295420  0.947160  1.0  0.288
  C  C1175  1  0.572040  0.203220  0.961860  1.0  0.1649
  C  C1176  1  0.600050  0.173170  0.956330  1.0  -0.1554
  C  C1177  1  0.602180  0.140820  0.985080  1.0  -0.0271
  C  C1178  1  0.575810  0.140450  0.018550  1.0  -0.188
  C  C1179  1  0.547470  0.172470  0.021670  1.0  0.1876
  C  C1180  1  0.576560  0.106900  0.050100  1.0  0.4154
  C  C1181  1  0.273740  0.164180  0.039860  1.0  0.2481
  C  C1182  1  0.313490  0.208110  0.044370  1.0  0.1759
  C  C1183  1  0.339290  0.204850  0.054550  1.0  -0.1575
  C  C1184  1  0.343120  0.235620  0.049460  1.0  -0.0103
  C  C1185  1  0.318760  0.268660  0.037080  1.0  -0.1496
  C  C1186  1  0.292650  0.269670  0.028730  1.0  0.1703
  C  C1187  1  0.209180  0.460400  0.009260  1.0  0.1765
  C  C1188  1  0.204520  0.429760  0.015280  1.0  -0.1722
  C  C1189  1  0.232880  0.397060  0.019000  1.0  -0.028
  C  C1190  1  0.265190  0.396890  0.015530  1.0  -0.1672
  C  C1191  1  0.267360  0.428760  0.009560  1.0  0.2037
  C  C1192  1  0.296640  0.363260  0.018320  1.0  0.4109
  C  C1193  1  0.321560  0.303140  0.029260  1.0  0.3165
  C  C1194  1  0.354910  0.334650  0.014650  1.0  0.4117
  C  C1195  1  0.390740  0.335940  0.004700  1.0  -0.1765
  C  C1196  1  0.420980  0.305100  0.002960  1.0  0.1906
  C  C1197  1  0.458300  0.334860  0.986140  1.0  0.1606
  C  C1198  1  0.430070  0.366350  0.987470  1.0  -0.1424
  C  C1199  1  0.395340  0.368240  0.995880  1.0  -0.0535
  C  C1200  1  0.447160  0.203220  0.054200  1.0  0.2906
  C  C1201  1  0.461860  0.262880  0.072040  1.0  0.1663
  C  C1202  1  0.456330  0.270450  0.100050  1.0  -0.1567
  C  C1203  1  0.485080  0.271920  0.102180  1.0  -0.0277
  C  C1204  1  0.518550  0.265190  0.075810  1.0  -0.1826
  C  C1205  1  0.521670  0.258390  0.047470  1.0  0.187
  C  C1206  1  0.550100  0.266440  0.076560  1.0  0.4146
  C  C1207  1  0.664180  0.773740  0.522220  1.0  0.2509
  C  C1208  1  0.708110  0.813490  0.434030  1.0  0.1771
  C  C1209  1  0.704850  0.839290  0.401310  1.0  -0.1574
  C  C1210  1  0.735620  0.843120  0.371800  1.0  -0.0139
  C  C1211  1  0.768660  0.818760  0.375500  1.0  -0.1482
  C  C1212  1  0.769670  0.792650  0.408950  1.0  0.1692
  C  C1213  1  0.960400  0.709180  0.321160  1.0  0.1735
  C  C1214  1  0.929760  0.704520  0.350440  1.0  -0.176
  C  C1215  1  0.897060  0.732880  0.351060  1.0  -0.0276
  C  C1216  1  0.896890  0.765190  0.322390  1.0  -0.167
  C  C1217  1  0.928760  0.767360  0.294320  1.0  0.2037
  C  C1218  1  0.863260  0.796640  0.321780  1.0  0.4106
  C  C1219  1  0.803140  0.821560  0.346040  1.0  0.3166
  C  C1220  1  0.834650  0.854910  0.295790  1.0  0.4125
  C  C1221  1  0.835940  0.890740  0.268620  1.0  -0.1763
  C  C1222  1  0.805100  0.920980  0.270960  1.0  0.1906
  C  C1223  1  0.834860  0.958300  0.220700  1.0  0.1596
  C  C1224  1  0.866350  0.930070  0.216110  1.0  -0.1405
  C  C1225  1  0.868240  0.895340  0.240540  1.0  -0.0543
  C  C1226  1  0.703220  0.947160  0.295420  1.0  0.2913
  C  C1227  1  0.762880  0.961860  0.203220  1.0  0.1671
  C  C1228  1  0.770450  0.956330  0.173170  1.0  -0.1597
  C  C1229  1  0.771920  0.985080  0.140820  1.0  -0.0268
  C  C1230  1  0.765190  0.018550  0.140450  1.0  -0.1824
  C  C1231  1  0.758390  0.021670  0.172470  1.0  0.1887
  C  C1232  1  0.766440  0.050100  0.106900  1.0  0.4158
  C  C1233  1  0.664180  0.039860  0.773740  1.0  0.2507
  C  C1234  1  0.708110  0.044370  0.813490  1.0  0.1809
  C  C1235  1  0.704850  0.054550  0.839290  1.0  -0.1598
  C  C1236  1  0.735620  0.049460  0.843120  1.0  -0.0121
  C  C1237  1  0.768660  0.037080  0.818760  1.0  -0.148
  C  C1238  1  0.769670  0.028730  0.792650  1.0  0.1707
  C  C1239  1  0.960400  0.009260  0.709180  1.0  0.1757
  C  C1240  1  0.929760  0.015280  0.704520  1.0  -0.1698
  C  C1241  1  0.897060  0.019000  0.732880  1.0  -0.0287
  C  C1242  1  0.896890  0.015530  0.765190  1.0  -0.1672
  C  C1243  1  0.928760  0.009560  0.767360  1.0  0.2037
  C  C1244  1  0.863260  0.018320  0.796640  1.0  0.4099
  C  C1245  1  0.803140  0.029260  0.821560  1.0  0.3171
  C  C1246  1  0.834650  0.014650  0.854910  1.0  0.4115
  C  C1247  1  0.835940  0.004700  0.890740  1.0  -0.1763
  C  C1248  1  0.805100  0.002960  0.920980  1.0  0.1919
  C  C1249  1  0.834860  0.986140  0.958300  1.0  0.1636
  C  C1250  1  0.866350  0.987470  0.930070  1.0  -0.1408
  C  C1251  1  0.868240  0.995880  0.895340  1.0  -0.0515
  C  C1252  1  0.703220  0.054200  0.947160  1.0  0.2811
  C  C1253  1  0.762880  0.072040  0.961860  1.0  0.1635
  C  C1254  1  0.770450  0.100050  0.956330  1.0  -0.1568
  C  C1255  1  0.771920  0.102180  0.985080  1.0  -0.0273
  C  C1256  1  0.765190  0.075810  0.018550  1.0  -0.1867
  C  C1257  1  0.758390  0.047470  0.021670  1.0  0.1881
  C  C1258  1  0.766440  0.076560  0.050100  1.0  0.4151
  C  C1259  1  0.273740  0.522220  0.164180  1.0  0.2437
  C  C1260  1  0.313490  0.434030  0.208110  1.0  0.177
  C  C1261  1  0.339290  0.401310  0.204850  1.0  -0.1536
  C  C1262  1  0.343120  0.371800  0.235620  1.0  -0.0126
  C  C1263  1  0.318760  0.375500  0.268660  1.0  -0.1511
  C  C1264  1  0.292650  0.408950  0.269670  1.0  0.1702
  C  C1265  1  0.209180  0.321160  0.460400  1.0  0.1773
  C  C1266  1  0.204520  0.350440  0.429760  1.0  -0.1752
  C  C1267  1  0.232880  0.351060  0.397060  1.0  -0.0303
  C  C1268  1  0.265190  0.322390  0.396890  1.0  -0.1652
  C  C1269  1  0.267360  0.294320  0.428760  1.0  0.2026
  C  C1270  1  0.296640  0.321780  0.363260  1.0  0.4102
  C  C1271  1  0.321560  0.346040  0.303140  1.0  0.3174
  C  C1272  1  0.354910  0.295790  0.334650  1.0  0.4123
  C  C1273  1  0.390740  0.268620  0.335940  1.0  -0.1769
  C  C1274  1  0.420980  0.270960  0.305100  1.0  0.1892
  C  C1275  1  0.458300  0.220700  0.334860  1.0  0.1588
  C  C1276  1  0.430070  0.216110  0.366350  1.0  -0.1445
  C  C1277  1  0.395340  0.240540  0.368240  1.0  -0.0531
  C  C1278  1  0.447160  0.295420  0.203220  1.0  0.2813
  C  C1279  1  0.461860  0.203220  0.262880  1.0  0.1656
  C  C1280  1  0.456330  0.173170  0.270450  1.0  -0.1551
  C  C1281  1  0.485080  0.140820  0.271920  1.0  -0.0278
  C  C1282  1  0.518550  0.140450  0.265190  1.0  -0.1861
  C  C1283  1  0.521670  0.172470  0.258390  1.0  0.1861
  C  C1284  1  0.550100  0.106900  0.266440  1.0  0.4147
  C  C1285  1  0.539860  0.164180  0.522220  1.0  0.2483
  C  C1286  1  0.544370  0.208110  0.434030  1.0  0.1783
  C  C1287  1  0.554550  0.204850  0.401310  1.0  -0.1578
  C  C1288  1  0.549460  0.235620  0.371800  1.0  -0.0124
  C  C1289  1  0.537080  0.268660  0.375500  1.0  -0.1492
  C  C1290  1  0.528730  0.269670  0.408950  1.0  0.1727
  C  C1291  1  0.509260  0.460400  0.321160  1.0  0.1748
  C  C1292  1  0.515280  0.429760  0.350440  1.0  -0.1715
  C  C1293  1  0.519000  0.397060  0.351060  1.0  -0.0293
  C  C1294  1  0.515530  0.396890  0.322390  1.0  -0.1664
  C  C1295  1  0.509560  0.428760  0.294320  1.0  0.2046
  C  C1296  1  0.518320  0.363260  0.321780  1.0  0.4106
  C  C1297  1  0.529260  0.303140  0.346040  1.0  0.317
  C  C1298  1  0.514650  0.334650  0.295790  1.0  0.4118
  C  C1299  1  0.504700  0.335940  0.268620  1.0  -0.1783
  C  C1300  1  0.502960  0.305100  0.270960  1.0  0.1917
  C  C1301  1  0.486140  0.334860  0.220700  1.0  0.1621
  C  C1302  1  0.487470  0.366350  0.216110  1.0  -0.1416
  C  C1303  1  0.495880  0.368240  0.240540  1.0  -0.0514
  C  C1304  1  0.554200  0.203220  0.295420  1.0  0.2864
  C  C1305  1  0.572040  0.262880  0.203220  1.0  0.1664
  C  C1306  1  0.600050  0.270450  0.173170  1.0  -0.1547
  C  C1307  1  0.602180  0.271920  0.140820  1.0  -0.0265
  C  C1308  1  0.575810  0.265190  0.140450  1.0  -0.1858
  C  C1309  1  0.547470  0.258390  0.172470  1.0  0.188
  C  C1310  1  0.576560  0.266440  0.106900  1.0  0.4145
  C  C1311  1  0.022220  0.773740  0.039860  1.0  0.2449
  C  C1312  1  0.934030  0.813490  0.044370  1.0  0.1756
  C  C1313  1  0.901310  0.839290  0.054550  1.0  -0.1548
  C  C1314  1  0.871800  0.843120  0.049460  1.0  -0.0133
  C  C1315  1  0.875500  0.818760  0.037080  1.0  -0.15
  C  C1316  1  0.908950  0.792650  0.028730  1.0  0.1703
  C  C1317  1  0.821160  0.709180  0.009260  1.0  0.1736
  C  C1318  1  0.850440  0.704520  0.015280  1.0  -0.1742
  C  C1319  1  0.851060  0.732880  0.019000  1.0  -0.0282
  C  C1320  1  0.822390  0.765190  0.015530  1.0  -0.1672
  C  C1321  1  0.794320  0.767360  0.009560  1.0  0.2023
  C  C1322  1  0.821780  0.796640  0.018320  1.0  0.4103
  C  C1323  1  0.846040  0.821560  0.029260  1.0  0.3178
  C  C1324  1  0.795790  0.854910  0.014650  1.0  0.4121
  C  C1325  1  0.768620  0.890740  0.004700  1.0  -0.1742
  C  C1326  1  0.770960  0.920980  0.002960  1.0  0.1932
  C  C1327  1  0.720700  0.958300  0.986140  1.0  0.1603
  C  C1328  1  0.716110  0.930070  0.987470  1.0  -0.1423
  C  C1329  1  0.740540  0.895340  0.995880  1.0  -0.0533
  C  C1330  1  0.795420  0.947160  0.054200  1.0  0.2839
  C  C1331  1  0.703220  0.961860  0.072040  1.0  0.1625
  C  C1332  1  0.673170  0.956330  0.100050  1.0  -0.1599
  C  C1333  1  0.640820  0.985080  0.102180  1.0  -0.0275
  C  C1334  1  0.640450  0.018550  0.075810  1.0  -0.187
  C  C1335  1  0.672470  0.021670  0.047470  1.0  0.1856
  C  C1336  1  0.606900  0.050100  0.076560  1.0  0.4157
  C  C1337  1  0.273740  0.039860  0.522220  1.0  0.2436
  C  C1338  1  0.313490  0.044370  0.434030  1.0  0.18
  C  C1339  1  0.339290  0.054550  0.401310  1.0  -0.1556
  C  C1340  1  0.343120  0.049460  0.371800  1.0  -0.0082
  C  C1341  1  0.318760  0.037080  0.375500  1.0  -0.1495
  C  C1342  1  0.292650  0.028730  0.408950  1.0  0.1703
  C  C1343  1  0.209180  0.009260  0.321160  1.0  0.1809
  C  C1344  1  0.204520  0.015280  0.350440  1.0  -0.1738
  C  C1345  1  0.232880  0.019000  0.351060  1.0  -0.0296
  C  C1346  1  0.265190  0.015530  0.322390  1.0  -0.1655
  C  C1347  1  0.267360  0.009560  0.294320  1.0  0.2032
  C  C1348  1  0.296640  0.018320  0.321780  1.0  0.4102
  C  C1349  1  0.321560  0.029260  0.346040  1.0  0.317
  C  C1350  1  0.354910  0.014650  0.295790  1.0  0.4112
  C  C1351  1  0.390740  0.004700  0.268620  1.0  -0.1763
  C  C1352  1  0.420980  0.002960  0.270960  1.0  0.1919
  C  C1353  1  0.458300  0.986140  0.220700  1.0  0.1601
  C  C1354  1  0.430070  0.987470  0.216110  1.0  -0.1358
  C  C1355  1  0.395340  0.995880  0.240540  1.0  -0.0542
  C  C1356  1  0.447160  0.054200  0.295420  1.0  0.2797
  C  C1357  1  0.461860  0.072040  0.203220  1.0  0.1668
  C  C1358  1  0.456330  0.100050  0.173170  1.0  -0.1571
  C  C1359  1  0.485080  0.102180  0.140820  1.0  -0.0279
  C  C1360  1  0.518550  0.075810  0.140450  1.0  -0.1863
  C  C1361  1  0.521670  0.047470  0.172470  1.0  0.1863
  C  C1362  1  0.550100  0.076560  0.106900  1.0  0.4152
  C  C1363  1  0.664180  0.522220  0.039860  1.0  0.249
  C  C1364  1  0.708110  0.434030  0.044370  1.0  0.1779
  C  C1365  1  0.704850  0.401310  0.054550  1.0  -0.1536
  C  C1366  1  0.735620  0.371800  0.049460  1.0  -0.0119
  C  C1367  1  0.768660  0.375500  0.037080  1.0  -0.1517
  C  C1368  1  0.769670  0.408950  0.028730  1.0  0.1705
  C  C1369  1  0.960400  0.321160  0.009260  1.0  0.1746
  C  C1370  1  0.929760  0.350440  0.015280  1.0  -0.1745
  C  C1371  1  0.897060  0.351060  0.019000  1.0  -0.0291
  C  C1372  1  0.896890  0.322390  0.015530  1.0  -0.1677
  C  C1373  1  0.928760  0.294320  0.009560  1.0  0.2019
  C  C1374  1  0.863260  0.321780  0.018320  1.0  0.4099
  C  C1375  1  0.803140  0.346040  0.029260  1.0  0.3178
  C  C1376  1  0.834650  0.295790  0.014650  1.0  0.412
  C  C1377  1  0.835940  0.268620  0.004700  1.0  -0.1791
  C  C1378  1  0.805100  0.270960  0.002960  1.0  0.1889
  C  C1379  1  0.834860  0.220700  0.986140  1.0  0.1638
  C  C1380  1  0.866350  0.216110  0.987470  1.0  -0.1412
  C  C1381  1  0.868240  0.240540  0.995880  1.0  -0.0518
  C  C1382  1  0.703220  0.295420  0.054200  1.0  0.282
  C  C1383  1  0.762880  0.203220  0.072040  1.0  0.1645
  C  C1384  1  0.770450  0.173170  0.100050  1.0  -0.1524
  C  C1385  1  0.771920  0.140820  0.102180  1.0  -0.0282
  C  C1386  1  0.765190  0.140450  0.075810  1.0  -0.1861
  C  C1387  1  0.758390  0.172470  0.047470  1.0  0.188
  C  C1388  1  0.766440  0.106900  0.076560  1.0  0.4148
  C  C1389  1  0.022220  0.164180  0.773740  1.0  0.2485
  C  C1390  1  0.934030  0.208110  0.813490  1.0  0.1768
  C  C1391  1  0.901310  0.204850  0.839290  1.0  -0.1572
  C  C1392  1  0.871800  0.235620  0.843120  1.0  -0.0131
  C  C1393  1  0.875500  0.268660  0.818760  1.0  -0.1499
  C  C1394  1  0.908950  0.269670  0.792650  1.0  0.1699
  C  C1395  1  0.821160  0.460400  0.709180  1.0  0.1751
  C  C1396  1  0.850440  0.429760  0.704520  1.0  -0.1724
  C  C1397  1  0.851060  0.397060  0.732880  1.0  -0.0285
  C  C1398  1  0.822390  0.396890  0.765190  1.0  -0.1673
  C  C1399  1  0.794320  0.428760  0.767360  1.0  0.2043
  C  C1400  1  0.821780  0.363260  0.796640  1.0  0.4105
  C  C1401  1  0.846040  0.303140  0.821560  1.0  0.3171
  C  C1402  1  0.795790  0.334650  0.854910  1.0  0.4112
  C  C1403  1  0.768620  0.335940  0.890740  1.0  -0.1779
  C  C1404  1  0.770960  0.305100  0.920980  1.0  0.1895
  C  C1405  1  0.720700  0.334860  0.958300  1.0  0.1622
  C  C1406  1  0.716110  0.366350  0.930070  1.0  -0.1414
  C  C1407  1  0.740540  0.368240  0.895340  1.0  -0.0524
  C  C1408  1  0.795420  0.203220  0.947160  1.0  0.2843
  C  C1409  1  0.703220  0.262880  0.961860  1.0  0.1643
  C  C1410  1  0.673170  0.270450  0.956330  1.0  -0.1505
  C  C1411  1  0.640820  0.271920  0.985080  1.0  -0.0294
  C  C1412  1  0.640450  0.265190  0.018550  1.0  -0.187
  C  C1413  1  0.672470  0.258390  0.021670  1.0  0.1877
  C  C1414  1  0.606900  0.266440  0.050100  1.0  0.4148
  C  C1415  1  0.539860  0.773740  0.164180  1.0  0.247
  C  C1416  1  0.544370  0.813490  0.208110  1.0  0.1777
  C  C1417  1  0.554550  0.839290  0.204850  1.0  -0.1552
  C  C1418  1  0.549460  0.843120  0.235620  1.0  -0.0119
  C  C1419  1  0.537080  0.818760  0.268660  1.0  -0.1501
  C  C1420  1  0.528730  0.792650  0.269670  1.0  0.1685
  C  C1421  1  0.509260  0.709180  0.460400  1.0  0.1783
  C  C1422  1  0.515280  0.704520  0.429760  1.0  -0.1741
  C  C1423  1  0.519000  0.732880  0.397060  1.0  -0.0305
  C  C1424  1  0.515530  0.765190  0.396890  1.0  -0.1665
  C  C1425  1  0.509560  0.767360  0.428760  1.0  0.2044
  C  C1426  1  0.518320  0.796640  0.363260  1.0  0.4108
  C  C1427  1  0.529260  0.821560  0.303140  1.0  0.3164
  C  C1428  1  0.514650  0.854910  0.334650  1.0  0.4117
  C  C1429  1  0.504700  0.890740  0.335940  1.0  -0.1767
  C  C1430  1  0.502960  0.920980  0.305100  1.0  0.1924
  C  C1431  1  0.486140  0.958300  0.334860  1.0  0.1562
  C  C1432  1  0.487470  0.930070  0.366350  1.0  -0.14
  C  C1433  1  0.495880  0.895340  0.368240  1.0  -0.0561
  C  C1434  1  0.554200  0.947160  0.203220  1.0  0.2858
  C  C1435  1  0.572040  0.961860  0.262880  1.0  0.1687
  C  C1436  1  0.600050  0.956330  0.270450  1.0  -0.1566
  C  C1437  1  0.602180  0.985080  0.271920  1.0  -0.0258
  C  C1438  1  0.575810  0.018550  0.265190  1.0  -0.1871
  C  C1439  1  0.547470  0.021670  0.258390  1.0  0.1862
  C  C1440  1  0.576560  0.050100  0.266440  1.0  0.4154
  C  C1441  1  0.039860  0.022220  0.664180  1.0  0.2428
  C  C1442  1  0.044370  0.934030  0.708110  1.0  0.1762
  C  C1443  1  0.054550  0.901310  0.704850  1.0  -0.1536
  C  C1444  1  0.049460  0.871800  0.735620  1.0  -0.0116
  C  C1445  1  0.037080  0.875500  0.768660  1.0  -0.1511
  C  C1446  1  0.028730  0.908950  0.769670  1.0  0.1716
  C  C1447  1  0.009260  0.821160  0.960400  1.0  0.1749
  C  C1448  1  0.015280  0.850440  0.929760  1.0  -0.1746
  C  C1449  1  0.019000  0.851060  0.897060  1.0  -0.0293
  C  C1450  1  0.015530  0.822390  0.896890  1.0  -0.1657
  C  C1451  1  0.009560  0.794320  0.928760  1.0  0.2026
  C  C1452  1  0.018320  0.821780  0.863260  1.0  0.4101
  C  C1453  1  0.029260  0.846040  0.803140  1.0  0.3178
  C  C1454  1  0.014650  0.795790  0.834650  1.0  0.4112
  C  C1455  1  0.004700  0.768620  0.835940  1.0  -0.174
  C  C1456  1  0.002960  0.770960  0.805100  1.0  0.1913
  C  C1457  1  0.986140  0.720700  0.834860  1.0  0.1631
  C  C1458  1  0.987470  0.716110  0.866350  1.0  -0.1432
  C  C1459  1  0.995880  0.740540  0.868240  1.0  -0.0521
  C  C1460  1  0.054200  0.795420  0.703220  1.0  0.2879
  C  C1461  1  0.072040  0.703220  0.762880  1.0  0.1656
  C  C1462  1  0.100050  0.673170  0.770450  1.0  -0.156
  C  C1463  1  0.102180  0.640820  0.771920  1.0  -0.0273
  C  C1464  1  0.075810  0.640450  0.765190  1.0  -0.1874
  C  C1465  1  0.047470  0.672470  0.758390  1.0  0.1879
  C  C1466  1  0.076560  0.606900  0.766440  1.0  0.4156
  C  C1467  1  0.522220  0.539860  0.273740  1.0  0.2418
  C  C1468  1  0.434030  0.544370  0.313490  1.0  0.1759
  C  C1469  1  0.401310  0.554550  0.339290  1.0  -0.1542
  C  C1470  1  0.371800  0.549460  0.343120  1.0  -0.0119
  C  C1471  1  0.375500  0.537080  0.318760  1.0  -0.1511
  C  C1472  1  0.408950  0.528730  0.292650  1.0  0.171
  C  C1473  1  0.321160  0.509260  0.209180  1.0  0.1793
  C  C1474  1  0.350440  0.515280  0.204520  1.0  -0.1711
  C  C1475  1  0.351060  0.519000  0.232880  1.0  -0.028
  C  C1476  1  0.322390  0.515530  0.265190  1.0  -0.1667
  C  C1477  1  0.294320  0.509560  0.267360  1.0  0.2046
  C  C1478  1  0.321780  0.518320  0.296640  1.0  0.4099
  C  C1479  1  0.346040  0.529260  0.321560  1.0  0.3167
  C  C1480  1  0.295790  0.514650  0.354910  1.0  0.4109
  C  C1481  1  0.268620  0.504700  0.390740  1.0  -0.1736
  C  C1482  1  0.270960  0.502960  0.420980  1.0  0.1907
  C  C1483  1  0.220700  0.486140  0.458300  1.0  0.1664
  C  C1484  1  0.216110  0.487470  0.430070  1.0  -0.1385
  C  C1485  1  0.240540  0.495880  0.395340  1.0  -0.0535
  C  C1486  1  0.295420  0.554200  0.447160  1.0  0.2854
  C  C1487  1  0.203220  0.572040  0.461860  1.0  0.1657
  C  C1488  1  0.173170  0.600050  0.456330  1.0  -0.159
  C  C1489  1  0.140820  0.602180  0.485080  1.0  -0.0261
  C  C1490  1  0.140450  0.575810  0.518550  1.0  -0.1884
  C  C1491  1  0.172470  0.547470  0.521670  1.0  0.1862
  C  C1492  1  0.106900  0.576560  0.550100  1.0  0.4144
  C  C1493  1  0.164180  0.273740  0.539860  1.0  0.251
  C  C1494  1  0.208110  0.313490  0.544370  1.0  0.1771
  C  C1495  1  0.204850  0.339290  0.554550  1.0  -0.1584
  C  C1496  1  0.235620  0.343120  0.549460  1.0  -0.0133
  C  C1497  1  0.268660  0.318760  0.537080  1.0  -0.1481
  C  C1498  1  0.269670  0.292650  0.528730  1.0  0.1696
  C  C1499  1  0.460400  0.209180  0.509260  1.0  0.1731
  C  C1500  1  0.429760  0.204520  0.515280  1.0  -0.1751
  C  C1501  1  0.397060  0.232880  0.519000  1.0  -0.0275
  C  C1502  1  0.396890  0.265190  0.515530  1.0  -0.167
  C  C1503  1  0.428760  0.267360  0.509560  1.0  0.2032
  C  C1504  1  0.363260  0.296640  0.518320  1.0  0.4106
  C  C1505  1  0.303140  0.321560  0.529260  1.0  0.3168
  C  C1506  1  0.334650  0.354910  0.514650  1.0  0.4126
  C  C1507  1  0.335940  0.390740  0.504700  1.0  -0.1762
  C  C1508  1  0.305100  0.420980  0.502960  1.0  0.1918
  C  C1509  1  0.334860  0.458300  0.486140  1.0  0.1596
  C  C1510  1  0.366350  0.430070  0.487470  1.0  -0.1404
  C  C1511  1  0.368240  0.395340  0.495880  1.0  -0.0541
  C  C1512  1  0.203220  0.447160  0.554200  1.0  0.2912
  C  C1513  1  0.262880  0.461860  0.572040  1.0  0.1656
  C  C1514  1  0.270450  0.456330  0.600050  1.0  -0.1607
  C  C1515  1  0.271920  0.485080  0.602180  1.0  -0.0253
  C  C1516  1  0.265190  0.518550  0.575810  1.0  -0.1828
  C  C1517  1  0.258390  0.521670  0.547470  1.0  0.1899
  C  C1518  1  0.266440  0.550100  0.576560  1.0  0.4154
  C  C1519  1  0.773740  0.664180  0.022220  1.0  0.2486
  C  C1520  1  0.813490  0.708110  0.934030  1.0  0.1755
  C  C1521  1  0.839290  0.704850  0.901310  1.0  -0.1569
  C  C1522  1  0.843120  0.735620  0.871800  1.0  -0.0112
  C  C1523  1  0.818760  0.768660  0.875500  1.0  -0.1497
  C  C1524  1  0.792650  0.769670  0.908950  1.0  0.1699
  C  C1525  1  0.709180  0.960400  0.821160  1.0  0.1768
  C  C1526  1  0.704520  0.929760  0.850440  1.0  -0.173
  C  C1527  1  0.732880  0.897060  0.851060  1.0  -0.0281
  C  C1528  1  0.765190  0.896890  0.822390  1.0  -0.1672
  C  C1529  1  0.767360  0.928760  0.794320  1.0  0.2039
  C  C1530  1  0.796640  0.863260  0.821780  1.0  0.4108
  C  C1531  1  0.821560  0.803140  0.846040  1.0  0.3163
  C  C1532  1  0.854910  0.834650  0.795790  1.0  0.4116
  C  C1533  1  0.890740  0.835940  0.768620  1.0  -0.1764
  C  C1534  1  0.920980  0.805100  0.770960  1.0  0.1894
  C  C1535  1  0.958300  0.834860  0.720700  1.0  0.1605
  C  C1536  1  0.930070  0.866350  0.716110  1.0  -0.1423
  C  C1537  1  0.895340  0.868240  0.740540  1.0  -0.0537
  C  C1538  1  0.947160  0.703220  0.795420  1.0  0.2906
  C  C1539  1  0.961860  0.762880  0.703220  1.0  0.1679
  C  C1540  1  0.956330  0.770450  0.673170  1.0  -0.1562
  C  C1541  1  0.985080  0.771920  0.640820  1.0  -0.0274
  C  C1542  1  0.018550  0.765190  0.640450  1.0  -0.1822
  C  C1543  1  0.021670  0.758390  0.672470  1.0  0.1863
  C  C1544  1  0.050100  0.766440  0.606900  1.0  0.415
  C  C1545  1  0.039860  0.664180  0.273740  1.0  0.2489
  C  C1546  1  0.044370  0.708110  0.313490  1.0  0.1772
  C  C1547  1  0.054550  0.704850  0.339290  1.0  -0.158
  C  C1548  1  0.049460  0.735620  0.343120  1.0  -0.0125
  C  C1549  1  0.037080  0.768660  0.318760  1.0  -0.1491
  C  C1550  1  0.028730  0.769670  0.292650  1.0  0.1729
  C  C1551  1  0.009260  0.960400  0.209180  1.0  0.1751
  C  C1552  1  0.015280  0.929760  0.204520  1.0  -0.1703
  C  C1553  1  0.019000  0.897060  0.232880  1.0  -0.0296
  C  C1554  1  0.015530  0.896890  0.265190  1.0  -0.166
  C  C1555  1  0.009560  0.928760  0.267360  1.0  0.205
  C  C1556  1  0.018320  0.863260  0.296640  1.0  0.4107
  C  C1557  1  0.029260  0.803140  0.321560  1.0  0.3166
  C  C1558  1  0.014650  0.834650  0.354910  1.0  0.4118
  C  C1559  1  0.004700  0.835940  0.390740  1.0  -0.175
  C  C1560  1  0.002960  0.805100  0.420980  1.0  0.1926
  C  C1561  1  0.986140  0.834860  0.458300  1.0  0.1613
  C  C1562  1  0.987470  0.866350  0.430070  1.0  -0.1427
  C  C1563  1  0.995880  0.868240  0.395340  1.0  -0.0507
  C  C1564  1  0.054200  0.703220  0.447160  1.0  0.2815
  C  C1565  1  0.072040  0.762880  0.461860  1.0  0.1655
  C  C1566  1  0.100050  0.770450  0.456330  1.0  -0.1547
  C  C1567  1  0.102180  0.771920  0.485080  1.0  -0.0264
  C  C1568  1  0.075810  0.765190  0.518550  1.0  -0.1885
  C  C1569  1  0.047470  0.758390  0.521670  1.0  0.1876
  C  C1570  1  0.076560  0.766440  0.550100  1.0  0.4148
  C  C1571  1  0.522220  0.273740  0.664180  1.0  0.2472
  C  C1572  1  0.434030  0.313490  0.708110  1.0  0.1761
  C  C1573  1  0.401310  0.339290  0.704850  1.0  -0.1565
  C  C1574  1  0.371800  0.343120  0.735620  1.0  -0.0136
  C  C1575  1  0.375500  0.318760  0.768660  1.0  -0.1501
  C  C1576  1  0.408950  0.292650  0.769670  1.0  0.1701
  C  C1577  1  0.321160  0.209180  0.960400  1.0  0.1738
  C  C1578  1  0.350440  0.204520  0.929760  1.0  -0.1736
  C  C1579  1  0.351060  0.232880  0.897060  1.0  -0.029
  C  C1580  1  0.322390  0.265190  0.896890  1.0  -0.167
  C  C1581  1  0.294320  0.267360  0.928760  1.0  0.2026
  C  C1582  1  0.321780  0.296640  0.863260  1.0  0.4105
  C  C1583  1  0.346040  0.321560  0.803140  1.0  0.3171
  C  C1584  1  0.295790  0.354910  0.834650  1.0  0.412
  C  C1585  1  0.268620  0.390740  0.835940  1.0  -0.1745
  C  C1586  1  0.270960  0.420980  0.805100  1.0  0.1925
  C  C1587  1  0.220700  0.458300  0.834860  1.0  0.1568
  C  C1588  1  0.216110  0.430070  0.866350  1.0  -0.1428
  C  C1589  1  0.240540  0.395340  0.868240  1.0  -0.0542
  C  C1590  1  0.295420  0.447160  0.703220  1.0  0.2793
  C  C1591  1  0.203220  0.461860  0.762880  1.0  0.1626
  C  C1592  1  0.173170  0.456330  0.770450  1.0  -0.1597
  C  C1593  1  0.140820  0.485080  0.771920  1.0  -0.0273
  C  C1594  1  0.140450  0.518550  0.765190  1.0  -0.187
  C  C1595  1  0.172470  0.521670  0.758390  1.0  0.1853
  C  C1596  1  0.106900  0.550100  0.766440  1.0  0.4159
  C  C1597  1  0.164180  0.539860  0.022220  1.0  0.2496
  C  C1598  1  0.208110  0.544370  0.934030  1.0  0.1817
  C  C1599  1  0.204850  0.554550  0.901310  1.0  -0.1592
  C  C1600  1  0.235620  0.549460  0.871800  1.0  -0.0128
  C  C1601  1  0.268660  0.537080  0.875500  1.0  -0.148
  C  C1602  1  0.269670  0.528730  0.908950  1.0  0.1708
  C  C1603  1  0.460400  0.509260  0.821160  1.0  0.1741
  C  C1604  1  0.429760  0.515280  0.850440  1.0  -0.1708
  C  C1605  1  0.397060  0.519000  0.851060  1.0  -0.0288
  C  C1606  1  0.396890  0.515530  0.822390  1.0  -0.1676
  C  C1607  1  0.428760  0.509560  0.794320  1.0  0.2031
  C  C1608  1  0.363260  0.518320  0.821780  1.0  0.4099
  C  C1609  1  0.303140  0.529260  0.846040  1.0  0.3174
  C  C1610  1  0.334650  0.514650  0.795790  1.0  0.4116
  C  C1611  1  0.335940  0.504700  0.768620  1.0  -0.1799
  C  C1612  1  0.305100  0.502960  0.770960  1.0  0.1911
  C  C1613  1  0.334860  0.486140  0.720700  1.0  0.1642
  C  C1614  1  0.366350  0.487470  0.716110  1.0  -0.1408
  C  C1615  1  0.368240  0.495880  0.740540  1.0  -0.0519
  C  C1616  1  0.203220  0.554200  0.795420  1.0  0.2861
  C  C1617  1  0.262880  0.572040  0.703220  1.0  0.1645
  C  C1618  1  0.270450  0.600050  0.673170  1.0  -0.1565
  C  C1619  1  0.271920  0.602180  0.640820  1.0  -0.0268
  C  C1620  1  0.265190  0.575810  0.640450  1.0  -0.185
  C  C1621  1  0.258390  0.547470  0.672470  1.0  0.1884
  C  C1622  1  0.266440  0.576560  0.606900  1.0  0.4148
  C  C1623  1  0.773740  0.022220  0.539860  1.0  0.2421
  C  C1624  1  0.813490  0.934030  0.544370  1.0  0.176
  C  C1625  1  0.839290  0.901310  0.554550  1.0  -0.1529
  C  C1626  1  0.843120  0.871800  0.549460  1.0  -0.011
  C  C1627  1  0.818760  0.875500  0.537080  1.0  -0.1508
  C  C1628  1  0.792650  0.908950  0.528730  1.0  0.1707
  C  C1629  1  0.709180  0.821160  0.509260  1.0  0.1762
  C  C1630  1  0.704520  0.850440  0.515280  1.0  -0.1751
  C  C1631  1  0.732880  0.851060  0.519000  1.0  -0.0297
  C  C1632  1  0.765190  0.822390  0.515530  1.0  -0.1655
  C  C1633  1  0.767360  0.794320  0.509560  1.0  0.2019
  C  C1634  1  0.796640  0.821780  0.518320  1.0  0.4102
  C  C1635  1  0.821560  0.846040  0.529260  1.0  0.3181
  C  C1636  1  0.854910  0.795790  0.514650  1.0  0.4124
  C  C1637  1  0.890740  0.768620  0.504700  1.0  -0.1767
  C  C1638  1  0.920980  0.770960  0.502960  1.0  0.189
  C  C1639  1  0.958300  0.720700  0.486140  1.0  0.1609
  C  C1640  1  0.930070  0.716110  0.487470  1.0  -0.1431
  C  C1641  1  0.895340  0.740540  0.495880  1.0  -0.0522
  C  C1642  1  0.947160  0.795420  0.554200  1.0  0.2854
  C  C1643  1  0.961860  0.703220  0.572040  1.0  0.1655
  C  C1644  1  0.956330  0.673170  0.600050  1.0  -0.1552
  C  C1645  1  0.985080  0.640820  0.602180  1.0  -0.028
  C  C1646  1  0.018550  0.640450  0.575810  1.0  -0.1861
  C  C1647  1  0.021670  0.672470  0.547470  1.0  0.1861
  C  C1648  1  0.050100  0.606900  0.576560  1.0  0.4145
  C  C1649  1  0.039860  0.273740  0.022220  1.0  0.2454
  C  C1650  1  0.044370  0.313490  0.934030  1.0  0.1757
  C  C1651  1  0.054550  0.339290  0.901310  1.0  -0.1546
  C  C1652  1  0.049460  0.343120  0.871800  1.0  -0.0104
  C  C1653  1  0.037080  0.318760  0.875500  1.0  -0.1492
  C  C1654  1  0.028730  0.292650  0.908950  1.0  0.1697
  C  C1655  1  0.009260  0.209180  0.821160  1.0  0.1771
  C  C1656  1  0.015280  0.204520  0.850440  1.0  -0.1751
  C  C1657  1  0.019000  0.232880  0.851060  1.0  -0.0295
  C  C1658  1  0.015530  0.265190  0.822390  1.0  -0.1666
  C  C1659  1  0.009560  0.267360  0.794320  1.0  0.2032
  C  C1660  1  0.018320  0.296640  0.821780  1.0  0.4108
  C  C1661  1  0.029260  0.321560  0.846040  1.0  0.3165
  C  C1662  1  0.014650  0.354910  0.795790  1.0  0.4116
  C  C1663  1  0.004700  0.390740  0.768620  1.0  -0.1758
  C  C1664  1  0.002960  0.420980  0.770960  1.0  0.1922
  C  C1665  1  0.986140  0.458300  0.720700  1.0  0.1586
  C  C1666  1  0.987470  0.430070  0.716110  1.0  -0.1363
  C  C1667  1  0.995880  0.395340  0.740540  1.0  -0.0554
  C  C1668  1  0.054200  0.447160  0.795420  1.0  0.2819
  C  C1669  1  0.072040  0.461860  0.703220  1.0  0.1702
  C  C1670  1  0.100050  0.456330  0.673170  1.0  -0.1565
  C  C1671  1  0.102180  0.485080  0.640820  1.0  -0.026
  C  C1672  1  0.075810  0.518550  0.640450  1.0  -0.1864
  C  C1673  1  0.047470  0.521670  0.672470  1.0  0.1859
  C  C1674  1  0.076560  0.550100  0.606900  1.0  0.4155
  C  C1675  1  0.522220  0.664180  0.539860  1.0  0.2481
  C  C1676  1  0.434030  0.708110  0.544370  1.0  0.1764
  C  C1677  1  0.401310  0.704850  0.554550  1.0  -0.1566
  C  C1678  1  0.371800  0.735620  0.549460  1.0  -0.0129
  C  C1679  1  0.375500  0.768660  0.537080  1.0  -0.1499
  C  C1680  1  0.408950  0.769670  0.528730  1.0  0.1692
  C  C1681  1  0.321160  0.960400  0.509260  1.0  0.1751
  C  C1682  1  0.350440  0.929760  0.515280  1.0  -0.173
  C  C1683  1  0.351060  0.897060  0.519000  1.0  -0.0285
  C  C1684  1  0.322390  0.896890  0.515530  1.0  -0.1676
  C  C1685  1  0.294320  0.928760  0.509560  1.0  0.2038
  C  C1686  1  0.321780  0.863260  0.518320  1.0  0.4104
  C  C1687  1  0.346040  0.803140  0.529260  1.0  0.3177
  C  C1688  1  0.295790  0.834650  0.514650  1.0  0.4112
  C  C1689  1  0.268620  0.835940  0.504700  1.0  -0.1785
  C  C1690  1  0.270960  0.805100  0.502960  1.0  0.1894
  C  C1691  1  0.220700  0.834860  0.486140  1.0  0.1619
  C  C1692  1  0.216110  0.866350  0.487470  1.0  -0.1417
  C  C1693  1  0.240540  0.868240  0.495880  1.0  -0.0518
  C  C1694  1  0.295420  0.703220  0.554200  1.0  0.2795
  C  C1695  1  0.203220  0.762880  0.572040  1.0  0.1648
  C  C1696  1  0.173170  0.770450  0.600050  1.0  -0.1521
  C  C1697  1  0.140820  0.771920  0.602180  1.0  -0.0307
  C  C1698  1  0.140450  0.765190  0.575810  1.0  -0.1873
  C  C1699  1  0.172470  0.758390  0.547470  1.0  0.1871
  C  C1700  1  0.106900  0.766440  0.576560  1.0  0.4148
  C  C1701  1  0.164180  0.022220  0.273740  1.0  0.2486
  C  C1702  1  0.208110  0.934030  0.313490  1.0  0.1783
  C  C1703  1  0.204850  0.901310  0.339290  1.0  -0.154
  C  C1704  1  0.235620  0.871800  0.343120  1.0  -0.0118
  C  C1705  1  0.268660  0.875500  0.318760  1.0  -0.1515
  C  C1706  1  0.269670  0.908950  0.292650  1.0  0.1713
  C  C1707  1  0.460400  0.821160  0.209180  1.0  0.1753
  C  C1708  1  0.429760  0.850440  0.204520  1.0  -0.1753
  C  C1709  1  0.397060  0.851060  0.232880  1.0  -0.0291
  C  C1710  1  0.396890  0.822390  0.265190  1.0  -0.1672
  C  C1711  1  0.428760  0.794320  0.267360  1.0  0.2023
  C  C1712  1  0.363260  0.821780  0.296640  1.0  0.41
  C  C1713  1  0.303140  0.846040  0.321560  1.0  0.3173
  C  C1714  1  0.334650  0.795790  0.354910  1.0  0.412
  C  C1715  1  0.335940  0.768620  0.390740  1.0  -0.1782
  C  C1716  1  0.305100  0.770960  0.420980  1.0  0.1893
  C  C1717  1  0.334860  0.720700  0.458300  1.0  0.164
  C  C1718  1  0.366350  0.716110  0.430070  1.0  -0.1411
  C  C1719  1  0.368240  0.740540  0.395340  1.0  -0.0522
  C  C1720  1  0.203220  0.795420  0.447160  1.0  0.2877
  C  C1721  1  0.262880  0.703220  0.461860  1.0  0.1645
  C  C1722  1  0.270450  0.673170  0.456330  1.0  -0.1515
  C  C1723  1  0.271920  0.640820  0.485080  1.0  -0.0272
  C  C1724  1  0.265190  0.640450  0.518550  1.0  -0.186
  C  C1725  1  0.258390  0.672470  0.521670  1.0  0.1878
  C  C1726  1  0.266440  0.606900  0.550100  1.0  0.4149
  C  C1727  1  0.773740  0.539860  0.664180  1.0  0.2445
  C  C1728  1  0.813490  0.544370  0.708110  1.0  0.1821
  C  C1729  1  0.839290  0.554550  0.704850  1.0  -0.1559
  C  C1730  1  0.843120  0.549460  0.735620  1.0  -0.0091
  C  C1731  1  0.818760  0.537080  0.768660  1.0  -0.1505
  C  C1732  1  0.792650  0.528730  0.769670  1.0  0.1693
  C  C1733  1  0.709180  0.509260  0.960400  1.0  0.1825
  C  C1734  1  0.704520  0.515280  0.929760  1.0  -0.1726
  C  C1735  1  0.732880  0.519000  0.897060  1.0  -0.0303
  C  C1736  1  0.765190  0.515530  0.896890  1.0  -0.1652
  C  C1737  1  0.767360  0.509560  0.928760  1.0  0.2046
  C  C1738  1  0.796640  0.518320  0.863260  1.0  0.4101
  C  C1739  1  0.821560  0.529260  0.803140  1.0  0.3169
  C  C1740  1  0.854910  0.514650  0.834650  1.0  0.4113
  C  C1741  1  0.890740  0.504700  0.835940  1.0  -0.177
  C  C1742  1  0.920980  0.502960  0.805100  1.0  0.1925
  C  C1743  1  0.958300  0.486140  0.834860  1.0  0.16
  C  C1744  1  0.930070  0.487470  0.866350  1.0  -0.1381
  C  C1745  1  0.895340  0.495880  0.868240  1.0  -0.0555
  C  C1746  1  0.947160  0.554200  0.703220  1.0  0.2834
  C  C1747  1  0.961860  0.572040  0.762880  1.0  0.1663
  C  C1748  1  0.956330  0.600050  0.770450  1.0  -0.1565
  C  C1749  1  0.985080  0.602180  0.771920  1.0  -0.028
  C  C1750  1  0.018550  0.575810  0.765190  1.0  -0.1867
  C  C1751  1  0.021670  0.547470  0.758390  1.0  0.1866
  C  C1752  1  0.050100  0.576560  0.766440  1.0  0.4151
  C  C1753  1  0.977780  0.960140  0.835820  1.0  0.2427
  C  C1754  1  0.065970  0.955630  0.791890  1.0  0.176
  C  C1755  1  0.098690  0.945450  0.795150  1.0  -0.1544
  C  C1756  1  0.128200  0.950540  0.764380  1.0  -0.0093
  C  C1757  1  0.124500  0.962920  0.731340  1.0  -0.1514
  C  C1758  1  0.091050  0.971270  0.730330  1.0  0.1721
  C  C1759  1  0.178840  0.990740  0.539600  1.0  0.1786
  C  C1760  1  0.149560  0.984720  0.570240  1.0  -0.1727
  C  C1761  1  0.148940  0.981000  0.602940  1.0  -0.0278
  C  C1762  1  0.177610  0.984470  0.603110  1.0  -0.1655
  C  C1763  1  0.205680  0.990440  0.571240  1.0  0.2029
  C  C1764  1  0.178220  0.981680  0.636740  1.0  0.4097
  C  C1765  1  0.153960  0.970740  0.696860  1.0  0.3175
  C  C1766  1  0.204210  0.985350  0.665350  1.0  0.4108
  C  C1767  1  0.231380  0.995300  0.664060  1.0  -0.1739
  C  C1768  1  0.229040  0.997040  0.694900  1.0  0.1927
  C  C1769  1  0.279300  0.013860  0.665140  1.0  0.1657
  C  C1770  1  0.283890  0.012530  0.633650  1.0  -0.1398
  C  C1771  1  0.259460  0.004120  0.631760  1.0  -0.0542
  C  C1772  1  0.204580  0.945800  0.796780  1.0  0.2876
  C  C1773  1  0.296780  0.927960  0.737120  1.0  0.1653
  C  C1774  1  0.326830  0.899950  0.729550  1.0  -0.1606
  C  C1775  1  0.359180  0.897820  0.728080  1.0  -0.0281
  C  C1776  1  0.359550  0.924190  0.734810  1.0  -0.1881
  C  C1777  1  0.327530  0.952530  0.741610  1.0  0.187
  C  C1778  1  0.393100  0.923440  0.733560  1.0  0.4145
  C  C1779  1  0.460140  0.477780  0.226260  1.0  0.2442
  C  C1780  1  0.455630  0.565970  0.186510  1.0  0.1761
  C  C1781  1  0.445450  0.598690  0.160710  1.0  -0.1535
  C  C1782  1  0.450540  0.628200  0.156880  1.0  -0.0119
  C  C1783  1  0.462920  0.624500  0.181240  1.0  -0.1507
  C  C1784  1  0.471270  0.591050  0.207350  1.0  0.1722
  C  C1785  1  0.490740  0.678840  0.290820  1.0  0.1754
  C  C1786  1  0.484720  0.649560  0.295480  1.0  -0.1768
  C  C1787  1  0.481000  0.648940  0.267120  1.0  -0.0294
  C  C1788  1  0.484470  0.677610  0.234810  1.0  -0.1657
  C  C1789  1  0.490440  0.705680  0.232640  1.0  0.202
  C  C1790  1  0.481680  0.678220  0.203360  1.0  0.41
  C  C1791  1  0.470740  0.653960  0.178440  1.0  0.3172
  C  C1792  1  0.485350  0.704210  0.145090  1.0  0.4115
  C  C1793  1  0.495300  0.731380  0.109260  1.0  -0.1731
  C  C1794  1  0.497040  0.729040  0.079020  1.0  0.1919
  C  C1795  1  0.513860  0.779300  0.041700  1.0  0.1629
  C  C1796  1  0.512530  0.783890  0.069930  1.0  -0.1437
  C  C1797  1  0.504120  0.759460  0.104660  1.0  -0.0526
  C  C1798  1  0.445800  0.704580  0.052840  1.0  0.2874
  C  C1799  1  0.427960  0.796780  0.038140  1.0  0.1661
  C  C1800  1  0.399950  0.826830  0.043670  1.0  -0.1573
  C  C1801  1  0.397820  0.859180  0.014920  1.0  -0.0281
  C  C1802  1  0.424190  0.859550  0.981450  1.0  -0.1876
  C  C1803  1  0.452530  0.827530  0.978330  1.0  0.1877
  C  C1804  1  0.423440  0.893100  0.949900  1.0  0.415
  C  C1805  1  0.726260  0.835820  0.960140  1.0  0.2449
  C  C1806  1  0.686510  0.791890  0.955630  1.0  0.1759
  C  C1807  1  0.660710  0.795150  0.945450  1.0  -0.1583
  C  C1808  1  0.656880  0.764380  0.950540  1.0  -0.0124
  C  C1809  1  0.681240  0.731340  0.962920  1.0  -0.1503
  C  C1810  1  0.707350  0.730330  0.971270  1.0  0.1692
  C  C1811  1  0.790820  0.539600  0.990740  1.0  0.1769
  C  C1812  1  0.795480  0.570240  0.984720  1.0  -0.1707
  C  C1813  1  0.767120  0.602940  0.981000  1.0  -0.0274
  C  C1814  1  0.734810  0.603110  0.984470  1.0  -0.1673
  C  C1815  1  0.732640  0.571240  0.990440  1.0  0.2041
  C  C1816  1  0.703360  0.636740  0.981680  1.0  0.4106
  C  C1817  1  0.678440  0.696860  0.970740  1.0  0.3166
  C  C1818  1  0.645090  0.665350  0.985350  1.0  0.412
  C  C1819  1  0.609260  0.664060  0.995300  1.0  -0.1781
  C  C1820  1  0.579020  0.694900  0.997040  1.0  0.1894
  C  C1821  1  0.541700  0.665140  0.013860  1.0  0.159
  C  C1822  1  0.569930  0.633650  0.012530  1.0  -0.1422
  C  C1823  1  0.604660  0.631760  0.004120  1.0  -0.0528
  C  C1824  1  0.552840  0.796780  0.945800  1.0  0.2898
  C  C1825  1  0.538140  0.737120  0.927960  1.0  0.1679
  C  C1826  1  0.543670  0.729550  0.899950  1.0  -0.1562
  C  C1827  1  0.514920  0.728080  0.897820  1.0  -0.0287
  C  C1828  1  0.481450  0.734810  0.924190  1.0  -0.183
  C  C1829  1  0.478330  0.741610  0.952530  1.0  0.1883
  C  C1830  1  0.449900  0.733560  0.923440  1.0  0.4149
  C  C1831  1  0.335820  0.226260  0.477780  1.0  0.2505
  C  C1832  1  0.291890  0.186510  0.565970  1.0  0.1784
  C  C1833  1  0.295150  0.160710  0.598690  1.0  -0.1556
  C  C1834  1  0.264380  0.156880  0.628200  1.0  -0.0145
  C  C1835  1  0.231340  0.181240  0.624500  1.0  -0.1486
  C  C1836  1  0.230330  0.207350  0.591050  1.0  0.1704
  C  C1837  1  0.039600  0.290820  0.678840  1.0  0.1728
  C  C1838  1  0.070240  0.295480  0.649560  1.0  -0.1722
  C  C1839  1  0.102940  0.267120  0.648940  1.0  -0.0275
  C  C1840  1  0.103110  0.234810  0.677610  1.0  -0.1671
  C  C1841  1  0.071240  0.232640  0.705680  1.0  0.2032
  C  C1842  1  0.136740  0.203360  0.678220  1.0  0.4106
  C  C1843  1  0.196860  0.178440  0.653960  1.0  0.3168
  C  C1844  1  0.165350  0.145090  0.704210  1.0  0.4121
  C  C1845  1  0.164060  0.109260  0.731380  1.0  -0.1765
  C  C1846  1  0.194900  0.079020  0.729040  1.0  0.1902
  C  C1847  1  0.165140  0.041700  0.779300  1.0  0.1596
  C  C1848  1  0.133650  0.069930  0.783890  1.0  -0.1396
  C  C1849  1  0.131760  0.104660  0.759460  1.0  -0.054
  C  C1850  1  0.296780  0.052840  0.704580  1.0  0.2899
  C  C1851  1  0.237120  0.038140  0.796780  1.0  0.1647
  C  C1852  1  0.229550  0.043670  0.826830  1.0  -0.1587
  C  C1853  1  0.228080  0.014920  0.859180  1.0  -0.0269
  C  C1854  1  0.234810  0.981450  0.859550  1.0  -0.1828
  C  C1855  1  0.241610  0.978330  0.827530  1.0  0.1904
  C  C1856  1  0.233560  0.949900  0.893100  1.0  0.4151
  C  C1857  1  0.335820  0.960140  0.226260  1.0  0.25
  C  C1858  1  0.291890  0.955630  0.186510  1.0  0.1825
  C  C1859  1  0.295150  0.945450  0.160710  1.0  -0.1572
  C  C1860  1  0.264380  0.950540  0.156880  1.0  -0.0118
  C  C1861  1  0.231340  0.962920  0.181240  1.0  -0.1496
  C  C1862  1  0.230330  0.971270  0.207350  1.0  0.1708
  C  C1863  1  0.039600  0.990740  0.290820  1.0  0.1752
  C  C1864  1  0.070240  0.984720  0.295480  1.0  -0.1706
  C  C1865  1  0.102940  0.981000  0.267120  1.0  -0.0279
  C  C1866  1  0.103110  0.984470  0.234810  1.0  -0.1672
  C  C1867  1  0.071240  0.990440  0.232640  1.0  0.2033
  C  C1868  1  0.136740  0.981680  0.203360  1.0  0.4099
  C  C1869  1  0.196860  0.970740  0.178440  1.0  0.3173
  C  C1870  1  0.165350  0.985350  0.145090  1.0  0.4112
  C  C1871  1  0.164060  0.995300  0.109260  1.0  -0.1793
  C  C1872  1  0.194900  0.997040  0.079020  1.0  0.1906
  C  C1873  1  0.165140  0.013860  0.041700  1.0  0.1649
  C  C1874  1  0.133650  0.012530  0.069930  1.0  -0.1405
  C  C1875  1  0.131760  0.004120  0.104660  1.0  -0.0526
  C  C1876  1  0.296780  0.945800  0.052840  1.0  0.283
  C  C1877  1  0.237120  0.927960  0.038140  1.0  0.1651
  C  C1878  1  0.229550  0.899950  0.043670  1.0  -0.1588
  C  C1879  1  0.228080  0.897820  0.014920  1.0  -0.0284
  C  C1880  1  0.234810  0.924190  0.981450  1.0  -0.1847
  C  C1881  1  0.241610  0.952530  0.978330  1.0  0.1882
  C  C1882  1  0.233560  0.923440  0.949900  1.0  0.414
  C  C1883  1  0.726260  0.477780  0.835820  1.0  0.2424
  C  C1884  1  0.686510  0.565970  0.791890  1.0  0.1764
  C  C1885  1  0.660710  0.598690  0.795150  1.0  -0.1542
  C  C1886  1  0.656880  0.628200  0.764380  1.0  -0.0127
  C  C1887  1  0.681240  0.624500  0.731340  1.0  -0.1504
  C  C1888  1  0.707350  0.591050  0.730330  1.0  0.1706
  C  C1889  1  0.790820  0.678840  0.539600  1.0  0.1767
  C  C1890  1  0.795480  0.649560  0.570240  1.0  -0.1738
  C  C1891  1  0.767120  0.648940  0.602940  1.0  -0.0297
  C  C1892  1  0.734810  0.677610  0.603110  1.0  -0.1652
  C  C1893  1  0.732640  0.705680  0.571240  1.0  0.2013
  C  C1894  1  0.703360  0.678220  0.636740  1.0  0.41
  C  C1895  1  0.678440  0.653960  0.696860  1.0  0.3181
  C  C1896  1  0.645090  0.704210  0.665350  1.0  0.4126
  C  C1897  1  0.609260  0.731380  0.664060  1.0  -0.1766
  C  C1898  1  0.579020  0.729040  0.694900  1.0  0.1894
  C  C1899  1  0.541700  0.779300  0.665140  1.0  0.1606
  C  C1900  1  0.569930  0.783890  0.633650  1.0  -0.1448
  C  C1901  1  0.604660  0.759460  0.631760  1.0  -0.0522
  C  C1902  1  0.552840  0.704580  0.796780  1.0  0.2819
  C  C1903  1  0.538140  0.796780  0.737120  1.0  0.1648
  C  C1904  1  0.543670  0.826830  0.729550  1.0  -0.1537
  C  C1905  1  0.514920  0.859180  0.728080  1.0  -0.0268
  C  C1906  1  0.481450  0.859550  0.734810  1.0  -0.1862
  C  C1907  1  0.478330  0.827530  0.741610  1.0  0.1868
  C  C1908  1  0.449900  0.893100  0.733560  1.0  0.4151
  C  C1909  1  0.460140  0.835820  0.477780  1.0  0.245
  C  C1910  1  0.455630  0.791890  0.565970  1.0  0.1787
  C  C1911  1  0.445450  0.795150  0.598690  1.0  -0.1578
  C  C1912  1  0.450540  0.764380  0.628200  1.0  -0.0138
  C  C1913  1  0.462920  0.731340  0.624500  1.0  -0.1489
  C  C1914  1  0.471270  0.730330  0.591050  1.0  0.1734
  C  C1915  1  0.490740  0.539600  0.678840  1.0  0.1759
  C  C1916  1  0.484720  0.570240  0.649560  1.0  -0.1694
  C  C1917  1  0.481000  0.602940  0.648940  1.0  -0.0289
  C  C1918  1  0.484470  0.603110  0.677610  1.0  -0.1657
  C  C1919  1  0.490440  0.571240  0.705680  1.0  0.2044
  C  C1920  1  0.481680  0.636740  0.678220  1.0  0.4107
  C  C1921  1  0.470740  0.696860  0.653960  1.0  0.3171
  C  C1922  1  0.485350  0.665350  0.704210  1.0  0.411
  C  C1923  1  0.495300  0.664060  0.731380  1.0  -0.1754
  C  C1924  1  0.497040  0.694900  0.729040  1.0  0.1932
  C  C1925  1  0.513860  0.665140  0.779300  1.0  0.1623
  C  C1926  1  0.512530  0.633650  0.783890  1.0  -0.1434
  C  C1927  1  0.504120  0.631760  0.759460  1.0  -0.0511
  C  C1928  1  0.445800  0.796780  0.704580  1.0  0.2871
  C  C1929  1  0.427960  0.737120  0.796780  1.0  0.1667
  C  C1930  1  0.399950  0.729550  0.826830  1.0  -0.1554
  C  C1931  1  0.397820  0.728080  0.859180  1.0  -0.0285
  C  C1932  1  0.424190  0.734810  0.859550  1.0  -0.1883
  C  C1933  1  0.452530  0.741610  0.827530  1.0  0.1868
  C  C1934  1  0.423440  0.733560  0.893100  1.0  0.4147
  C  C1935  1  0.977780  0.226260  0.960140  1.0  0.2466
  C  C1936  1  0.065970  0.186510  0.955630  1.0  0.1753
  C  C1937  1  0.098690  0.160710  0.945450  1.0  -0.1557
  C  C1938  1  0.128200  0.156880  0.950540  1.0  -0.0138
  C  C1939  1  0.124500  0.181240  0.962920  1.0  -0.1505
  C  C1940  1  0.091050  0.207350  0.971270  1.0  0.1711
  C  C1941  1  0.178840  0.290820  0.990740  1.0  0.1735
  C  C1942  1  0.149560  0.295480  0.984720  1.0  -0.1736
  C  C1943  1  0.148940  0.267120  0.981000  1.0  -0.0294
  C  C1944  1  0.177610  0.234810  0.984470  1.0  -0.1674
  C  C1945  1  0.205680  0.232640  0.990440  1.0  0.2022
  C  C1946  1  0.178220  0.203360  0.981680  1.0  0.4105
  C  C1947  1  0.153960  0.178440  0.970740  1.0  0.3166
  C  C1948  1  0.204210  0.145090  0.985350  1.0  0.412
  C  C1949  1  0.231380  0.109260  0.995300  1.0  -0.1745
  C  C1950  1  0.229040  0.079020  0.997040  1.0  0.1928
  C  C1951  1  0.279300  0.041700  0.013860  1.0  0.1576
  C  C1952  1  0.283890  0.069930  0.012530  1.0  -0.1413
  C  C1953  1  0.259460  0.104660  0.004120  1.0  -0.0525
  C  C1954  1  0.204580  0.052840  0.945800  1.0  0.2842
  C  C1955  1  0.296780  0.038140  0.927960  1.0  0.1623
  C  C1956  1  0.326830  0.043670  0.899950  1.0  -0.1584
  C  C1957  1  0.359180  0.014920  0.897820  1.0  -0.0273
  C  C1958  1  0.359550  0.981450  0.924190  1.0  -0.187
  C  C1959  1  0.327530  0.978330  0.952530  1.0  0.186
  C  C1960  1  0.393100  0.949900  0.923440  1.0  0.416
  C  C1961  1  0.726260  0.960140  0.477780  1.0  0.2463
  C  C1962  1  0.686510  0.955630  0.565970  1.0  0.1799
  C  C1963  1  0.660710  0.945450  0.598690  1.0  -0.1573
  C  C1964  1  0.656880  0.950540  0.628200  1.0  -0.0116
  C  C1965  1  0.681240  0.962920  0.624500  1.0  -0.15
  C  C1966  1  0.707350  0.971270  0.591050  1.0  0.1693
  C  C1967  1  0.790820  0.990740  0.678840  1.0  0.182
  C  C1968  1  0.795480  0.984720  0.649560  1.0  -0.1704
  C  C1969  1  0.767120  0.981000  0.648940  1.0  -0.0307
  C  C1970  1  0.734810  0.984470  0.677610  1.0  -0.1649
  C  C1971  1  0.732640  0.990440  0.705680  1.0  0.2046
  C  C1972  1  0.703360  0.981680  0.678220  1.0  0.4098
  C  C1973  1  0.678440  0.970740  0.653960  1.0  0.3171
  C  C1974  1  0.645090  0.985350  0.704210  1.0  0.4119
  C  C1975  1  0.609260  0.995300  0.731380  1.0  -0.1768
  C  C1976  1  0.579020  0.997040  0.729040  1.0  0.1923
  C  C1977  1  0.541700  0.013860  0.779300  1.0  0.1588
  C  C1978  1  0.569930  0.012530  0.783890  1.0  -0.139
  C  C1979  1  0.604660  0.004120  0.759460  1.0  -0.054
  C  C1980  1  0.552840  0.945800  0.704580  1.0  0.2794
  C  C1981  1  0.538140  0.927960  0.796780  1.0  0.1661
  C  C1982  1  0.543670  0.899950  0.826830  1.0  -0.1567
  C  C1983  1  0.514920  0.897820  0.859180  1.0  -0.0301
  C  C1984  1  0.481450  0.924190  0.859550  1.0  -0.1866
  C  C1985  1  0.478330  0.952530  0.827530  1.0  0.188
  C  C1986  1  0.449900  0.923440  0.893100  1.0  0.4148
  C  C1987  1  0.335820  0.477780  0.960140  1.0  0.2492
  C  C1988  1  0.291890  0.565970  0.955630  1.0  0.1792
  C  C1989  1  0.295150  0.598690  0.945450  1.0  -0.1535
  C  C1990  1  0.264380  0.628200  0.950540  1.0  -0.012
  C  C1991  1  0.231340  0.624500  0.962920  1.0  -0.1509
  C  C1992  1  0.230330  0.591050  0.971270  1.0  0.1706
  C  C1993  1  0.039600  0.678840  0.990740  1.0  0.1755
  C  C1994  1  0.070240  0.649560  0.984720  1.0  -0.175
  C  C1995  1  0.102940  0.648940  0.981000  1.0  -0.0291
  C  C1996  1  0.103110  0.677610  0.984470  1.0  -0.1675
  C  C1997  1  0.071240  0.705680  0.990440  1.0  0.2017
  C  C1998  1  0.136740  0.678220  0.981680  1.0  0.4101
  C  C1999  1  0.196860  0.653960  0.970740  1.0  0.317
  C  C2000  1  0.165350  0.704210  0.985350  1.0  0.4115
  C  C2001  1  0.164060  0.731380  0.995300  1.0  -0.1792
  C  C2002  1  0.194900  0.729040  0.997040  1.0  0.1896
  C  C2003  1  0.165140  0.779300  0.013860  1.0  0.1604
  C  C2004  1  0.133650  0.783890  0.012530  1.0  -0.1424
  C  C2005  1  0.131760  0.759460  0.004120  1.0  -0.0525
  C  C2006  1  0.296780  0.704580  0.945800  1.0  0.2819
  C  C2007  1  0.237120  0.796780  0.927960  1.0  0.1632
  C  C2008  1  0.229550  0.826830  0.899950  1.0  -0.1516
  C  C2009  1  0.228080  0.859180  0.897820  1.0  -0.0276
  C  C2010  1  0.234810  0.859550  0.924190  1.0  -0.1867
  C  C2011  1  0.241610  0.827530  0.952530  1.0  0.1866
  C  C2012  1  0.233560  0.893100  0.923440  1.0  0.415
  C  C2013  1  0.977780  0.835820  0.226260  1.0  0.2457
  C  C2014  1  0.065970  0.791890  0.186510  1.0  0.1771
  C  C2015  1  0.098690  0.795150  0.160710  1.0  -0.1565
  C  C2016  1  0.128200  0.764380  0.156880  1.0  -0.0107
  C  C2017  1  0.124500  0.731340  0.181240  1.0  -0.1506
  C  C2018  1  0.091050  0.730330  0.207350  1.0  0.1705
  C  C2019  1  0.178840  0.539600  0.290820  1.0  0.1752
  C  C2020  1  0.149560  0.570240  0.295480  1.0  -0.1764
  C  C2021  1  0.148940  0.602940  0.267120  1.0  -0.0288
  C  C2022  1  0.177610  0.603110  0.234810  1.0  -0.166
  C  C2023  1  0.205680  0.571240  0.232640  1.0  0.2029
  C  C2024  1  0.178220  0.636740  0.203360  1.0  0.4104
  C  C2025  1  0.153960  0.696860  0.178440  1.0  0.3171
  C  C2026  1  0.204210  0.665350  0.145090  1.0  0.4108
  C  C2027  1  0.231380  0.664060  0.109260  1.0  -0.1779
  C  C2028  1  0.229040  0.694900  0.079020  1.0  0.1916
  C  C2029  1  0.279300  0.665140  0.041700  1.0  0.1603
  C  C2030  1  0.283890  0.633650  0.069930  1.0  -0.1418
  C  C2031  1  0.259460  0.631760  0.104660  1.0  -0.0538
  C  C2032  1  0.204580  0.796780  0.052840  1.0  0.2839
  C  C2033  1  0.296780  0.737120  0.038140  1.0  0.1646
  C  C2034  1  0.326830  0.729550  0.043670  1.0  -0.1522
  C  C2035  1  0.359180  0.728080  0.014920  1.0  -0.0288
  C  C2036  1  0.359550  0.734810  0.981450  1.0  -0.1861
  C  C2037  1  0.327530  0.741610  0.978330  1.0  0.1879
  C  C2038  1  0.393100  0.733560  0.949900  1.0  0.415
  C  C2039  1  0.460140  0.226260  0.835820  1.0  0.2438
  C  C2040  1  0.455630  0.186510  0.791890  1.0  0.1762
  C  C2041  1  0.445450  0.160710  0.795150  1.0  -0.1568
  C  C2042  1  0.450540  0.156880  0.764380  1.0  -0.0112
  C  C2043  1  0.462920  0.181240  0.731340  1.0  -0.1493
  C  C2044  1  0.471270  0.207350  0.730330  1.0  0.17
  C  C2045  1  0.490740  0.290820  0.539600  1.0  0.1771
  C  C2046  1  0.484720  0.295480  0.570240  1.0  -0.1714
  C  C2047  1  0.481000  0.267120  0.602940  1.0  -0.0293
  C  C2048  1  0.484470  0.234810  0.603110  1.0  -0.1661
  C  C2049  1  0.490440  0.232640  0.571240  1.0  0.203
  C  C2050  1  0.481680  0.203360  0.636740  1.0  0.4105
  C  C2051  1  0.470740  0.178440  0.696860  1.0  0.3171
  C  C2052  1  0.485350  0.145090  0.665350  1.0  0.4112
  C  C2053  1  0.495300  0.109260  0.664060  1.0  -0.1756
  C  C2054  1  0.497040  0.079020  0.694900  1.0  0.1903
  C  C2055  1  0.513860  0.041700  0.665140  1.0  0.1587
  C  C2056  1  0.512530  0.069930  0.633650  1.0  -0.1367
  C  C2057  1  0.504120  0.104660  0.631760  1.0  -0.0559
  C  C2058  1  0.445800  0.052840  0.796780  1.0  0.2869
  C  C2059  1  0.427960  0.038140  0.737120  1.0  0.1663
  C  C2060  1  0.399950  0.043670  0.729550  1.0  -0.1569
  C  C2061  1  0.397820  0.014920  0.728080  1.0  -0.0271
  C  C2062  1  0.424190  0.981450  0.734810  1.0  -0.1877
  C  C2063  1  0.452530  0.978330  0.741610  1.0  0.1871
  C  C2064  1  0.423440  0.949900  0.733560  1.0  0.4157
  S  S2065  1  0.951140  0.968000  0.378760  1.0  -0.2801
  S  S2066  1  0.916070  0.183830  0.323650  1.0  -0.2095
  S  S2067  1  0.468000  0.451140  0.702100  1.0  -0.2788
  S  S2068  1  0.683830  0.416070  0.576450  1.0  -0.2103
  S  S2069  1  0.878760  0.702100  0.451140  1.0  -0.2782
  S  S2070  1  0.823650  0.576450  0.416070  1.0  -0.2076
  S  S2071  1  0.202100  0.378760  0.968000  1.0  -0.2804
  S  S2072  1  0.076450  0.323650  0.183830  1.0  -0.2075
  S  S2073  1  0.951140  0.378760  0.702100  1.0  -0.2799
  S  S2074  1  0.916070  0.323650  0.576450  1.0  -0.2091
  S  S2075  1  0.468000  0.702100  0.378760  1.0  -0.2801
  S  S2076  1  0.683830  0.576450  0.323650  1.0  -0.2108
  S  S2077  1  0.878760  0.451140  0.968000  1.0  -0.2786
  S  S2078  1  0.823650  0.416070  0.183830  1.0  -0.2095
  S  S2079  1  0.202100  0.968000  0.451140  1.0  -0.2804
  S  S2080  1  0.076450  0.183830  0.416070  1.0  -0.2102
  S  S2081  1  0.951140  0.702100  0.968000  1.0  -0.2786
  S  S2082  1  0.916070  0.576450  0.183830  1.0  -0.2087
  S  S2083  1  0.468000  0.378760  0.451140  1.0  -0.2797
  S  S2084  1  0.683830  0.323650  0.416070  1.0  -0.2084
  S  S2085  1  0.878760  0.968000  0.702100  1.0  -0.2779
  S  S2086  1  0.823650  0.183830  0.576450  1.0  -0.2124
  S  S2087  1  0.202100  0.451140  0.378760  1.0  -0.2798
  S  S2088  1  0.076450  0.416070  0.323650  1.0  -0.2114
  S  S2089  1  0.032000  0.048860  0.121240  1.0  -0.2784
  S  S2090  1  0.816170  0.083930  0.176350  1.0  -0.2071
  S  S2091  1  0.548860  0.532000  0.797900  1.0  -0.2796
  S  S2092  1  0.583930  0.316170  0.923550  1.0  -0.2078
  S  S2093  1  0.297900  0.121240  0.048860  1.0  -0.2784
  S  S2094  1  0.423550  0.176350  0.083930  1.0  -0.2102
  S  S2095  1  0.621240  0.797900  0.532000  1.0  -0.2798
  S  S2096  1  0.676350  0.923550  0.316170  1.0  -0.2096
  S  S2097  1  0.621240  0.048860  0.797900  1.0  -0.2785
  S  S2098  1  0.676350  0.083930  0.923550  1.0  -0.207
  S  S2099  1  0.297900  0.532000  0.121240  1.0  -0.2781
  S  S2100  1  0.423550  0.316170  0.176350  1.0  -0.2093
  S  S2101  1  0.548860  0.121240  0.532000  1.0  -0.2789
  S  S2102  1  0.583930  0.176350  0.316170  1.0  -0.2115
  S  S2103  1  0.032000  0.797900  0.048860  1.0  -0.2799
  S  S2104  1  0.816170  0.923550  0.083930  1.0  -0.2116
  S  S2105  1  0.297900  0.048860  0.532000  1.0  -0.2778
  S  S2106  1  0.423550  0.083930  0.316170  1.0  -0.2092
  S  S2107  1  0.621240  0.532000  0.048860  1.0  -0.2781
  S  S2108  1  0.676350  0.316170  0.083930  1.0  -0.2111
  S  S2109  1  0.032000  0.121240  0.797900  1.0  -0.2785
  S  S2110  1  0.816170  0.176350  0.923550  1.0  -0.2099
  S  S2111  1  0.548860  0.797900  0.121240  1.0  -0.2795
  S  S2112  1  0.583930  0.923550  0.176350  1.0  -0.2098
  S  S2113  1  0.048860  0.032000  0.621240  1.0  -0.2786
  S  S2114  1  0.083930  0.816170  0.676350  1.0  -0.2075
  S  S2115  1  0.532000  0.548860  0.297900  1.0  -0.2796
  S  S2116  1  0.316170  0.583930  0.423550  1.0  -0.2074
  S  S2117  1  0.121240  0.297900  0.548860  1.0  -0.2795
  S  S2118  1  0.176350  0.423550  0.583930  1.0  -0.2095
  S  S2119  1  0.797900  0.621240  0.032000  1.0  -0.2787
  S  S2120  1  0.923550  0.676350  0.816170  1.0  -0.2104
  S  S2121  1  0.048860  0.621240  0.297900  1.0  -0.2795
  S  S2122  1  0.083930  0.676350  0.423550  1.0  -0.2095
  S  S2123  1  0.532000  0.297900  0.621240  1.0  -0.2795
  S  S2124  1  0.316170  0.423550  0.676350  1.0  -0.2099
  S  S2125  1  0.121240  0.548860  0.032000  1.0  -0.2783
  S  S2126  1  0.176350  0.583930  0.816170  1.0  -0.2087
  S  S2127  1  0.797900  0.032000  0.548860  1.0  -0.279
  S  S2128  1  0.923550  0.816170  0.583930  1.0  -0.211
  S  S2129  1  0.048860  0.297900  0.032000  1.0  -0.279
  S  S2130  1  0.083930  0.423550  0.816170  1.0  -0.2115
  S  S2131  1  0.532000  0.621240  0.548860  1.0  -0.278
  S  S2132  1  0.316170  0.676350  0.583930  1.0  -0.212
  S  S2133  1  0.121240  0.032000  0.297900  1.0  -0.2783
  S  S2134  1  0.176350  0.816170  0.423550  1.0  -0.2092
  S  S2135  1  0.797900  0.548860  0.621240  1.0  -0.2774
  S  S2136  1  0.923550  0.583930  0.676350  1.0  -0.2078
  S  S2137  1  0.968000  0.951140  0.878760  1.0  -0.2803
  S  S2138  1  0.183830  0.916070  0.823650  1.0  -0.2103
  S  S2139  1  0.451140  0.468000  0.202100  1.0  -0.2786
  S  S2140  1  0.416070  0.683830  0.076450  1.0  -0.2096
  S  S2141  1  0.702100  0.878760  0.951140  1.0  -0.2808
  S  S2142  1  0.576450  0.823650  0.916070  1.0  -0.2074
  S  S2143  1  0.378760  0.202100  0.468000  1.0  -0.2779
  S  S2144  1  0.323650  0.076450  0.683830  1.0  -0.2076
  S  S2145  1  0.378760  0.951140  0.202100  1.0  -0.2779
  S  S2146  1  0.323650  0.916070  0.076450  1.0  -0.2116
  S  S2147  1  0.702100  0.468000  0.878760  1.0  -0.2807
  S  S2148  1  0.576450  0.683830  0.823650  1.0  -0.2121
  S  S2149  1  0.451140  0.878760  0.468000  1.0  -0.2804
  S  S2150  1  0.416070  0.823650  0.683830  1.0  -0.2073
  S  S2151  1  0.968000  0.202100  0.951140  1.0  -0.279
  S  S2152  1  0.183830  0.076450  0.916070  1.0  -0.2094
  S  S2153  1  0.702100  0.951140  0.468000  1.0  -0.2801
  S  S2154  1  0.576450  0.916070  0.683830  1.0  -0.2101
  S  S2155  1  0.378760  0.468000  0.951140  1.0  -0.2785
  S  S2156  1  0.323650  0.683830  0.916070  1.0  -0.2103
  S  S2157  1  0.968000  0.878760  0.202100  1.0  -0.2793
  S  S2158  1  0.183830  0.823650  0.076450  1.0  -0.2103
  S  S2159  1  0.451140  0.202100  0.878760  1.0  -0.2796
  S  S2160  1  0.416070  0.076450  0.823650  1.0  -0.2099
  N  N2161  1  0.967340  0.985920  0.305240  1.0  -0.4314
  N  N2162  1  0.968980  0.061520  0.259640  1.0  -0.3353
  N  N2163  1  0.994210  0.206630  0.039210  1.0  -0.334
  N  N2164  1  0.973310  0.151510  0.167210  1.0  -0.4674
  N  N2165  1  0.988270  0.205330  0.133830  1.0  -0.4439
  N  N2166  1  0.975840  0.179560  0.197540  1.0  -0.4443
  N  N2167  1  0.005710  0.252310  0.195890  1.0  -0.3063
  N  N2168  1  0.966130  0.219030  0.278570  1.0  -0.3662
  N  N2169  1  0.954650  0.296330  0.242810  1.0  -0.323
  N  N2170  1  0.952600  0.392400  0.234260  1.0  -0.4539
  N  N2171  1  0.485920  0.467340  0.741500  1.0  -0.4341
  N  N2172  1  0.561520  0.468980  0.709860  1.0  -0.3317
  N  N2173  1  0.706630  0.494210  0.759950  1.0  -0.3328
  N  N2174  1  0.651510  0.473310  0.707970  1.0  -0.4662
  N  N2175  1  0.705330  0.488270  0.672570  1.0  -0.4483
  N  N2176  1  0.679560  0.475840  0.647060  1.0  -0.4414
  N  N2177  1  0.752310  0.505710  0.546090  1.0  -0.3064
  N  N2178  1  0.719030  0.466130  0.536270  1.0  -0.3669
  N  N2179  1  0.796330  0.454650  0.506210  1.0  -0.3233
  N  N2180  1  0.892400  0.452600  0.420740  1.0  -0.4531
  N  N2181  1  0.805240  0.741500  0.467340  1.0  -0.4358
  N  N2182  1  0.759640  0.709860  0.468980  1.0  -0.3339
  N  N2183  1  0.539210  0.759950  0.494210  1.0  -0.3322
  N  N2184  1  0.667210  0.707970  0.473310  1.0  -0.4672
  N  N2185  1  0.633830  0.672570  0.488270  1.0  -0.4462
  N  N2186  1  0.697540  0.647060  0.475840  1.0  -0.4377
  N  N2187  1  0.695890  0.546090  0.505710  1.0  -0.3041
  N  N2188  1  0.778570  0.536270  0.466130  1.0  -0.3661
  N  N2189  1  0.742810  0.506210  0.454650  1.0  -0.325
  N  N2190  1  0.734260  0.420740  0.452600  1.0  -0.4542
  N  N2191  1  0.241500  0.305240  0.985920  1.0  -0.4322
  N  N2192  1  0.209860  0.259640  0.061520  1.0  -0.332
  N  N2193  1  0.259950  0.039210  0.206630  1.0  -0.3339
  N  N2194  1  0.207970  0.167210  0.151510  1.0  -0.4671
  N  N2195  1  0.172570  0.133830  0.205330  1.0  -0.4425
  N  N2196  1  0.147060  0.197540  0.179560  1.0  -0.4398
  N  N2197  1  0.046090  0.195890  0.252310  1.0  -0.3047
  N  N2198  1  0.036270  0.278570  0.219030  1.0  -0.3664
  N  N2199  1  0.006210  0.242810  0.296330  1.0  -0.3246
  N  N2200  1  0.920740  0.234260  0.392400  1.0  -0.4543
  N  N2201  1  0.967340  0.305240  0.741500  1.0  -0.4358
  N  N2202  1  0.968980  0.259640  0.709860  1.0  -0.3343
  N  N2203  1  0.994210  0.039210  0.759950  1.0  -0.338
  N  N2204  1  0.973310  0.167210  0.707970  1.0  -0.4679
  N  N2205  1  0.988270  0.133830  0.672570  1.0  -0.4439
  N  N2206  1  0.975840  0.197540  0.647060  1.0  -0.4405
  N  N2207  1  0.005710  0.195890  0.546090  1.0  -0.3051
  N  N2208  1  0.966130  0.278570  0.536270  1.0  -0.3627
  N  N2209  1  0.954650  0.242810  0.506210  1.0  -0.321
  N  N2210  1  0.952600  0.234260  0.420740  1.0  -0.4545
  N  N2211  1  0.485920  0.741500  0.305240  1.0  -0.4317
  N  N2212  1  0.561520  0.709860  0.259640  1.0  -0.3316
  N  N2213  1  0.706630  0.759950  0.039210  1.0  -0.3343
  N  N2214  1  0.651510  0.707970  0.167210  1.0  -0.468
  N  N2215  1  0.705330  0.672570  0.133830  1.0  -0.4484
  N  N2216  1  0.679560  0.647060  0.197540  1.0  -0.4391
  N  N2217  1  0.752310  0.546090  0.195890  1.0  -0.3049
  N  N2218  1  0.719030  0.536270  0.278570  1.0  -0.3642
  N  N2219  1  0.796330  0.506210  0.242810  1.0  -0.3224
  N  N2220  1  0.892400  0.420740  0.234260  1.0  -0.4542
  N  N2221  1  0.805240  0.467340  0.985920  1.0  -0.4338
  N  N2222  1  0.759640  0.468980  0.061520  1.0  -0.3364
  N  N2223  1  0.539210  0.494210  0.206630  1.0  -0.3338
  N  N2224  1  0.667210  0.473310  0.151510  1.0  -0.4705
  N  N2225  1  0.633830  0.488270  0.205330  1.0  -0.446
  N  N2226  1  0.697540  0.475840  0.179560  1.0  -0.437
  N  N2227  1  0.695890  0.505710  0.252310  1.0  -0.3029
  N  N2228  1  0.778570  0.466130  0.219030  1.0  -0.3639
  N  N2229  1  0.742810  0.454650  0.296330  1.0  -0.322
  N  N2230  1  0.734260  0.452600  0.392400  1.0  -0.4532
  N  N2231  1  0.241500  0.985920  0.467340  1.0  -0.4311
  N  N2232  1  0.209860  0.061520  0.468980  1.0  -0.3343
  N  N2233  1  0.259950  0.206630  0.494210  1.0  -0.3368
  N  N2234  1  0.207970  0.151510  0.473310  1.0  -0.4663
  N  N2235  1  0.172570  0.205330  0.488270  1.0  -0.4433
  N  N2236  1  0.147060  0.179560  0.475840  1.0  -0.4382
  N  N2237  1  0.046090  0.252310  0.505710  1.0  -0.3056
  N  N2238  1  0.036270  0.219030  0.466130  1.0  -0.3615
  N  N2239  1  0.006210  0.296330  0.454650  1.0  -0.3235
  N  N2240  1  0.920740  0.392400  0.452600  1.0  -0.4531
  N  N2241  1  0.967340  0.741500  0.985920  1.0  -0.4322
  N  N2242  1  0.968980  0.709860  0.061520  1.0  -0.3325
  N  N2243  1  0.994210  0.759950  0.206630  1.0  -0.3363
  N  N2244  1  0.973310  0.707970  0.151510  1.0  -0.4693
  N  N2245  1  0.988270  0.672570  0.205330  1.0  -0.4448
  N  N2246  1  0.975840  0.647060  0.179560  1.0  -0.4395
  N  N2247  1  0.005710  0.546090  0.252310  1.0  -0.306
  N  N2248  1  0.966130  0.536270  0.219030  1.0  -0.3631
  N  N2249  1  0.954650  0.506210  0.296330  1.0  -0.3229
  N  N2250  1  0.952600  0.420740  0.392400  1.0  -0.455
  N  N2251  1  0.485920  0.305240  0.467340  1.0  -0.4332
  N  N2252  1  0.561520  0.259640  0.468980  1.0  -0.3307
  N  N2253  1  0.706630  0.039210  0.494210  1.0  -0.3331
  N  N2254  1  0.651510  0.167210  0.473310  1.0  -0.4689
  N  N2255  1  0.705330  0.133830  0.488270  1.0  -0.443
  N  N2256  1  0.679560  0.197540  0.475840  1.0  -0.4377
  N  N2257  1  0.752310  0.195890  0.505710  1.0  -0.3059
  N  N2258  1  0.719030  0.278570  0.466130  1.0  -0.3622
  N  N2259  1  0.796330  0.242810  0.454650  1.0  -0.3224
  N  N2260  1  0.892400  0.234260  0.452600  1.0  -0.4543
  N  N2261  1  0.805240  0.985920  0.741500  1.0  -0.4337
  N  N2262  1  0.759640  0.061520  0.709860  1.0  -0.3339
  N  N2263  1  0.539210  0.206630  0.759950  1.0  -0.3341
  N  N2264  1  0.667210  0.151510  0.707970  1.0  -0.4697
  N  N2265  1  0.633830  0.205330  0.672570  1.0  -0.444
  N  N2266  1  0.697540  0.179560  0.647060  1.0  -0.4382
  N  N2267  1  0.695890  0.252310  0.546090  1.0  -0.304
  N  N2268  1  0.778570  0.219030  0.536270  1.0  -0.3619
  N  N2269  1  0.742810  0.296330  0.506210  1.0  -0.3239
  N  N2270  1  0.734260  0.392400  0.420740  1.0  -0.454
  N  N2271  1  0.241500  0.467340  0.305240  1.0  -0.4298
  N  N2272  1  0.209860  0.468980  0.259640  1.0  -0.3316
  N  N2273  1  0.259950  0.494210  0.039210  1.0  -0.3355
  N  N2274  1  0.207970  0.473310  0.167210  1.0  -0.4664
  N  N2275  1  0.172570  0.488270  0.133830  1.0  -0.4457
  N  N2276  1  0.147060  0.475840  0.197540  1.0  -0.4377
  N  N2277  1  0.046090  0.505710  0.195890  1.0  -0.3045
  N  N2278  1  0.036270  0.466130  0.278570  1.0  -0.3631
  N  N2279  1  0.006210  0.454650  0.242810  1.0  -0.3247
  N  N2280  1  0.920740  0.452600  0.234260  1.0  -0.4535
  N  N2281  1  0.014080  0.032660  0.194760  1.0  -0.4339
  N  N2282  1  0.938480  0.031020  0.240360  1.0  -0.3317
  N  N2283  1  0.793370  0.005790  0.460790  1.0  -0.3335
  N  N2284  1  0.848490  0.026690  0.332790  1.0  -0.4656
  N  N2285  1  0.794670  0.011730  0.366170  1.0  -0.4464
  N  N2286  1  0.820440  0.024160  0.302460  1.0  -0.4408
  N  N2287  1  0.747690  0.994290  0.304110  1.0  -0.3071
  N  N2288  1  0.780970  0.033870  0.221430  1.0  -0.3664
  N  N2289  1  0.703670  0.045350  0.257190  1.0  -0.3238
  N  N2290  1  0.607600  0.047400  0.265740  1.0  -0.452
  N  N2291  1  0.532660  0.514080  0.758500  1.0  -0.4322
  N  N2292  1  0.531020  0.438480  0.790140  1.0  -0.3342
  N  N2293  1  0.505790  0.293370  0.740050  1.0  -0.3335
  N  N2294  1  0.526690  0.348490  0.792030  1.0  -0.4682
  N  N2295  1  0.511730  0.294670  0.827430  1.0  -0.4447
  N  N2296  1  0.524160  0.320440  0.852940  1.0  -0.4449
  N  N2297  1  0.494290  0.247690  0.953910  1.0  -0.3066
  N  N2298  1  0.533870  0.280970  0.963730  1.0  -0.3659
  N  N2299  1  0.545350  0.203670  0.993790  1.0  -0.3227
  N  N2300  1  0.547400  0.107600  0.079260  1.0  -0.4532
  N  N2301  1  0.258500  0.194760  0.032660  1.0  -0.4329
  N  N2302  1  0.290140  0.240360  0.031020  1.0  -0.3321
  N  N2303  1  0.240050  0.460790  0.005790  1.0  -0.3345
  N  N2304  1  0.292030  0.332790  0.026690  1.0  -0.4672
  N  N2305  1  0.327430  0.366170  0.011730  1.0  -0.4427
  N  N2306  1  0.352940  0.302460  0.024160  1.0  -0.4364
  N  N2307  1  0.453910  0.304110  0.994290  1.0  -0.3056
  N  N2308  1  0.463730  0.221430  0.033870  1.0  -0.3669
  N  N2309  1  0.493790  0.257190  0.045350  1.0  -0.3255
  N  N2310  1  0.579260  0.265740  0.047400  1.0  -0.4541
  N  N2311  1  0.694760  0.758500  0.514080  1.0  -0.4335
  N  N2312  1  0.740360  0.790140  0.438480  1.0  -0.3342
  N  N2313  1  0.960790  0.740050  0.293370  1.0  -0.3319
  N  N2314  1  0.832790  0.792030  0.348490  1.0  -0.4662
  N  N2315  1  0.866170  0.827430  0.294670  1.0  -0.4486
  N  N2316  1  0.802460  0.852940  0.320440  1.0  -0.439
  N  N2317  1  0.804110  0.953910  0.247690  1.0  -0.3046
  N  N2318  1  0.721430  0.963730  0.280970  1.0  -0.3648
  N  N2319  1  0.757190  0.993790  0.203670  1.0  -0.3257
  N  N2320  1  0.765740  0.079260  0.107600  1.0  -0.4542
  N  N2321  1  0.694760  0.032660  0.758500  1.0  -0.4321
  N  N2322  1  0.740360  0.031020  0.790140  1.0  -0.3372
  N  N2323  1  0.960790  0.005790  0.740050  1.0  -0.3339
  N  N2324  1  0.832790  0.026690  0.792030  1.0  -0.4704
  N  N2325  1  0.866170  0.011730  0.827430  1.0  -0.448
  N  N2326  1  0.802460  0.024160  0.852940  1.0  -0.4387
  N  N2327  1  0.804110  0.994290  0.953910  1.0  -0.304
  N  N2328  1  0.721430  0.033870  0.963730  1.0  -0.3636
  N  N2329  1  0.757190  0.045350  0.993790  1.0  -0.3232
  N  N2330  1  0.765740  0.047400  0.079260  1.0  -0.4536
  N  N2331  1  0.258500  0.514080  0.194760  1.0  -0.432
  N  N2332  1  0.290140  0.438480  0.240360  1.0  -0.3333
  N  N2333  1  0.240050  0.293370  0.460790  1.0  -0.3361
  N  N2334  1  0.292030  0.348490  0.332790  1.0  -0.4678
  N  N2335  1  0.327430  0.294670  0.366170  1.0  -0.4429
  N  N2336  1  0.352940  0.320440  0.302460  1.0  -0.4377
  N  N2337  1  0.453910  0.247690  0.304110  1.0  -0.3043
  N  N2338  1  0.463730  0.280970  0.221430  1.0  -0.3632
  N  N2339  1  0.493790  0.203670  0.257190  1.0  -0.323
  N  N2340  1  0.579260  0.107600  0.265740  1.0  -0.4535
  N  N2341  1  0.532660  0.194760  0.514080  1.0  -0.4353
  N  N2342  1  0.531020  0.240360  0.438480  1.0  -0.3338
  N  N2343  1  0.505790  0.460790  0.293370  1.0  -0.3382
  N  N2344  1  0.526690  0.332790  0.348490  1.0  -0.4681
  N  N2345  1  0.511730  0.366170  0.294670  1.0  -0.4438
  N  N2346  1  0.524160  0.302460  0.320440  1.0  -0.4397
  N  N2347  1  0.494290  0.304110  0.247690  1.0  -0.3055
  N  N2348  1  0.533870  0.221430  0.280970  1.0  -0.3614
  N  N2349  1  0.545350  0.257190  0.203670  1.0  -0.3217
  N  N2350  1  0.547400  0.265740  0.107600  1.0  -0.4538
  N  N2351  1  0.014080  0.758500  0.032660  1.0  -0.432
  N  N2352  1  0.938480  0.790140  0.031020  1.0  -0.3324
  N  N2353  1  0.793370  0.740050  0.005790  1.0  -0.3338
  N  N2354  1  0.848490  0.792030  0.026690  1.0  -0.4653
  N  N2355  1  0.794670  0.827430  0.011730  1.0  -0.4465
  N  N2356  1  0.820440  0.852940  0.024160  1.0  -0.4398
  N  N2357  1  0.747690  0.953910  0.994290  1.0  -0.3052
  N  N2358  1  0.780970  0.963730  0.033870  1.0  -0.3619
  N  N2359  1  0.703670  0.993790  0.045350  1.0  -0.3207
  N  N2360  1  0.607600  0.079260  0.047400  1.0  -0.455
  N  N2361  1  0.258500  0.032660  0.514080  1.0  -0.4309
  N  N2362  1  0.290140  0.031020  0.438480  1.0  -0.3319
  N  N2363  1  0.240050  0.005790  0.293370  1.0  -0.3367
  N  N2364  1  0.292030  0.026690  0.348490  1.0  -0.4677
  N  N2365  1  0.327430  0.011730  0.294670  1.0  -0.4458
  N  N2366  1  0.352940  0.024160  0.320440  1.0  -0.4362
  N  N2367  1  0.453910  0.994290  0.247690  1.0  -0.3034
  N  N2368  1  0.463730  0.033870  0.280970  1.0  -0.3637
  N  N2369  1  0.493790  0.045350  0.203670  1.0  -0.3247
  N  N2370  1  0.579260  0.047400  0.107600  1.0  -0.4524
  N  N2371  1  0.694760  0.514080  0.032660  1.0  -0.4329
  N  N2372  1  0.740360  0.438480  0.031020  1.0  -0.3338
  N  N2373  1  0.960790  0.293370  0.005790  1.0  -0.3329
  N  N2374  1  0.832790  0.348490  0.026690  1.0  -0.47
  N  N2375  1  0.866170  0.294670  0.011730  1.0  -0.4455
  N  N2376  1  0.802460  0.320440  0.024160  1.0  -0.439
  N  N2377  1  0.804110  0.247690  0.994290  1.0  -0.3051
  N  N2378  1  0.721430  0.280970  0.033870  1.0  -0.3638
  N  N2379  1  0.757190  0.203670  0.045350  1.0  -0.3239
  N  N2380  1  0.765740  0.107600  0.047400  1.0  -0.4538
  N  N2381  1  0.014080  0.194760  0.758500  1.0  -0.4331
  N  N2382  1  0.938480  0.240360  0.790140  1.0  -0.3298
  N  N2383  1  0.793370  0.460790  0.740050  1.0  -0.3342
  N  N2384  1  0.848490  0.332790  0.792030  1.0  -0.4679
  N  N2385  1  0.794670  0.366170  0.827430  1.0  -0.4432
  N  N2386  1  0.820440  0.302460  0.852940  1.0  -0.4374
  N  N2387  1  0.747690  0.304110  0.953910  1.0  -0.3064
  N  N2388  1  0.780970  0.221430  0.963730  1.0  -0.3623
  N  N2389  1  0.703670  0.257190  0.993790  1.0  -0.3222
  N  N2390  1  0.607600  0.265740  0.079260  1.0  -0.454
  N  N2391  1  0.532660  0.758500  0.194760  1.0  -0.4338
  N  N2392  1  0.531020  0.790140  0.240360  1.0  -0.3332
  N  N2393  1  0.505790  0.740050  0.460790  1.0  -0.3357
  N  N2394  1  0.526690  0.792030  0.332790  1.0  -0.4681
  N  N2395  1  0.511730  0.827430  0.366170  1.0  -0.4449
  N  N2396  1  0.524160  0.852940  0.302460  1.0  -0.4393
  N  N2397  1  0.494290  0.953910  0.304110  1.0  -0.3049
  N  N2398  1  0.533870  0.963730  0.221430  1.0  -0.362
  N  N2399  1  0.545350  0.993790  0.257190  1.0  -0.3227
  N  N2400  1  0.547400  0.079260  0.265740  1.0  -0.4538
  N  N2401  1  0.032660  0.014080  0.694760  1.0  -0.434
  N  N2402  1  0.031020  0.938480  0.740360  1.0  -0.334
  N  N2403  1  0.005790  0.793370  0.960790  1.0  -0.3341
  N  N2404  1  0.026690  0.848490  0.832790  1.0  -0.4675
  N  N2405  1  0.011730  0.794670  0.866170  1.0  -0.4437
  N  N2406  1  0.024160  0.820440  0.802460  1.0  -0.4431
  N  N2407  1  0.994290  0.747690  0.804110  1.0  -0.306
  N  N2408  1  0.033870  0.780970  0.721430  1.0  -0.3656
  N  N2409  1  0.045350  0.703670  0.757190  1.0  -0.3227
  N  N2410  1  0.047400  0.607600  0.765740  1.0  -0.4533
  N  N2411  1  0.514080  0.532660  0.258500  1.0  -0.4323
  N  N2412  1  0.438480  0.531020  0.290140  1.0  -0.3322
  N  N2413  1  0.293370  0.505790  0.240050  1.0  -0.3328
  N  N2414  1  0.348490  0.526690  0.292030  1.0  -0.4663
  N  N2415  1  0.294670  0.511730  0.327430  1.0  -0.4473
  N  N2416  1  0.320440  0.524160  0.352940  1.0  -0.4425
  N  N2417  1  0.247690  0.494290  0.453910  1.0  -0.3068
  N  N2418  1  0.280970  0.533870  0.463730  1.0  -0.3665
  N  N2419  1  0.203670  0.545350  0.493790  1.0  -0.3233
  N  N2420  1  0.107600  0.547400  0.579260  1.0  -0.4519
  N  N2421  1  0.194760  0.258500  0.532660  1.0  -0.4335
  N  N2422  1  0.240360  0.290140  0.531020  1.0  -0.3354
  N  N2423  1  0.460790  0.240050  0.505790  1.0  -0.3324
  N  N2424  1  0.332790  0.292030  0.526690  1.0  -0.4667
  N  N2425  1  0.366170  0.327430  0.511730  1.0  -0.4486
  N  N2426  1  0.302460  0.352940  0.524160  1.0  -0.4394
  N  N2427  1  0.304110  0.453910  0.494290  1.0  -0.3045
  N  N2428  1  0.221430  0.463730  0.533870  1.0  -0.3655
  N  N2429  1  0.257190  0.493790  0.545350  1.0  -0.3247
  N  N2430  1  0.265740  0.579260  0.547400  1.0  -0.4538
  N  N2431  1  0.758500  0.694760  0.014080  1.0  -0.4329
  N  N2432  1  0.790140  0.740360  0.938480  1.0  -0.3312
  N  N2433  1  0.740050  0.960790  0.793370  1.0  -0.3338
  N  N2434  1  0.792030  0.832790  0.848490  1.0  -0.4671
  N  N2435  1  0.827430  0.866170  0.794670  1.0  -0.4426
  N  N2436  1  0.852940  0.802460  0.820440  1.0  -0.4363
  N  N2437  1  0.953910  0.804110  0.747690  1.0  -0.3054
  N  N2438  1  0.963730  0.721430  0.780970  1.0  -0.3663
  N  N2439  1  0.993790  0.757190  0.703670  1.0  -0.3256
  N  N2440  1  0.079260  0.765740  0.607600  1.0  -0.4546
  N  N2441  1  0.032660  0.694760  0.258500  1.0  -0.4328
  N  N2442  1  0.031020  0.740360  0.290140  1.0  -0.3356
  N  N2443  1  0.005790  0.960790  0.240050  1.0  -0.3377
  N  N2444  1  0.026690  0.832790  0.292030  1.0  -0.4696
  N  N2445  1  0.011730  0.866170  0.327430  1.0  -0.4432
  N  N2446  1  0.024160  0.802460  0.352940  1.0  -0.4392
  N  N2447  1  0.994290  0.804110  0.453910  1.0  -0.3056
  N  N2448  1  0.033870  0.721430  0.463730  1.0  -0.3627
  N  N2449  1  0.045350  0.757190  0.493790  1.0  -0.3221
  N  N2450  1  0.047400  0.765740  0.579260  1.0  -0.4538
  N  N2451  1  0.514080  0.258500  0.694760  1.0  -0.4332
  N  N2452  1  0.438480  0.290140  0.740360  1.0  -0.3326
  N  N2453  1  0.293370  0.240050  0.960790  1.0  -0.3331
  N  N2454  1  0.348490  0.292030  0.832790  1.0  -0.4657
  N  N2455  1  0.294670  0.327430  0.866170  1.0  -0.4457
  N  N2456  1  0.320440  0.352940  0.802460  1.0  -0.4403
  N  N2457  1  0.247690  0.453910  0.804110  1.0  -0.3059
  N  N2458  1  0.280970  0.463730  0.721430  1.0  -0.3625
  N  N2459  1  0.203670  0.493790  0.757190  1.0  -0.3214
  N  N2460  1  0.107600  0.579260  0.765740  1.0  -0.4545
  N  N2461  1  0.194760  0.532660  0.014080  1.0  -0.4342
  N  N2462  1  0.240360  0.531020  0.938480  1.0  -0.3349
  N  N2463  1  0.460790  0.505790  0.793370  1.0  -0.335
  N  N2464  1  0.332790  0.526690  0.848490  1.0  -0.4689
  N  N2465  1  0.366170  0.511730  0.794670  1.0  -0.4488
  N  N2466  1  0.302460  0.524160  0.820440  1.0  -0.4389
  N  N2467  1  0.304110  0.494290  0.747690  1.0  -0.304
  N  N2468  1  0.221430  0.533870  0.780970  1.0  -0.3629
  N  N2469  1  0.257190  0.545350  0.703670  1.0  -0.3228
  N  N2470  1  0.265740  0.547400  0.607600  1.0  -0.4531
  N  N2471  1  0.758500  0.014080  0.532660  1.0  -0.431
  N  N2472  1  0.790140  0.938480  0.531020  1.0  -0.3329
  N  N2473  1  0.740050  0.793370  0.505790  1.0  -0.3372
  N  N2474  1  0.792030  0.848490  0.526690  1.0  -0.4678
  N  N2475  1  0.827430  0.794670  0.511730  1.0  -0.445
  N  N2476  1  0.852940  0.820440  0.524160  1.0  -0.4369
  N  N2477  1  0.953910  0.747690  0.494290  1.0  -0.3037
  N  N2478  1  0.963730  0.780970  0.533870  1.0  -0.3645
  N  N2479  1  0.993790  0.703670  0.545350  1.0  -0.3226
  N  N2480  1  0.079260  0.607600  0.547400  1.0  -0.4539
  N  N2481  1  0.032660  0.258500  0.014080  1.0  -0.4335
  N  N2482  1  0.031020  0.290140  0.938480  1.0  -0.3328
  N  N2483  1  0.005790  0.240050  0.793370  1.0  -0.3351
  N  N2484  1  0.026690  0.292030  0.848490  1.0  -0.4672
  N  N2485  1  0.011730  0.327430  0.794670  1.0  -0.4454
  N  N2486  1  0.024160  0.352940  0.820440  1.0  -0.4381
  N  N2487  1  0.994290  0.453910  0.747690  1.0  -0.3044
  N  N2488  1  0.033870  0.463730  0.780970  1.0  -0.3613
  N  N2489  1  0.045350  0.493790  0.703670  1.0  -0.3224
  N  N2490  1  0.047400  0.579260  0.607600  1.0  -0.4537
  N  N2491  1  0.514080  0.694760  0.532660  1.0  -0.4337
  N  N2492  1  0.438480  0.740360  0.531020  1.0  -0.33
  N  N2493  1  0.293370  0.960790  0.505790  1.0  -0.3342
  N  N2494  1  0.348490  0.832790  0.526690  1.0  -0.4672
  N  N2495  1  0.294670  0.866170  0.511730  1.0  -0.4432
  N  N2496  1  0.320440  0.802460  0.524160  1.0  -0.4375
  N  N2497  1  0.247690  0.804110  0.494290  1.0  -0.3073
  N  N2498  1  0.280970  0.721430  0.533870  1.0  -0.3622
  N  N2499  1  0.203670  0.757190  0.545350  1.0  -0.3227
  N  N2500  1  0.107600  0.765740  0.547400  1.0  -0.4539
  N  N2501  1  0.194760  0.014080  0.258500  1.0  -0.432
  N  N2502  1  0.240360  0.938480  0.290140  1.0  -0.3334
  N  N2503  1  0.460790  0.793370  0.240050  1.0  -0.3331
  N  N2504  1  0.332790  0.848490  0.292030  1.0  -0.4699
  N  N2505  1  0.366170  0.794670  0.327430  1.0  -0.4455
  N  N2506  1  0.302460  0.820440  0.352940  1.0  -0.4392
  N  N2507  1  0.304110  0.747690  0.453910  1.0  -0.3047
  N  N2508  1  0.221430  0.780970  0.463730  1.0  -0.362
  N  N2509  1  0.257190  0.703670  0.493790  1.0  -0.3231
  N  N2510  1  0.265740  0.607600  0.579260  1.0  -0.4542
  N  N2511  1  0.758500  0.532660  0.694760  1.0  -0.4314
  N  N2512  1  0.790140  0.531020  0.740360  1.0  -0.3322
  N  N2513  1  0.740050  0.505790  0.960790  1.0  -0.3364
  N  N2514  1  0.792030  0.526690  0.832790  1.0  -0.4681
  N  N2515  1  0.827430  0.511730  0.866170  1.0  -0.4445
  N  N2516  1  0.852940  0.524160  0.802460  1.0  -0.4373
  N  N2517  1  0.953910  0.494290  0.804110  1.0  -0.3039
  N  N2518  1  0.963730  0.533870  0.721430  1.0  -0.3632
  N  N2519  1  0.993790  0.545350  0.757190  1.0  -0.3255
  N  N2520  1  0.079260  0.547400  0.765740  1.0  -0.453
  N  N2521  1  0.985920  0.967340  0.805240  1.0  -0.4327
  N  N2522  1  0.061520  0.968980  0.759640  1.0  -0.3321
  N  N2523  1  0.206630  0.994210  0.539210  1.0  -0.3321
  N  N2524  1  0.151510  0.973310  0.667210  1.0  -0.4672
  N  N2525  1  0.205330  0.988270  0.633830  1.0  -0.4485
  N  N2526  1  0.179560  0.975840  0.697540  1.0  -0.4429
  N  N2527  1  0.252310  0.005710  0.695890  1.0  -0.3061
  N  N2528  1  0.219030  0.966130  0.778570  1.0  -0.3671
  N  N2529  1  0.296330  0.954650  0.742810  1.0  -0.3232
  N  N2530  1  0.392400  0.952600  0.734260  1.0  -0.453
  N  N2531  1  0.467340  0.485920  0.241500  1.0  -0.4328
  N  N2532  1  0.468980  0.561520  0.209860  1.0  -0.3345
  N  N2533  1  0.494210  0.706630  0.259950  1.0  -0.3347
  N  N2534  1  0.473310  0.651510  0.207970  1.0  -0.4662
  N  N2535  1  0.488270  0.705330  0.172570  1.0  -0.4434
  N  N2536  1  0.475840  0.679560  0.147060  1.0  -0.4424
  N  N2537  1  0.505710  0.752310  0.046090  1.0  -0.3068
  N  N2538  1  0.466130  0.719030  0.036270  1.0  -0.3658
  N  N2539  1  0.454650  0.796330  0.006210  1.0  -0.3237
  N  N2540  1  0.452600  0.892400  0.920740  1.0  -0.4541
  N  N2541  1  0.741500  0.805240  0.967340  1.0  -0.4323
  N  N2542  1  0.709860  0.759640  0.968980  1.0  -0.3308
  N  N2543  1  0.759950  0.539210  0.994210  1.0  -0.3332
  N  N2544  1  0.707970  0.667210  0.973310  1.0  -0.4666
  N  N2545  1  0.672570  0.633830  0.988270  1.0  -0.4432
  N  N2546  1  0.647060  0.697540  0.975840  1.0  -0.4394
  N  N2547  1  0.546090  0.695890  0.005710  1.0  -0.3047
  N  N2548  1  0.536270  0.778570  0.966130  1.0  -0.3664
  N  N2549  1  0.506210  0.742810  0.954650  1.0  -0.3254
  N  N2550  1  0.420740  0.734260  0.952600  1.0  -0.4546
  N  N2551  1  0.305240  0.241500  0.485920  1.0  -0.4358
  N  N2552  1  0.259640  0.209860  0.561520  1.0  -0.3345
  N  N2553  1  0.039210  0.259950  0.706630  1.0  -0.3329
  N  N2554  1  0.167210  0.207970  0.651510  1.0  -0.4673
  N  N2555  1  0.133830  0.172570  0.705330  1.0  -0.4458
  N  N2556  1  0.197540  0.147060  0.679560  1.0  -0.438
  N  N2557  1  0.195890  0.046090  0.752310  1.0  -0.3044
  N  N2558  1  0.278570  0.036270  0.719030  1.0  -0.3662
  N  N2559  1  0.242810  0.006210  0.796330  1.0  -0.3246
  N  N2560  1  0.234260  0.920740  0.892400  1.0  -0.4541
  N  N2561  1  0.305240  0.967340  0.241500  1.0  -0.4358
  N  N2562  1  0.259640  0.968980  0.209860  1.0  -0.3348
  N  N2563  1  0.039210  0.994210  0.259950  1.0  -0.3341
  N  N2564  1  0.167210  0.973310  0.207970  1.0  -0.468
  N  N2565  1  0.133830  0.988270  0.172570  1.0  -0.4464
  N  N2566  1  0.197540  0.975840  0.147060  1.0  -0.4379
  N  N2567  1  0.195890  0.005710  0.046090  1.0  -0.3028
  N  N2568  1  0.278570  0.966130  0.036270  1.0  -0.3625
  N  N2569  1  0.242810  0.954650  0.006210  1.0  -0.322
  N  N2570  1  0.234260  0.952600  0.920740  1.0  -0.4529
  N  N2571  1  0.741500  0.485920  0.805240  1.0  -0.4309
  N  N2572  1  0.709860  0.561520  0.759640  1.0  -0.3343
  N  N2573  1  0.759950  0.706630  0.539210  1.0  -0.3377
  N  N2574  1  0.707970  0.651510  0.667210  1.0  -0.4661
  N  N2575  1  0.672570  0.705330  0.633830  1.0  -0.4445
  N  N2576  1  0.647060  0.679560  0.697540  1.0  -0.4381
  N  N2577  1  0.546090  0.752310  0.695890  1.0  -0.3047
  N  N2578  1  0.536270  0.719030  0.778570  1.0  -0.3618
  N  N2579  1  0.506210  0.796330  0.742810  1.0  -0.323
  N  N2580  1  0.420740  0.892400  0.734260  1.0  -0.4541
  N  N2581  1  0.467340  0.805240  0.485920  1.0  -0.4339
  N  N2582  1  0.468980  0.759640  0.561520  1.0  -0.3362
  N  N2583  1  0.494210  0.539210  0.706630  1.0  -0.3375
  N  N2584  1  0.473310  0.667210  0.651510  1.0  -0.4697
  N  N2585  1  0.488270  0.633830  0.705330  1.0  -0.4425
  N  N2586  1  0.475840  0.697540  0.679560  1.0  -0.4398
  N  N2587  1  0.505710  0.695890  0.752310  1.0  -0.3052
  N  N2588  1  0.466130  0.778570  0.719030  1.0  -0.3633
  N  N2589  1  0.454650  0.742810  0.796330  1.0  -0.3211
  N  N2590  1  0.452600  0.734260  0.892400  1.0  -0.4548
  N  N2591  1  0.985920  0.241500  0.967340  1.0  -0.432
  N  N2592  1  0.061520  0.209860  0.968980  1.0  -0.332
  N  N2593  1  0.206630  0.259950  0.994210  1.0  -0.3334
  N  N2594  1  0.151510  0.207970  0.973310  1.0  -0.4679
  N  N2595  1  0.205330  0.172570  0.988270  1.0  -0.4471
  N  N2596  1  0.179560  0.147060  0.975840  1.0  -0.4396
  N  N2597  1  0.252310  0.046090  0.005710  1.0  -0.3057
  N  N2598  1  0.219030  0.036270  0.966130  1.0  -0.3627
  N  N2599  1  0.296330  0.006210  0.954650  1.0  -0.3231
  N  N2600  1  0.392400  0.920740  0.952600  1.0  -0.4538
  N  N2601  1  0.741500  0.967340  0.485920  1.0  -0.4294
  N  N2602  1  0.709860  0.968980  0.561520  1.0  -0.3318
  N  N2603  1  0.759950  0.994210  0.706630  1.0  -0.3361
  N  N2604  1  0.707970  0.973310  0.651510  1.0  -0.4675
  N  N2605  1  0.672570  0.988270  0.705330  1.0  -0.4452
  N  N2606  1  0.647060  0.975840  0.679560  1.0  -0.4388
  N  N2607  1  0.546090  0.005710  0.752310  1.0  -0.3052
  N  N2608  1  0.536270  0.966130  0.719030  1.0  -0.364
  N  N2609  1  0.506210  0.954650  0.796330  1.0  -0.3248
  N  N2610  1  0.420740  0.952600  0.892400  1.0  -0.4535
  N  N2611  1  0.305240  0.485920  0.967340  1.0  -0.4338
  N  N2612  1  0.259640  0.561520  0.968980  1.0  -0.3336
  N  N2613  1  0.039210  0.706630  0.994210  1.0  -0.3342
  N  N2614  1  0.167210  0.651510  0.973310  1.0  -0.4696
  N  N2615  1  0.133830  0.705330  0.988270  1.0  -0.4442
  N  N2616  1  0.197540  0.679560  0.975840  1.0  -0.4381
  N  N2617  1  0.195890  0.752310  0.005710  1.0  -0.303
  N  N2618  1  0.278570  0.719030  0.966130  1.0  -0.3611
  N  N2619  1  0.242810  0.796330  0.954650  1.0  -0.3233
  N  N2620  1  0.234260  0.892400  0.952600  1.0  -0.4538
  N  N2621  1  0.985920  0.805240  0.241500  1.0  -0.4336
  N  N2622  1  0.061520  0.759640  0.209860  1.0  -0.3312
  N  N2623  1  0.206630  0.539210  0.259950  1.0  -0.3329
  N  N2624  1  0.151510  0.667210  0.207970  1.0  -0.4694
  N  N2625  1  0.205330  0.633830  0.172570  1.0  -0.4431
  N  N2626  1  0.179560  0.697540  0.147060  1.0  -0.4379
  N  N2627  1  0.252310  0.695890  0.046090  1.0  -0.3064
  N  N2628  1  0.219030  0.778570  0.036270  1.0  -0.364
  N  N2629  1  0.296330  0.742810  0.006210  1.0  -0.3232
  N  N2630  1  0.392400  0.734260  0.920740  1.0  -0.4539
  N  N2631  1  0.467340  0.241500  0.805240  1.0  -0.4325
  N  N2632  1  0.468980  0.209860  0.759640  1.0  -0.3326
  N  N2633  1  0.494210  0.259950  0.539210  1.0  -0.3365
  N  N2634  1  0.473310  0.207970  0.667210  1.0  -0.4687
  N  N2635  1  0.488270  0.172570  0.633830  1.0  -0.4461
  N  N2636  1  0.475840  0.147060  0.697540  1.0  -0.4384
  N  N2637  1  0.505710  0.046090  0.695890  1.0  -0.3052
  N  N2638  1  0.466130  0.036270  0.778570  1.0  -0.3636
  N  N2639  1  0.454650  0.006210  0.742810  1.0  -0.3221
  N  N2640  1  0.452600  0.920740  0.734260  1.0  -0.4545
