# generated using pymatgen
data_CuH9C17NO5
_symmetry_space_group_name_H-M   'P 1'
_cell_length_a   37.16340000
_cell_length_b   37.16340000
_cell_length_c   37.16340000
_cell_angle_alpha   60.00000000
_cell_angle_beta   60.00000000
_cell_angle_gamma   60.00000000
_symmetry_Int_Tables_number   1
_chemical_formula_structural   CuH9C17NO5
_chemical_formula_sum   'Cu24 H216 C408 N24 O120'
_cell_volume   36293.70639590
_cell_formula_units_Z   24
loop_
 _symmetry_equiv_pos_site_id
 _symmetry_equiv_pos_as_xyz
  1  'x, y, z'
loop_
 _atom_site_type_symbol
 _atom_site_label
 _atom_site_symmetry_multiplicity
 _atom_site_fract_x
 _atom_site_fract_y
 _atom_site_fract_z
 _atom_site_occupancy
 _atom_site_charge
  Cu  Cu1  1  0.784920  0.215080  0.000000  1.0  0.9129
  Cu  Cu2  1  0.713800  0.286200  0.000000  1.0  0.9168
  Cu  Cu3  1  0.215080  0.784920  0.000000  1.0  0.9129
  Cu  Cu4  1  0.286200  0.713800  0.000000  1.0  0.908
  Cu  Cu5  1  0.000000  0.000000  0.784920  1.0  0.9144
  Cu  Cu6  1  0.000000  0.000000  0.713800  1.0  0.917
  Cu  Cu7  1  0.000000  0.000000  0.215080  1.0  0.9114
  Cu  Cu8  1  0.000000  0.000000  0.286200  1.0  0.9149
  Cu  Cu9  1  0.784920  0.000000  0.000000  1.0  0.9145
  Cu  Cu10  1  0.713800  0.000000  0.000000  1.0  0.9169
  Cu  Cu11  1  0.215080  0.000000  0.000000  1.0  0.916
  Cu  Cu12  1  0.286200  0.000000  0.000000  1.0  0.9177
  Cu  Cu13  1  0.000000  0.784920  0.215080  1.0  0.9135
  Cu  Cu14  1  0.000000  0.713800  0.286200  1.0  0.9168
  Cu  Cu15  1  0.000000  0.215080  0.784920  1.0  0.9128
  Cu  Cu16  1  0.000000  0.286200  0.713800  1.0  0.9633
  Cu  Cu17  1  0.784920  0.000000  0.215080  1.0  0.9137
  Cu  Cu18  1  0.713800  0.000000  0.286200  1.0  0.9094
  Cu  Cu19  1  0.215080  0.000000  0.784920  1.0  0.9145
  Cu  Cu20  1  0.286200  0.000000  0.713800  1.0  0.9176
  Cu  Cu21  1  0.000000  0.215080  0.000000  1.0  0.9134
  Cu  Cu22  1  0.000000  0.286200  0.000000  1.0  0.9181
  Cu  Cu23  1  0.000000  0.784920  0.000000  1.0  0.9134
  Cu  Cu24  1  0.000000  0.713800  0.000000  1.0  0.9161
  H  H25  1  0.754200  0.360400  0.861000  1.0  0.119
  H  H26  1  0.787100  0.479100  0.690300  1.0  0.1261
  H  H27  1  0.746800  0.546600  0.648400  1.0  0.135
  H  H28  1  0.360400  0.754200  0.024400  1.0  0.1213
  H  H29  1  0.479100  0.787100  0.043500  1.0  0.1266
  H  H30  1  0.546600  0.746800  0.058200  1.0  0.134
  H  H31  1  0.861000  0.024400  0.754200  1.0  0.1193
  H  H32  1  0.690300  0.043500  0.787100  1.0  0.1262
  H  H33  1  0.648400  0.058200  0.746800  1.0  0.1344
  H  H34  1  0.024400  0.861000  0.360400  1.0  0.1192
  H  H35  1  0.043500  0.690300  0.479100  1.0  0.1262
  H  H36  1  0.058200  0.648400  0.546600  1.0  0.1351
  H  H37  1  0.754200  0.861000  0.024400  1.0  0.1194
  H  H38  1  0.787100  0.690300  0.043500  1.0  0.1261
  H  H39  1  0.746800  0.648400  0.058200  1.0  0.1348
  H  H40  1  0.360400  0.024400  0.861000  1.0  0.1191
  H  H41  1  0.479100  0.043500  0.690300  1.0  0.1265
  H  H42  1  0.546600  0.058200  0.648400  1.0  0.1352
  H  H43  1  0.861000  0.754200  0.360400  1.0  0.1187
  H  H44  1  0.690300  0.787100  0.479100  1.0  0.126
  H  H45  1  0.648400  0.746800  0.546600  1.0  0.1347
  H  H46  1  0.024400  0.360400  0.754200  1.0  0.1198
  H  H47  1  0.043500  0.479100  0.787100  1.0  0.1261
  H  H48  1  0.058200  0.546600  0.746800  1.0  0.1354
  H  H49  1  0.754200  0.024400  0.360400  1.0  0.1213
  H  H50  1  0.787100  0.043500  0.479100  1.0  0.1256
  H  H51  1  0.746800  0.058200  0.546600  1.0  0.1341
  H  H52  1  0.360400  0.861000  0.754200  1.0  0.1198
  H  H53  1  0.479100  0.690300  0.787100  1.0  0.1265
  H  H54  1  0.546600  0.648400  0.746800  1.0  0.1342
  H  H55  1  0.861000  0.360400  0.024400  1.0  0.1194
  H  H56  1  0.690300  0.479100  0.043500  1.0  0.1268
  H  H57  1  0.648400  0.546600  0.058200  1.0  0.1335
  H  H58  1  0.024400  0.754200  0.861000  1.0  0.1216
  H  H59  1  0.043500  0.787100  0.690300  1.0  0.1272
  H  H60  1  0.058200  0.746800  0.648400  1.0  0.1339
  H  H61  1  0.639600  0.245800  0.139000  1.0  0.1193
  H  H62  1  0.520900  0.212900  0.309700  1.0  0.1264
  H  H63  1  0.453400  0.253200  0.351600  1.0  0.1348
  H  H64  1  0.245800  0.639600  0.975600  1.0  0.1198
  H  H65  1  0.212900  0.520900  0.956500  1.0  0.126
  H  H66  1  0.253200  0.453400  0.941800  1.0  0.1343
  H  H67  1  0.975600  0.139000  0.245800  1.0  0.1199
  H  H68  1  0.956500  0.309700  0.212900  1.0  0.1265
  H  H69  1  0.941800  0.351600  0.253200  1.0  0.1338
  H  H70  1  0.139000  0.975600  0.639600  1.0  0.1207
  H  H71  1  0.309700  0.956500  0.520900  1.0  0.1254
  H  H72  1  0.351600  0.941800  0.453400  1.0  0.1345
  H  H73  1  0.139000  0.245800  0.975600  1.0  0.1186
  H  H74  1  0.309700  0.212900  0.956500  1.0  0.1252
  H  H75  1  0.351600  0.253200  0.941800  1.0  0.1346
  H  H76  1  0.975600  0.639600  0.139000  1.0  0.1209
  H  H77  1  0.956500  0.520900  0.309700  1.0  0.1258
  H  H78  1  0.941800  0.453400  0.351600  1.0  0.1356
  H  H79  1  0.245800  0.139000  0.639600  1.0  0.119
  H  H80  1  0.212900  0.309700  0.520900  1.0  0.1268
  H  H81  1  0.253200  0.351600  0.453400  1.0  0.1346
  H  H82  1  0.639600  0.975600  0.245800  1.0  0.1202
  H  H83  1  0.520900  0.956500  0.212900  1.0  0.1258
  H  H84  1  0.453400  0.941800  0.253200  1.0  0.1345
  H  H85  1  0.975600  0.245800  0.639600  1.0  0.1193
  H  H86  1  0.956500  0.212900  0.520900  1.0  0.1265
  H  H87  1  0.941800  0.253200  0.453400  1.0  0.1335
  H  H88  1  0.139000  0.639600  0.245800  1.0  0.1191
  H  H89  1  0.309700  0.520900  0.212900  1.0  0.127
  H  H90  1  0.351600  0.453400  0.253200  1.0  0.1341
  H  H91  1  0.639600  0.139000  0.975600  1.0  0.1187
  H  H92  1  0.520900  0.309700  0.956500  1.0  0.1267
  H  H93  1  0.453400  0.351600  0.941800  1.0  0.1336
  H  H94  1  0.245800  0.975600  0.139000  1.0  0.1189
  H  H95  1  0.212900  0.956500  0.309700  1.0  0.1267
  H  H96  1  0.253200  0.941800  0.351600  1.0  0.1339
  H  H97  1  0.245800  0.639600  0.139000  1.0  0.12
  H  H98  1  0.212900  0.520900  0.309700  1.0  0.1259
  H  H99  1  0.253200  0.453400  0.351600  1.0  0.1344
  H  H100  1  0.639600  0.245800  0.975600  1.0  0.1193
  H  H101  1  0.520900  0.212900  0.956500  1.0  0.1262
  H  H102  1  0.453400  0.253200  0.941800  1.0  0.1344
  H  H103  1  0.139000  0.975600  0.245800  1.0  0.1201
  H  H104  1  0.309700  0.956500  0.212900  1.0  0.1263
  H  H105  1  0.351600  0.941800  0.253200  1.0  0.1342
  H  H106  1  0.975600  0.139000  0.639600  1.0  0.1208
  H  H107  1  0.956500  0.309700  0.520900  1.0  0.1261
  H  H108  1  0.941800  0.351600  0.453400  1.0  0.1344
  H  H109  1  0.245800  0.139000  0.975600  1.0  0.1203
  H  H110  1  0.212900  0.309700  0.956500  1.0  0.1269
  H  H111  1  0.253200  0.351600  0.941800  1.0  0.1337
  H  H112  1  0.639600  0.975600  0.139000  1.0  0.1195
  H  H113  1  0.520900  0.956500  0.309700  1.0  0.1264
  H  H114  1  0.453400  0.941800  0.351600  1.0  0.1358
  H  H115  1  0.139000  0.245800  0.639600  1.0  0.1186
  H  H116  1  0.309700  0.212900  0.520900  1.0  0.1253
  H  H117  1  0.351600  0.253200  0.453400  1.0  0.1352
  H  H118  1  0.975600  0.639600  0.245800  1.0  0.1205
  H  H119  1  0.956500  0.520900  0.212900  1.0  0.1256
  H  H120  1  0.941800  0.453400  0.253200  1.0  0.1348
  H  H121  1  0.245800  0.975600  0.639600  1.0  0.119
  H  H122  1  0.212900  0.956500  0.520900  1.0  0.127
  H  H123  1  0.253200  0.941800  0.453400  1.0  0.1334
  H  H124  1  0.639600  0.139000  0.245800  1.0  0.1202
  H  H125  1  0.520900  0.309700  0.212900  1.0  0.1266
  H  H126  1  0.453400  0.351600  0.253200  1.0  0.1341
  H  H127  1  0.139000  0.639600  0.975600  1.0  0.1191
  H  H128  1  0.309700  0.520900  0.956500  1.0  0.1269
  H  H129  1  0.351600  0.453400  0.941800  1.0  0.1338
  H  H130  1  0.975600  0.245800  0.139000  1.0  0.1192
  H  H131  1  0.956500  0.212900  0.309700  1.0  0.1263
  H  H132  1  0.941800  0.253200  0.351600  1.0  0.134
  H  H133  1  0.360400  0.754200  0.861000  1.0  0.121
  H  H134  1  0.479100  0.787100  0.690300  1.0  0.1271
  H  H135  1  0.546600  0.746800  0.648400  1.0  0.1351
  H  H136  1  0.754200  0.360400  0.024400  1.0  0.1194
  H  H137  1  0.787100  0.479100  0.043500  1.0  0.1257
  H  H138  1  0.746800  0.546600  0.058200  1.0  0.1335
  H  H139  1  0.024400  0.861000  0.754200  1.0  0.1199
  H  H140  1  0.043500  0.690300  0.787100  1.0  0.126
  H  H141  1  0.058200  0.648400  0.746800  1.0  0.1348
  H  H142  1  0.861000  0.024400  0.360400  1.0  0.1191
  H  H143  1  0.690300  0.043500  0.479100  1.0  0.1262
  H  H144  1  0.648400  0.058200  0.546600  1.0  0.1348
  H  H145  1  0.861000  0.754200  0.024400  1.0  0.1189
  H  H146  1  0.690300  0.787100  0.043500  1.0  0.1259
  H  H147  1  0.648400  0.746800  0.058200  1.0  0.1344
  H  H148  1  0.024400  0.360400  0.861000  1.0  0.12
  H  H149  1  0.043500  0.479100  0.690300  1.0  0.1251
  H  H150  1  0.058200  0.546600  0.648400  1.0  0.1348
  H  H151  1  0.754200  0.861000  0.360400  1.0  0.12
  H  H152  1  0.787100  0.690300  0.479100  1.0  0.1259
  H  H153  1  0.746800  0.648400  0.546600  1.0  0.1351
  H  H154  1  0.360400  0.024400  0.754200  1.0  0.1199
  H  H155  1  0.479100  0.043500  0.787100  1.0  0.1262
  H  H156  1  0.546600  0.058200  0.746800  1.0  0.1356
  H  H157  1  0.024400  0.754200  0.360400  1.0  0.1217
  H  H158  1  0.043500  0.787100  0.479100  1.0  0.1267
  H  H159  1  0.058200  0.746800  0.546600  1.0  0.134
  H  H160  1  0.861000  0.360400  0.754200  1.0  0.1185
  H  H161  1  0.690300  0.479100  0.787100  1.0  0.1271
  H  H162  1  0.648400  0.546600  0.746800  1.0  0.1333
  H  H163  1  0.360400  0.861000  0.024400  1.0  0.1195
  H  H164  1  0.479100  0.690300  0.043500  1.0  0.1264
  H  H165  1  0.546600  0.648400  0.058200  1.0  0.1345
  H  H166  1  0.754200  0.024400  0.861000  1.0  0.1214
  H  H167  1  0.787100  0.043500  0.690300  1.0  0.1261
  H  H168  1  0.746800  0.058200  0.648400  1.0  0.134
  H  H169  1  0.863700  0.256300  0.863700  1.0  0.1228
  H  H170  1  0.763900  0.412100  0.763900  1.0  0.2311
  H  H171  1  0.256300  0.863700  0.016300  1.0  0.1229
  H  H172  1  0.412100  0.763900  0.060100  1.0  0.2325
  H  H173  1  0.863700  0.016300  0.863700  1.0  0.1221
  H  H174  1  0.763900  0.060100  0.763900  1.0  0.2292
  H  H175  1  0.016300  0.863700  0.256300  1.0  0.1227
  H  H176  1  0.060100  0.763900  0.412100  1.0  0.2295
  H  H177  1  0.863700  0.863700  0.016300  1.0  0.1218
  H  H178  1  0.763900  0.763900  0.060100  1.0  0.2324
  H  H179  1  0.256300  0.016300  0.863700  1.0  0.1226
  H  H180  1  0.412100  0.060100  0.763900  1.0  0.2284
  H  H181  1  0.863700  0.863700  0.256300  1.0  0.1219
  H  H182  1  0.763900  0.763900  0.412100  1.0  0.2312
  H  H183  1  0.016300  0.256300  0.863700  1.0  0.1237
  H  H184  1  0.060100  0.412100  0.763900  1.0  0.2284
  H  H185  1  0.863700  0.016300  0.256300  1.0  0.1221
  H  H186  1  0.763900  0.060100  0.412100  1.0  0.2287
  H  H187  1  0.256300  0.863700  0.863700  1.0  0.1227
  H  H188  1  0.412100  0.763900  0.763900  1.0  0.2309
  H  H189  1  0.863700  0.256300  0.016300  1.0  0.1229
  H  H190  1  0.763900  0.412100  0.060100  1.0  0.2327
  H  H191  1  0.016300  0.863700  0.863700  1.0  0.1228
  H  H192  1  0.060100  0.763900  0.763900  1.0  0.2298
  H  H193  1  0.743700  0.136300  0.136300  1.0  0.1227
  H  H194  1  0.587900  0.236100  0.236100  1.0  0.2311
  H  H195  1  0.136300  0.743700  0.983700  1.0  0.1227
  H  H196  1  0.236100  0.587900  0.939900  1.0  0.2302
  H  H197  1  0.983700  0.136300  0.136300  1.0  0.1226
  H  H198  1  0.939900  0.236100  0.236100  1.0  0.2305
  H  H199  1  0.136300  0.983700  0.743700  1.0  0.122
  H  H200  1  0.236100  0.939900  0.587900  1.0  0.2284
  H  H201  1  0.136300  0.136300  0.983700  1.0  0.1217
  H  H202  1  0.236100  0.236100  0.939900  1.0  0.2304
  H  H203  1  0.983700  0.743700  0.136300  1.0  0.1233
  H  H204  1  0.939900  0.587900  0.236100  1.0  0.2307
  H  H205  1  0.136300  0.136300  0.743700  1.0  0.122
  H  H206  1  0.236100  0.236100  0.587900  1.0  0.2316
  H  H207  1  0.743700  0.983700  0.136300  1.0  0.1226
  H  H208  1  0.587900  0.939900  0.236100  1.0  0.229
  H  H209  1  0.983700  0.136300  0.743700  1.0  0.123
  H  H210  1  0.939900  0.236100  0.587900  1.0  0.2307
  H  H211  1  0.136300  0.743700  0.136300  1.0  0.1226
  H  H212  1  0.236100  0.587900  0.236100  1.0  0.2312
  H  H213  1  0.743700  0.136300  0.983700  1.0  0.1227
  H  H214  1  0.587900  0.236100  0.939900  1.0  0.2308
  H  H215  1  0.136300  0.983700  0.136300  1.0  0.122
  H  H216  1  0.236100  0.939900  0.236100  1.0  0.229
  H  H217  1  0.726000  0.618200  0.618200  1.0  0.1319
  H  H218  1  0.618200  0.726000  0.037600  1.0  0.1321
  H  H219  1  0.618200  0.037600  0.726000  1.0  0.1336
  H  H220  1  0.037600  0.618200  0.618200  1.0  0.1303
  H  H221  1  0.726000  0.618200  0.037600  1.0  0.1326
  H  H222  1  0.618200  0.037600  0.618200  1.0  0.1311
  H  H223  1  0.618200  0.726000  0.618200  1.0  0.1328
  H  H224  1  0.037600  0.618200  0.726000  1.0  0.1331
  H  H225  1  0.726000  0.037600  0.618200  1.0  0.1332
  H  H226  1  0.618200  0.618200  0.726000  1.0  0.1317
  H  H227  1  0.618200  0.618200  0.037600  1.0  0.1298
  H  H228  1  0.037600  0.726000  0.618200  1.0  0.133
  H  H229  1  0.381800  0.274000  0.381800  1.0  0.1319
  H  H230  1  0.274000  0.381800  0.962400  1.0  0.1327
  H  H231  1  0.962400  0.381800  0.274000  1.0  0.1325
  H  H232  1  0.381800  0.962400  0.381800  1.0  0.133
  H  H233  1  0.381800  0.274000  0.962400  1.0  0.1328
  H  H234  1  0.962400  0.381800  0.381800  1.0  0.1328
  H  H235  1  0.274000  0.381800  0.381800  1.0  0.1315
  H  H236  1  0.381800  0.962400  0.274000  1.0  0.1328
  H  H237  1  0.962400  0.274000  0.381800  1.0  0.1333
  H  H238  1  0.381800  0.381800  0.274000  1.0  0.1311
  H  H239  1  0.381800  0.381800  0.962400  1.0  0.1316
  H  H240  1  0.274000  0.962400  0.381800  1.0  0.1339
  C  C241  1  0.783590  0.285350  0.918870  1.0  0.694
  C  C242  1  0.805840  0.306320  0.870820  1.0  -0.1835
  C  C243  1  0.783640  0.346800  0.846860  1.0  -0.0475
  C  C244  1  0.761760  0.498920  0.704940  1.0  -0.1477
  C  C245  1  0.738290  0.538950  0.679650  1.0  -0.1812
  C  C246  1  0.285350  0.783590  0.012190  1.0  0.6909
  C  C247  1  0.306320  0.805840  0.017020  1.0  -0.1811
  C  C248  1  0.346800  0.783640  0.022700  1.0  -0.0468
  C  C249  1  0.498920  0.761760  0.034380  1.0  -0.1505
  C  C250  1  0.538950  0.738290  0.043110  1.0  -0.1817
  C  C251  1  0.918870  0.012190  0.783590  1.0  0.6944
  C  C252  1  0.870820  0.017020  0.805840  1.0  -0.1767
  C  C253  1  0.846860  0.022700  0.783640  1.0  -0.0476
  C  C254  1  0.704940  0.034380  0.761760  1.0  -0.1469
  C  C255  1  0.679650  0.043110  0.738290  1.0  -0.1826
  C  C256  1  0.012190  0.918870  0.285350  1.0  0.6951
  C  C257  1  0.017020  0.870820  0.306320  1.0  -0.176
  C  C258  1  0.022700  0.846860  0.346800  1.0  -0.0472
  C  C259  1  0.034380  0.704940  0.498920  1.0  -0.1489
  C  C260  1  0.043110  0.679650  0.538950  1.0  -0.1796
  C  C261  1  0.783590  0.918870  0.012190  1.0  0.6963
  C  C262  1  0.805840  0.870820  0.017020  1.0  -0.181
  C  C263  1  0.783640  0.846860  0.022700  1.0  -0.0476
  C  C264  1  0.761760  0.704940  0.034380  1.0  -0.1497
  C  C265  1  0.738290  0.679650  0.043110  1.0  -0.1819
  C  C266  1  0.285350  0.012190  0.918870  1.0  0.6952
  C  C267  1  0.306320  0.017020  0.870820  1.0  -0.1785
  C  C268  1  0.346800  0.022700  0.846860  1.0  -0.0473
  C  C269  1  0.498920  0.034380  0.704940  1.0  -0.149
  C  C270  1  0.538950  0.043110  0.679650  1.0  -0.1815
  C  C271  1  0.918870  0.783590  0.285350  1.0  0.6942
  C  C272  1  0.870820  0.805840  0.306320  1.0  -0.177
  C  C273  1  0.846860  0.783640  0.346800  1.0  -0.0463
  C  C274  1  0.704940  0.761760  0.498920  1.0  -0.149
  C  C275  1  0.679650  0.738290  0.538950  1.0  -0.1855
  C  C276  1  0.012190  0.285350  0.783590  1.0  0.6942
  C  C277  1  0.017020  0.306320  0.805840  1.0  -0.1779
  C  C278  1  0.022700  0.346800  0.783640  1.0  -0.0477
  C  C279  1  0.034380  0.498920  0.761760  1.0  -0.1473
  C  C280  1  0.043110  0.538950  0.738290  1.0  -0.181
  C  C281  1  0.783590  0.012190  0.285350  1.0  0.695
  C  C282  1  0.805840  0.017020  0.306320  1.0  -0.1819
  C  C283  1  0.783640  0.022700  0.346800  1.0  -0.0489
  C  C284  1  0.761760  0.034380  0.498920  1.0  -0.1499
  C  C285  1  0.738290  0.043110  0.538950  1.0  -0.1815
  C  C286  1  0.285350  0.918870  0.783590  1.0  0.6935
  C  C287  1  0.306320  0.870820  0.805840  1.0  -0.1729
  C  C288  1  0.346800  0.846860  0.783640  1.0  -0.0468
  C  C289  1  0.498920  0.704940  0.761760  1.0  -0.148
  C  C290  1  0.538950  0.679650  0.738290  1.0  -0.1839
  C  C291  1  0.918870  0.285350  0.012190  1.0  0.6939
  C  C292  1  0.870820  0.306320  0.017020  1.0  -0.1766
  C  C293  1  0.846860  0.346800  0.022700  1.0  -0.0478
  C  C294  1  0.704940  0.498920  0.034380  1.0  -0.1469
  C  C295  1  0.679650  0.538950  0.043110  1.0  -0.1841
  C  C296  1  0.012190  0.783590  0.918870  1.0  0.694
  C  C297  1  0.017020  0.805840  0.870820  1.0  -0.1763
  C  C298  1  0.022700  0.783640  0.846860  1.0  -0.0473
  C  C299  1  0.034380  0.761760  0.704940  1.0  -0.151
  C  C300  1  0.043110  0.738290  0.679650  1.0  -0.1823
  C  C301  1  0.714650  0.216410  0.081130  1.0  0.6939
  C  C302  1  0.693680  0.194160  0.129180  1.0  -0.1801
  C  C303  1  0.653200  0.216360  0.153140  1.0  -0.0491
  C  C304  1  0.501080  0.238240  0.295060  1.0  -0.1494
  C  C305  1  0.461050  0.261710  0.320350  1.0  -0.1822
  C  C306  1  0.216410  0.714650  0.987810  1.0  0.6943
  C  C307  1  0.194160  0.693680  0.982980  1.0  -0.184
  C  C308  1  0.216360  0.653200  0.977300  1.0  -0.0464
  C  C309  1  0.238240  0.501080  0.965620  1.0  -0.1461
  C  C310  1  0.261710  0.461050  0.956890  1.0  -0.1829
  C  C311  1  0.987810  0.081130  0.216410  1.0  0.6942
  C  C312  1  0.982980  0.129180  0.194160  1.0  -0.1769
  C  C313  1  0.977300  0.153140  0.216360  1.0  -0.0487
  C  C314  1  0.965620  0.295060  0.238240  1.0  -0.1492
  C  C315  1  0.956890  0.320350  0.261710  1.0  -0.1798
  C  C316  1  0.081130  0.987810  0.714650  1.0  0.6927
  C  C317  1  0.129180  0.982980  0.693680  1.0  -0.177
  C  C318  1  0.153140  0.977300  0.653200  1.0  -0.0476
  C  C319  1  0.295060  0.965620  0.501080  1.0  -0.1469
  C  C320  1  0.320350  0.956890  0.461050  1.0  -0.182
  C  C321  1  0.081130  0.216410  0.987810  1.0  0.6942
  C  C322  1  0.129180  0.194160  0.982980  1.0  -0.1763
  C  C323  1  0.153140  0.216360  0.977300  1.0  -0.0491
  C  C324  1  0.295060  0.238240  0.965620  1.0  -0.1502
  C  C325  1  0.320350  0.261710  0.956890  1.0  -0.1839
  C  C326  1  0.987810  0.714650  0.081130  1.0  0.6945
  C  C327  1  0.982980  0.693680  0.129180  1.0  -0.1778
  C  C328  1  0.977300  0.653200  0.153140  1.0  -0.0478
  C  C329  1  0.965620  0.501080  0.295060  1.0  -0.1463
  C  C330  1  0.956890  0.461050  0.320350  1.0  -0.1811
  C  C331  1  0.216410  0.081130  0.714650  1.0  0.6956
  C  C332  1  0.194160  0.129180  0.693680  1.0  -0.1814
  C  C333  1  0.216360  0.153140  0.653200  1.0  -0.0471
  C  C334  1  0.238240  0.295060  0.501080  1.0  -0.1497
  C  C335  1  0.261710  0.320350  0.461050  1.0  -0.1829
  C  C336  1  0.714650  0.987810  0.216410  1.0  0.6935
  C  C337  1  0.693680  0.982980  0.194160  1.0  -0.1793
  C  C338  1  0.653200  0.977300  0.216360  1.0  -0.048
  C  C339  1  0.501080  0.965620  0.238240  1.0  -0.1484
  C  C340  1  0.461050  0.956890  0.261710  1.0  -0.1819
  C  C341  1  0.987810  0.216410  0.714650  1.0  0.6946
  C  C342  1  0.982980  0.194160  0.693680  1.0  -0.1759
  C  C343  1  0.977300  0.216360  0.653200  1.0  -0.0489
  C  C344  1  0.965620  0.238240  0.501080  1.0  -0.1519
  C  C345  1  0.956890  0.261710  0.461050  1.0  -0.1831
  C  C346  1  0.081130  0.714650  0.216410  1.0  0.694
  C  C347  1  0.129180  0.693680  0.194160  1.0  -0.1769
  C  C348  1  0.153140  0.653200  0.216360  1.0  -0.0474
  C  C349  1  0.295060  0.501080  0.238240  1.0  -0.1469
  C  C350  1  0.320350  0.461050  0.261710  1.0  -0.184
  C  C351  1  0.714650  0.081130  0.987810  1.0  0.6916
  C  C352  1  0.693680  0.129180  0.982980  1.0  -0.1784
  C  C353  1  0.653200  0.153140  0.977300  1.0  -0.0477
  C  C354  1  0.501080  0.295060  0.965620  1.0  -0.1489
  C  C355  1  0.461050  0.320350  0.956890  1.0  -0.1842
  C  C356  1  0.216410  0.987810  0.081130  1.0  0.6904
  C  C357  1  0.194160  0.982980  0.129180  1.0  -0.1799
  C  C358  1  0.216360  0.977300  0.153140  1.0  -0.0467
  C  C359  1  0.238240  0.965620  0.295060  1.0  -0.1481
  C  C360  1  0.261710  0.956890  0.320350  1.0  -0.1825
  C  C361  1  0.216410  0.714650  0.081130  1.0  0.6945
  C  C362  1  0.194160  0.693680  0.129180  1.0  -0.1839
  C  C363  1  0.216360  0.653200  0.153140  1.0  -0.0469
  C  C364  1  0.238240  0.501080  0.295060  1.0  -0.1489
  C  C365  1  0.261710  0.461050  0.320350  1.0  -0.1833
  C  C366  1  0.714650  0.216410  0.987810  1.0  0.6939
  C  C367  1  0.693680  0.194160  0.982980  1.0  -0.1805
  C  C368  1  0.653200  0.216360  0.977300  1.0  -0.049
  C  C369  1  0.501080  0.238240  0.965620  1.0  -0.1531
  C  C370  1  0.461050  0.261710  0.956890  1.0  -0.182
  C  C371  1  0.081130  0.987810  0.216410  1.0  0.6928
  C  C372  1  0.129180  0.982980  0.194160  1.0  -0.1769
  C  C373  1  0.153140  0.977300  0.216360  1.0  -0.0483
  C  C374  1  0.295060  0.965620  0.238240  1.0  -0.1496
  C  C375  1  0.320350  0.956890  0.261710  1.0  -0.1814
  C  C376  1  0.987810  0.081130  0.714650  1.0  0.6945
  C  C377  1  0.982980  0.129180  0.693680  1.0  -0.1781
  C  C378  1  0.977300  0.153140  0.653200  1.0  -0.048
  C  C379  1  0.965620  0.295060  0.501080  1.0  -0.1524
  C  C380  1  0.956890  0.320350  0.461050  1.0  -0.181
  C  C381  1  0.216410  0.081130  0.987810  1.0  0.694
  C  C382  1  0.194160  0.129180  0.982980  1.0  -0.1814
  C  C383  1  0.216360  0.153140  0.977300  1.0  -0.0466
  C  C384  1  0.238240  0.295060  0.965620  1.0  -0.1514
  C  C385  1  0.261710  0.320350  0.956890  1.0  -0.1823
  C  C386  1  0.714650  0.987810  0.081130  1.0  0.6962
  C  C387  1  0.693680  0.982980  0.129180  1.0  -0.1806
  C  C388  1  0.653200  0.977300  0.153140  1.0  -0.0473
  C  C389  1  0.501080  0.965620  0.295060  1.0  -0.1495
  C  C390  1  0.461050  0.956890  0.320350  1.0  -0.1822
  C  C391  1  0.081130  0.216410  0.714650  1.0  0.6939
  C  C392  1  0.129180  0.194160  0.693680  1.0  -0.1763
  C  C393  1  0.153140  0.216360  0.653200  1.0  -0.0492
  C  C394  1  0.295060  0.238240  0.501080  1.0  -0.1532
  C  C395  1  0.320350  0.261710  0.461050  1.0  -0.1842
  C  C396  1  0.987810  0.714650  0.216410  1.0  0.6947
  C  C397  1  0.982980  0.693680  0.194160  1.0  -0.1778
  C  C398  1  0.977300  0.653200  0.216360  1.0  -0.0485
  C  C399  1  0.965620  0.501080  0.238240  1.0  -0.1497
  C  C400  1  0.956890  0.461050  0.261710  1.0  -0.1813
  C  C401  1  0.216410  0.987810  0.714650  1.0  0.6945
  C  C402  1  0.194160  0.982980  0.693680  1.0  -0.1814
  C  C403  1  0.216360  0.977300  0.653200  1.0  -0.0466
  C  C404  1  0.238240  0.965620  0.501080  1.0  -0.1504
  C  C405  1  0.261710  0.956890  0.461050  1.0  -0.1825
  C  C406  1  0.714650  0.081130  0.216410  1.0  0.6919
  C  C407  1  0.693680  0.129180  0.194160  1.0  -0.1791
  C  C408  1  0.653200  0.153140  0.216360  1.0  -0.048
  C  C409  1  0.501080  0.295060  0.238240  1.0  -0.1518
  C  C410  1  0.461050  0.320350  0.261710  1.0  -0.1834
  C  C411  1  0.081130  0.714650  0.987810  1.0  0.6939
  C  C412  1  0.129180  0.693680  0.982980  1.0  -0.1769
  C  C413  1  0.153140  0.653200  0.977300  1.0  -0.047
  C  C414  1  0.295060  0.501080  0.965620  1.0  -0.1484
  C  C415  1  0.320350  0.461050  0.956890  1.0  -0.1848
  C  C416  1  0.987810  0.216410  0.081130  1.0  0.6943
  C  C417  1  0.982980  0.194160  0.129180  1.0  -0.1758
  C  C418  1  0.977300  0.216360  0.153140  1.0  -0.0489
  C  C419  1  0.965620  0.238240  0.295060  1.0  -0.1551
  C  C420  1  0.956890  0.261710  0.320350  1.0  -0.1829
  C  C421  1  0.285350  0.783590  0.918870  1.0  0.6908
  C  C422  1  0.306320  0.805840  0.870820  1.0  -0.1811
  C  C423  1  0.346800  0.783640  0.846860  1.0  -0.0466
  C  C424  1  0.498920  0.761760  0.704940  1.0  -0.1526
  C  C425  1  0.538950  0.738290  0.679650  1.0  -0.1818
  C  C426  1  0.783590  0.285350  0.012190  1.0  0.6942
  C  C427  1  0.805840  0.306320  0.017020  1.0  -0.1838
  C  C428  1  0.783640  0.346800  0.022700  1.0  -0.0479
  C  C429  1  0.761760  0.498920  0.034380  1.0  -0.1499
  C  C430  1  0.738290  0.538950  0.043110  1.0  -0.1812
  C  C431  1  0.012190  0.918870  0.783590  1.0  0.6951
  C  C432  1  0.017020  0.870820  0.805840  1.0  -0.1762
  C  C433  1  0.022700  0.846860  0.783640  1.0  -0.047
  C  C434  1  0.034380  0.704940  0.761760  1.0  -0.1506
  C  C435  1  0.043110  0.679650  0.738290  1.0  -0.1804
  C  C436  1  0.918870  0.012190  0.285350  1.0  0.6933
  C  C437  1  0.870820  0.017020  0.306320  1.0  -0.1765
  C  C438  1  0.846860  0.022700  0.346800  1.0  -0.0478
  C  C439  1  0.704940  0.034380  0.498920  1.0  -0.1491
  C  C440  1  0.679650  0.043110  0.538950  1.0  -0.1819
  C  C441  1  0.918870  0.783590  0.012190  1.0  0.6939
  C  C442  1  0.870820  0.805840  0.017020  1.0  -0.1768
  C  C443  1  0.846860  0.783640  0.022700  1.0  -0.0466
  C  C444  1  0.704940  0.761760  0.034380  1.0  -0.1523
  C  C445  1  0.679650  0.738290  0.043110  1.0  -0.1864
  C  C446  1  0.012190  0.285350  0.918870  1.0  0.6949
  C  C447  1  0.017020  0.306320  0.870820  1.0  -0.1777
  C  C448  1  0.022700  0.346800  0.846860  1.0  -0.0478
  C  C449  1  0.034380  0.498920  0.704940  1.0  -0.1506
  C  C450  1  0.043110  0.538950  0.679650  1.0  -0.1814
  C  C451  1  0.783590  0.918870  0.285350  1.0  0.6963
  C  C452  1  0.805840  0.870820  0.306320  1.0  -0.1811
  C  C453  1  0.783640  0.846860  0.346800  1.0  -0.0474
  C  C454  1  0.761760  0.704940  0.498920  1.0  -0.1524
  C  C455  1  0.738290  0.679650  0.538950  1.0  -0.1814
  C  C456  1  0.285350  0.012190  0.783590  1.0  0.6955
  C  C457  1  0.306320  0.017020  0.805840  1.0  -0.1791
  C  C458  1  0.346800  0.022700  0.783640  1.0  -0.0474
  C  C459  1  0.498920  0.034380  0.761760  1.0  -0.1506
  C  C460  1  0.538950  0.043110  0.738290  1.0  -0.1814
  C  C461  1  0.012190  0.783590  0.285350  1.0  0.6936
  C  C462  1  0.017020  0.805840  0.306320  1.0  -0.1763
  C  C463  1  0.022700  0.783640  0.346800  1.0  -0.0475
  C  C464  1  0.034380  0.761760  0.498920  1.0  -0.155
  C  C465  1  0.043110  0.738290  0.538950  1.0  -0.1831
  C  C466  1  0.918870  0.285350  0.783590  1.0  0.6942
  C  C467  1  0.870820  0.306320  0.805840  1.0  -0.1762
  C  C468  1  0.846860  0.346800  0.783640  1.0  -0.0471
  C  C469  1  0.704940  0.498920  0.761760  1.0  -0.1488
  C  C470  1  0.679650  0.538950  0.738290  1.0  -0.184
  C  C471  1  0.285350  0.918870  0.012190  1.0  0.694
  C  C472  1  0.306320  0.870820  0.017020  1.0  -0.1775
  C  C473  1  0.346800  0.846860  0.022700  1.0  -0.0475
  C  C474  1  0.498920  0.704940  0.034380  1.0  -0.1518
  C  C475  1  0.538950  0.679650  0.043110  1.0  -0.184
  C  C476  1  0.783590  0.012190  0.918870  1.0  0.6955
  C  C477  1  0.805840  0.017020  0.870820  1.0  -0.1813
  C  C478  1  0.783640  0.022700  0.846860  1.0  -0.0488
  C  C479  1  0.761760  0.034380  0.704940  1.0  -0.1518
  C  C480  1  0.738290  0.043110  0.679650  1.0  -0.1811
  C  C481  1  0.849090  0.285110  0.849090  1.0  0.034
  C  C482  1  0.802890  0.368350  0.802890  1.0  0.1131
  C  C483  1  0.776100  0.447740  0.776100  1.0  0.6027
  C  C484  1  0.749370  0.488470  0.749370  1.0  -0.0489
  C  C485  1  0.701680  0.568360  0.701680  1.0  0.045
  C  C486  1  0.676780  0.613660  0.676780  1.0  0.027
  C  C487  1  0.285110  0.849090  0.016710  1.0  0.0333
  C  C488  1  0.368350  0.802890  0.025870  1.0  0.1126
  C  C489  1  0.447740  0.776100  0.000060  1.0  0.6035
  C  C490  1  0.488470  0.749370  0.012790  1.0  -0.0505
  C  C491  1  0.568360  0.701680  0.028280  1.0  0.0469
  C  C492  1  0.613660  0.676780  0.032780  1.0  0.0277
  C  C493  1  0.849090  0.016710  0.849090  1.0  0.0328
  C  C494  1  0.802890  0.025870  0.802890  1.0  0.1129
  C  C495  1  0.776100  0.000060  0.776100  1.0  0.6047
  C  C496  1  0.749370  0.012790  0.749370  1.0  -0.0528
  C  C497  1  0.701680  0.028280  0.701680  1.0  0.0462
  C  C498  1  0.676780  0.032780  0.676780  1.0  0.0292
  C  C499  1  0.016710  0.849090  0.285110  1.0  0.0328
  C  C500  1  0.025870  0.802890  0.368350  1.0  0.1131
  C  C501  1  0.000060  0.776100  0.447740  1.0  0.5997
  C  C502  1  0.012790  0.749370  0.488470  1.0  -0.0533
  C  C503  1  0.028280  0.701680  0.568360  1.0  0.0433
  C  C504  1  0.032780  0.676780  0.613660  1.0  0.0277
  C  C505  1  0.849090  0.849090  0.016710  1.0  0.0324
  C  C506  1  0.802890  0.802890  0.025870  1.0  0.1131
  C  C507  1  0.776100  0.776100  0.000060  1.0  0.604
  C  C508  1  0.749370  0.749370  0.012790  1.0  -0.0496
  C  C509  1  0.701680  0.701680  0.028280  1.0  0.0442
  C  C510  1  0.676780  0.676780  0.032780  1.0  0.0272
  C  C511  1  0.285110  0.016710  0.849090  1.0  0.0317
  C  C512  1  0.368350  0.025870  0.802890  1.0  0.113
  C  C513  1  0.447740  0.000060  0.776100  1.0  0.6037
  C  C514  1  0.488470  0.012790  0.749370  1.0  -0.0532
  C  C515  1  0.568360  0.028280  0.701680  1.0  0.0468
  C  C516  1  0.613660  0.032780  0.676780  1.0  0.027
  C  C517  1  0.849090  0.849090  0.285110  1.0  0.032
  C  C518  1  0.802890  0.802890  0.368350  1.0  0.1133
  C  C519  1  0.776100  0.776100  0.447740  1.0  0.6025
  C  C520  1  0.749370  0.749370  0.488470  1.0  -0.0483
  C  C521  1  0.701680  0.701680  0.568360  1.0  0.038
  C  C522  1  0.676780  0.676780  0.613660  1.0  0.0271
  C  C523  1  0.016710  0.285110  0.849090  1.0  0.0342
  C  C524  1  0.025870  0.368350  0.802890  1.0  0.1125
  C  C525  1  0.000060  0.447740  0.776100  1.0  0.5976
  C  C526  1  0.012790  0.488470  0.749370  1.0  -0.0532
  C  C527  1  0.028280  0.568360  0.701680  1.0  0.0449
  C  C528  1  0.032780  0.613660  0.676780  1.0  0.0263
  C  C529  1  0.849090  0.016710  0.285110  1.0  0.0325
  C  C530  1  0.802890  0.025870  0.368350  1.0  0.1127
  C  C531  1  0.776100  0.000060  0.447740  1.0  0.6044
  C  C532  1  0.749370  0.012790  0.488470  1.0  -0.0531
  C  C533  1  0.701680  0.028280  0.568360  1.0  0.0458
  C  C534  1  0.676780  0.032780  0.613660  1.0  0.029
  C  C535  1  0.285110  0.849090  0.849090  1.0  0.0337
  C  C536  1  0.368350  0.802890  0.802890  1.0  0.1131
  C  C537  1  0.447740  0.776100  0.776100  1.0  0.6027
  C  C538  1  0.488470  0.749370  0.749370  1.0  -0.0488
  C  C539  1  0.568360  0.701680  0.701680  1.0  0.045
  C  C540  1  0.613660  0.676780  0.676780  1.0  0.0271
  C  C541  1  0.849090  0.285110  0.016710  1.0  0.034
  C  C542  1  0.802890  0.368350  0.025870  1.0  0.1124
  C  C543  1  0.776100  0.447740  0.000060  1.0  0.6039
  C  C544  1  0.749370  0.488470  0.012790  1.0  -0.0508
  C  C545  1  0.701680  0.568360  0.028280  1.0  0.0463
  C  C546  1  0.676780  0.613660  0.032780  1.0  0.0276
  C  C547  1  0.016710  0.849090  0.849090  1.0  0.0327
  C  C548  1  0.025870  0.802890  0.802890  1.0  0.1132
  C  C549  1  0.000060  0.776100  0.776100  1.0  0.5994
  C  C550  1  0.012790  0.749370  0.749370  1.0  -0.053
  C  C551  1  0.028280  0.701680  0.701680  1.0  0.0429
  C  C552  1  0.032780  0.676780  0.676780  1.0  0.0275
  C  C553  1  0.714890  0.150910  0.150910  1.0  0.0332
  C  C554  1  0.631650  0.197110  0.197110  1.0  0.1125
  C  C555  1  0.552260  0.223900  0.223900  1.0  0.6029
  C  C556  1  0.511530  0.250630  0.250630  1.0  -0.0518
  C  C557  1  0.431640  0.298320  0.298320  1.0  0.0433
  C  C558  1  0.386340  0.323220  0.323220  1.0  0.0271
  C  C559  1  0.150910  0.714890  0.983290  1.0  0.0335
  C  C560  1  0.197110  0.631650  0.974130  1.0  0.1126
  C  C561  1  0.223900  0.552260  0.999940  1.0  0.6015
  C  C562  1  0.250630  0.511530  0.987210  1.0  -0.0503
  C  C563  1  0.298320  0.431640  0.971720  1.0  0.0456
  C  C564  1  0.323220  0.386340  0.967220  1.0  0.0268
  C  C565  1  0.983290  0.150910  0.150910  1.0  0.0333
  C  C566  1  0.974130  0.197110  0.197110  1.0  0.1129
  C  C567  1  0.999940  0.223900  0.223900  1.0  0.6037
  C  C568  1  0.987210  0.250630  0.250630  1.0  -0.0481
  C  C569  1  0.971720  0.298320  0.298320  1.0  0.0443
  C  C570  1  0.967220  0.323220  0.323220  1.0  0.0278
  C  C571  1  0.150910  0.983290  0.714890  1.0  0.0322
  C  C572  1  0.197110  0.974130  0.631650  1.0  0.113
  C  C573  1  0.223900  0.999940  0.552260  1.0  0.602
  C  C574  1  0.250630  0.987210  0.511530  1.0  -0.0506
  C  C575  1  0.298320  0.971720  0.431640  1.0  0.0467
  C  C576  1  0.323220  0.967220  0.386340  1.0  0.0286
  C  C577  1  0.150910  0.150910  0.983290  1.0  0.0323
  C  C578  1  0.197110  0.197110  0.974130  1.0  0.1134
  C  C579  1  0.223900  0.223900  0.999940  1.0  0.6005
  C  C580  1  0.250630  0.250630  0.987210  1.0  -0.0505
  C  C581  1  0.298320  0.298320  0.971720  1.0  0.0392
  C  C582  1  0.323220  0.323220  0.967220  1.0  0.026
  C  C583  1  0.983290  0.714890  0.150910  1.0  0.0338
  C  C584  1  0.974130  0.631650  0.197110  1.0  0.1125
  C  C585  1  0.999940  0.552260  0.223900  1.0  0.6031
  C  C586  1  0.987210  0.511530  0.250630  1.0  -0.0486
  C  C587  1  0.971720  0.431640  0.298320  1.0  0.0455
  C  C588  1  0.967220  0.386340  0.323220  1.0  0.0261
  C  C589  1  0.150910  0.150910  0.714890  1.0  0.0328
  C  C590  1  0.197110  0.197110  0.631650  1.0  0.1132
  C  C591  1  0.223900  0.223900  0.552260  1.0  0.6019
  C  C592  1  0.250630  0.250630  0.511530  1.0  -0.0527
  C  C593  1  0.298320  0.298320  0.431640  1.0  0.0416
  C  C594  1  0.323220  0.323220  0.386340  1.0  0.0266
  C  C595  1  0.714890  0.983290  0.150910  1.0  0.0334
  C  C596  1  0.631650  0.974130  0.197110  1.0  0.1131
  C  C597  1  0.552260  0.999940  0.223900  1.0  0.6011
  C  C598  1  0.511530  0.987210  0.250630  1.0  -0.0502
  C  C599  1  0.431640  0.971720  0.298320  1.0  0.0466
  C  C600  1  0.386340  0.967220  0.323220  1.0  0.0265
  C  C601  1  0.983290  0.150910  0.714890  1.0  0.0327
  C  C602  1  0.974130  0.197110  0.631650  1.0  0.1131
  C  C603  1  0.999940  0.223900  0.552260  1.0  0.604
  C  C604  1  0.987210  0.250630  0.511530  1.0  -0.048
  C  C605  1  0.971720  0.298320  0.431640  1.0  0.0443
  C  C606  1  0.967220  0.323220  0.386340  1.0  0.0281
  C  C607  1  0.150910  0.714890  0.150910  1.0  0.0334
  C  C608  1  0.197110  0.631650  0.197110  1.0  0.112
  C  C609  1  0.223900  0.552260  0.223900  1.0  0.6021
  C  C610  1  0.250630  0.511530  0.250630  1.0  -0.0521
  C  C611  1  0.298320  0.431640  0.298320  1.0  0.0447
  C  C612  1  0.323220  0.386340  0.323220  1.0  0.028
  C  C613  1  0.714890  0.150910  0.983290  1.0  0.0334
  C  C614  1  0.631650  0.197110  0.974130  1.0  0.1131
  C  C615  1  0.552260  0.223900  0.999940  1.0  0.602
  C  C616  1  0.511530  0.250630  0.987210  1.0  -0.0496
  C  C617  1  0.431640  0.298320  0.971720  1.0  0.0447
  C  C618  1  0.386340  0.323220  0.967220  1.0  0.0269
  C  C619  1  0.150910  0.983290  0.150910  1.0  0.0328
  C  C620  1  0.197110  0.974130  0.197110  1.0  0.1128
  C  C621  1  0.223900  0.999940  0.223900  1.0  0.6025
  C  C622  1  0.250630  0.987210  0.250630  1.0  -0.0511
  C  C623  1  0.298320  0.971720  0.298320  1.0  0.0466
  C  C624  1  0.323220  0.967220  0.323220  1.0  0.0287
  C  C625  1  0.698090  0.633510  0.633510  1.0  -0.1465
  C  C626  1  0.633510  0.698090  0.034890  1.0  -0.1398
  C  C627  1  0.633510  0.034890  0.698090  1.0  -0.1428
  C  C628  1  0.034890  0.633510  0.633510  1.0  -0.1419
  C  C629  1  0.698090  0.633510  0.034890  1.0  -0.1457
  C  C630  1  0.633510  0.034890  0.633510  1.0  -0.1417
  C  C631  1  0.633510  0.698090  0.633510  1.0  -0.1407
  C  C632  1  0.034890  0.633510  0.698090  1.0  -0.1421
  C  C633  1  0.698090  0.034890  0.633510  1.0  -0.1446
  C  C634  1  0.633510  0.633510  0.698090  1.0  -0.1452
  C  C635  1  0.633510  0.633510  0.034890  1.0  -0.1433
  C  C636  1  0.034890  0.698090  0.633510  1.0  -0.1386
  C  C637  1  0.366490  0.301910  0.366490  1.0  -0.1426
  C  C638  1  0.301910  0.366490  0.965110  1.0  -0.1426
  C  C639  1  0.965110  0.366490  0.301910  1.0  -0.1409
  C  C640  1  0.366490  0.965110  0.366490  1.0  -0.1422
  C  C641  1  0.366490  0.301910  0.965110  1.0  -0.1407
  C  C642  1  0.965110  0.366490  0.366490  1.0  -0.1412
  C  C643  1  0.301910  0.366490  0.366490  1.0  -0.1451
  C  C644  1  0.366490  0.965110  0.301910  1.0  -0.1418
  C  C645  1  0.965110  0.301910  0.366490  1.0  -0.1401
  C  C646  1  0.366490  0.366490  0.301910  1.0  -0.1449
  C  C647  1  0.366490  0.366490  0.965110  1.0  -0.1429
  C  C648  1  0.301910  0.965110  0.366490  1.0  -0.1439
  N  N649  1  0.777570  0.411230  0.777570  1.0  -0.4029
  N  N650  1  0.411230  0.777570  0.033630  1.0  -0.4042
  N  N651  1  0.777570  0.033630  0.777570  1.0  -0.4016
  N  N652  1  0.033630  0.777570  0.411230  1.0  -0.4034
  N  N653  1  0.777570  0.777570  0.033630  1.0  -0.4054
  N  N654  1  0.411230  0.033630  0.777570  1.0  -0.4014
  N  N655  1  0.777570  0.777570  0.411230  1.0  -0.4051
  N  N656  1  0.033630  0.411230  0.777570  1.0  -0.4042
  N  N657  1  0.777570  0.033630  0.411230  1.0  -0.4015
  N  N658  1  0.411230  0.777570  0.777570  1.0  -0.4026
  N  N659  1  0.777570  0.411230  0.033630  1.0  -0.4041
  N  N660  1  0.033630  0.777570  0.777570  1.0  -0.4035
  N  N661  1  0.588770  0.222430  0.222430  1.0  -0.4046
  N  N662  1  0.222430  0.588770  0.966370  1.0  -0.4031
  N  N663  1  0.966370  0.222430  0.222430  1.0  -0.4024
  N  N664  1  0.222430  0.966370  0.588770  1.0  -0.402
  N  N665  1  0.222430  0.222430  0.966370  1.0  -0.4045
  N  N666  1  0.966370  0.588770  0.222430  1.0  -0.4026
  N  N667  1  0.222430  0.222430  0.588770  1.0  -0.4041
  N  N668  1  0.588770  0.966370  0.222430  1.0  -0.4018
  N  N669  1  0.966370  0.222430  0.588770  1.0  -0.4023
  N  N670  1  0.222430  0.588770  0.222430  1.0  -0.4041
  N  N671  1  0.588770  0.222430  0.966370  1.0  -0.4036
  N  N672  1  0.222430  0.966370  0.222430  1.0  -0.4017
  O  O673  1  0.806140  0.246290  0.937090  1.0  -0.5582
  O  O674  1  0.745540  0.306910  0.937470  1.0  -0.5476
  O  O675  1  0.246300  0.806130  0.010480  1.0  -0.5585
  O  O676  1  0.306910  0.745540  0.010080  1.0  -0.5554
  O  O677  1  0.937100  0.010480  0.806130  1.0  -0.5585
  O  O678  1  0.937480  0.010080  0.745530  1.0  -0.5457
  O  O679  1  0.010490  0.937090  0.246290  1.0  -0.5575
  O  O680  1  0.010080  0.937480  0.306910  1.0  -0.5438
  O  O681  1  0.806140  0.937090  0.010480  1.0  -0.557
  O  O682  1  0.745540  0.937470  0.010080  1.0  -0.5467
  O  O683  1  0.246300  0.010480  0.937090  1.0  -0.559
  O  O684  1  0.306920  0.010080  0.937470  1.0  -0.5457
  O  O685  1  0.937100  0.806130  0.246290  1.0  -0.5608
  O  O686  1  0.937470  0.745540  0.306910  1.0  -0.5548
  O  O687  1  0.010490  0.246290  0.806130  1.0  -0.5623
  O  O688  1  0.010090  0.306910  0.745530  1.0  -0.5493
  O  O689  1  0.806140  0.010480  0.246290  1.0  -0.5575
  O  O690  1  0.745540  0.010080  0.306910  1.0  -0.5488
  O  O691  1  0.246300  0.937090  0.806130  1.0  -0.558
  O  O692  1  0.306910  0.937480  0.745530  1.0  -0.5558
  O  O693  1  0.937100  0.246290  0.010480  1.0  -0.5592
  O  O694  1  0.937470  0.306910  0.010080  1.0  -0.5561
  O  O695  1  0.010490  0.806130  0.937090  1.0  -0.5588
  O  O696  1  0.010080  0.745540  0.937470  1.0  -0.5475
  O  O697  1  0.753700  0.193870  0.062910  1.0  -0.5593
  O  O698  1  0.693080  0.254470  0.062530  1.0  -0.5472
  O  O699  1  0.193860  0.753710  0.989520  1.0  -0.5579
  O  O700  1  0.254460  0.693090  0.989920  1.0  -0.5495
  O  O701  1  0.989510  0.062910  0.193870  1.0  -0.5613
  O  O702  1  0.989920  0.062530  0.254460  1.0  -0.5479
  O  O703  1  0.062900  0.989520  0.753710  1.0  -0.559
  O  O704  1  0.062530  0.989920  0.693090  1.0  -0.5548
  O  O705  1  0.062900  0.193870  0.989520  1.0  -0.5586
  O  O706  1  0.062520  0.254470  0.989920  1.0  -0.5495
  O  O707  1  0.989510  0.753710  0.062910  1.0  -0.5622
  O  O708  1  0.989910  0.693090  0.062530  1.0  -0.5462
  O  O709  1  0.193860  0.062910  0.753710  1.0  -0.5572
  O  O710  1  0.254460  0.062530  0.693090  1.0  -0.5466
  O  O711  1  0.753700  0.989520  0.193870  1.0  -0.5587
  O  O712  1  0.693090  0.989920  0.254460  1.0  -0.5537
  O  O713  1  0.989510  0.193870  0.753710  1.0  -0.562
  O  O714  1  0.989910  0.254470  0.693090  1.0  -0.5489
  O  O715  1  0.062900  0.753710  0.193870  1.0  -0.5596
  O  O716  1  0.062530  0.693090  0.254460  1.0  -0.5528
  O  O717  1  0.753700  0.062910  0.989520  1.0  -0.5577
  O  O718  1  0.693090  0.062530  0.989920  1.0  -0.5535
  O  O719  1  0.193860  0.989520  0.062910  1.0  -0.5569
  O  O720  1  0.254470  0.989920  0.062520  1.0  -0.5466
  O  O721  1  0.193860  0.753710  0.062910  1.0  -0.5581
  O  O722  1  0.254460  0.693090  0.062530  1.0  -0.5495
  O  O723  1  0.753700  0.193870  0.989520  1.0  -0.5589
  O  O724  1  0.693080  0.254470  0.989920  1.0  -0.5471
  O  O725  1  0.062900  0.989520  0.193870  1.0  -0.5603
  O  O726  1  0.062530  0.989920  0.254460  1.0  -0.5536
  O  O727  1  0.989510  0.062910  0.753710  1.0  -0.5611
  O  O728  1  0.989910  0.062530  0.693090  1.0  -0.5441
  O  O729  1  0.193860  0.062910  0.989520  1.0  -0.5584
  O  O730  1  0.254460  0.062530  0.989920  1.0  -0.5458
  O  O731  1  0.753700  0.989520  0.062910  1.0  -0.5585
  O  O732  1  0.693080  0.989920  0.062530  1.0  -0.5456
  O  O733  1  0.062900  0.193870  0.753710  1.0  -0.5582
  O  O734  1  0.062520  0.254470  0.693090  1.0  -0.5498
  O  O735  1  0.989510  0.753710  0.193870  1.0  -0.5619
  O  O736  1  0.989910  0.693090  0.254470  1.0  -0.5457
  O  O737  1  0.193860  0.989520  0.753710  1.0  -0.5561
  O  O738  1  0.254460  0.989920  0.693090  1.0  -0.5493
  O  O739  1  0.753700  0.062910  0.193870  1.0  -0.5574
  O  O740  1  0.693090  0.062530  0.254460  1.0  -0.5537
  O  O741  1  0.062900  0.753710  0.989520  1.0  -0.5596
  O  O742  1  0.062530  0.693090  0.989920  1.0  -0.5533
  O  O743  1  0.989510  0.193870  0.062910  1.0  -0.5621
  O  O744  1  0.989910  0.254470  0.062530  1.0  -0.5492
  O  O745  1  0.246300  0.806130  0.937090  1.0  -0.5586
  O  O746  1  0.306910  0.745540  0.937470  1.0  -0.5554
  O  O747  1  0.806140  0.246290  0.010480  1.0  -0.5585
  O  O748  1  0.745540  0.306910  0.010080  1.0  -0.5477
  O  O749  1  0.010490  0.937090  0.806130  1.0  -0.5571
  O  O750  1  0.010080  0.937480  0.745530  1.0  -0.5442
  O  O751  1  0.937100  0.010480  0.246290  1.0  -0.5616
  O  O752  1  0.937480  0.010080  0.306910  1.0  -0.5467
  O  O753  1  0.937100  0.806130  0.010480  1.0  -0.5605
  O  O754  1  0.937470  0.745540  0.010080  1.0  -0.5556
  O  O755  1  0.010490  0.246290  0.937090  1.0  -0.5622
  O  O756  1  0.010090  0.306910  0.937470  1.0  -0.5459
  O  O757  1  0.806140  0.937090  0.246290  1.0  -0.5574
  O  O758  1  0.745540  0.937470  0.306910  1.0  -0.5477
  O  O759  1  0.246300  0.010480  0.806130  1.0  -0.559
  O  O760  1  0.306920  0.010080  0.745530  1.0  -0.5466
  O  O761  1  0.010490  0.806130  0.246290  1.0  -0.5592
  O  O762  1  0.010080  0.745540  0.306910  1.0  -0.5471
  O  O763  1  0.937100  0.246290  0.806130  1.0  -0.5586
  O  O764  1  0.937480  0.306910  0.745530  1.0  -0.5497
  O  O765  1  0.246300  0.937090  0.010480  1.0  -0.5573
  O  O766  1  0.306920  0.937470  0.010080  1.0  -0.5468
  O  O767  1  0.806140  0.010480  0.937090  1.0  -0.5577
  O  O768  1  0.745540  0.010080  0.937470  1.0  -0.5493
  O  O769  1  0.794490  0.452030  0.794490  1.0  -0.4455
  O  O770  1  0.452030  0.794490  0.958990  1.0  -0.441
  O  O771  1  0.794490  0.958990  0.794490  1.0  -0.4396
  O  O772  1  0.958990  0.794490  0.452030  1.0  -0.4347
  O  O773  1  0.794490  0.794490  0.958990  1.0  -0.4418
  O  O774  1  0.452030  0.958990  0.794490  1.0  -0.439
  O  O775  1  0.794490  0.794490  0.452030  1.0  -0.4461
  O  O776  1  0.958990  0.452030  0.794490  1.0  -0.4358
  O  O777  1  0.794490  0.958990  0.452030  1.0  -0.4395
  O  O778  1  0.452030  0.794490  0.794490  1.0  -0.4442
  O  O779  1  0.794490  0.452030  0.958990  1.0  -0.4412
  O  O780  1  0.958990  0.794490  0.794490  1.0  -0.4354
  O  O781  1  0.547970  0.205510  0.205510  1.0  -0.4424
  O  O782  1  0.205510  0.547970  0.041010  1.0  -0.4407
  O  O783  1  0.041010  0.205510  0.205510  1.0  -0.4378
  O  O784  1  0.205510  0.041010  0.547970  1.0  -0.4413
  O  O785  1  0.205510  0.205510  0.041010  1.0  -0.4408
  O  O786  1  0.041010  0.547970  0.205510  1.0  -0.4385
  O  O787  1  0.205510  0.205510  0.547970  1.0  -0.4422
  O  O788  1  0.547970  0.041010  0.205510  1.0  -0.4412
  O  O789  1  0.041010  0.205510  0.547970  1.0  -0.4387
  O  O790  1  0.205510  0.547970  0.205510  1.0  -0.4415
  O  O791  1  0.547970  0.205510  0.041010  1.0  -0.4403
  O  O792  1  0.205510  0.041010  0.205510  1.0  -0.4403
