# generated using pymatgen
data_CuH8C17NO4
_symmetry_space_group_name_H-M   'P 1'
_cell_length_a   39.48400000
_cell_length_b   39.48400000
_cell_length_c   39.48400000
_cell_angle_alpha   90.00000000
_cell_angle_beta   90.00000000
_cell_angle_gamma   90.00000000
_symmetry_Int_Tables_number   1
_chemical_formula_structural   CuH8C17NO4
_chemical_formula_sum   'Cu48 H384 C816 N48 O192'
_cell_volume   61555.01333190
_cell_formula_units_Z   48
loop_
 _symmetry_equiv_pos_site_id
 _symmetry_equiv_pos_as_xyz
  1  'x, y, z'
loop_
 _atom_site_type_symbol
 _atom_site_label
 _atom_site_symmetry_multiplicity
 _atom_site_fract_x
 _atom_site_fract_y
 _atom_site_fract_z
 _atom_site_occupancy
 _atom_site_charge
  Cu  Cu1  1  0.964570  0.459130  0.736190  1.0  0.9048
  Cu  Cu2  1  0.974460  0.470710  0.671470  1.0  0.912
  Cu  Cu3  1  0.535430  0.540870  0.236190  1.0  0.9054
  Cu  Cu4  1  0.525540  0.529290  0.171470  1.0  0.9134
  Cu  Cu5  1  0.035430  0.959130  0.763810  1.0  0.9037
  Cu  Cu6  1  0.025540  0.970710  0.828530  1.0  0.9138
  Cu  Cu7  1  0.464570  0.040870  0.263810  1.0  0.9047
  Cu  Cu8  1  0.474460  0.029290  0.328530  1.0  0.9129
  Cu  Cu9  1  0.736190  0.964570  0.459130  1.0  0.9068
  Cu  Cu10  1  0.671470  0.974460  0.470710  1.0  0.9123
  Cu  Cu11  1  0.236190  0.535430  0.540870  1.0  0.9058
  Cu  Cu12  1  0.171470  0.525540  0.529290  1.0  0.912
  Cu  Cu13  1  0.763810  0.035430  0.959130  1.0  0.9053
  Cu  Cu14  1  0.828530  0.025540  0.970710  1.0  0.9121
  Cu  Cu15  1  0.263810  0.464570  0.040870  1.0  0.9048
  Cu  Cu16  1  0.328530  0.474460  0.029290  1.0  0.9122
  Cu  Cu17  1  0.459130  0.736190  0.964570  1.0  0.9078
  Cu  Cu18  1  0.470710  0.671470  0.974460  1.0  0.9154
  Cu  Cu19  1  0.540870  0.236190  0.535430  1.0  0.9066
  Cu  Cu20  1  0.529290  0.171470  0.525540  1.0  0.9159
  Cu  Cu21  1  0.959130  0.763810  0.035430  1.0  0.9072
  Cu  Cu22  1  0.970710  0.828530  0.025540  1.0  0.9156
  Cu  Cu23  1  0.040870  0.263810  0.464570  1.0  0.9073
  Cu  Cu24  1  0.029290  0.328530  0.474460  1.0  0.9161
  Cu  Cu25  1  0.035430  0.540870  0.263810  1.0  0.9033
  Cu  Cu26  1  0.025540  0.529290  0.328530  1.0  0.9137
  Cu  Cu27  1  0.464570  0.459130  0.763810  1.0  0.9046
  Cu  Cu28  1  0.474460  0.470710  0.828530  1.0  0.9133
  Cu  Cu29  1  0.964570  0.040870  0.236190  1.0  0.9047
  Cu  Cu30  1  0.974460  0.029290  0.171470  1.0  0.9122
  Cu  Cu31  1  0.535430  0.959130  0.736190  1.0  0.9057
  Cu  Cu32  1  0.525540  0.970710  0.671470  1.0  0.9136
  Cu  Cu33  1  0.263810  0.035430  0.540870  1.0  0.9045
  Cu  Cu34  1  0.328530  0.025540  0.529290  1.0  0.9125
  Cu  Cu35  1  0.763810  0.464570  0.459130  1.0  0.9051
  Cu  Cu36  1  0.828530  0.474460  0.470710  1.0  0.9121
  Cu  Cu37  1  0.236190  0.964570  0.040870  1.0  0.9059
  Cu  Cu38  1  0.171470  0.974460  0.029290  1.0  0.9123
  Cu  Cu39  1  0.736190  0.535430  0.959130  1.0  0.9068
  Cu  Cu40  1  0.671470  0.525540  0.970710  1.0  0.9123
  Cu  Cu41  1  0.540870  0.263810  0.035430  1.0  0.9067
  Cu  Cu42  1  0.529290  0.328530  0.025540  1.0  0.9164
  Cu  Cu43  1  0.459130  0.763810  0.464570  1.0  0.9076
  Cu  Cu44  1  0.470710  0.828530  0.474460  1.0  0.9154
  Cu  Cu45  1  0.040870  0.236190  0.964570  1.0  0.9069
  Cu  Cu46  1  0.029290  0.171470  0.974460  1.0  0.9158
  Cu  Cu47  1  0.959130  0.736190  0.535430  1.0  0.9075
  Cu  Cu48  1  0.970710  0.671470  0.525540  1.0  0.9156
  H  H49  1  0.963300  0.580800  0.669700  1.0  0.0794
  H  H50  1  0.968200  0.558200  0.772300  1.0  0.1113
  H  H51  1  0.968200  0.622400  0.783800  1.0  0.135
  H  H52  1  0.962600  0.729500  0.701500  1.0  0.0719
  H  H53  1  0.959100  0.739900  0.643000  1.0  0.1079
  H  H54  1  0.959900  0.636500  0.627800  1.0  0.0964
  H  H55  1  0.011200  0.672900  0.777700  1.0  0.1163
  H  H56  1  0.015300  0.712500  0.818800  1.0  0.0625
  H  H57  1  0.934100  0.759200  0.789500  1.0  0.1063
  H  H58  1  0.925000  0.718700  0.746000  1.0  0.1072
  H  H59  1  0.967500  0.717800  0.877200  1.0  0.1052
  H  H60  1  0.963000  0.728200  0.931900  1.0  0.0963
  H  H61  1  0.989000  0.828300  0.918600  1.0  0.1082
  H  H62  1  0.006600  0.867900  0.860600  1.0  0.0828
  H  H63  1  0.002100  0.799600  0.766300  1.0  0.0866
  H  H64  1  0.015900  0.852000  0.761200  1.0  0.0886
  H  H65  1  0.536700  0.419200  0.169700  1.0  0.0796
  H  H66  1  0.531800  0.441800  0.272300  1.0  0.1126
  H  H67  1  0.531800  0.377600  0.283800  1.0  0.1364
  H  H68  1  0.537400  0.270500  0.201500  1.0  0.0717
  H  H69  1  0.540900  0.260100  0.143000  1.0  0.1074
  H  H70  1  0.540100  0.363500  0.127800  1.0  0.0966
  H  H71  1  0.488800  0.327100  0.277700  1.0  0.1168
  H  H72  1  0.484700  0.287500  0.318800  1.0  0.0632
  H  H73  1  0.565900  0.240800  0.289500  1.0  0.1051
  H  H74  1  0.575000  0.281300  0.246000  1.0  0.1068
  H  H75  1  0.532500  0.282200  0.377200  1.0  0.1056
  H  H76  1  0.537000  0.271800  0.431900  1.0  0.0965
  H  H77  1  0.511000  0.171700  0.418600  1.0  0.1075
  H  H78  1  0.493400  0.132100  0.360600  1.0  0.0829
  H  H79  1  0.497900  0.200400  0.266300  1.0  0.0864
  H  H80  1  0.484100  0.148000  0.261200  1.0  0.0882
  H  H81  1  0.036700  0.080800  0.830300  1.0  0.0793
  H  H82  1  0.031800  0.058200  0.727700  1.0  0.1116
  H  H83  1  0.031800  0.122400  0.716200  1.0  0.1346
  H  H84  1  0.037400  0.229500  0.798500  1.0  0.0714
  H  H85  1  0.040900  0.239900  0.857000  1.0  0.1079
  H  H86  1  0.040100  0.136500  0.872200  1.0  0.0963
  H  H87  1  0.988800  0.172900  0.722300  1.0  0.1167
  H  H88  1  0.984700  0.212500  0.681200  1.0  0.063
  H  H89  1  0.065900  0.259200  0.710500  1.0  0.1049
  H  H90  1  0.075000  0.218700  0.754000  1.0  0.1068
  H  H91  1  0.032500  0.217800  0.622800  1.0  0.105
  H  H92  1  0.037000  0.228200  0.568100  1.0  0.096
  H  H93  1  0.011000  0.328300  0.581400  1.0  0.1071
  H  H94  1  0.993400  0.367900  0.639400  1.0  0.083
  H  H95  1  0.997900  0.299600  0.733700  1.0  0.0869
  H  H96  1  0.984100  0.352000  0.738800  1.0  0.0875
  H  H97  1  0.463300  0.919200  0.330300  1.0  0.0793
  H  H98  1  0.468200  0.941800  0.227700  1.0  0.1103
  H  H99  1  0.468200  0.877600  0.216200  1.0  0.1363
  H  H100  1  0.462600  0.770500  0.298500  1.0  0.0709
  H  H101  1  0.459100  0.760100  0.357000  1.0  0.1078
  H  H102  1  0.459900  0.863500  0.372200  1.0  0.0969
  H  H103  1  0.511200  0.827100  0.222300  1.0  0.1162
  H  H104  1  0.515300  0.787500  0.181200  1.0  0.063
  H  H105  1  0.434100  0.740800  0.210500  1.0  0.1053
  H  H106  1  0.425000  0.781300  0.254000  1.0  0.1067
  H  H107  1  0.467500  0.782200  0.122800  1.0  0.1049
  H  H108  1  0.463000  0.771800  0.068100  1.0  0.0964
  H  H109  1  0.489000  0.671700  0.081400  1.0  0.107
  H  H110  1  0.506600  0.632100  0.139400  1.0  0.083
  H  H111  1  0.502100  0.700400  0.233700  1.0  0.0864
  H  H112  1  0.515900  0.648000  0.238800  1.0  0.0876
  H  H113  1  0.669700  0.963300  0.580800  1.0  0.081
  H  H114  1  0.772300  0.968200  0.558200  1.0  0.1116
  H  H115  1  0.783800  0.968200  0.622400  1.0  0.1355
  H  H116  1  0.701500  0.962600  0.729500  1.0  0.072
  H  H117  1  0.643000  0.959100  0.739900  1.0  0.107
  H  H118  1  0.627800  0.959900  0.636500  1.0  0.0982
  H  H119  1  0.777700  0.011200  0.672900  1.0  0.1155
  H  H120  1  0.818800  0.015300  0.712500  1.0  0.0612
  H  H121  1  0.789500  0.934100  0.759200  1.0  0.1061
  H  H122  1  0.746000  0.925000  0.718700  1.0  0.1073
  H  H123  1  0.877200  0.967500  0.717800  1.0  0.1042
  H  H124  1  0.931900  0.963000  0.728200  1.0  0.0959
  H  H125  1  0.918600  0.989000  0.828300  1.0  0.1074
  H  H126  1  0.860600  0.006600  0.867900  1.0  0.0842
  H  H127  1  0.766300  0.002100  0.799600  1.0  0.0875
  H  H128  1  0.761200  0.015900  0.852000  1.0  0.0884
  H  H129  1  0.169700  0.536700  0.419200  1.0  0.081
  H  H130  1  0.272300  0.531800  0.441800  1.0  0.1119
  H  H131  1  0.283800  0.531800  0.377600  1.0  0.1372
  H  H132  1  0.201500  0.537400  0.270500  1.0  0.0724
  H  H133  1  0.143000  0.540900  0.260100  1.0  0.1069
  H  H134  1  0.127800  0.540100  0.363500  1.0  0.0979
  H  H135  1  0.277700  0.488800  0.327100  1.0  0.1155
  H  H136  1  0.318800  0.484700  0.287500  1.0  0.0607
  H  H137  1  0.289500  0.565900  0.240800  1.0  0.1071
  H  H138  1  0.246000  0.575000  0.281300  1.0  0.1076
  H  H139  1  0.377200  0.532500  0.282200  1.0  0.1045
  H  H140  1  0.431900  0.537000  0.271800  1.0  0.0964
  H  H141  1  0.418600  0.511000  0.171700  1.0  0.1067
  H  H142  1  0.360600  0.493400  0.132100  1.0  0.0836
  H  H143  1  0.266300  0.497900  0.200400  1.0  0.0874
  H  H144  1  0.261200  0.484100  0.148000  1.0  0.0885
  H  H145  1  0.830300  0.036700  0.080800  1.0  0.0802
  H  H146  1  0.727700  0.031800  0.058200  1.0  0.1122
  H  H147  1  0.716200  0.031800  0.122400  1.0  0.1359
  H  H148  1  0.798500  0.037400  0.229500  1.0  0.0724
  H  H149  1  0.857000  0.040900  0.239900  1.0  0.1073
  H  H150  1  0.872200  0.040100  0.136500  1.0  0.0977
  H  H151  1  0.722300  0.988800  0.172900  1.0  0.1148
  H  H152  1  0.681200  0.984700  0.212500  1.0  0.0602
  H  H153  1  0.710500  0.065900  0.259200  1.0  0.1068
  H  H154  1  0.754000  0.075000  0.218700  1.0  0.1074
  H  H155  1  0.622800  0.032500  0.217800  1.0  0.104
  H  H156  1  0.568100  0.037000  0.228200  1.0  0.096
  H  H157  1  0.581400  0.011000  0.328300  1.0  0.1071
  H  H158  1  0.639400  0.993400  0.367900  1.0  0.0848
  H  H159  1  0.733700  0.997900  0.299600  1.0  0.0874
  H  H160  1  0.738800  0.984100  0.352000  1.0  0.0884
  H  H161  1  0.330300  0.463300  0.919200  1.0  0.0803
  H  H162  1  0.227700  0.468200  0.941800  1.0  0.1123
  H  H163  1  0.216200  0.468200  0.877600  1.0  0.138
  H  H164  1  0.298500  0.462600  0.770500  1.0  0.0736
  H  H165  1  0.357000  0.459100  0.760100  1.0  0.1072
  H  H166  1  0.372200  0.459900  0.863500  1.0  0.0973
  H  H167  1  0.222300  0.511200  0.827100  1.0  0.1155
  H  H168  1  0.181200  0.515300  0.787500  1.0  0.0608
  H  H169  1  0.210500  0.434100  0.740800  1.0  0.1056
  H  H170  1  0.254000  0.425000  0.781300  1.0  0.1077
  H  H171  1  0.122800  0.467500  0.782200  1.0  0.1047
  H  H172  1  0.068100  0.463000  0.771800  1.0  0.0962
  H  H173  1  0.081400  0.489000  0.671700  1.0  0.1071
  H  H174  1  0.139400  0.506600  0.632100  1.0  0.0843
  H  H175  1  0.233700  0.502100  0.700400  1.0  0.0872
  H  H176  1  0.238800  0.515900  0.648000  1.0  0.0886
  H  H177  1  0.580800  0.669700  0.963300  1.0  0.0797
  H  H178  1  0.558200  0.772300  0.968200  1.0  0.1132
  H  H179  1  0.622400  0.783800  0.968200  1.0  0.1354
  H  H180  1  0.729500  0.701500  0.962600  1.0  0.0725
  H  H181  1  0.739900  0.643000  0.959100  1.0  0.1084
  H  H182  1  0.636500  0.627800  0.959900  1.0  0.0981
  H  H183  1  0.672900  0.777700  0.011200  1.0  0.1161
  H  H184  1  0.712500  0.818800  0.015300  1.0  0.0614
  H  H185  1  0.759200  0.789500  0.934100  1.0  0.1045
  H  H186  1  0.718700  0.746000  0.925000  1.0  0.1093
  H  H187  1  0.717800  0.877200  0.967500  1.0  0.106
  H  H188  1  0.728200  0.931900  0.963000  1.0  0.0966
  H  H189  1  0.828300  0.918600  0.989000  1.0  0.1076
  H  H190  1  0.867900  0.860600  0.006600  1.0  0.0828
  H  H191  1  0.799600  0.766300  0.002100  1.0  0.0879
  H  H192  1  0.852000  0.761200  0.015900  1.0  0.0888
  H  H193  1  0.419200  0.169700  0.536700  1.0  0.0795
  H  H194  1  0.441800  0.272300  0.531800  1.0  0.1137
  H  H195  1  0.377600  0.283800  0.531800  1.0  0.1374
  H  H196  1  0.270500  0.201500  0.537400  1.0  0.0713
  H  H197  1  0.260100  0.143000  0.540900  1.0  0.1074
  H  H198  1  0.363500  0.127800  0.540100  1.0  0.0974
  H  H199  1  0.327100  0.277700  0.488800  1.0  0.1162
  H  H200  1  0.287500  0.318800  0.484700  1.0  0.0616
  H  H201  1  0.240800  0.289500  0.565900  1.0  0.106
  H  H202  1  0.281300  0.246000  0.575000  1.0  0.1085
  H  H203  1  0.282200  0.377200  0.532500  1.0  0.1059
  H  H204  1  0.271800  0.431900  0.537000  1.0  0.0964
  H  H205  1  0.171700  0.418600  0.511000  1.0  0.1074
  H  H206  1  0.132100  0.360600  0.493400  1.0  0.0839
  H  H207  1  0.200400  0.266300  0.497900  1.0  0.0887
  H  H208  1  0.148000  0.261200  0.484100  1.0  0.0884
  H  H209  1  0.080800  0.830300  0.036700  1.0  0.0792
  H  H210  1  0.058200  0.727700  0.031800  1.0  0.1142
  H  H211  1  0.122400  0.716200  0.031800  1.0  0.1351
  H  H212  1  0.229500  0.798500  0.037400  1.0  0.0725
  H  H213  1  0.239900  0.857000  0.040900  1.0  0.108
  H  H214  1  0.136500  0.872200  0.040100  1.0  0.0984
  H  H215  1  0.172900  0.722300  0.988800  1.0  0.1165
  H  H216  1  0.212500  0.681200  0.984700  1.0  0.0612
  H  H217  1  0.259200  0.710500  0.065900  1.0  0.1058
  H  H218  1  0.218700  0.754000  0.075000  1.0  0.1087
  H  H219  1  0.217800  0.622800  0.032500  1.0  0.1065
  H  H220  1  0.228200  0.568100  0.037000  1.0  0.0964
  H  H221  1  0.328300  0.581400  0.011000  1.0  0.1069
  H  H222  1  0.367900  0.639400  0.993400  1.0  0.0834
  H  H223  1  0.299600  0.733700  0.997900  1.0  0.0882
  H  H224  1  0.352000  0.738800  0.984100  1.0  0.0886
  H  H225  1  0.919200  0.330300  0.463300  1.0  0.0793
  H  H226  1  0.941800  0.227700  0.468200  1.0  0.1137
  H  H227  1  0.877600  0.216200  0.468200  1.0  0.1371
  H  H228  1  0.770500  0.298500  0.462600  1.0  0.0713
  H  H229  1  0.760100  0.357000  0.459100  1.0  0.1081
  H  H230  1  0.863500  0.372200  0.459900  1.0  0.0983
  H  H231  1  0.827100  0.222300  0.511200  1.0  0.1157
  H  H232  1  0.787500  0.181200  0.515300  1.0  0.061
  H  H233  1  0.740800  0.210500  0.434100  1.0  0.1041
  H  H234  1  0.781300  0.254000  0.425000  1.0  0.1096
  H  H235  1  0.782200  0.122800  0.467500  1.0  0.1059
  H  H236  1  0.771800  0.068100  0.463000  1.0  0.0965
  H  H237  1  0.671700  0.081400  0.489000  1.0  0.1075
  H  H238  1  0.632100  0.139400  0.506600  1.0  0.0833
  H  H239  1  0.700400  0.233700  0.502100  1.0  0.088
  H  H240  1  0.648000  0.238800  0.515900  1.0  0.0888
  H  H241  1  0.036700  0.419200  0.330300  1.0  0.0794
  H  H242  1  0.031800  0.441800  0.227700  1.0  0.1109
  H  H243  1  0.031800  0.377600  0.216200  1.0  0.1344
  H  H244  1  0.037400  0.270500  0.298500  1.0  0.0708
  H  H245  1  0.040900  0.260100  0.357000  1.0  0.1076
  H  H246  1  0.040100  0.363500  0.372200  1.0  0.0969
  H  H247  1  0.988800  0.327100  0.222300  1.0  0.1169
  H  H248  1  0.984700  0.287500  0.181200  1.0  0.0635
  H  H249  1  0.065900  0.240800  0.210500  1.0  0.1048
  H  H250  1  0.075000  0.281300  0.254000  1.0  0.1071
  H  H251  1  0.032500  0.282200  0.122800  1.0  0.1049
  H  H252  1  0.037000  0.271800  0.068100  1.0  0.0967
  H  H253  1  0.011000  0.171700  0.081400  1.0  0.108
  H  H254  1  0.993400  0.132100  0.139400  1.0  0.0833
  H  H255  1  0.997900  0.200400  0.233700  1.0  0.0867
  H  H256  1  0.984100  0.148000  0.238800  1.0  0.0876
  H  H257  1  0.463300  0.580800  0.830300  1.0  0.0793
  H  H258  1  0.468200  0.558200  0.727700  1.0  0.1115
  H  H259  1  0.468200  0.622400  0.716200  1.0  0.1365
  H  H260  1  0.462600  0.729500  0.798500  1.0  0.0714
  H  H261  1  0.459100  0.739900  0.857000  1.0  0.1079
  H  H262  1  0.459900  0.636500  0.872200  1.0  0.0964
  H  H263  1  0.511200  0.672900  0.722300  1.0  0.1163
  H  H264  1  0.515300  0.712500  0.681200  1.0  0.0626
  H  H265  1  0.434100  0.759200  0.710500  1.0  0.106
  H  H266  1  0.425000  0.718700  0.754000  1.0  0.1066
  H  H267  1  0.467500  0.717800  0.622800  1.0  0.1049
  H  H268  1  0.463000  0.728200  0.568100  1.0  0.0958
  H  H269  1  0.489000  0.828300  0.581400  1.0  0.1071
  H  H270  1  0.506600  0.867900  0.639400  1.0  0.0828
  H  H271  1  0.502100  0.799600  0.733700  1.0  0.0866
  H  H272  1  0.515900  0.852000  0.738800  1.0  0.0874
  H  H273  1  0.963300  0.919200  0.169700  1.0  0.0797
  H  H274  1  0.968200  0.941800  0.272300  1.0  0.1124
  H  H275  1  0.968200  0.877600  0.283800  1.0  0.135
  H  H276  1  0.962600  0.770500  0.201500  1.0  0.0717
  H  H277  1  0.959100  0.760100  0.143000  1.0  0.1075
  H  H278  1  0.959900  0.863500  0.127800  1.0  0.0967
  H  H279  1  0.011200  0.827100  0.277700  1.0  0.1162
  H  H280  1  0.015300  0.787500  0.318800  1.0  0.0627
  H  H281  1  0.934100  0.740800  0.289500  1.0  0.1056
  H  H282  1  0.925000  0.781300  0.246000  1.0  0.1068
  H  H283  1  0.967500  0.782200  0.377200  1.0  0.1056
  H  H284  1  0.963000  0.771800  0.431900  1.0  0.0961
  H  H285  1  0.989000  0.671700  0.418600  1.0  0.1072
  H  H286  1  0.006600  0.632100  0.360600  1.0  0.0828
  H  H287  1  0.002100  0.700400  0.266300  1.0  0.0864
  H  H288  1  0.015900  0.648000  0.261200  1.0  0.0886
  H  H289  1  0.536700  0.080800  0.669700  1.0  0.0793
  H  H290  1  0.531800  0.058200  0.772300  1.0  0.112
  H  H291  1  0.531800  0.122400  0.783800  1.0  0.1365
  H  H292  1  0.537400  0.229500  0.701500  1.0  0.072
  H  H293  1  0.540900  0.239900  0.643000  1.0  0.1079
  H  H294  1  0.540100  0.136500  0.627800  1.0  0.0964
  H  H295  1  0.488800  0.172900  0.777700  1.0  0.1168
  H  H296  1  0.484700  0.212500  0.818800  1.0  0.0632
  H  H297  1  0.565900  0.259200  0.789500  1.0  0.1052
  H  H298  1  0.575000  0.218700  0.746000  1.0  0.1069
  H  H299  1  0.532500  0.217800  0.877200  1.0  0.1053
  H  H300  1  0.537000  0.228200  0.931900  1.0  0.0964
  H  H301  1  0.511000  0.328300  0.918600  1.0  0.1075
  H  H302  1  0.493400  0.367900  0.860600  1.0  0.0828
  H  H303  1  0.497900  0.299600  0.766300  1.0  0.0865
  H  H304  1  0.484100  0.352000  0.761200  1.0  0.0881
  H  H305  1  0.330300  0.036700  0.419200  1.0  0.0803
  H  H306  1  0.227700  0.031800  0.441800  1.0  0.1116
  H  H307  1  0.216200  0.031800  0.377600  1.0  0.1363
  H  H308  1  0.298500  0.037400  0.270500  1.0  0.0733
  H  H309  1  0.357000  0.040900  0.260100  1.0  0.1071
  H  H310  1  0.372200  0.040100  0.363500  1.0  0.0973
  H  H311  1  0.222300  0.988800  0.327100  1.0  0.1156
  H  H312  1  0.181200  0.984700  0.287500  1.0  0.0601
  H  H313  1  0.210500  0.065900  0.240800  1.0  0.1072
  H  H314  1  0.254000  0.075000  0.281300  1.0  0.1074
  H  H315  1  0.122800  0.032500  0.282200  1.0  0.1044
  H  H316  1  0.068100  0.037000  0.271800  1.0  0.0962
  H  H317  1  0.081400  0.011000  0.171700  1.0  0.1076
  H  H318  1  0.139400  0.993400  0.132100  1.0  0.0843
  H  H319  1  0.233700  0.997900  0.200400  1.0  0.0874
  H  H320  1  0.238800  0.984100  0.148000  1.0  0.0883
  H  H321  1  0.830300  0.463300  0.580800  1.0  0.0801
  H  H322  1  0.727700  0.468200  0.558200  1.0  0.1131
  H  H323  1  0.716200  0.468200  0.622400  1.0  0.1376
  H  H324  1  0.798500  0.462600  0.729500  1.0  0.0722
  H  H325  1  0.857000  0.459100  0.739900  1.0  0.1074
  H  H326  1  0.872200  0.459900  0.636500  1.0  0.0979
  H  H327  1  0.722300  0.511200  0.672900  1.0  0.1157
  H  H328  1  0.681200  0.515300  0.712500  1.0  0.0613
  H  H329  1  0.710500  0.434100  0.759200  1.0  0.1062
  H  H330  1  0.754000  0.425000  0.718700  1.0  0.1081
  H  H331  1  0.622800  0.467500  0.717800  1.0  0.1039
  H  H332  1  0.568100  0.463000  0.728200  1.0  0.0957
  H  H333  1  0.581400  0.489000  0.828300  1.0  0.1072
  H  H334  1  0.639400  0.506600  0.867900  1.0  0.0846
  H  H335  1  0.733700  0.502100  0.799600  1.0  0.0875
  H  H336  1  0.738800  0.515900  0.852000  1.0  0.0883
  H  H337  1  0.169700  0.963300  0.919200  1.0  0.0811
  H  H338  1  0.272300  0.968200  0.941800  1.0  0.1115
  H  H339  1  0.283800  0.968200  0.877600  1.0  0.1355
  H  H340  1  0.201500  0.962600  0.770500  1.0  0.0724
  H  H341  1  0.143000  0.959100  0.760100  1.0  0.1069
  H  H342  1  0.127800  0.959900  0.863500  1.0  0.0979
  H  H343  1  0.277700  0.011200  0.827100  1.0  0.1152
  H  H344  1  0.318800  0.015300  0.787500  1.0  0.0607
  H  H345  1  0.289500  0.934100  0.740800  1.0  0.1056
  H  H346  1  0.246000  0.925000  0.781300  1.0  0.107
  H  H347  1  0.377200  0.967500  0.782200  1.0  0.1046
  H  H348  1  0.431900  0.963000  0.771800  1.0  0.0964
  H  H349  1  0.418600  0.989000  0.671700  1.0  0.1069
  H  H350  1  0.360600  0.006600  0.632100  1.0  0.0836
  H  H351  1  0.266300  0.002100  0.700400  1.0  0.0873
  H  H352  1  0.261200  0.015900  0.648000  1.0  0.0888
  H  H353  1  0.669700  0.536700  0.080800  1.0  0.0811
  H  H354  1  0.772300  0.531800  0.058200  1.0  0.1119
  H  H355  1  0.783800  0.531800  0.122400  1.0  0.1372
  H  H356  1  0.701500  0.537400  0.229500  1.0  0.0723
  H  H357  1  0.643000  0.540900  0.239900  1.0  0.1069
  H  H358  1  0.627800  0.540100  0.136500  1.0  0.098
  H  H359  1  0.777700  0.488800  0.172900  1.0  0.1147
  H  H360  1  0.818800  0.484700  0.212500  1.0  0.0604
  H  H361  1  0.789500  0.565900  0.259200  1.0  0.1066
  H  H362  1  0.746000  0.575000  0.218700  1.0  0.1075
  H  H363  1  0.877200  0.532500  0.217800  1.0  0.1045
  H  H364  1  0.931900  0.537000  0.228200  1.0  0.0961
  H  H365  1  0.918600  0.511000  0.328300  1.0  0.1069
  H  H366  1  0.860600  0.493400  0.367900  1.0  0.0842
  H  H367  1  0.766300  0.497900  0.299600  1.0  0.0875
  H  H368  1  0.761200  0.484100  0.352000  1.0  0.0886
  H  H369  1  0.419200  0.330300  0.036700  1.0  0.079
  H  H370  1  0.441800  0.227700  0.031800  1.0  0.1134
  H  H371  1  0.377600  0.216200  0.031800  1.0  0.1351
  H  H372  1  0.270500  0.298500  0.037400  1.0  0.0713
  H  H373  1  0.260100  0.357000  0.040900  1.0  0.1078
  H  H374  1  0.363500  0.372200  0.040100  1.0  0.0979
  H  H375  1  0.327100  0.222300  0.988800  1.0  0.1162
  H  H376  1  0.287500  0.181200  0.984700  1.0  0.0616
  H  H377  1  0.240800  0.210500  0.065900  1.0  0.1061
  H  H378  1  0.281300  0.254000  0.075000  1.0  0.1084
  H  H379  1  0.282200  0.122800  0.032500  1.0  0.1061
  H  H380  1  0.271800  0.068100  0.037000  1.0  0.0964
  H  H381  1  0.171700  0.081400  0.011000  1.0  0.1077
  H  H382  1  0.132100  0.139400  0.993400  1.0  0.0833
  H  H383  1  0.200400  0.233700  0.997900  1.0  0.0882
  H  H384  1  0.148000  0.238800  0.984100  1.0  0.0888
  H  H385  1  0.580800  0.830300  0.463300  1.0  0.0794
  H  H386  1  0.558200  0.727700  0.468200  1.0  0.1145
  H  H387  1  0.622400  0.716200  0.468200  1.0  0.137
  H  H388  1  0.729500  0.798500  0.462600  1.0  0.0722
  H  H389  1  0.739900  0.857000  0.459100  1.0  0.1085
  H  H390  1  0.636500  0.872200  0.459900  1.0  0.0988
  H  H391  1  0.672900  0.722300  0.511200  1.0  0.1164
  H  H392  1  0.712500  0.681200  0.515300  1.0  0.0614
  H  H393  1  0.759200  0.710500  0.434100  1.0  0.1046
  H  H394  1  0.718700  0.754000  0.425000  1.0  0.1095
  H  H395  1  0.717800  0.622800  0.467500  1.0  0.1062
  H  H396  1  0.728200  0.568100  0.463000  1.0  0.0962
  H  H397  1  0.828300  0.581400  0.489000  1.0  0.1071
  H  H398  1  0.867900  0.639400  0.506600  1.0  0.083
  H  H399  1  0.799600  0.733700  0.502100  1.0  0.088
  H  H400  1  0.852000  0.738800  0.515900  1.0  0.0886
  H  H401  1  0.919200  0.169700  0.963300  1.0  0.0797
  H  H402  1  0.941800  0.272300  0.968200  1.0  0.1134
  H  H403  1  0.877600  0.283800  0.968200  1.0  0.1357
  H  H404  1  0.770500  0.201500  0.962600  1.0  0.0713
  H  H405  1  0.760100  0.143000  0.959100  1.0  0.1078
  H  H406  1  0.863500  0.127800  0.959900  1.0  0.0978
  H  H407  1  0.827100  0.277700  0.011200  1.0  0.115
  H  H408  1  0.787500  0.318800  0.015300  1.0  0.0614
  H  H409  1  0.740800  0.289500  0.934100  1.0  0.1043
  H  H410  1  0.781300  0.246000  0.925000  1.0  0.1092
  H  H411  1  0.782200  0.377200  0.967500  1.0  0.1058
  H  H412  1  0.771800  0.431900  0.963000  1.0  0.097
  H  H413  1  0.671700  0.418600  0.989000  1.0  0.1071
  H  H414  1  0.632100  0.360600  0.006600  1.0  0.0837
  H  H415  1  0.700400  0.266300  0.002100  1.0  0.0883
  H  H416  1  0.648000  0.261200  0.015900  1.0  0.0888
  H  H417  1  0.080800  0.669700  0.536700  1.0  0.0795
  H  H418  1  0.058200  0.772300  0.531800  1.0  0.1134
  H  H419  1  0.122400  0.783800  0.531800  1.0  0.1372
  H  H420  1  0.229500  0.701500  0.537400  1.0  0.0727
  H  H421  1  0.239900  0.643000  0.540900  1.0  0.1078
  H  H422  1  0.136500  0.627800  0.540100  1.0  0.0979
  H  H423  1  0.172900  0.777700  0.488800  1.0  0.1164
  H  H424  1  0.212500  0.818800  0.484700  1.0  0.0611
  H  H425  1  0.259200  0.789500  0.565900  1.0  0.1055
  H  H426  1  0.218700  0.746000  0.575000  1.0  0.1086
  H  H427  1  0.217800  0.877200  0.532500  1.0  0.1062
  H  H428  1  0.228200  0.931900  0.537000  1.0  0.0963
  H  H429  1  0.328300  0.918600  0.511000  1.0  0.1075
  H  H430  1  0.367900  0.860600  0.493400  1.0  0.0832
  H  H431  1  0.299600  0.766300  0.497900  1.0  0.0883
  H  H432  1  0.352000  0.761200  0.484100  1.0  0.0885
  C  C433  1  0.966490  0.528100  0.714890  1.0  0.5577
  C  C434  1  0.964220  0.588390  0.692540  1.0  -0.0811
  C  C435  1  0.965950  0.563340  0.719150  1.0  -0.1037
  C  C436  1  0.967300  0.574190  0.754390  1.0  -0.0857
  C  C437  1  0.967150  0.613000  0.761600  1.0  -0.0324
  C  C438  1  0.965210  0.633700  0.730200  1.0  0.1914
  C  C439  1  0.963840  0.620290  0.698260  1.0  0.1955
  C  C440  1  0.962110  0.648170  0.677390  1.0  -0.0337
  C  C441  1  0.962370  0.679870  0.699190  1.0  0.0013
  C  C442  1  0.961720  0.710800  0.686300  1.0  -0.1015
  C  C443  1  0.959850  0.717500  0.651800  1.0  -0.1151
  C  C444  1  0.959170  0.688300  0.630360  1.0  -0.1585
  C  C445  1  0.960350  0.654880  0.643220  1.0  -0.0733
  C  C446  1  0.957680  0.692650  0.592720  1.0  0.675
  C  C447  1  0.968680  0.690510  0.756400  1.0  0.2928
  C  C448  1  0.994500  0.690200  0.779000  1.0  -0.2541
  C  C449  1  0.996700  0.714400  0.803600  1.0  -0.078
  C  C450  1  0.977290  0.738580  0.808590  1.0  0.1767
  C  C451  1  0.949690  0.741010  0.786700  1.0  -0.1396
  C  C452  1  0.944200  0.717200  0.760400  1.0  -0.209
  C  C453  1  0.988140  0.800870  0.875000  1.0  0.102
  C  C454  1  0.982050  0.769000  0.862600  1.0  0.1811
  C  C455  1  0.971800  0.739840  0.885970  1.0  -0.1224
  C  C456  1  0.969230  0.745840  0.916800  1.0  -0.0423
  C  C457  1  0.975670  0.779490  0.929910  1.0  -0.1501
  C  C458  1  0.984950  0.806490  0.909240  1.0  -0.0696
  C  C459  1  0.971520  0.785690  0.968060  1.0  0.6871
  C  C460  1  0.005550  0.853290  0.841520  1.0  -0.0939
  C  C461  1  0.996410  0.819880  0.848120  1.0  -0.0162
  C  C462  1  0.995170  0.797500  0.817500  1.0  0.0248
  C  C463  1  0.002980  0.813090  0.786190  1.0  -0.1071
  C  C464  1  0.010960  0.843780  0.783240  1.0  -0.0863
  C  C465  1  0.013120  0.867630  0.811400  1.0  -0.0435
  C  C466  1  0.021620  0.900840  0.807110  1.0  0.6431
  C  C467  1  0.533510  0.471900  0.214890  1.0  0.5579
  C  C468  1  0.535780  0.411610  0.192540  1.0  -0.0815
  C  C469  1  0.534050  0.436660  0.219150  1.0  -0.1046
  C  C470  1  0.532700  0.425810  0.254390  1.0  -0.0857
  C  C471  1  0.532850  0.387000  0.261600  1.0  -0.0317
  C  C472  1  0.534790  0.366300  0.230200  1.0  0.1924
  C  C473  1  0.536160  0.379710  0.198260  1.0  0.1966
  C  C474  1  0.537890  0.351830  0.177390  1.0  -0.0327
  C  C475  1  0.537630  0.320130  0.199190  1.0  0.0012
  C  C476  1  0.538280  0.289200  0.186300  1.0  -0.1005
  C  C477  1  0.540150  0.282500  0.151800  1.0  -0.1158
  C  C478  1  0.540830  0.311700  0.130360  1.0  -0.1592
  C  C479  1  0.539650  0.345120  0.143220  1.0  -0.0734
  C  C480  1  0.542320  0.307350  0.092720  1.0  0.6753
  C  C481  1  0.531320  0.309490  0.256400  1.0  0.2931
  C  C482  1  0.505500  0.309800  0.279000  1.0  -0.2561
  C  C483  1  0.503300  0.285600  0.303600  1.0  -0.0795
  C  C484  1  0.522710  0.261420  0.308590  1.0  0.1769
  C  C485  1  0.550310  0.258990  0.286700  1.0  -0.1386
  C  C486  1  0.555800  0.282800  0.260400  1.0  -0.2063
  C  C487  1  0.511860  0.199130  0.375000  1.0  0.0995
  C  C488  1  0.517950  0.231000  0.362600  1.0  0.1815
  C  C489  1  0.528200  0.260160  0.385970  1.0  -0.1205
  C  C490  1  0.530770  0.254160  0.416800  1.0  -0.0409
  C  C491  1  0.524330  0.220510  0.429910  1.0  -0.1502
  C  C492  1  0.515050  0.193510  0.409240  1.0  -0.072
  C  C493  1  0.528480  0.214310  0.468060  1.0  0.6872
  C  C494  1  0.494450  0.146710  0.341520  1.0  -0.0933
  C  C495  1  0.503590  0.180120  0.348120  1.0  -0.0178
  C  C496  1  0.504830  0.202500  0.317500  1.0  0.0168
  C  C497  1  0.497020  0.186910  0.286190  1.0  -0.1075
  C  C498  1  0.489040  0.156220  0.283240  1.0  -0.086
  C  C499  1  0.486880  0.132370  0.311400  1.0  -0.0424
  C  C500  1  0.478380  0.099160  0.307110  1.0  0.6432
  C  C501  1  0.033510  0.028100  0.785110  1.0  0.5576
  C  C502  1  0.035780  0.088390  0.807460  1.0  -0.0808
  C  C503  1  0.034050  0.063340  0.780850  1.0  -0.1039
  C  C504  1  0.032700  0.074190  0.745610  1.0  -0.0854
  C  C505  1  0.032850  0.113000  0.738400  1.0  -0.0323
  C  C506  1  0.034790  0.133700  0.769800  1.0  0.1915
  C  C507  1  0.036160  0.120290  0.801740  1.0  0.1975
  C  C508  1  0.037890  0.148170  0.822610  1.0  -0.0346
  C  C509  1  0.037630  0.179870  0.800810  1.0  0.003
  C  C510  1  0.038280  0.210800  0.813700  1.0  -0.1012
  C  C511  1  0.040150  0.217500  0.848200  1.0  -0.1148
  C  C512  1  0.040830  0.188300  0.869640  1.0  -0.1592
  C  C513  1  0.039650  0.154880  0.856780  1.0  -0.0729
  C  C514  1  0.042320  0.192650  0.907280  1.0  0.6752
  C  C515  1  0.031320  0.190510  0.743600  1.0  0.2934
  C  C516  1  0.005500  0.190200  0.721000  1.0  -0.2567
  C  C517  1  0.003300  0.214400  0.696400  1.0  -0.0803
  C  C518  1  0.022710  0.238580  0.691410  1.0  0.175
  C  C519  1  0.050310  0.241010  0.713300  1.0  -0.1389
  C  C520  1  0.055800  0.217200  0.739600  1.0  -0.206
  C  C521  1  0.011860  0.300870  0.625000  1.0  0.1
  C  C522  1  0.017950  0.269000  0.637400  1.0  0.1807
  C  C523  1  0.028200  0.239840  0.614030  1.0  -0.1219
  C  C524  1  0.030770  0.245840  0.583200  1.0  -0.0417
  C  C525  1  0.024330  0.279490  0.570090  1.0  -0.1504
  C  C526  1  0.015050  0.306490  0.590760  1.0  -0.0691
  C  C527  1  0.028480  0.285690  0.531940  1.0  0.687
  C  C528  1  0.994450  0.353290  0.658480  1.0  -0.0952
  C  C529  1  0.003590  0.319880  0.651880  1.0  -0.0146
  C  C530  1  0.004830  0.297500  0.682500  1.0  0.024
  C  C531  1  0.997020  0.313090  0.713810  1.0  -0.1048
  C  C532  1  0.989040  0.343780  0.716760  1.0  -0.0844
  C  C533  1  0.986880  0.367630  0.688600  1.0  -0.0427
  C  C534  1  0.978380  0.400840  0.692890  1.0  0.643
  C  C535  1  0.466490  0.971900  0.285110  1.0  0.5584
  C  C536  1  0.464220  0.911610  0.307460  1.0  -0.0808
  C  C537  1  0.465950  0.936660  0.280850  1.0  -0.1039
  C  C538  1  0.467300  0.925810  0.245610  1.0  -0.0865
  C  C539  1  0.467150  0.887000  0.238400  1.0  -0.0316
  C  C540  1  0.465210  0.866300  0.269800  1.0  0.1919
  C  C541  1  0.463840  0.879710  0.301740  1.0  0.1972
  C  C542  1  0.462110  0.851830  0.322610  1.0  -0.0349
  C  C543  1  0.462370  0.820130  0.300810  1.0  0.0021
  C  C544  1  0.461720  0.789200  0.313700  1.0  -0.1007
  C  C545  1  0.459850  0.782500  0.348200  1.0  -0.1162
  C  C546  1  0.459170  0.811700  0.369640  1.0  -0.1588
  C  C547  1  0.460350  0.845120  0.356780  1.0  -0.0728
  C  C548  1  0.457680  0.807350  0.407280  1.0  0.6743
  C  C549  1  0.468680  0.809490  0.243600  1.0  0.2937
  C  C550  1  0.494500  0.809800  0.221000  1.0  -0.2543
  C  C551  1  0.496700  0.785600  0.196400  1.0  -0.0771
  C  C552  1  0.477290  0.761420  0.191410  1.0  0.176
  C  C553  1  0.449690  0.758990  0.213300  1.0  -0.1395
  C  C554  1  0.444200  0.782800  0.239600  1.0  -0.2092
  C  C555  1  0.488140  0.699130  0.125000  1.0  0.0989
  C  C556  1  0.482050  0.731000  0.137400  1.0  0.181
  C  C557  1  0.471800  0.760160  0.114030  1.0  -0.1241
  C  C558  1  0.469230  0.754160  0.083200  1.0  -0.0423
  C  C559  1  0.475670  0.720510  0.070090  1.0  -0.1503
  C  C560  1  0.484950  0.693510  0.090760  1.0  -0.0718
  C  C561  1  0.471520  0.714310  0.031940  1.0  0.6869
  C  C562  1  0.505550  0.646710  0.158480  1.0  -0.0954
  C  C563  1  0.496410  0.680120  0.151880  1.0  -0.0163
  C  C564  1  0.495170  0.702500  0.182500  1.0  0.0148
  C  C565  1  0.502980  0.686910  0.213810  1.0  -0.1044
  C  C566  1  0.510960  0.656220  0.216760  1.0  -0.0823
  C  C567  1  0.513120  0.632370  0.188600  1.0  -0.0424
  C  C568  1  0.521620  0.599160  0.192890  1.0  0.6436
  C  C569  1  0.714890  0.966490  0.528100  1.0  0.5586
  C  C570  1  0.692540  0.964220  0.588390  1.0  -0.08
  C  C571  1  0.719150  0.965950  0.563340  1.0  -0.1044
  C  C572  1  0.754390  0.967300  0.574190  1.0  -0.0852
  C  C573  1  0.761600  0.967150  0.613000  1.0  -0.0285
  C  C574  1  0.730200  0.965210  0.633700  1.0  0.1923
  C  C575  1  0.698260  0.963840  0.620290  1.0  0.1959
  C  C576  1  0.677390  0.962110  0.648170  1.0  -0.0363
  C  C577  1  0.699190  0.962370  0.679870  1.0  -0.0003
  C  C578  1  0.686300  0.961720  0.710800  1.0  -0.1013
  C  C579  1  0.651800  0.959850  0.717500  1.0  -0.1186
  C  C580  1  0.630360  0.959170  0.688300  1.0  -0.1584
  C  C581  1  0.643220  0.960350  0.654880  1.0  -0.0741
  C  C582  1  0.592720  0.957680  0.692650  1.0  0.6735
  C  C583  1  0.756400  0.968680  0.690510  1.0  0.2929
  C  C584  1  0.779000  0.994500  0.690200  1.0  -0.2572
  C  C585  1  0.803600  0.996700  0.714400  1.0  -0.0805
  C  C586  1  0.808590  0.977290  0.738580  1.0  0.1748
  C  C587  1  0.786700  0.949690  0.741010  1.0  -0.1373
  C  C588  1  0.760400  0.944200  0.717200  1.0  -0.2075
  C  C589  1  0.875000  0.988140  0.800870  1.0  0.0982
  C  C590  1  0.862600  0.982050  0.769000  1.0  0.1757
  C  C591  1  0.885970  0.971800  0.739840  1.0  -0.1237
  C  C592  1  0.916800  0.969230  0.745840  1.0  -0.0416
  C  C593  1  0.929910  0.975670  0.779490  1.0  -0.1513
  C  C594  1  0.909240  0.984950  0.806490  1.0  -0.0703
  C  C595  1  0.968060  0.971520  0.785690  1.0  0.6865
  C  C596  1  0.841520  0.005550  0.853290  1.0  -0.0939
  C  C597  1  0.848120  0.996410  0.819880  1.0  -0.0166
  C  C598  1  0.817500  0.995170  0.797500  1.0  0.0251
  C  C599  1  0.786190  0.002980  0.813090  1.0  -0.0991
  C  C600  1  0.783240  0.010960  0.843780  1.0  -0.0808
  C  C601  1  0.811400  0.013120  0.867630  1.0  -0.043
  C  C602  1  0.807110  0.021620  0.900840  1.0  0.6454
  C  C603  1  0.214890  0.533510  0.471900  1.0  0.5584
  C  C604  1  0.192540  0.535780  0.411610  1.0  -0.0799
  C  C605  1  0.219150  0.534050  0.436660  1.0  -0.1041
  C  C606  1  0.254390  0.532700  0.425810  1.0  -0.0853
  C  C607  1  0.261600  0.532850  0.387000  1.0  -0.0297
  C  C608  1  0.230200  0.534790  0.366300  1.0  0.1921
  C  C609  1  0.198260  0.536160  0.379710  1.0  0.1965
  C  C610  1  0.177390  0.537890  0.351830  1.0  -0.037
  C  C611  1  0.199190  0.537630  0.320130  1.0  -0.0003
  C  C612  1  0.186300  0.538280  0.289200  1.0  -0.102
  C  C613  1  0.151800  0.540150  0.282500  1.0  -0.1176
  C  C614  1  0.130360  0.540830  0.311700  1.0  -0.1583
  C  C615  1  0.143220  0.539650  0.345120  1.0  -0.0742
  C  C616  1  0.092720  0.542320  0.307350  1.0  0.6734
  C  C617  1  0.256400  0.531320  0.309490  1.0  0.2923
  C  C618  1  0.279000  0.505500  0.309800  1.0  -0.2567
  C  C619  1  0.303600  0.503300  0.285600  1.0  -0.0832
  C  C620  1  0.308590  0.522710  0.261420  1.0  0.1761
  C  C621  1  0.286700  0.550310  0.258990  1.0  -0.1357
  C  C622  1  0.260400  0.555800  0.282800  1.0  -0.2066
  C  C623  1  0.375000  0.511860  0.199130  1.0  0.0975
  C  C624  1  0.362600  0.517950  0.231000  1.0  0.1756
  C  C625  1  0.385970  0.528200  0.260160  1.0  -0.1221
  C  C626  1  0.416800  0.530770  0.254160  1.0  -0.0407
  C  C627  1  0.429910  0.524330  0.220510  1.0  -0.1513
  C  C628  1  0.409240  0.515050  0.193510  1.0  -0.0724
  C  C629  1  0.468060  0.528480  0.214310  1.0  0.686
  C  C630  1  0.341520  0.494450  0.146710  1.0  -0.0951
  C  C631  1  0.348120  0.503590  0.180120  1.0  -0.0159
  C  C632  1  0.317500  0.504830  0.202500  1.0  0.0163
  C  C633  1  0.286190  0.497020  0.186910  1.0  -0.0992
  C  C634  1  0.283240  0.489040  0.156220  1.0  -0.0797
  C  C635  1  0.311400  0.486880  0.132370  1.0  -0.043
  C  C636  1  0.307110  0.478380  0.099160  1.0  0.6449
  C  C637  1  0.785110  0.033510  0.028100  1.0  0.5584
  C  C638  1  0.807460  0.035780  0.088390  1.0  -0.0774
  C  C639  1  0.780850  0.034050  0.063340  1.0  -0.1041
  C  C640  1  0.745610  0.032700  0.074190  1.0  -0.0849
  C  C641  1  0.738400  0.032850  0.113000  1.0  -0.03
  C  C642  1  0.769800  0.034790  0.133700  1.0  0.193
  C  C643  1  0.801740  0.036160  0.120290  1.0  0.1964
  C  C644  1  0.822610  0.037890  0.148170  1.0  -0.0361
  C  C645  1  0.800810  0.037630  0.179870  1.0  -0.0002
  C  C646  1  0.813700  0.038280  0.210800  1.0  -0.1008
  C  C647  1  0.848200  0.040150  0.217500  1.0  -0.1163
  C  C648  1  0.869640  0.040830  0.188300  1.0  -0.16
  C  C649  1  0.856780  0.039650  0.154880  1.0  -0.0731
  C  C650  1  0.907280  0.042320  0.192650  1.0  0.6734
  C  C651  1  0.743600  0.031320  0.190510  1.0  0.2937
  C  C652  1  0.721000  0.005500  0.190200  1.0  -0.2557
  C  C653  1  0.696400  0.003300  0.214400  1.0  -0.0808
  C  C654  1  0.691410  0.022710  0.238580  1.0  0.1741
  C  C655  1  0.713300  0.050310  0.241010  1.0  -0.1359
  C  C656  1  0.739600  0.055800  0.217200  1.0  -0.2068
  C  C657  1  0.625000  0.011860  0.300870  1.0  0.0975
  C  C658  1  0.637400  0.017950  0.269000  1.0  0.1775
  C  C659  1  0.614030  0.028200  0.239840  1.0  -0.1241
  C  C660  1  0.583200  0.030770  0.245840  1.0  -0.0409
  C  C661  1  0.570090  0.024330  0.279490  1.0  -0.1515
  C  C662  1  0.590760  0.015050  0.306490  1.0  -0.0717
  C  C663  1  0.531940  0.028480  0.285690  1.0  0.6862
  C  C664  1  0.658480  0.994450  0.353290  1.0  -0.0971
  C  C665  1  0.651880  0.003590  0.319880  1.0  -0.0165
  C  C666  1  0.682500  0.004830  0.297500  1.0  0.0236
  C  C667  1  0.713810  0.997020  0.313090  1.0  -0.0992
  C  C668  1  0.716760  0.989040  0.343780  1.0  -0.0801
  C  C669  1  0.688600  0.986880  0.367630  1.0  -0.0419
  C  C670  1  0.692890  0.978380  0.400840  1.0  0.6459
  C  C671  1  0.285110  0.466490  0.971900  1.0  0.5582
  C  C672  1  0.307460  0.464220  0.911610  1.0  -0.078
  C  C673  1  0.280850  0.465950  0.936660  1.0  -0.104
  C  C674  1  0.245610  0.467300  0.925810  1.0  -0.0856
  C  C675  1  0.238400  0.467150  0.887000  1.0  -0.0298
  C  C676  1  0.269800  0.465210  0.866300  1.0  0.1927
  C  C677  1  0.301740  0.463840  0.879710  1.0  0.197
  C  C678  1  0.322610  0.462110  0.851830  1.0  -0.037
  C  C679  1  0.300810  0.462370  0.820130  1.0  -0.0003
  C  C680  1  0.313700  0.461720  0.789200  1.0  -0.1019
  C  C681  1  0.348200  0.459850  0.782500  1.0  -0.1182
  C  C682  1  0.369640  0.459170  0.811700  1.0  -0.1595
  C  C683  1  0.356780  0.460350  0.845120  1.0  -0.0729
  C  C684  1  0.407280  0.457680  0.807350  1.0  0.6734
  C  C685  1  0.243600  0.468680  0.809490  1.0  0.2928
  C  C686  1  0.221000  0.494500  0.809800  1.0  -0.2572
  C  C687  1  0.196400  0.496700  0.785600  1.0  -0.0812
  C  C688  1  0.191410  0.477290  0.761420  1.0  0.1744
  C  C689  1  0.213300  0.449690  0.758990  1.0  -0.1378
  C  C690  1  0.239600  0.444200  0.782800  1.0  -0.2066
  C  C691  1  0.125000  0.488140  0.699130  1.0  0.0973
  C  C692  1  0.137400  0.482050  0.731000  1.0  0.1771
  C  C693  1  0.114030  0.471800  0.760160  1.0  -0.1223
  C  C694  1  0.083200  0.469230  0.754160  1.0  -0.0405
  C  C695  1  0.070090  0.475670  0.720510  1.0  -0.1514
  C  C696  1  0.090760  0.484950  0.693510  1.0  -0.072
  C  C697  1  0.031940  0.471520  0.714310  1.0  0.6857
  C  C698  1  0.158480  0.505550  0.646710  1.0  -0.0975
  C  C699  1  0.151880  0.496410  0.680120  1.0  -0.0169
  C  C700  1  0.182500  0.495170  0.702500  1.0  0.0153
  C  C701  1  0.213810  0.502980  0.686910  1.0  -0.0987
  C  C702  1  0.216760  0.510960  0.656220  1.0  -0.0793
  C  C703  1  0.188600  0.513120  0.632370  1.0  -0.0424
  C  C704  1  0.192890  0.521620  0.599160  1.0  0.6456
  C  C705  1  0.528100  0.714890  0.966490  1.0  0.5569
  C  C706  1  0.588390  0.692540  0.964220  1.0  -0.0803
  C  C707  1  0.563340  0.719150  0.965950  1.0  -0.1049
  C  C708  1  0.574190  0.754390  0.967300  1.0  -0.0869
  C  C709  1  0.613000  0.761600  0.967150  1.0  -0.0315
  C  C710  1  0.633700  0.730200  0.965210  1.0  0.192
  C  C711  1  0.620290  0.698260  0.963840  1.0  0.1967
  C  C712  1  0.648170  0.677390  0.962110  1.0  -0.0386
  C  C713  1  0.679870  0.699190  0.962370  1.0  -0.001
  C  C714  1  0.710800  0.686300  0.961720  1.0  -0.096
  C  C715  1  0.717500  0.651800  0.959850  1.0  -0.1148
  C  C716  1  0.688300  0.630360  0.959170  1.0  -0.1586
  C  C717  1  0.654880  0.643220  0.960350  1.0  -0.0741
  C  C718  1  0.692650  0.592720  0.957680  1.0  0.6764
  C  C719  1  0.690510  0.756400  0.968680  1.0  0.2928
  C  C720  1  0.690200  0.779000  0.994500  1.0  -0.258
  C  C721  1  0.714400  0.803600  0.996700  1.0  -0.0822
  C  C722  1  0.738580  0.808590  0.977290  1.0  0.1709
  C  C723  1  0.741010  0.786700  0.949690  1.0  -0.1371
  C  C724  1  0.717200  0.760400  0.944200  1.0  -0.2082
  C  C725  1  0.800870  0.875000  0.988140  1.0  0.0986
  C  C726  1  0.769000  0.862600  0.982050  1.0  0.179
  C  C727  1  0.739840  0.885970  0.971800  1.0  -0.1208
  C  C728  1  0.745840  0.916800  0.969230  1.0  -0.0393
  C  C729  1  0.779490  0.929910  0.975670  1.0  -0.1496
  C  C730  1  0.806490  0.909240  0.984950  1.0  -0.0688
  C  C731  1  0.785690  0.968060  0.971520  1.0  0.6873
  C  C732  1  0.853290  0.841520  0.005550  1.0  -0.0954
  C  C733  1  0.819880  0.848120  0.996410  1.0  -0.015
  C  C734  1  0.797500  0.817500  0.995170  1.0  0.0255
  C  C735  1  0.813090  0.786190  0.002980  1.0  -0.1048
  C  C736  1  0.843780  0.783240  0.010960  1.0  -0.0836
  C  C737  1  0.867630  0.811400  0.013120  1.0  -0.0427
  C  C738  1  0.900840  0.807110  0.021620  1.0  0.6437
  C  C739  1  0.471900  0.214890  0.533510  1.0  0.5562
  C  C740  1  0.411610  0.192540  0.535780  1.0  -0.0804
  C  C741  1  0.436660  0.219150  0.534050  1.0  -0.1057
  C  C742  1  0.425810  0.254390  0.532700  1.0  -0.0871
  C  C743  1  0.387000  0.261600  0.532850  1.0  -0.0313
  C  C744  1  0.366300  0.230200  0.534790  1.0  0.1924
  C  C745  1  0.379710  0.198260  0.536160  1.0  0.197
  C  C746  1  0.351830  0.177390  0.537890  1.0  -0.0393
  C  C747  1  0.320130  0.199190  0.537630  1.0  -0.0016
  C  C748  1  0.289200  0.186300  0.538280  1.0  -0.0968
  C  C749  1  0.282500  0.151800  0.540150  1.0  -0.1165
  C  C750  1  0.311700  0.130360  0.540830  1.0  -0.1581
  C  C751  1  0.345120  0.143220  0.539650  1.0  -0.0739
  C  C752  1  0.307350  0.092720  0.542320  1.0  0.6759
  C  C753  1  0.309490  0.256400  0.531320  1.0  0.2931
  C  C754  1  0.309800  0.279000  0.505500  1.0  -0.2565
  C  C755  1  0.285600  0.303600  0.503300  1.0  -0.0818
  C  C756  1  0.261420  0.308590  0.522710  1.0  0.1707
  C  C757  1  0.258990  0.286700  0.550310  1.0  -0.1384
  C  C758  1  0.282800  0.260400  0.555800  1.0  -0.2097
  C  C759  1  0.199130  0.375000  0.511860  1.0  0.0974
  C  C760  1  0.231000  0.362600  0.517950  1.0  0.1796
  C  C761  1  0.260160  0.385970  0.528200  1.0  -0.1194
  C  C762  1  0.254160  0.416800  0.530770  1.0  -0.0413
  C  C763  1  0.220510  0.429910  0.524330  1.0  -0.1498
  C  C764  1  0.193510  0.409240  0.515050  1.0  -0.0695
  C  C765  1  0.214310  0.468060  0.528480  1.0  0.6874
  C  C766  1  0.146710  0.341520  0.494450  1.0  -0.097
  C  C767  1  0.180120  0.348120  0.503590  1.0  -0.0156
  C  C768  1  0.202500  0.317500  0.504830  1.0  0.0169
  C  C769  1  0.186910  0.286190  0.497020  1.0  -0.1027
  C  C770  1  0.156220  0.283240  0.489040  1.0  -0.0843
  C  C771  1  0.132370  0.311400  0.486880  1.0  -0.0429
  C  C772  1  0.099160  0.307110  0.478380  1.0  0.6433
  C  C773  1  0.028100  0.785110  0.033510  1.0  0.5569
  C  C774  1  0.088390  0.807460  0.035780  1.0  -0.0834
  C  C775  1  0.063340  0.780850  0.034050  1.0  -0.1056
  C  C776  1  0.074190  0.745610  0.032700  1.0  -0.086
  C  C777  1  0.113000  0.738400  0.032850  1.0  -0.0317
  C  C778  1  0.133700  0.769800  0.034790  1.0  0.1915
  C  C779  1  0.120290  0.801740  0.036160  1.0  0.1973
  C  C780  1  0.148170  0.822610  0.037890  1.0  -0.0363
  C  C781  1  0.179870  0.800810  0.037630  1.0  0.0002
  C  C782  1  0.210800  0.813700  0.038280  1.0  -0.0957
  C  C783  1  0.217500  0.848200  0.040150  1.0  -0.1148
  C  C784  1  0.188300  0.869640  0.040830  1.0  -0.1576
  C  C785  1  0.154880  0.856780  0.039650  1.0  -0.0743
  C  C786  1  0.192650  0.907280  0.042320  1.0  0.676
  C  C787  1  0.190510  0.743600  0.031320  1.0  0.2935
  C  C788  1  0.190200  0.721000  0.005500  1.0  -0.2566
  C  C789  1  0.214400  0.696400  0.003300  1.0  -0.0814
  C  C790  1  0.238580  0.691410  0.022710  1.0  0.1702
  C  C791  1  0.241010  0.713300  0.050310  1.0  -0.1379
  C  C792  1  0.217200  0.739600  0.055800  1.0  -0.2105
  C  C793  1  0.300870  0.625000  0.011860  1.0  0.0973
  C  C794  1  0.269000  0.637400  0.017950  1.0  0.1785
  C  C795  1  0.239840  0.614030  0.028200  1.0  -0.1202
  C  C796  1  0.245840  0.583200  0.030770  1.0  -0.0392
  C  C797  1  0.279490  0.570090  0.024330  1.0  -0.15
  C  C798  1  0.306490  0.590760  0.015050  1.0  -0.0685
  C  C799  1  0.285690  0.531940  0.028480  1.0  0.6876
  C  C800  1  0.353290  0.658480  0.994450  1.0  -0.0948
  C  C801  1  0.319880  0.651880  0.003590  1.0  -0.0148
  C  C802  1  0.297500  0.682500  0.004830  1.0  0.027
  C  C803  1  0.313090  0.713810  0.997020  1.0  -0.1078
  C  C804  1  0.343780  0.716760  0.989040  1.0  -0.0864
  C  C805  1  0.367630  0.688600  0.986880  1.0  -0.0427
  C  C806  1  0.400840  0.692890  0.978380  1.0  0.6429
  C  C807  1  0.971900  0.285110  0.466490  1.0  0.5558
  C  C808  1  0.911610  0.307460  0.464220  1.0  -0.0831
  C  C809  1  0.936660  0.280850  0.465950  1.0  -0.1054
  C  C810  1  0.925810  0.245610  0.467300  1.0  -0.087
  C  C811  1  0.887000  0.238400  0.467150  1.0  -0.0308
  C  C812  1  0.866300  0.269800  0.465210  1.0  0.1925
  C  C813  1  0.879710  0.301740  0.463840  1.0  0.1976
  C  C814  1  0.851830  0.322610  0.462110  1.0  -0.0368
  C  C815  1  0.820130  0.300810  0.462370  1.0  -0.001
  C  C816  1  0.789200  0.313700  0.461720  1.0  -0.0965
  C  C817  1  0.782500  0.348200  0.459850  1.0  -0.1174
  C  C818  1  0.811700  0.369640  0.459170  1.0  -0.1561
  C  C819  1  0.845120  0.356780  0.460350  1.0  -0.0735
  C  C820  1  0.807350  0.407280  0.457680  1.0  0.6771
  C  C821  1  0.809490  0.243600  0.468680  1.0  0.2938
  C  C822  1  0.809800  0.221000  0.494500  1.0  -0.2567
  C  C823  1  0.785600  0.196400  0.496700  1.0  -0.081
  C  C824  1  0.761420  0.191410  0.477290  1.0  0.1711
  C  C825  1  0.758990  0.213300  0.449690  1.0  -0.1376
  C  C826  1  0.782800  0.239600  0.444200  1.0  -0.2086
  C  C827  1  0.699130  0.125000  0.488140  1.0  0.0961
  C  C828  1  0.731000  0.137400  0.482050  1.0  0.1792
  C  C829  1  0.760160  0.114030  0.471800  1.0  -0.12
  C  C830  1  0.754160  0.083200  0.469230  1.0  -0.0411
  C  C831  1  0.720510  0.070090  0.475670  1.0  -0.1499
  C  C832  1  0.693510  0.090760  0.484950  1.0  -0.0695
  C  C833  1  0.714310  0.031940  0.471520  1.0  0.6877
  C  C834  1  0.646710  0.158480  0.505550  1.0  -0.096
  C  C835  1  0.680120  0.151880  0.496410  1.0  -0.0169
  C  C836  1  0.702500  0.182500  0.495170  1.0  0.0177
  C  C837  1  0.686910  0.213810  0.502980  1.0  -0.1064
  C  C838  1  0.656220  0.216760  0.510960  1.0  -0.0872
  C  C839  1  0.632370  0.188600  0.513120  1.0  -0.0426
  C  C840  1  0.599160  0.192890  0.521620  1.0  0.6439
  C  C841  1  0.033510  0.471900  0.285110  1.0  0.558
  C  C842  1  0.035780  0.411610  0.307460  1.0  -0.0811
  C  C843  1  0.034050  0.436660  0.280850  1.0  -0.1044
  C  C844  1  0.032700  0.425810  0.245610  1.0  -0.0868
  C  C845  1  0.032850  0.387000  0.238400  1.0  -0.0317
  C  C846  1  0.034790  0.366300  0.269800  1.0  0.1922
  C  C847  1  0.036160  0.379710  0.301740  1.0  0.1976
  C  C848  1  0.037890  0.351830  0.322610  1.0  -0.0346
  C  C849  1  0.037630  0.320130  0.300810  1.0  0.0025
  C  C850  1  0.038280  0.289200  0.313700  1.0  -0.1012
  C  C851  1  0.040150  0.282500  0.348200  1.0  -0.1161
  C  C852  1  0.040830  0.311700  0.369640  1.0  -0.1591
  C  C853  1  0.039650  0.345120  0.356780  1.0  -0.0728
  C  C854  1  0.042320  0.307350  0.407280  1.0  0.675
  C  C855  1  0.031320  0.309490  0.243600  1.0  0.2937
  C  C856  1  0.005500  0.309800  0.221000  1.0  -0.2563
  C  C857  1  0.003300  0.285600  0.196400  1.0  -0.0793
  C  C858  1  0.022710  0.261420  0.191410  1.0  0.1756
  C  C859  1  0.050310  0.258990  0.213300  1.0  -0.1387
  C  C860  1  0.055800  0.282800  0.239600  1.0  -0.2056
  C  C861  1  0.011860  0.199130  0.125000  1.0  0.0981
  C  C862  1  0.017950  0.231000  0.137400  1.0  0.1809
  C  C863  1  0.028200  0.260160  0.114030  1.0  -0.1222
  C  C864  1  0.030770  0.254160  0.083200  1.0  -0.0415
  C  C865  1  0.024330  0.220510  0.070090  1.0  -0.1504
  C  C866  1  0.015050  0.193510  0.090760  1.0  -0.072
  C  C867  1  0.028480  0.214310  0.031940  1.0  0.687
  C  C868  1  0.994450  0.146710  0.158480  1.0  -0.0948
  C  C869  1  0.003590  0.180120  0.151880  1.0  -0.0167
  C  C870  1  0.004830  0.202500  0.182500  1.0  0.0245
  C  C871  1  0.997020  0.186910  0.213810  1.0  -0.1054
  C  C872  1  0.989040  0.156220  0.216760  1.0  -0.084
  C  C873  1  0.986880  0.132370  0.188600  1.0  -0.0421
  C  C874  1  0.978380  0.099160  0.192890  1.0  0.6434
  C  C875  1  0.466490  0.528100  0.785110  1.0  0.5578
  C  C876  1  0.464220  0.588390  0.807460  1.0  -0.0806
  C  C877  1  0.465950  0.563340  0.780850  1.0  -0.1035
  C  C878  1  0.467300  0.574190  0.745610  1.0  -0.0854
  C  C879  1  0.467150  0.613000  0.738400  1.0  -0.0319
  C  C880  1  0.465210  0.633700  0.769800  1.0  0.1912
  C  C881  1  0.463840  0.620290  0.801740  1.0  0.1971
  C  C882  1  0.462110  0.648170  0.822610  1.0  -0.0349
  C  C883  1  0.462370  0.679870  0.800810  1.0  0.0026
  C  C884  1  0.461720  0.710800  0.813700  1.0  -0.1013
  C  C885  1  0.459850  0.717500  0.848200  1.0  -0.1152
  C  C886  1  0.459170  0.688300  0.869640  1.0  -0.1587
  C  C887  1  0.460350  0.654880  0.856780  1.0  -0.0727
  C  C888  1  0.457680  0.692650  0.907280  1.0  0.6745
  C  C889  1  0.468680  0.690510  0.743600  1.0  0.2934
  C  C890  1  0.494500  0.690200  0.721000  1.0  -0.2549
  C  C891  1  0.496700  0.714400  0.696400  1.0  -0.0777
  C  C892  1  0.477290  0.738580  0.691410  1.0  0.1753
  C  C893  1  0.449690  0.741010  0.713300  1.0  -0.1393
  C  C894  1  0.444200  0.717200  0.739600  1.0  -0.2091
  C  C895  1  0.488140  0.800870  0.625000  1.0  0.1007
  C  C896  1  0.482050  0.769000  0.637400  1.0  0.1807
  C  C897  1  0.471800  0.739840  0.614030  1.0  -0.1229
  C  C898  1  0.469230  0.745840  0.583200  1.0  -0.0417
  C  C899  1  0.475670  0.779490  0.570090  1.0  -0.1503
  C  C900  1  0.484950  0.806490  0.590760  1.0  -0.0688
  C  C901  1  0.471520  0.785690  0.531940  1.0  0.6869
  C  C902  1  0.505550  0.853290  0.658480  1.0  -0.0955
  C  C903  1  0.496410  0.819880  0.651880  1.0  -0.014
  C  C904  1  0.495170  0.797500  0.682500  1.0  0.0148
  C  C905  1  0.502980  0.813090  0.713810  1.0  -0.1038
  C  C906  1  0.510960  0.843780  0.716760  1.0  -0.0825
  C  C907  1  0.513120  0.867630  0.688600  1.0  -0.0434
  C  C908  1  0.521620  0.900840  0.692890  1.0  0.6433
  C  C909  1  0.966490  0.971900  0.214890  1.0  0.5583
  C  C910  1  0.964220  0.911610  0.192540  1.0  -0.081
  C  C911  1  0.965950  0.936660  0.219150  1.0  -0.1041
  C  C912  1  0.967300  0.925810  0.254390  1.0  -0.0857
  C  C913  1  0.967150  0.887000  0.261600  1.0  -0.0316
  C  C914  1  0.965210  0.866300  0.230200  1.0  0.1921
  C  C915  1  0.963840  0.879710  0.198260  1.0  0.1962
  C  C916  1  0.962110  0.851830  0.177390  1.0  -0.033
  C  C917  1  0.962370  0.820130  0.199190  1.0  0.0007
  C  C918  1  0.961720  0.789200  0.186300  1.0  -0.1001
  C  C919  1  0.959850  0.782500  0.151800  1.0  -0.1159
  C  C920  1  0.959170  0.811700  0.130360  1.0  -0.1588
  C  C921  1  0.960350  0.845120  0.143220  1.0  -0.0734
  C  C922  1  0.957680  0.807350  0.092720  1.0  0.6749
  C  C923  1  0.968680  0.809490  0.256400  1.0  0.2931
  C  C924  1  0.994500  0.809800  0.279000  1.0  -0.2541
  C  C925  1  0.996700  0.785600  0.303600  1.0  -0.0774
  C  C926  1  0.977290  0.761420  0.308590  1.0  0.1769
  C  C927  1  0.949690  0.758990  0.286700  1.0  -0.1396
  C  C928  1  0.944200  0.782800  0.260400  1.0  -0.2091
  C  C929  1  0.988140  0.699130  0.375000  1.0  0.1002
  C  C930  1  0.982050  0.731000  0.362600  1.0  0.1815
  C  C931  1  0.971800  0.760160  0.385970  1.0  -0.1228
  C  C932  1  0.969230  0.754160  0.416800  1.0  -0.0422
  C  C933  1  0.975670  0.720510  0.429910  1.0  -0.15
  C  C934  1  0.984950  0.693510  0.409240  1.0  -0.072
  C  C935  1  0.971520  0.714310  0.468060  1.0  0.6871
  C  C936  1  0.005550  0.646710  0.341520  1.0  -0.0939
  C  C937  1  0.996410  0.680120  0.348120  1.0  -0.0175
  C  C938  1  0.995170  0.702500  0.317500  1.0  0.0251
  C  C939  1  0.002980  0.686910  0.286190  1.0  -0.1073
  C  C940  1  0.010960  0.656220  0.283240  1.0  -0.0868
  C  C941  1  0.013120  0.632370  0.311400  1.0  -0.0426
  C  C942  1  0.021620  0.599160  0.307110  1.0  0.6435
  C  C943  1  0.533510  0.028100  0.714890  1.0  0.5576
  C  C944  1  0.535780  0.088390  0.692540  1.0  -0.0815
  C  C945  1  0.534050  0.063340  0.719150  1.0  -0.1041
  C  C946  1  0.532700  0.074190  0.754390  1.0  -0.0857
  C  C947  1  0.532850  0.113000  0.761600  1.0  -0.0326
  C  C948  1  0.534790  0.133700  0.730200  1.0  0.1918
  C  C949  1  0.536160  0.120290  0.698260  1.0  0.196
  C  C950  1  0.537890  0.148170  0.677390  1.0  -0.0333
  C  C951  1  0.537630  0.179870  0.699190  1.0  0.0017
  C  C952  1  0.538280  0.210800  0.686300  1.0  -0.1014
  C  C953  1  0.540150  0.217500  0.651800  1.0  -0.1147
  C  C954  1  0.540830  0.188300  0.630360  1.0  -0.1592
  C  C955  1  0.539650  0.154880  0.643220  1.0  -0.0737
  C  C956  1  0.542320  0.192650  0.592720  1.0  0.6754
  C  C957  1  0.531320  0.190510  0.756400  1.0  0.2928
  C  C958  1  0.505500  0.190200  0.779000  1.0  -0.2559
  C  C959  1  0.503300  0.214400  0.803600  1.0  -0.0802
  C  C960  1  0.522710  0.238580  0.808590  1.0  0.1768
  C  C961  1  0.550310  0.241010  0.786700  1.0  -0.1388
  C  C962  1  0.555800  0.217200  0.760400  1.0  -0.2065
  C  C963  1  0.511860  0.300870  0.875000  1.0  0.1012
  C  C964  1  0.517950  0.269000  0.862600  1.0  0.181
  C  C965  1  0.528200  0.239840  0.885970  1.0  -0.1207
  C  C966  1  0.530770  0.245840  0.916800  1.0  -0.0417
  C  C967  1  0.524330  0.279490  0.929910  1.0  -0.1503
  C  C968  1  0.515050  0.306490  0.909240  1.0  -0.0702
  C  C969  1  0.528480  0.285690  0.968060  1.0  0.6872
  C  C970  1  0.494450  0.353290  0.841520  1.0  -0.0937
  C  C971  1  0.503590  0.319880  0.848120  1.0  -0.0169
  C  C972  1  0.504830  0.297500  0.817500  1.0  0.0172
  C  C973  1  0.497020  0.313090  0.786190  1.0  -0.1074
  C  C974  1  0.489040  0.343780  0.783240  1.0  -0.0857
  C  C975  1  0.486880  0.367630  0.811400  1.0  -0.0429
  C  C976  1  0.478380  0.400840  0.807110  1.0  0.6428
  C  C977  1  0.285110  0.033510  0.471900  1.0  0.558
  C  C978  1  0.307460  0.035780  0.411610  1.0  -0.0781
  C  C979  1  0.280850  0.034050  0.436660  1.0  -0.1039
  C  C980  1  0.245610  0.032700  0.425810  1.0  -0.0856
  C  C981  1  0.238400  0.032850  0.387000  1.0  -0.0302
  C  C982  1  0.269800  0.034790  0.366300  1.0  0.1928
  C  C983  1  0.301740  0.036160  0.379710  1.0  0.1972
  C  C984  1  0.322610  0.037890  0.351830  1.0  -0.0369
  C  C985  1  0.300810  0.037630  0.320130  1.0  -0.0003
  C  C986  1  0.313700  0.038280  0.289200  1.0  -0.102
  C  C987  1  0.348200  0.040150  0.282500  1.0  -0.1179
  C  C988  1  0.369640  0.040830  0.311700  1.0  -0.1598
  C  C989  1  0.356780  0.039650  0.345120  1.0  -0.073
  C  C990  1  0.407280  0.042320  0.307350  1.0  0.6733
  C  C991  1  0.243600  0.031320  0.309490  1.0  0.2929
  C  C992  1  0.221000  0.005500  0.309800  1.0  -0.2559
  C  C993  1  0.196400  0.003300  0.285600  1.0  -0.0814
  C  C994  1  0.191410  0.022710  0.261420  1.0  0.175
  C  C995  1  0.213300  0.050310  0.258990  1.0  -0.1359
  C  C996  1  0.239600  0.055800  0.282800  1.0  -0.2057
  C  C997  1  0.125000  0.011860  0.199130  1.0  0.0971
  C  C998  1  0.137400  0.017950  0.231000  1.0  0.177
  C  C999  1  0.114030  0.028200  0.260160  1.0  -0.1225
  C  C1000  1  0.083200  0.030770  0.254160  1.0  -0.0418
  C  C1001  1  0.070090  0.024330  0.220510  1.0  -0.1514
  C  C1002  1  0.090760  0.015050  0.193510  1.0  -0.0722
  C  C1003  1  0.031940  0.028480  0.214310  1.0  0.6857
  C  C1004  1  0.158480  0.994450  0.146710  1.0  -0.0975
  C  C1005  1  0.151880  0.003590  0.180120  1.0  -0.0166
  C  C1006  1  0.182500  0.004830  0.202500  1.0  0.0237
  C  C1007  1  0.213810  0.997020  0.186910  1.0  -0.0986
  C  C1008  1  0.216760  0.989040  0.156220  1.0  -0.0788
  C  C1009  1  0.188600  0.986880  0.132370  1.0  -0.0423
  C  C1010  1  0.192890  0.978380  0.099160  1.0  0.6455
  C  C1011  1  0.785110  0.466490  0.528100  1.0  0.5584
  C  C1012  1  0.807460  0.464220  0.588390  1.0  -0.0774
  C  C1013  1  0.780850  0.465950  0.563340  1.0  -0.1041
  C  C1014  1  0.745610  0.467300  0.574190  1.0  -0.085
  C  C1015  1  0.738400  0.467150  0.613000  1.0  -0.0296
  C  C1016  1  0.769800  0.465210  0.633700  1.0  0.1928
  C  C1017  1  0.801740  0.463840  0.620290  1.0  0.1963
  C  C1018  1  0.822610  0.462110  0.648170  1.0  -0.0364
  C  C1019  1  0.800810  0.462370  0.679870  1.0  -1e-04
  C  C1020  1  0.813700  0.461720  0.710800  1.0  -0.101
  C  C1021  1  0.848200  0.459850  0.717500  1.0  -0.1163
  C  C1022  1  0.869640  0.459170  0.688300  1.0  -0.1597
  C  C1023  1  0.856780  0.460350  0.654880  1.0  -0.0731
  C  C1024  1  0.907280  0.457680  0.692650  1.0  0.6734
  C  C1025  1  0.743600  0.468680  0.690510  1.0  0.2936
  C  C1026  1  0.721000  0.494500  0.690200  1.0  -0.2567
  C  C1027  1  0.696400  0.496700  0.714400  1.0  -0.08
  C  C1028  1  0.691410  0.477290  0.738580  1.0  0.1732
  C  C1029  1  0.713300  0.449690  0.741010  1.0  -0.1377
  C  C1030  1  0.739600  0.444200  0.717200  1.0  -0.2072
  C  C1031  1  0.625000  0.488140  0.800870  1.0  0.0976
  C  C1032  1  0.637400  0.482050  0.769000  1.0  0.1775
  C  C1033  1  0.614030  0.471800  0.739840  1.0  -0.1239
  C  C1034  1  0.583200  0.469230  0.745840  1.0  -0.0405
  C  C1035  1  0.570090  0.475670  0.779490  1.0  -0.1515
  C  C1036  1  0.590760  0.484950  0.806490  1.0  -0.0714
  C  C1037  1  0.531940  0.471520  0.785690  1.0  0.6862
  C  C1038  1  0.658480  0.505550  0.853290  1.0  -0.097
  C  C1039  1  0.651880  0.496410  0.819880  1.0  -0.0168
  C  C1040  1  0.682500  0.495170  0.797500  1.0  0.0148
  C  C1041  1  0.713810  0.502980  0.813090  1.0  -0.0995
  C  C1042  1  0.716760  0.510960  0.843780  1.0  -0.0804
  C  C1043  1  0.688600  0.513120  0.867630  1.0  -0.0424
  C  C1044  1  0.692890  0.521620  0.900840  1.0  0.6459
  C  C1045  1  0.214890  0.966490  0.971900  1.0  0.5584
  C  C1046  1  0.192540  0.964220  0.911610  1.0  -0.0798
  C  C1047  1  0.219150  0.965950  0.936660  1.0  -0.1042
  C  C1048  1  0.254390  0.967300  0.925810  1.0  -0.0852
  C  C1049  1  0.261600  0.967150  0.887000  1.0  -0.0295
  C  C1050  1  0.230200  0.965210  0.866300  1.0  0.1919
  C  C1051  1  0.198260  0.963840  0.879710  1.0  0.1964
  C  C1052  1  0.177390  0.962110  0.851830  1.0  -0.0372
  C  C1053  1  0.199190  0.962370  0.820130  1.0  -0.0003
  C  C1054  1  0.186300  0.961720  0.789200  1.0  -0.1019
  C  C1055  1  0.151800  0.959850  0.782500  1.0  -0.1178
  C  C1056  1  0.130360  0.959170  0.811700  1.0  -0.1583
  C  C1057  1  0.143220  0.960350  0.845120  1.0  -0.0742
  C  C1058  1  0.092720  0.957680  0.807350  1.0  0.6735
  C  C1059  1  0.256400  0.968680  0.809490  1.0  0.2922
  C  C1060  1  0.279000  0.994500  0.809800  1.0  -0.2576
  C  C1061  1  0.303600  0.996700  0.785600  1.0  -0.0816
  C  C1062  1  0.308590  0.977290  0.761420  1.0  0.1759
  C  C1063  1  0.286700  0.949690  0.758990  1.0  -0.1373
  C  C1064  1  0.260400  0.944200  0.782800  1.0  -0.2071
  C  C1065  1  0.375000  0.988140  0.699130  1.0  0.0979
  C  C1066  1  0.362600  0.982050  0.731000  1.0  0.1755
  C  C1067  1  0.385970  0.971800  0.760160  1.0  -0.1217
  C  C1068  1  0.416800  0.969230  0.754160  1.0  -0.0395
  C  C1069  1  0.429910  0.975670  0.720510  1.0  -0.1513
  C  C1070  1  0.409240  0.984950  0.693510  1.0  -0.0721
  C  C1071  1  0.468060  0.971520  0.714310  1.0  0.6861
  C  C1072  1  0.341520  0.005550  0.646710  1.0  -0.095
  C  C1073  1  0.348120  0.996410  0.680120  1.0  -0.016
  C  C1074  1  0.317500  0.995170  0.702500  1.0  0.0253
  C  C1075  1  0.286190  0.002980  0.686910  1.0  -0.0996
  C  C1076  1  0.283240  0.010960  0.656220  1.0  -0.0799
  C  C1077  1  0.311400  0.013120  0.632370  1.0  -0.0431
  C  C1078  1  0.307110  0.021620  0.599160  1.0  0.645
  C  C1079  1  0.714890  0.533510  0.028100  1.0  0.5586
  C  C1080  1  0.692540  0.535780  0.088390  1.0  -0.08
  C  C1081  1  0.719150  0.534050  0.063340  1.0  -0.1044
  C  C1082  1  0.754390  0.532700  0.074190  1.0  -0.0853
  C  C1083  1  0.761600  0.532850  0.113000  1.0  -0.0287
  C  C1084  1  0.730200  0.534790  0.133700  1.0  0.1924
  C  C1085  1  0.698260  0.536160  0.120290  1.0  0.1959
  C  C1086  1  0.677390  0.537890  0.148170  1.0  -0.0361
  C  C1087  1  0.699190  0.537630  0.179870  1.0  -0.0003
  C  C1088  1  0.686300  0.538280  0.210800  1.0  -0.1012
  C  C1089  1  0.651800  0.540150  0.217500  1.0  -0.1186
  C  C1090  1  0.630360  0.540830  0.188300  1.0  -0.1585
  C  C1091  1  0.643220  0.539650  0.154880  1.0  -0.074
  C  C1092  1  0.592720  0.542320  0.192650  1.0  0.6735
  C  C1093  1  0.756400  0.531320  0.190510  1.0  0.293
  C  C1094  1  0.779000  0.505500  0.190200  1.0  -0.2567
  C  C1095  1  0.803600  0.503300  0.214400  1.0  -0.0824
  C  C1096  1  0.808590  0.522710  0.238580  1.0  0.1751
  C  C1097  1  0.786700  0.550310  0.241010  1.0  -0.1359
  C  C1098  1  0.760400  0.555800  0.217200  1.0  -0.2076
  C  C1099  1  0.875000  0.511860  0.300870  1.0  0.098
  C  C1100  1  0.862600  0.517950  0.269000  1.0  0.1759
  C  C1101  1  0.885970  0.528200  0.239840  1.0  -0.1237
  C  C1102  1  0.916800  0.530770  0.245840  1.0  -0.0424
  C  C1103  1  0.929910  0.524330  0.279490  1.0  -0.1513
  C  C1104  1  0.909240  0.515050  0.306490  1.0  -0.0707
  C  C1105  1  0.968060  0.528480  0.285690  1.0  0.6864
  C  C1106  1  0.841520  0.494450  0.353290  1.0  -0.0941
  C  C1107  1  0.848120  0.503590  0.319880  1.0  -0.0162
  C  C1108  1  0.817500  0.504830  0.297500  1.0  0.0157
  C  C1109  1  0.786190  0.497020  0.313090  1.0  -0.0986
  C  C1110  1  0.783240  0.489040  0.343780  1.0  -0.0808
  C  C1111  1  0.811400  0.486880  0.367630  1.0  -0.0425
  C  C1112  1  0.807110  0.478380  0.400840  1.0  0.6455
  C  C1113  1  0.471900  0.285110  0.033510  1.0  0.5562
  C  C1114  1  0.411610  0.307460  0.035780  1.0  -0.0834
  C  C1115  1  0.436660  0.280850  0.034050  1.0  -0.1059
  C  C1116  1  0.425810  0.245610  0.032700  1.0  -0.0872
  C  C1117  1  0.387000  0.238400  0.032850  1.0  -0.0314
  C  C1118  1  0.366300  0.269800  0.034790  1.0  0.1925
  C  C1119  1  0.379710  0.301740  0.036160  1.0  0.1976
  C  C1120  1  0.351830  0.322610  0.037890  1.0  -0.0367
  C  C1121  1  0.320130  0.300810  0.037630  1.0  -0.0008
  C  C1122  1  0.289200  0.313700  0.038280  1.0  -0.0967
  C  C1123  1  0.282500  0.348200  0.040150  1.0  -0.1175
  C  C1124  1  0.311700  0.369640  0.040830  1.0  -0.1566
  C  C1125  1  0.345120  0.356780  0.039650  1.0  -0.0733
  C  C1126  1  0.307350  0.407280  0.042320  1.0  0.6763
  C  C1127  1  0.309490  0.243600  0.031320  1.0  0.2938
  C  C1128  1  0.309800  0.221000  0.005500  1.0  -0.2561
  C  C1129  1  0.285600  0.196400  0.003300  1.0  -0.0808
  C  C1130  1  0.261420  0.191410  0.022710  1.0  0.1705
  C  C1131  1  0.258990  0.213300  0.050310  1.0  -0.1384
  C  C1132  1  0.282800  0.239600  0.055800  1.0  -0.2106
  C  C1133  1  0.199130  0.125000  0.011860  1.0  0.0961
  C  C1134  1  0.231000  0.137400  0.017950  1.0  0.1792
  C  C1135  1  0.260160  0.114030  0.028200  1.0  -0.1196
  C  C1136  1  0.254160  0.083200  0.030770  1.0  -0.0409
  C  C1137  1  0.220510  0.070090  0.024330  1.0  -0.15
  C  C1138  1  0.193510  0.090760  0.015050  1.0  -0.0693
  C  C1139  1  0.214310  0.031940  0.028480  1.0  0.6877
  C  C1140  1  0.146710  0.158480  0.994450  1.0  -0.096
  C  C1141  1  0.180120  0.151880  0.003590  1.0  -0.0164
  C  C1142  1  0.202500  0.182500  0.004830  1.0  0.0273
  C  C1143  1  0.186910  0.213810  0.997020  1.0  -0.1064
  C  C1144  1  0.156220  0.216760  0.989040  1.0  -0.0871
  C  C1145  1  0.132370  0.188600  0.986880  1.0  -0.0426
  C  C1146  1  0.099160  0.192890  0.978380  1.0  0.6433
  C  C1147  1  0.528100  0.785110  0.466490  1.0  0.5568
  C  C1148  1  0.588390  0.807460  0.464220  1.0  -0.0831
  C  C1149  1  0.563340  0.780850  0.465950  1.0  -0.1051
  C  C1150  1  0.574190  0.745610  0.467300  1.0  -0.086
  C  C1151  1  0.613000  0.738400  0.467150  1.0  -0.0312
  C  C1152  1  0.633700  0.769800  0.465210  1.0  0.1916
  C  C1153  1  0.620290  0.801740  0.463840  1.0  0.1973
  C  C1154  1  0.648170  0.822610  0.462110  1.0  -0.0363
  C  C1155  1  0.679870  0.800810  0.462370  1.0  -0.0
  C  C1156  1  0.710800  0.813700  0.461720  1.0  -0.0955
  C  C1157  1  0.717500  0.848200  0.459850  1.0  -0.1145
  C  C1158  1  0.688300  0.869640  0.459170  1.0  -0.1572
  C  C1159  1  0.654880  0.856780  0.460350  1.0  -0.0744
  C  C1160  1  0.692650  0.907280  0.457680  1.0  0.6769
  C  C1161  1  0.690510  0.743600  0.468680  1.0  0.2936
  C  C1162  1  0.690200  0.721000  0.494500  1.0  -0.2578
  C  C1163  1  0.714400  0.696400  0.496700  1.0  -0.0822
  C  C1164  1  0.738580  0.691410  0.477290  1.0  0.1704
  C  C1165  1  0.741010  0.713300  0.449690  1.0  -0.1375
  C  C1166  1  0.717200  0.739600  0.444200  1.0  -0.2087
  C  C1167  1  0.800870  0.625000  0.488140  1.0  0.0972
  C  C1168  1  0.769000  0.637400  0.482050  1.0  0.1785
  C  C1169  1  0.739840  0.614030  0.471800  1.0  -0.12
  C  C1170  1  0.745840  0.583200  0.469230  1.0  -0.0395
  C  C1171  1  0.779490  0.570090  0.475670  1.0  -0.1499
  C  C1172  1  0.806490  0.590760  0.484950  1.0  -0.0689
  C  C1173  1  0.785690  0.531940  0.471520  1.0  0.6875
  C  C1174  1  0.853290  0.658480  0.505550  1.0  -0.0947
  C  C1175  1  0.819880  0.651880  0.496410  1.0  -0.0156
  C  C1176  1  0.797500  0.682500  0.495170  1.0  0.0174
  C  C1177  1  0.813090  0.713810  0.502980  1.0  -0.108
  C  C1178  1  0.843780  0.716760  0.510960  1.0  -0.0863
  C  C1179  1  0.867630  0.688600  0.513120  1.0  -0.0428
  C  C1180  1  0.900840  0.692890  0.521620  1.0  0.6436
  C  C1181  1  0.971900  0.214890  0.966490  1.0  0.5559
  C  C1182  1  0.911610  0.192540  0.964220  1.0  -0.08
  C  C1183  1  0.936660  0.219150  0.965950  1.0  -0.1052
  C  C1184  1  0.925810  0.254390  0.967300  1.0  -0.0869
  C  C1185  1  0.887000  0.261600  0.967150  1.0  -0.0309
  C  C1186  1  0.866300  0.230200  0.965210  1.0  0.1926
  C  C1187  1  0.879710  0.198260  0.963840  1.0  0.197
  C  C1188  1  0.851830  0.177390  0.962110  1.0  -0.0392
  C  C1189  1  0.820130  0.199190  0.962370  1.0  -0.0018
  C  C1190  1  0.789200  0.186300  0.961720  1.0  -0.0969
  C  C1191  1  0.782500  0.151800  0.959850  1.0  -0.1163
  C  C1192  1  0.811700  0.130360  0.959170  1.0  -0.1577
  C  C1193  1  0.845120  0.143220  0.960350  1.0  -0.0741
  C  C1194  1  0.807350  0.092720  0.957680  1.0  0.6766
  C  C1195  1  0.809490  0.256400  0.968680  1.0  0.2932
  C  C1196  1  0.809800  0.279000  0.994500  1.0  -0.2568
  C  C1197  1  0.785600  0.303600  0.996700  1.0  -0.0811
  C  C1198  1  0.761420  0.308590  0.977290  1.0  0.1714
  C  C1199  1  0.758990  0.286700  0.949690  1.0  -0.1374
  C  C1200  1  0.782800  0.260400  0.944200  1.0  -0.208
  C  C1201  1  0.699130  0.375000  0.988140  1.0  0.0975
  C  C1202  1  0.731000  0.362600  0.982050  1.0  0.1798
  C  C1203  1  0.760160  0.385970  0.971800  1.0  -0.12
  C  C1204  1  0.754160  0.416800  0.969230  1.0  -0.0412
  C  C1205  1  0.720510  0.429910  0.975670  1.0  -0.1496
  C  C1206  1  0.693510  0.409240  0.984950  1.0  -0.0697
  C  C1207  1  0.714310  0.468060  0.971520  1.0  0.6873
  C  C1208  1  0.646710  0.341520  0.005550  1.0  -0.0972
  C  C1209  1  0.680120  0.348120  0.996410  1.0  -0.0161
  C  C1210  1  0.702500  0.317500  0.995170  1.0  0.0255
  C  C1211  1  0.686910  0.286190  0.002980  1.0  -0.1029
  C  C1212  1  0.656220  0.283240  0.010960  1.0  -0.0846
  C  C1213  1  0.632370  0.311400  0.013120  1.0  -0.0427
  C  C1214  1  0.599160  0.307110  0.021620  1.0  0.6441
  C  C1215  1  0.028100  0.714890  0.533510  1.0  0.557
  C  C1216  1  0.088390  0.692540  0.535780  1.0  -0.0806
  C  C1217  1  0.063340  0.719150  0.534050  1.0  -0.1054
  C  C1218  1  0.074190  0.754390  0.532700  1.0  -0.0871
  C  C1219  1  0.113000  0.761600  0.532850  1.0  -0.0317
  C  C1220  1  0.133700  0.730200  0.534790  1.0  0.1917
  C  C1221  1  0.120290  0.698260  0.536160  1.0  0.1967
  C  C1222  1  0.148170  0.677390  0.537890  1.0  -0.0387
  C  C1223  1  0.179870  0.699190  0.537630  1.0  -0.0008
  C  C1224  1  0.210800  0.686300  0.538280  1.0  -0.0961
  C  C1225  1  0.217500  0.651800  0.540150  1.0  -0.1151
  C  C1226  1  0.188300  0.630360  0.540830  1.0  -0.1591
  C  C1227  1  0.154880  0.643220  0.539650  1.0  -0.0739
  C  C1228  1  0.192650  0.592720  0.542320  1.0  0.6756
  C  C1229  1  0.190510  0.756400  0.531320  1.0  0.2928
  C  C1230  1  0.190200  0.779000  0.505500  1.0  -0.2571
  C  C1231  1  0.214400  0.803600  0.503300  1.0  -0.082
  C  C1232  1  0.238580  0.808590  0.522710  1.0  0.1707
  C  C1233  1  0.241010  0.786700  0.550310  1.0  -0.1376
  C  C1234  1  0.217200  0.760400  0.555800  1.0  -0.2098
  C  C1235  1  0.300870  0.875000  0.511860  1.0  0.0986
  C  C1236  1  0.269000  0.862600  0.517950  1.0  0.1788
  C  C1237  1  0.239840  0.885970  0.528200  1.0  -0.1208
  C  C1238  1  0.245840  0.916800  0.530770  1.0  -0.0398
  C  C1239  1  0.279490  0.929910  0.524330  1.0  -0.1498
  C  C1240  1  0.306490  0.909240  0.515050  1.0  -0.0685
  C  C1241  1  0.285690  0.968060  0.528480  1.0  0.6873
  C  C1242  1  0.353290  0.841520  0.494450  1.0  -0.0954
  C  C1243  1  0.319880  0.848120  0.503590  1.0  -0.0143
  C  C1244  1  0.297500  0.817500  0.504830  1.0  0.0168
  C  C1245  1  0.313090  0.786190  0.497020  1.0  -0.1044
  C  C1246  1  0.343780  0.783240  0.489040  1.0  -0.0834
  C  C1247  1  0.367630  0.811400  0.486880  1.0  -0.0428
  C  C1248  1  0.400840  0.807110  0.478380  1.0  0.6429
  N  N1249  1  0.964010  0.666950  0.734190  1.0  -0.183
  N  N1250  1  0.985970  0.767700  0.830600  1.0  0.0418
  N  N1251  1  0.535990  0.333050  0.234190  1.0  -0.1825
  N  N1252  1  0.514030  0.232300  0.330600  1.0  0.0415
  N  N1253  1  0.035990  0.166950  0.765810  1.0  -0.1822
  N  N1254  1  0.014030  0.267700  0.669400  1.0  0.0421
  N  N1255  1  0.464010  0.833050  0.265810  1.0  -0.182
  N  N1256  1  0.485970  0.732300  0.169400  1.0  0.0423
  N  N1257  1  0.734190  0.964010  0.666950  1.0  -0.1819
  N  N1258  1  0.830600  0.985970  0.767700  1.0  0.0406
  N  N1259  1  0.234190  0.535990  0.333050  1.0  -0.1817
  N  N1260  1  0.330600  0.514030  0.232300  1.0  0.0416
  N  N1261  1  0.765810  0.035990  0.166950  1.0  -0.1831
  N  N1262  1  0.669400  0.014030  0.267700  1.0  0.0388
  N  N1263  1  0.265810  0.464010  0.833050  1.0  -0.1829
  N  N1264  1  0.169400  0.485970  0.732300  1.0  0.0399
  N  N1265  1  0.666950  0.734190  0.964010  1.0  -0.1823
  N  N1266  1  0.767700  0.830600  0.985970  1.0  0.0415
  N  N1267  1  0.333050  0.234190  0.535990  1.0  -0.1818
  N  N1268  1  0.232300  0.330600  0.514030  1.0  0.0423
  N  N1269  1  0.166950  0.765810  0.035990  1.0  -0.1823
  N  N1270  1  0.267700  0.669400  0.014030  1.0  0.0414
  N  N1271  1  0.833050  0.265810  0.464010  1.0  -0.1826
  N  N1272  1  0.732300  0.169400  0.485970  1.0  0.0422
  N  N1273  1  0.035990  0.333050  0.265810  1.0  -0.1819
  N  N1274  1  0.014030  0.232300  0.169400  1.0  0.0421
  N  N1275  1  0.464010  0.666950  0.765810  1.0  -0.1825
  N  N1276  1  0.485970  0.767700  0.669400  1.0  0.0423
  N  N1277  1  0.964010  0.833050  0.234190  1.0  -0.1826
  N  N1278  1  0.985970  0.732300  0.330600  1.0  0.0418
  N  N1279  1  0.535990  0.166950  0.734190  1.0  -0.1827
  N  N1280  1  0.514030  0.267700  0.830600  1.0  0.0415
  N  N1281  1  0.265810  0.035990  0.333050  1.0  -0.1829
  N  N1282  1  0.169400  0.014030  0.232300  1.0  0.0398
  N  N1283  1  0.765810  0.464010  0.666950  1.0  -0.1832
  N  N1284  1  0.669400  0.485970  0.767700  1.0  0.0389
  N  N1285  1  0.234190  0.964010  0.833050  1.0  -0.1816
  N  N1286  1  0.330600  0.985970  0.732300  1.0  0.0417
  N  N1287  1  0.734190  0.535990  0.166950  1.0  -0.1818
  N  N1288  1  0.830600  0.514030  0.267700  1.0  0.0406
  N  N1289  1  0.333050  0.265810  0.035990  1.0  -0.1821
  N  N1290  1  0.232300  0.169400  0.014030  1.0  0.0423
  N  N1291  1  0.666950  0.765810  0.464010  1.0  -0.1829
  N  N1292  1  0.767700  0.669400  0.485970  1.0  0.0415
  N  N1293  1  0.833050  0.234190  0.964010  1.0  -0.182
  N  N1294  1  0.732300  0.330600  0.985970  1.0  0.0422
  N  N1295  1  0.166950  0.734190  0.535990  1.0  -0.1821
  N  N1296  1  0.267700  0.830600  0.514030  1.0  0.0415
  O  O1297  1  0.966320  0.518520  0.682250  1.0  -0.619
  O  O1298  1  0.965020  0.506390  0.740950  1.0  -0.5696
  O  O1299  1  0.962430  0.666820  0.574050  1.0  -0.6002
  O  O1300  1  0.960200  0.723030  0.582840  1.0  -0.5961
  O  O1301  1  0.961940  0.760520  0.986380  1.0  -0.598
  O  O1302  1  0.976320  0.814400  0.978960  1.0  -0.5801
  O  O1303  1  0.015820  0.921340  0.831310  1.0  -0.5977
  O  O1304  1  0.033740  0.912670  0.777830  1.0  -0.6113
  O  O1305  1  0.533680  0.481480  0.182250  1.0  -0.6184
  O  O1306  1  0.534980  0.493610  0.240950  1.0  -0.5687
  O  O1307  1  0.537570  0.333180  0.074050  1.0  -0.5992
  O  O1308  1  0.539800  0.276970  0.082840  1.0  -0.5969
  O  O1309  1  0.538060  0.239480  0.486380  1.0  -0.5982
  O  O1310  1  0.523680  0.185600  0.478960  1.0  -0.5825
  O  O1311  1  0.484180  0.078660  0.331310  1.0  -0.5976
  O  O1312  1  0.466260  0.087330  0.277830  1.0  -0.6109
  O  O1313  1  0.033680  0.018520  0.817750  1.0  -0.618
  O  O1314  1  0.034980  0.006390  0.759050  1.0  -0.5701
  O  O1315  1  0.037570  0.166820  0.925950  1.0  -0.6004
  O  O1316  1  0.039800  0.223030  0.917160  1.0  -0.5962
  O  O1317  1  0.038060  0.260520  0.513620  1.0  -0.5984
  O  O1318  1  0.023680  0.314400  0.521040  1.0  -0.5811
  O  O1319  1  0.984180  0.421340  0.668690  1.0  -0.5985
  O  O1320  1  0.966260  0.412670  0.722170  1.0  -0.6087
  O  O1321  1  0.466320  0.981480  0.317750  1.0  -0.6178
  O  O1322  1  0.465020  0.993610  0.259050  1.0  -0.5696
  O  O1323  1  0.462430  0.833180  0.425950  1.0  -0.5992
  O  O1324  1  0.460200  0.776970  0.417160  1.0  -0.5976
  O  O1325  1  0.461940  0.739480  0.013620  1.0  -0.5984
  O  O1326  1  0.476320  0.685600  0.021040  1.0  -0.5814
  O  O1327  1  0.515820  0.578660  0.168690  1.0  -0.5984
  O  O1328  1  0.533740  0.587330  0.222170  1.0  -0.6072
  O  O1329  1  0.682250  0.966320  0.518520  1.0  -0.6176
  O  O1330  1  0.740950  0.965020  0.506390  1.0  -0.568
  O  O1331  1  0.574050  0.962430  0.666820  1.0  -0.6004
  O  O1332  1  0.582840  0.960200  0.723030  1.0  -0.5968
  O  O1333  1  0.986380  0.961940  0.760520  1.0  -0.5992
  O  O1334  1  0.978960  0.976320  0.814400  1.0  -0.5817
  O  O1335  1  0.831310  0.015820  0.921340  1.0  -0.5988
  O  O1336  1  0.777830  0.033740  0.912670  1.0  -0.6049
  O  O1337  1  0.182250  0.533680  0.481480  1.0  -0.618
  O  O1338  1  0.240950  0.534980  0.493610  1.0  -0.5675
  O  O1339  1  0.074050  0.537570  0.333180  1.0  -0.6013
  O  O1340  1  0.082840  0.539800  0.276970  1.0  -0.5968
  O  O1341  1  0.486380  0.538060  0.239480  1.0  -0.5986
  O  O1342  1  0.478960  0.523680  0.185600  1.0  -0.5813
  O  O1343  1  0.331310  0.484180  0.078660  1.0  -0.5985
  O  O1344  1  0.277830  0.466260  0.087330  1.0  -0.6051
  O  O1345  1  0.817750  0.033680  0.018520  1.0  -0.6183
  O  O1346  1  0.759050  0.034980  0.006390  1.0  -0.5665
  O  O1347  1  0.925950  0.037570  0.166820  1.0  -0.6008
  O  O1348  1  0.917160  0.039800  0.223030  1.0  -0.5975
  O  O1349  1  0.513620  0.038060  0.260520  1.0  -0.5983
  O  O1350  1  0.521040  0.023680  0.314400  1.0  -0.5805
  O  O1351  1  0.668690  0.984180  0.421340  1.0  -0.5983
  O  O1352  1  0.722170  0.966260  0.412670  1.0  -0.6037
  O  O1353  1  0.317750  0.466320  0.981480  1.0  -0.6188
  O  O1354  1  0.259050  0.465020  0.993610  1.0  -0.566
  O  O1355  1  0.425950  0.462430  0.833180  1.0  -0.601
  O  O1356  1  0.417160  0.460200  0.776970  1.0  -0.5969
  O  O1357  1  0.013620  0.461940  0.739480  1.0  -0.5974
  O  O1358  1  0.021040  0.476320  0.685600  1.0  -0.5821
  O  O1359  1  0.168690  0.515820  0.578660  1.0  -0.5985
  O  O1360  1  0.222170  0.533740  0.587330  1.0  -0.603
  O  O1361  1  0.518520  0.682250  0.966320  1.0  -0.6207
  O  O1362  1  0.506390  0.740950  0.965020  1.0  -0.5699
  O  O1363  1  0.666820  0.574050  0.962430  1.0  -0.6005
  O  O1364  1  0.723030  0.582840  0.960200  1.0  -0.596
  O  O1365  1  0.760520  0.986380  0.961940  1.0  -0.5945
  O  O1366  1  0.814400  0.978960  0.976320  1.0  -0.5806
  O  O1367  1  0.921340  0.831310  0.015820  1.0  -0.597
  O  O1368  1  0.912670  0.777830  0.033740  1.0  -0.6062
  O  O1369  1  0.481480  0.182250  0.533680  1.0  -0.6201
  O  O1370  1  0.493610  0.240950  0.534980  1.0  -0.5702
  O  O1371  1  0.333180  0.074050  0.537570  1.0  -0.6001
  O  O1372  1  0.276970  0.082840  0.539800  1.0  -0.5972
  O  O1373  1  0.239480  0.486380  0.538060  1.0  -0.5956
  O  O1374  1  0.185600  0.478960  0.523680  1.0  -0.5804
  O  O1375  1  0.078660  0.331310  0.484180  1.0  -0.5969
  O  O1376  1  0.087330  0.277830  0.466260  1.0  -0.606
  O  O1377  1  0.018520  0.817750  0.033680  1.0  -0.6193
  O  O1378  1  0.006390  0.759050  0.034980  1.0  -0.5681
  O  O1379  1  0.166820  0.925950  0.037570  1.0  -0.6001
  O  O1380  1  0.223030  0.917160  0.039800  1.0  -0.5959
  O  O1381  1  0.260520  0.513620  0.038060  1.0  -0.5946
  O  O1382  1  0.314400  0.521040  0.023680  1.0  -0.5808
  O  O1383  1  0.421340  0.668690  0.984180  1.0  -0.5969
  O  O1384  1  0.412670  0.722170  0.966260  1.0  -0.6073
  O  O1385  1  0.981480  0.317750  0.466320  1.0  -0.6187
  O  O1386  1  0.993610  0.259050  0.465020  1.0  -0.5682
  O  O1387  1  0.833180  0.425950  0.462430  1.0  -0.6
  O  O1388  1  0.776970  0.417160  0.460200  1.0  -0.5971
  O  O1389  1  0.739480  0.013620  0.461940  1.0  -0.5952
  O  O1390  1  0.685600  0.021040  0.476320  1.0  -0.5801
  O  O1391  1  0.578660  0.168690  0.515820  1.0  -0.5978
  O  O1392  1  0.587330  0.222170  0.533740  1.0  -0.6061
  O  O1393  1  0.033680  0.481480  0.317750  1.0  -0.6175
  O  O1394  1  0.034980  0.493610  0.259050  1.0  -0.5697
  O  O1395  1  0.037570  0.333180  0.425950  1.0  -0.5994
  O  O1396  1  0.039800  0.276970  0.417160  1.0  -0.5972
  O  O1397  1  0.038060  0.239480  0.013620  1.0  -0.5979
  O  O1398  1  0.023680  0.185600  0.021040  1.0  -0.5824
  O  O1399  1  0.984180  0.078660  0.168690  1.0  -0.5987
  O  O1400  1  0.966260  0.087330  0.222170  1.0  -0.6084
  O  O1401  1  0.466320  0.518520  0.817750  1.0  -0.618
  O  O1402  1  0.465020  0.506390  0.759050  1.0  -0.5697
  O  O1403  1  0.462430  0.666820  0.925950  1.0  -0.6001
  O  O1404  1  0.460200  0.723030  0.917160  1.0  -0.5966
  O  O1405  1  0.461940  0.760520  0.513620  1.0  -0.5982
  O  O1406  1  0.476320  0.814400  0.521040  1.0  -0.5796
  O  O1407  1  0.515820  0.921340  0.668690  1.0  -0.5983
  O  O1408  1  0.533740  0.912670  0.722170  1.0  -0.6075
  O  O1409  1  0.966320  0.981480  0.182250  1.0  -0.6182
  O  O1410  1  0.965020  0.993610  0.240950  1.0  -0.5693
  O  O1411  1  0.962430  0.833180  0.074050  1.0  -0.599
  O  O1412  1  0.960200  0.776970  0.082840  1.0  -0.597
  O  O1413  1  0.961940  0.739480  0.486380  1.0  -0.5988
  O  O1414  1  0.976320  0.685600  0.478960  1.0  -0.5814
  O  O1415  1  0.015820  0.578660  0.331310  1.0  -0.598
  O  O1416  1  0.033740  0.587330  0.277830  1.0  -0.611
  O  O1417  1  0.533680  0.018520  0.682250  1.0  -0.6189
  O  O1418  1  0.534980  0.006390  0.740950  1.0  -0.5691
  O  O1419  1  0.537570  0.166820  0.574050  1.0  -0.6004
  O  O1420  1  0.539800  0.223030  0.582840  1.0  -0.5956
  O  O1421  1  0.538060  0.260520  0.986380  1.0  -0.598
  O  O1422  1  0.523680  0.314400  0.978960  1.0  -0.5816
  O  O1423  1  0.484180  0.421340  0.831310  1.0  -0.5972
  O  O1424  1  0.466260  0.412670  0.777830  1.0  -0.6107
  O  O1425  1  0.317750  0.033680  0.481480  1.0  -0.6188
  O  O1426  1  0.259050  0.034980  0.493610  1.0  -0.566
  O  O1427  1  0.425950  0.037570  0.333180  1.0  -0.6009
  O  O1428  1  0.417160  0.039800  0.276970  1.0  -0.597
  O  O1429  1  0.013620  0.038060  0.239480  1.0  -0.5976
  O  O1430  1  0.021040  0.023680  0.185600  1.0  -0.5819
  O  O1431  1  0.168690  0.984180  0.078660  1.0  -0.5981
  O  O1432  1  0.222170  0.966260  0.087330  1.0  -0.6032
  O  O1433  1  0.817750  0.466320  0.518520  1.0  -0.618
  O  O1434  1  0.759050  0.465020  0.506390  1.0  -0.5664
  O  O1435  1  0.925950  0.462430  0.666820  1.0  -0.6005
  O  O1436  1  0.917160  0.460200  0.723030  1.0  -0.5973
  O  O1437  1  0.513620  0.461940  0.760520  1.0  -0.5982
  O  O1438  1  0.521040  0.476320  0.814400  1.0  -0.581
  O  O1439  1  0.668690  0.515820  0.921340  1.0  -0.5981
  O  O1440  1  0.722170  0.533740  0.912670  1.0  -0.6032
  O  O1441  1  0.182250  0.966320  0.981480  1.0  -0.618
  O  O1442  1  0.240950  0.965020  0.993610  1.0  -0.5679
  O  O1443  1  0.074050  0.962430  0.833180  1.0  -0.6015
  O  O1444  1  0.082840  0.960200  0.776970  1.0  -0.5967
  O  O1445  1  0.486380  0.961940  0.739480  1.0  -0.5982
  O  O1446  1  0.478960  0.976320  0.685600  1.0  -0.5815
  O  O1447  1  0.331310  0.015820  0.578660  1.0  -0.599
  O  O1448  1  0.277830  0.033740  0.587330  1.0  -0.6052
  O  O1449  1  0.682250  0.533680  0.018520  1.0  -0.6176
  O  O1450  1  0.740950  0.534980  0.006390  1.0  -0.5674
  O  O1451  1  0.574050  0.537570  0.166820  1.0  -0.6004
  O  O1452  1  0.582840  0.539800  0.223030  1.0  -0.5967
  O  O1453  1  0.986380  0.538060  0.260520  1.0  -0.5996
  O  O1454  1  0.978960  0.523680  0.314400  1.0  -0.5811
  O  O1455  1  0.831310  0.484180  0.421340  1.0  -0.599
  O  O1456  1  0.777830  0.466260  0.412670  1.0  -0.6049
  O  O1457  1  0.481480  0.317750  0.033680  1.0  -0.6191
  O  O1458  1  0.493610  0.259050  0.034980  1.0  -0.5687
  O  O1459  1  0.333180  0.425950  0.037570  1.0  -0.5997
  O  O1460  1  0.276970  0.417160  0.039800  1.0  -0.5969
  O  O1461  1  0.239480  0.013620  0.038060  1.0  -0.5956
  O  O1462  1  0.185600  0.021040  0.023680  1.0  -0.5804
  O  O1463  1  0.078660  0.168690  0.984180  1.0  -0.5976
  O  O1464  1  0.087330  0.222170  0.966260  1.0  -0.6062
  O  O1465  1  0.518520  0.817750  0.466320  1.0  -0.6193
  O  O1466  1  0.506390  0.759050  0.465020  1.0  -0.568
  O  O1467  1  0.666820  0.925950  0.462430  1.0  -0.6003
  O  O1468  1  0.723030  0.917160  0.460200  1.0  -0.5961
  O  O1469  1  0.760520  0.513620  0.461940  1.0  -0.5946
  O  O1470  1  0.814400  0.521040  0.476320  1.0  -0.5806
  O  O1471  1  0.921340  0.668690  0.515820  1.0  -0.5977
  O  O1472  1  0.912670  0.722170  0.533740  1.0  -0.6069
  O  O1473  1  0.981480  0.182250  0.966320  1.0  -0.62
  O  O1474  1  0.993610  0.240950  0.965020  1.0  -0.5703
  O  O1475  1  0.833180  0.074050  0.962430  1.0  -0.6004
  O  O1476  1  0.776970  0.082840  0.960200  1.0  -0.5973
  O  O1477  1  0.739480  0.486380  0.961940  1.0  -0.5947
  O  O1478  1  0.685600  0.478960  0.976320  1.0  -0.5798
  O  O1479  1  0.578660  0.331310  0.015820  1.0  -0.5971
  O  O1480  1  0.587330  0.277830  0.033740  1.0  -0.6056
  O  O1481  1  0.018520  0.682250  0.533680  1.0  -0.621
  O  O1482  1  0.006390  0.740950  0.534980  1.0  -0.5696
  O  O1483  1  0.166820  0.574050  0.537570  1.0  -0.6002
  O  O1484  1  0.223030  0.582840  0.539800  1.0  -0.5957
  O  O1485  1  0.260520  0.986380  0.538060  1.0  -0.5951
  O  O1486  1  0.314400  0.978960  0.523680  1.0  -0.5811
  O  O1487  1  0.421340  0.831310  0.484180  1.0  -0.5972
  O  O1488  1  0.412670  0.777830  0.466260  1.0  -0.606
