# generated using pymatgen
data_Zn7GaP10H52C16N4O34F
_symmetry_space_group_name_H-M   'P 1'
_cell_length_a   37.23200000
_cell_length_b   37.23200000
_cell_length_c   37.23200000
_cell_angle_alpha   91.03810000
_cell_angle_beta   91.03810000
_cell_angle_gamma   164.52900000
_symmetry_Int_Tables_number   1
_chemical_formula_structural   Zn7GaP10H52C16N4O34F
_chemical_formula_sum   'Zn56 Ga8 P80 H416 C128 N32 O272 F8'
_cell_volume   13642.19665970
_cell_formula_units_Z   8
loop_
 _symmetry_equiv_pos_site_id
 _symmetry_equiv_pos_as_xyz
  1  'x, y, z'
loop_
 _atom_site_type_symbol
 _atom_site_label
 _atom_site_symmetry_multiplicity
 _atom_site_fract_x
 _atom_site_fract_y
 _atom_site_fract_z
 _atom_site_occupancy
 _atom_site_charge
  Zn  Zn1  1  0.452090  0.356730  0.970550  1.0  1.1752
  Zn  Zn2  1  0.538320  0.280450  0.975090  1.0  1.149
  Zn  Zn3  1  0.748320  0.409490  0.018190  1.0  1.1709
  Zn  Zn4  1  0.386130  0.481430  0.029460  1.0  1.1663
  Zn  Zn5  1  0.305480  0.563270  0.024930  1.0  1.1485
  Zn  Zn6  1  0.391330  0.730090  0.981820  1.0  1.1693
  Zn  Zn7  1  0.106770  0.636260  0.404710  1.0  1.1794
  Zn  Zn8  1  0.030500  0.555390  0.242170  1.0  1.1466
  Zn  Zn9  1  0.159410  0.641220  0.161240  1.0  1.1685
  Zn  Zn10  1  0.231470  0.702040  0.595310  1.0  1.1707
  Zn  Zn11  1  0.313220  0.788300  0.757820  1.0  1.1476
  Zn  Zn12  1  0.480120  0.998230  0.838770  1.0  1.1682
  Zn  Zn13  1  0.863760  0.393250  0.595310  1.0  1.1777
  Zn  Zn14  1  0.944650  0.469550  0.757840  1.0  1.1455
  Zn  Zn15  1  0.858740  0.340530  0.838800  1.0  1.1684
  Zn  Zn16  1  0.797980  0.268560  0.404710  1.0  1.1716
  Zn  Zn17  1  0.711750  0.186820  0.242180  1.0  1.1459
  Zn  Zn18  1  0.501770  0.019910  0.161200  1.0  1.1664
  Zn  Zn19  1  0.018550  0.113820  0.970540  1.0  1.1761
  Zn  Zn20  1  0.936820  0.194600  0.975110  1.0  1.1482
  Zn  Zn21  1  0.770020  0.108750  0.018160  1.0  1.174
  Zn  Zn22  1  0.143280  0.047920  0.029450  1.0  1.1687
  Zn  Zn23  1  0.219510  0.961660  0.024910  1.0  1.1486
  Zn  Zn24  1  0.090610  0.751820  0.981840  1.0  1.173
  Zn  Zn25  1  0.297940  0.893300  0.529460  1.0  1.1765
  Zn  Zn26  1  0.211660  0.969520  0.524910  1.0  1.1486
  Zn  Zn27  1  0.001800  0.840610  0.481830  1.0  1.1704
  Zn  Zn28  1  0.363870  0.768570  0.470560  1.0  1.1677
  Zn  Zn29  1  0.444470  0.686660  0.475080  1.0  1.1481
  Zn  Zn30  1  0.358730  0.519990  0.518140  1.0  1.1725
  Zn  Zn31  1  0.643240  0.613760  0.095290  1.0  1.1774
  Zn  Zn32  1  0.719500  0.694610  0.257830  1.0  1.1455
  Zn  Zn33  1  0.590480  0.608690  0.338780  1.0  1.1659
  Zn  Zn34  1  0.518520  0.547940  0.904690  1.0  1.1707
  Zn  Zn35  1  0.436800  0.461730  0.742170  1.0  1.1498
  Zn  Zn36  1  0.269870  0.251740  0.661200  1.0  1.1693
  Zn  Zn37  1  0.886250  0.856750  0.904700  1.0  1.1782
  Zn  Zn38  1  0.805340  0.780450  0.742160  1.0  1.146
  Zn  Zn39  1  0.891160  0.909360  0.661230  1.0  1.1646
  Zn  Zn40  1  0.952000  0.981420  0.095270  1.0  1.1696
  Zn  Zn41  1  0.038270  0.063180  0.257810  1.0  1.1458
  Zn  Zn42  1  0.248210  0.230090  0.338780  1.0  1.1703
  Zn  Zn43  1  0.731480  0.136210  0.529460  1.0  1.1758
  Zn  Zn44  1  0.813180  0.055400  0.524890  1.0  1.1489
  Zn  Zn45  1  0.980030  0.141280  0.481800  1.0  1.1715
  Zn  Zn46  1  0.606720  0.202100  0.470550  1.0  1.1667
  Zn  Zn47  1  0.530460  0.288330  0.475080  1.0  1.1486
  Zn  Zn48  1  0.659440  0.498260  0.518170  1.0  1.1724
  Zn  Zn49  1  0.836970  0.662940  0.000040  1.0  0.68
  Zn  Zn50  1  0.663260  0.837220  0.000100  1.0  0.6808
  Zn  Zn51  1  0.412930  0.912840  0.326020  1.0  0.6791
  Zn  Zn52  1  0.587200  0.087120  0.674010  1.0  0.679
  Zn  Zn53  1  0.913060  0.587090  0.499940  1.0  0.6794
  Zn  Zn54  1  0.086810  0.412840  0.499920  1.0  0.6812
  Zn  Zn55  1  0.337050  0.337110  0.173970  1.0  0.6784
  Zn  Zn56  1  0.162780  0.162870  0.825990  1.0  0.6796
  Ga  Ga57  1  0.771570  0.271530  0.043210  1.0  1.6809
  Ga  Ga58  1  0.228520  0.728490  0.956820  1.0  1.6828
  Ga  Ga59  1  0.021680  0.478410  0.000000  1.0  1.6819
  Ga  Ga60  1  0.478310  0.021490  0.999990  1.0  1.6805
  Ga  Ga61  1  0.978330  0.978380  0.456790  1.0  1.6827
  Ga  Ga62  1  0.521570  0.521580  0.543210  1.0  1.6825
  Ga  Ga63  1  0.728400  0.771650  0.499990  1.0  1.6804
  Ga  Ga64  1  0.271550  0.228360  0.500000  1.0  1.6792
  P  P65  1  0.741330  0.318950  0.007480  1.0  1.1029
  P  P66  1  0.570310  0.393280  0.951370  1.0  1.1041
  P  P67  1  0.153300  0.102930  0.960710  1.0  0.925
  P  P68  1  0.780450  0.471830  0.945200  1.0  1.1584
  P  P69  1  0.528870  0.242370  0.050310  1.0  1.1569
  P  P70  1  0.311490  0.733800  0.992520  1.0  1.095
  P  P71  1  0.441980  0.618930  0.048680  1.0  1.0975
  P  P72  1  0.142280  0.192570  0.039290  1.0  0.9203
  P  P73  1  0.526750  0.835290  0.054810  1.0  1.1597
  P  P74  1  0.192160  0.478600  0.949700  1.0  1.1647
  P  P75  1  0.069070  0.561550  0.077680  1.0  1.0791
  P  P76  1  0.143270  0.691890  0.323000  1.0  1.0857
  P  P77  1  0.852980  0.392320  0.449730  1.0  0.9412
  P  P78  1  0.221760  0.776560  0.191440  1.0  1.0698
  P  P79  1  0.992490  0.442140  0.213560  1.0  1.1037
  P  P80  1  0.483910  0.991350  0.922340  1.0  1.0539
  P  P81  1  0.368890  0.820220  0.676990  1.0  1.0608
  P  P82  1  0.942520  0.403260  0.550310  1.0  0.9555
  P  P83  1  0.585130  0.030280  0.808540  1.0  1.1149
  P  P84  1  0.228610  0.778910  0.786480  1.0  1.1215
  P  P85  1  0.938570  0.431050  0.922370  1.0  1.0631
  P  P86  1  0.808100  0.356710  0.677010  1.0  1.0575
  P  P87  1  0.107640  0.646990  0.550290  1.0  0.944
  P  P88  1  0.723390  0.278160  0.808580  1.0  1.0685
  P  P89  1  0.057950  0.507620  0.786480  1.0  1.1021
  P  P90  1  0.508790  0.016200  0.077640  1.0  1.0344
  P  P91  1  0.679830  0.131180  0.323030  1.0  1.0398
  P  P92  1  0.096780  0.557520  0.449710  1.0  0.9514
  P  P93  1  0.469640  0.914810  0.191440  1.0  1.1166
  P  P94  1  0.721180  0.271480  0.213510  1.0  1.1278
  P  P95  1  0.766210  0.188520  0.007530  1.0  1.0785
  P  P96  1  0.881210  0.058150  0.951400  1.0  1.084
  P  P97  1  0.307560  0.357840  0.960720  1.0  0.9193
  P  P98  1  0.664880  0.973390  0.945190  1.0  1.1613
  P  P99  1  0.021460  0.307890  0.050340  1.0  1.1612
  P  P100  1  0.181120  0.758770  0.992510  1.0  1.1013
  P  P101  1  0.106790  0.929760  0.048680  1.0  1.1024
  P  P102  1  0.397060  0.346700  0.039270  1.0  0.9284
  P  P103  1  0.028350  0.719750  0.054840  1.0  1.1572
  P  P104  1  0.257560  0.971070  0.949680  1.0  1.1406
  P  P105  1  0.008720  0.931060  0.492510  1.0  1.0999
  P  P106  1  0.179740  0.856760  0.548640  1.0  1.0912
  P  P107  1  0.596760  0.147120  0.539290  1.0  0.9181
  P  P108  1  0.969680  0.778280  0.554820  1.0  1.1572
  P  P109  1  0.221090  0.007570  0.449680  1.0  1.1405
  P  P110  1  0.438430  0.516140  0.507490  1.0  1.0801
  P  P111  1  0.308080  0.631130  0.451320  1.0  1.0848
  P  P112  1  0.607770  0.057470  0.460720  1.0  0.9263
  P  P113  1  0.223290  0.414750  0.445160  1.0  1.1624
  P  P114  1  0.557800  0.771380  0.550320  1.0  1.1607
  P  P115  1  0.680990  0.688520  0.422330  1.0  1.0347
  P  P116  1  0.606700  0.558080  0.176990  1.0  1.0396
  P  P117  1  0.896970  0.857620  0.050280  1.0  0.953
  P  P118  1  0.528170  0.473400  0.308570  1.0  1.0602
  P  P119  1  0.757530  0.807870  0.286460  1.0  1.1097
  P  P120  1  0.266090  0.258660  0.577620  1.0  1.062
  P  P121  1  0.381080  0.429750  0.823010  1.0  1.0685
  P  P122  1  0.807430  0.846700  0.949690  1.0  0.9408
  P  P123  1  0.164800  0.219630  0.691440  1.0  1.1269
  P  P124  1  0.521420  0.471120  0.713500  1.0  1.0965
  P  P125  1  0.811410  0.818920  0.577660  1.0  1.0572
  P  P126  1  0.941860  0.893230  0.822980  1.0  1.0609
  P  P127  1  0.642310  0.602970  0.949710  1.0  0.9506
  P  P128  1  0.026510  0.971720  0.691420  1.0  1.0581
  P  P129  1  0.692080  0.742420  0.713540  1.0  1.1031
  P  P130  1  0.241300  0.233870  0.422330  1.0  1.076
  P  P131  1  0.070130  0.118780  0.176960  1.0  1.0848
  P  P132  1  0.653160  0.692420  0.050280  1.0  0.9445
  P  P133  1  0.280280  0.335130  0.308530  1.0  1.1266
  P  P134  1  0.028870  0.978570  0.286470  1.0  1.1007
  P  P135  1  0.983800  0.061530  0.492500  1.0  1.0942
  P  P136  1  0.868850  0.191910  0.548600  1.0  1.1025
  P  P137  1  0.442500  0.892210  0.539290  1.0  0.9295
  P  P138  1  0.085170  0.276630  0.554780  1.0  1.1595
  P  P139  1  0.728500  0.942050  0.449670  1.0  1.1637
  P  P140  1  0.568950  0.491340  0.507490  1.0  1.1023
  P  P141  1  0.643280  0.320320  0.451320  1.0  1.1025
  P  P142  1  0.352970  0.903340  0.460720  1.0  0.9171
  P  P143  1  0.721810  0.530430  0.445200  1.0  1.1597
  P  P144  1  0.492390  0.278890  0.550310  1.0  1.1576
  H  H145  1  0.890530  0.662610  0.969190  1.0  0.3617
  H  H146  1  0.900330  0.769500  0.963760  1.0  0.4082
  H  H147  1  0.478310  0.422650  0.828890  1.0  0.1712
  H  H148  1  0.616480  0.540450  0.811080  1.0  0.1869
  H  H149  1  0.395430  0.000520  0.061110  1.0  0.1572
  H  H150  1  0.492230  0.130990  0.071880  1.0  0.1638
  H  H151  1  0.450670  0.333630  0.812790  1.0  0.1353
  H  H152  1  0.458560  0.349060  0.860950  1.0  0.1432
  H  H153  1  0.512880  0.113550  0.122890  1.0  0.127
  H  H154  1  0.330110  0.933990  0.119340  1.0  0.1403
  H  H155  1  0.316010  0.986610  0.131620  1.0  0.1345
  H  H156  1  0.498540  0.166100  0.134590  1.0  0.1306
  H  H157  1  0.538660  0.353780  0.820260  1.0  0.157
  H  H158  1  0.526830  0.348850  0.868010  1.0  0.1687
  H  H159  1  0.684340  0.485970  0.853500  1.0  0.1517
  H  H160  1  0.524820  0.149010  0.186610  1.0  0.1425
  H  H161  1  0.342500  0.969420  0.183490  1.0  0.1303
  H  H162  1  0.703610  0.562930  0.822160  1.0  0.1362
  H  H163  1  0.703430  0.568500  0.870380  1.0  0.1454
  H  H164  1  0.323930  0.017040  0.196990  1.0  0.1549
  H  H165  1  0.505440  0.197060  0.198920  1.0  0.1307
  H  H166  1  0.361240  0.009890  0.248690  1.0  0.1597
  H  H167  1  0.434350  0.124040  0.260550  1.0  0.168
  H  H168  1  0.542810  0.191640  0.251040  1.0  0.1445
  H  H169  1  0.698630  0.767600  0.143290  1.0  0.1696
  H  H170  1  0.896680  0.249430  0.930380  1.0  0.1864
  H  H171  1  0.693920  0.921830  0.030770  1.0  0.3598
  H  H172  1  0.806180  0.937110  0.036500  1.0  0.4076
  H  H173  1  0.594020  0.649930  0.171500  1.0  0.1699
  H  H174  1  0.729830  0.806170  0.189020  1.0  0.1889
  H  H175  1  0.939650  0.334500  0.938850  1.0  0.158
  H  H176  1  0.059320  0.420480  0.928090  1.0  0.1627
  H  H177  1  0.521410  0.638770  0.187410  1.0  0.1333
  H  H178  1  0.487780  0.597380  0.139300  1.0  0.1435
  H  H179  1  0.990900  0.390080  0.877050  1.0  0.127
  H  H180  1  0.814860  0.210900  0.880630  1.0  0.1412
  H  H181  1  0.854800  0.184120  0.868410  1.0  0.1339
  H  H182  1  0.031400  0.363650  0.865440  1.0  0.1302
  H  H183  1  0.534020  0.719170  0.179640  1.0  0.1563
  H  H184  1  0.480280  0.658350  0.131980  1.0  0.1702
  H  H185  1  0.632110  0.830600  0.146120  1.0  0.1511
  H  H186  1  0.962760  0.338290  0.813360  1.0  0.143
  H  H187  1  0.786190  0.159150  0.816480  1.0  0.1317
  H  H188  1  0.741030  0.881940  0.177560  1.0  0.1372
  H  H189  1  0.697340  0.832330  0.129410  1.0  0.1453
  H  H190  1  0.819410  0.126200  0.803040  1.0  0.1569
  H  H191  1  0.997680  0.305730  0.801180  1.0  0.1325
  H  H192  1  0.761590  0.112770  0.751270  1.0  0.1609
  H  H193  1  0.863370  0.173400  0.739500  1.0  0.1685
  H  H194  1  0.941140  0.291930  0.749000  1.0  0.1433
  H  H195  1  0.624670  0.555800  0.856860  1.0  0.1736
  H  H196  1  0.318910  0.966100  0.069630  1.0  0.1849
  H  H197  1  0.412580  0.943400  0.272180  1.0  0.3612
  H  H198  1  0.519470  0.055630  0.369250  1.0  0.4089
  H  H199  1  0.172910  0.844200  0.444130  1.0  0.1666
  H  H200  1  0.290750  0.979720  0.423670  1.0  0.1894
  H  H201  1  0.750620  0.189410  0.105010  1.0  0.1565
  H  H202  1  0.881060  0.309200  0.138720  1.0  0.1651
  H  H203  1  0.083820  0.771110  0.382730  1.0  0.1373
  H  H204  1  0.098780  0.737930  0.390410  1.0  0.1454
  H  H205  1  0.863620  0.240590  0.100860  1.0  0.1268
  H  H206  1  0.684030  0.064590  0.104060  1.0  0.1363
  H  H207  1  0.736550  0.105130  0.170830  1.0  0.134
  H  H208  1  0.916040  0.281640  0.167810  1.0  0.1316
  H  H209  1  0.103600  0.783220  0.314900  1.0  0.1566
  H  H210  1  0.098260  0.730170  0.321910  1.0  0.1699
  H  H211  1  0.235460  0.881720  0.301430  1.0  0.154
  H  H212  1  0.899360  0.212720  0.124720  1.0  0.1394
  H  H213  1  0.719740  0.036210  0.127400  1.0  0.1329
  H  H214  1  0.313020  0.990660  0.359030  1.0  0.1369
  H  H215  1  0.318040  0.947500  0.364900  1.0  0.1469
  H  H216  1  0.767050  0.070390  0.193650  1.0  0.1553
  H  H217  1  0.947120  0.248560  0.192230  1.0  0.1311
  H  H218  1  0.760410  0.011780  0.149540  1.0  0.1626
  H  H219  1  0.874710  0.114480  0.190610  1.0  0.1682
  H  H220  1  0.942100  0.191200  0.149660  1.0  0.1453
  H  H221  1  0.517210  0.874140  0.568950  1.0  0.1736
  H  H222  1  0.999550  0.569330  0.852940  1.0  0.1846
  H  H223  1  0.671630  0.140880  0.727950  1.0  0.3617
  H  H224  1  0.687150  0.150670  0.630990  1.0  0.4075
  H  H225  1  0.399530  0.728260  0.555860  1.0  0.1718
  H  H226  1  0.555900  0.867100  0.576180  1.0  0.1935
  H  H227  1  0.085180  0.646730  0.895020  1.0  0.1627
  H  H228  1  0.170520  0.742750  0.861170  1.0  0.1669
  H  H229  1  0.388910  0.701530  0.617300  1.0  0.1374
  H  H230  1  0.347280  0.708040  0.609670  1.0  0.144
  H  H231  1  0.139780  0.763160  0.899120  1.0  0.1272
  H  H232  1  0.960640  0.580370  0.895940  1.0  0.1398
  H  H233  1  0.934210  0.565900  0.829170  1.0  0.1323
  H  H234  1  0.113680  0.748420  0.832150  1.0  0.1291
  H  H235  1  0.469590  0.789850  0.685070  1.0  0.1564
  H  H236  1  0.408770  0.776710  0.678150  1.0  0.1693
  H  H237  1  0.581120  0.934870  0.698470  1.0  0.152
  H  H238  1  0.087680  0.774680  0.875210  1.0  0.144
  H  H239  1  0.908570  0.592370  0.872590  1.0  0.1365
  H  H240  1  0.632100  0.954620  0.640770  1.0  0.1365
  H  H241  1  0.582270  0.952950  0.634980  1.0  0.151
  H  H242  1  0.876190  0.573070  0.806320  1.0  0.1535
  H  H243  1  0.055680  0.754580  0.807710  1.0  0.1313
  H  H244  1  0.861400  0.610250  0.850440  1.0  0.1624
  H  H245  1  0.922510  0.683020  0.809310  1.0  0.1671
  H  H246  1  0.040530  0.791800  0.850210  1.0  0.1438
  H  H247  1  0.305840  0.949060  0.430940  1.0  0.1763
  H  H248  1  0.716130  0.146610  0.147140  1.0  0.1859
  H  H249  1  0.556650  0.087500  0.727870  1.0  0.3642
  H  H250  1  0.444380  0.980530  0.630770  1.0  0.4071
  H  H251  1  0.656190  0.327330  0.555790  1.0  0.1679
  H  H252  1  0.520570  0.209470  0.576180  1.0  0.1913
  H  H253  1  0.310620  0.749400  0.894990  1.0  0.1578
  H  H254  1  0.190780  0.618910  0.861290  1.0  0.1647
  H  H255  1  0.729070  0.416310  0.617180  1.0  0.1384
  H  H256  1  0.762040  0.401120  0.609610  1.0  0.1439
  H  H257  1  0.259430  0.636390  0.899160  1.0  0.1274
  H  H258  1  0.435410  0.815960  0.895950  1.0  0.1408
  H  H259  1  0.394840  0.763410  0.829180  1.0  0.1341
  H  H260  1  0.218360  0.583920  0.832220  1.0  0.1301
  H  H261  1  0.716610  0.396330  0.685020  1.0  0.1568
  H  H262  1  0.769340  0.401320  0.678110  1.0  0.1704
  H  H263  1  0.617740  0.264200  0.698520  1.0  0.155
  H  H264  1  0.287520  0.600850  0.875330  1.0  0.141
  H  H265  1  0.463970  0.780460  0.872600  1.0  0.1333
  H  H266  1  0.509290  0.187060  0.640830  1.0  0.1364
  H  H267  1  0.552120  0.181690  0.635060  1.0  0.1502
  H  H268  1  0.429560  0.732890  0.806350  1.0  0.1552
  H  H269  1  0.251480  0.552860  0.807840  1.0  0.1309
  H  H270  1  0.488630  0.740020  0.850470  1.0  0.1623
  H  H271  1  0.385840  0.625580  0.809430  1.0  0.1671
  H  H272  1  0.309300  0.558330  0.850410  1.0  0.1459
  H  H273  1  0.625620  0.982420  0.430950  1.0  0.1719
  H  H274  1  0.930640  0.500410  0.147080  1.0  0.1835
  H  H275  1  0.359100  0.828340  0.272070  1.0  0.3621
  H  H276  1  0.349460  0.812970  0.369080  1.0  0.4087
  H  H277  1  0.771290  0.099800  0.444030  1.0  0.1692
  H  H278  1  0.632380  0.943470  0.423590  1.0  0.1893
  H  H279  1  0.853400  0.414920  0.104990  1.0  0.1558
  H  H280  1  0.757240  0.329430  0.138820  1.0  0.1684
  H  H281  1  0.798080  0.110610  0.382550  1.0  0.1363
  H  H282  1  0.792190  0.152820  0.390350  1.0  0.1455
  H  H283  1  0.736830  0.360190  0.100890  1.0  0.1274
  H  H284  1  0.919600  0.539300  0.104070  1.0  0.1407
  H  H285  1  0.934100  0.565740  0.170850  1.0  0.1352
  H  H286  1  0.751580  0.386280  0.167870  1.0  0.1324
  H  H287  1  0.710050  0.030440  0.314790  1.0  0.1556
  H  H288  1  0.723990  0.092000  0.321860  1.0  0.1692
  H  H289  1  0.565560  0.919610  0.301430  1.0  0.1542
  H  H290  1  0.725350  0.412310  0.124820  1.0  0.1424
  H  H291  1  0.907670  0.591420  0.127430  1.0  0.1354
  H  H292  1  0.545030  0.867750  0.359020  1.0  0.1381
  H  H293  1  0.547420  0.918250  0.364950  1.0  0.149
  H  H294  1  0.926950  0.623800  0.193710  1.0  0.1556
  H  H295  1  0.745440  0.444320  0.192320  1.0  0.1317
  H  H296  1  0.889770  0.638590  0.149580  1.0  0.1622
  H  H297  1  0.817050  0.577520  0.190720  1.0  0.168
  H  H298  1  0.708230  0.459480  0.149830  1.0  0.1445
  H  H299  1  0.551140  0.194270  0.569000  1.0  0.1734
  H  H300  1  0.353350  0.783820  0.852850  1.0  0.1853
  H  H301  1  0.578700  0.806530  0.969230  1.0  0.3631
  H  H302  1  0.563450  0.694280  0.963810  1.0  0.4079
  H  H303  1  0.849910  0.905820  0.828420  1.0  0.1694
  H  H304  1  0.693730  0.770110  0.810910  1.0  0.1862
  H  H305  1  0.165520  0.560380  0.061180  1.0  0.1588
  H  H306  1  0.079650  0.440810  0.071930  1.0  0.1645
  H  H307  1  0.861290  0.978650  0.812590  1.0  0.1327
  H  H308  1  0.902580  0.012130  0.860690  1.0  0.1455
  H  H309  1  0.109990  0.509170  0.122980  1.0  0.1263
  H  H310  1  0.289200  0.685240  0.119410  1.0  0.1389
  H  H311  1  0.315970  0.645290  0.131630  1.0  0.1335
  H  H312  1  0.136430  0.468680  0.134570  1.0  0.1283
  H  H313  1  0.781100  0.966270  0.820450  1.0  0.156
  H  H314  1  0.841800  0.019820  0.868100  1.0  0.1694
  H  H315  1  0.669610  0.868100  0.853960  1.0  0.1513
  H  H316  1  0.161670  0.537200  0.186660  1.0  0.1433
  H  H317  1  0.340830  0.713800  0.183560  1.0  0.1339
  H  H318  1  0.618130  0.759090  0.822440  1.0  0.1391
  H  H319  1  0.667660  0.802630  0.870590  1.0  0.1456
  H  H320  1  0.373810  0.680620  0.196990  1.0  0.1546
  H  H321  1  0.194260  0.502300  0.198820  1.0  0.1323
  H  H322  1  0.387060  0.738250  0.248770  1.0  0.161
  H  H323  1  0.326400  0.636430  0.260520  1.0  0.1673
  H  H324  1  0.207890  0.558670  0.251000  1.0  0.1435
  H  H325  1  0.944180  0.875290  0.143100  1.0  0.1716
  H  H326  1  0.533970  0.181140  0.930380  1.0  0.1871
  H  H327  1  0.837260  0.609320  0.030790  1.0  0.3585
  H  H328  1  0.730440  0.599490  0.036380  1.0  0.408
  H  H329  1  0.077290  0.021610  0.171080  1.0  0.1716
  H  H330  1  0.959440  0.883400  0.188870  1.0  0.1892
  H  H331  1  0.499480  0.104540  0.938890  1.0  0.1585
  H  H332  1  0.369060  0.007810  0.928120  1.0  0.165
  H  H333  1  0.166260  0.049200  0.187200  1.0  0.135
  H  H334  1  0.150950  0.041430  0.139030  1.0  0.1403
  H  H335  1  0.386440  0.987110  0.877110  1.0  0.127
  H  H336  1  0.566040  0.169900  0.880650  1.0  0.1401
  H  H337  1  0.513410  0.184000  0.868370  1.0  0.1361
  H  H338  1  0.333940  0.001490  0.865410  1.0  0.1325
  H  H339  1  0.146120  0.961220  0.179740  1.0  0.1581
  H  H340  1  0.151130  0.973130  0.131990  1.0  0.169
  H  H341  1  0.013970  0.815580  0.146490  1.0  0.1514
  H  H342  1  0.350870  0.975070  0.813380  1.0  0.1406
  H  H343  1  0.530470  0.157380  0.816480  1.0  0.1324
  H  H344  1  0.936950  0.796260  0.177790  1.0  0.1357
  H  H345  1  0.931490  0.796540  0.129580  1.0  0.1463
  H  H346  1  0.482990  0.176070  0.803010  1.0  0.1536
  H  H347  1  0.302940  0.994570  0.801110  1.0  0.1302
  H  H348  1  0.489880  0.138520  0.751290  1.0  0.1595
  H  H349  1  0.375800  0.065500  0.739460  1.0  0.1679
  H  H350  1  0.308140  0.956990  0.748980  1.0  0.144
  H  H351  1  0.732230  0.801190  0.856630  1.0  0.1718
  H  H352  1  0.250710  0.603480  0.069630  1.0  0.1865
  H  H353  1  0.859550  0.587450  0.530800  1.0  0.361
  H  H354  1  0.849630  0.480480  0.536210  1.0  0.4112
  H  H355  1  0.271650  0.827320  0.671110  1.0  0.1717
  H  H356  1  0.133480  0.709530  0.688910  1.0  0.1875
  H  H357  1  0.354520  0.249450  0.438870  1.0  0.1591
  H  H358  1  0.257830  0.119060  0.428110  1.0  0.1635
  H  H359  1  0.299280  0.916330  0.687200  1.0  0.1362
  H  H360  1  0.291440  0.900940  0.639040  1.0  0.1399
  H  H361  1  0.237130  0.136460  0.377100  1.0  0.127
  H  H362  1  0.419900  0.316040  0.380640  1.0  0.1417
  H  H363  1  0.434010  0.263430  0.368360  1.0  0.134
  H  H364  1  0.251500  0.083950  0.365400  1.0  0.13
  H  H365  1  0.211320  0.896210  0.679710  1.0  0.1576
  H  H366  1  0.223160  0.901140  0.631970  1.0  0.1676
  H  H367  1  0.065640  0.764020  0.646460  1.0  0.1504
  H  H368  1  0.225110  0.100920  0.313370  1.0  0.1424
  H  H369  1  0.407410  0.280510  0.316480  1.0  0.1349
  H  H370  1  0.046360  0.687050  0.677810  1.0  0.1367
  H  H371  1  0.046560  0.681490  0.629600  1.0  0.1462
  H  H372  1  0.426080  0.233000  0.303000  1.0  0.1512
  H  H373  1  0.244590  0.052960  0.301090  1.0  0.1297
  H  H374  1  0.388580  0.239950  0.251290  1.0  0.1592
  H  H375  1  0.315540  0.125860  0.239440  1.0  0.1685
  H  H376  1  0.207030  0.058200  0.248970  1.0  0.1436
  H  H377  1  0.051360  0.482390  0.356700  1.0  0.1708
  H  H378  1  0.853400  0.000630  0.569630  1.0  0.1873
  H  H379  1  0.056130  0.328220  0.469230  1.0  0.3583
  H  H380  1  0.943810  0.312840  0.463500  1.0  0.4106
  H  H381  1  0.155940  0.600020  0.328470  1.0  0.1698
  H  H382  1  0.020140  0.443780  0.310970  1.0  0.1877
  H  H383  1  0.810330  0.915470  0.561180  1.0  0.1568
  H  H384  1  0.690720  0.829580  0.571940  1.0  0.1656
  H  H385  1  0.228580  0.611210  0.312590  1.0  0.1328
  H  H386  1  0.262230  0.652630  0.360690  1.0  0.1457
  H  H387  1  0.759110  0.859930  0.622980  1.0  0.1263
  H  H388  1  0.935160  0.039120  0.619410  1.0  0.1402
  H  H389  1  0.895260  0.065940  0.631630  1.0  0.1354
  H  H390  1  0.718630  0.886390  0.634560  1.0  0.1323
  H  H391  1  0.216030  0.530870  0.320390  1.0  0.1553
  H  H392  1  0.269780  0.591710  0.368040  1.0  0.1703
  H  H393  1  0.117960  0.419450  0.353920  1.0  0.152
  H  H394  1  0.787080  0.911570  0.686670  1.0  0.1416
  H  H395  1  0.963690  0.090720  0.683570  1.0  0.1347
  H  H396  1  0.008990  0.368060  0.322470  1.0  0.1381
  H  H397  1  0.052710  0.417720  0.370620  1.0  0.1476
  H  H398  1  0.930610  0.123810  0.696990  1.0  0.155
  H  H399  1  0.752270  0.944260  0.698810  1.0  0.1337
  H  H400  1  0.988150  0.136980  0.748780  1.0  0.1606
  H  H401  1  0.886340  0.076350  0.760520  1.0  0.1682
  H  H402  1  0.808550  0.957810  0.751000  1.0  0.1426
  H  H403  1  0.125300  0.694170  0.643140  1.0  0.1722
  H  H404  1  0.431160  0.284000  0.430380  1.0  0.1864
  H  H405  1  0.337370  0.306540  0.227840  1.0  0.365
  H  H406  1  0.230550  0.194370  0.130740  1.0  0.4111
  H  H407  1  0.577110  0.405840  0.055860  1.0  0.1666
  H  H408  1  0.459280  0.270320  0.076320  1.0  0.1892
  H  H409  1  0.999380  0.060580  0.394980  1.0  0.1577
  H  H410  1  0.868900  0.940760  0.361270  1.0  0.1675
  H  H411  1  0.666190  0.478900  0.117260  1.0  0.137
  H  H412  1  0.651240  0.512080  0.109600  1.0  0.146
  H  H413  1  0.886380  0.009400  0.399140  1.0  0.1267
  H  H414  1  0.065970  0.185390  0.395930  1.0  0.1387
  H  H415  1  0.013440  0.144840  0.329170  1.0  0.134
  H  H416  1  0.833950  0.968340  0.332180  1.0  0.1289
  H  H417  1  0.646400  0.466760  0.185090  1.0  0.1575
  H  H418  1  0.651760  0.519820  0.178090  1.0  0.1704
  H  H419  1  0.514560  0.368270  0.198570  1.0  0.1547
  H  H420  1  0.850740  0.037370  0.375280  1.0  0.1405
  H  H421  1  0.030360  0.213860  0.372580  1.0  0.1339
  H  H422  1  0.436990  0.259340  0.140960  1.0  0.1367
  H  H423  1  0.431970  0.302500  0.135100  1.0  0.149
  H  H424  1  0.982970  0.179620  0.306340  1.0  0.1548
  H  H425  1  0.802900  0.001480  0.307780  1.0  0.1292
  H  H426  1  0.989790  0.238400  0.350450  1.0  0.1622
  H  H427  1  0.875460  0.135690  0.309390  1.0  0.1666
  H  H428  1  0.808110  0.059030  0.350340  1.0  0.1458
  H  H429  1  0.232830  0.375880  0.931050  1.0  0.1737
  H  H430  1  0.750400  0.680600  0.647070  1.0  0.1823
  H  H431  1  0.078270  0.109060  0.772030  1.0  0.3615
  H  H432  1  0.062910  0.099390  0.869050  1.0  0.4115
  H  H433  1  0.350550  0.521790  0.944160  1.0  0.1711
  H  H434  1  0.194180  0.382980  0.923850  1.0  0.1919
  H  H435  1  0.664850  0.603300  0.604990  1.0  0.1575
  H  H436  1  0.579420  0.507190  0.638830  1.0  0.1685
  H  H437  1  0.361140  0.548510  0.882720  1.0  0.1379
  H  H438  1  0.402690  0.541920  0.890320  1.0  0.1441
  H  H439  1  0.610190  0.486790  0.600890  1.0  0.1273
  H  H440  1  0.789300  0.669570  0.604070  1.0  0.1407
  H  H441  1  0.815760  0.684080  0.670840  1.0  0.1334
  H  H442  1  0.636280  0.501540  0.667860  1.0  0.1322
  H  H443  1  0.280330  0.460100  0.814940  1.0  0.1565
  H  H444  1  0.341130  0.473210  0.821840  1.0  0.1701
  H  H445  1  0.168770  0.315060  0.801530  1.0  0.1539
  H  H446  1  0.662380  0.475380  0.624810  1.0  0.1424
  H  H447  1  0.841470  0.657690  0.627430  1.0  0.1375
  H  H448  1  0.117890  0.295410  0.859250  1.0  0.1371
  H  H449  1  0.167630  0.296980  0.865020  1.0  0.1511
  H  H450  1  0.873790  0.676910  0.693710  1.0  0.1543
  H  H451  1  0.694310  0.495390  0.692300  1.0  0.1314
  H  H452  1  0.888710  0.639850  0.649580  1.0  0.1624
  H  H453  1  0.827590  0.567080  0.690710  1.0  0.1673
  H  H454  1  0.709590  0.458290  0.649810  1.0  0.1452
  H  H455  1  0.444180  0.300970  0.069060  1.0  0.1723
  H  H456  1  0.033790  0.103300  0.352830  1.0  0.1828
  H  H457  1  0.193330  0.162500  0.772140  1.0  0.3626
  H  H458  1  0.305660  0.269500  0.869210  1.0  0.4043
  H  H459  1  0.093860  0.922700  0.944190  1.0  0.1678
  H  H460  1  0.229470  0.040560  0.923790  1.0  0.1895
  H  H461  1  0.439360  0.500590  0.605000  1.0  0.1542
  H  H462  1  0.559140  0.631010  0.638710  1.0  0.1629
  H  H463  1  0.020920  0.833680  0.882810  1.0  0.1374
  H  H464  1  0.987970  0.848890  0.890390  1.0  0.1441
  H  H465  1  0.490520  0.613550  0.600840  1.0  0.1274
  H  H466  1  0.314530  0.433980  0.604040  1.0  0.1408
  H  H467  1  0.355070  0.486510  0.670810  1.0  0.1334
  H  H468  1  0.531580  0.666000  0.667780  1.0  0.1313
  H  H469  1  0.033310  0.853620  0.814980  1.0  0.1575
  H  H470  1  0.980590  0.848640  0.821910  1.0  0.1692
  H  H471  1  0.132180  0.985750  0.801480  1.0  0.1545
  H  H472  1  0.462560  0.649210  0.624670  1.0  0.14
  H  H473  1  0.286080  0.469610  0.627380  1.0  0.1351
  H  H474  1  0.240680  0.062930  0.859150  1.0  0.1352
  H  H475  1  0.197840  0.068280  0.864940  1.0  0.1502
  H  H476  1  0.320410  0.517090  0.693630  1.0  0.155
  H  H477  1  0.498520  0.697120  0.692160  1.0  0.1319
  H  H478  1  0.261470  0.510090  0.649520  1.0  0.1627
  H  H479  1  0.364290  0.624540  0.690570  1.0  0.1683
  H  H480  1  0.440830  0.691780  0.649590  1.0  0.1457
  H  H481  1  0.124410  0.267610  0.069050  1.0  0.1742
  H  H482  1  0.819300  0.749530  0.352930  1.0  0.1826
  H  H483  1  0.390820  0.421560  0.227910  1.0  0.3617
  H  H484  1  0.400550  0.437010  0.130940  1.0  0.4053
  H  H485  1  0.978750  0.150250  0.055980  1.0  0.1684
  H  H486  1  0.117670  0.306590  0.076430  1.0  0.1902
  H  H487  1  0.896620  0.835100  0.395020  1.0  0.1639
  H  H488  1  0.992690  0.920510  0.361180  1.0  0.1676
  H  H489  1  0.951940  0.139400  0.117460  1.0  0.1376
  H  H490  1  0.957850  0.097220  0.109650  1.0  0.1449
  H  H491  1  0.013160  0.889800  0.399110  1.0  0.1268
  H  H492  1  0.830380  0.710670  0.395940  1.0  0.1406
  H  H493  1  0.815880  0.684220  0.329160  1.0  0.1328
  H  H494  1  0.998390  0.863690  0.332140  1.0  0.1308
  H  H495  1  0.039960  0.219560  0.185220  1.0  0.1538
  H  H496  1  0.026050  0.158030  0.178140  1.0  0.1701
  H  H497  1  0.184470  0.330410  0.198570  1.0  0.1524
  H  H498  1  0.024730  0.837770  0.375190  1.0  0.1427
  H  H499  1  0.842430  0.658650  0.372580  1.0  0.137
  H  H500  1  0.204990  0.382270  0.140990  1.0  0.1382
  H  H501  1  0.202620  0.331780  0.135050  1.0  0.1469
  H  H502  1  0.823070  0.626200  0.306310  1.0  0.1553
  H  H503  1  0.004560  0.805690  0.307680  1.0  0.1308
  H  H504  1  0.860390  0.611560  0.350430  1.0  0.1629
  H  H505  1  0.933130  0.672650  0.309300  1.0  0.1665
  H  H506  1  0.041930  0.790690  0.350190  1.0  0.1449
  H  H507  1  0.198900  0.055750  0.930990  1.0  0.1743
  H  H508  1  0.396550  0.466090  0.647140  1.0  0.1844
  H  H509  1  0.171440  0.443600  0.530790  1.0  0.3606
  H  H510  1  0.186550  0.555710  0.536200  1.0  0.4061
  H  H511  1  0.900040  0.344140  0.671560  1.0  0.1701
  H  H512  1  0.056220  0.479850  0.689090  1.0  0.1875
  H  H513  1  0.584410  0.689550  0.438830  1.0  0.1578
  H  H514  1  0.670380  0.809210  0.428070  1.0  0.1638
  H  H515  1  0.888700  0.271350  0.687420  1.0  0.1333
  H  H516  1  0.847410  0.237850  0.639310  1.0  0.1438
  H  H517  1  0.640020  0.740840  0.377020  1.0  0.126
  H  H518  1  0.460820  0.564780  0.380600  1.0  0.1377
  H  H519  1  0.434070  0.604760  0.368380  1.0  0.1337
  H  H520  1  0.613610  0.781360  0.365430  1.0  0.1312
  H  H521  1  0.968940  0.283780  0.679580  1.0  0.1569
  H  H522  1  0.908230  0.230200  0.631920  1.0  0.1695
  H  H523  1  0.080420  0.381940  0.646070  1.0  0.1517
  H  H524  1  0.588280  0.712760  0.313340  1.0  0.1416
  H  H525  1  0.409130  0.536180  0.316440  1.0  0.1313
  H  H526  1  0.131860  0.490920  0.677570  1.0  0.1384
  H  H527  1  0.082350  0.447380  0.629430  1.0  0.1445
  H  H528  1  0.376210  0.569430  0.303020  1.0  0.1552
  H  H529  1  0.555750  0.747720  0.301180  1.0  0.1331
  H  H530  1  0.362840  0.511680  0.251240  1.0  0.1618
  H  H531  1  0.423500  0.613490  0.239480  1.0  0.1669
  H  H532  1  0.542010  0.691240  0.248990  1.0  0.1425
  H  H533  1  0.805820  0.374710  0.356920  1.0  0.1728
  H  H534  1  0.216110  0.068930  0.569610  1.0  0.188
  H  H535  1  0.912760  0.640710  0.469200  1.0  0.3607
  H  H536  1  0.019570  0.650490  0.463610  1.0  0.4047
  H  H537  1  0.672710  0.228370  0.328950  1.0  0.1706
  H  H538  1  0.790550  0.366560  0.311140  1.0  0.1879
  H  H539  1  0.250500  0.145420  0.561100  1.0  0.1588
  H  H540  1  0.381010  0.242270  0.571870  1.0  0.1643
  H  H541  1  0.583750  0.200790  0.312800  1.0  0.1359
  H  H542  1  0.599040  0.208560  0.360960  1.0  0.1432
  H  H543  1  0.363550  0.262880  0.622880  1.0  0.1273
  H  H544  1  0.183990  0.080130  0.619330  1.0  0.1401
  H  H545  1  0.236600  0.066010  0.631600  1.0  0.1347
  H  H546  1  0.416090  0.248540  0.634570  1.0  0.1292
  H  H547  1  0.603900  0.288780  0.320230  1.0  0.1568
  H  H548  1  0.598870  0.276870  0.367980  1.0  0.1694
  H  H549  1  0.736030  0.434420  0.353480  1.0  0.1511
  H  H550  1  0.399000  0.274810  0.686600  1.0  0.1432
  H  H551  1  0.219410  0.092490  0.683470  1.0  0.1329
  H  H552  1  0.813060  0.453730  0.322200  1.0  0.1355
  H  H553  1  0.818500  0.453450  0.370410  1.0  0.1452
  H  H554  1  0.267010  0.073910  0.696960  1.0  0.1527
  H  H555  1  0.447040  0.255410  0.698900  1.0  0.13
  H  H556  1  0.259880  0.111230  0.748680  1.0  0.1604
  H  H557  1  0.374000  0.184310  0.760530  1.0  0.1676
  H  H558  1  0.441630  0.292790  0.751030  1.0  0.1439
  H  H559  1  0.017740  0.448780  0.643360  1.0  0.1705
  H  H560  1  0.499350  0.646590  0.430370  1.0  0.1862
  C  C561  1  0.518070  0.407380  0.837680  1.0  0.0846
  C  C562  1  0.415950  0.034690  0.115100  1.0  0.1057
  C  C563  1  0.413420  0.066030  0.139110  1.0  -0.1024
  C  C564  1  0.594190  0.416490  0.846700  1.0  -0.2472
  C  C565  1  0.427240  0.069350  0.179180  1.0  -0.1196
  C  C566  1  0.640160  0.499680  0.844500  1.0  -0.1285
  C  C567  1  0.423220  0.098910  0.203580  1.0  -0.1265
  C  C568  1  0.441600  0.106540  0.243450  1.0  -0.2394
  C  C569  1  0.569770  0.680650  0.162460  1.0  0.0847
  C  C570  1  0.919770  0.300920  0.884870  1.0  0.1027
  C  C571  1  0.926900  0.274150  0.860900  1.0  -0.103
  C  C572  1  0.569640  0.747510  0.153150  1.0  -0.2497
  C  C573  1  0.890290  0.247990  0.820820  1.0  -0.1222
  C  C574  1  0.655010  0.795650  0.155360  1.0  -0.1377
  C  C575  1  0.895090  0.219170  0.796470  1.0  -0.1175
  C  C576  1  0.863260  0.198050  0.756570  1.0  -0.2403
  C  C577  1  0.157350  0.819720  0.389130  1.0  0.0844
  C  C578  1  0.784730  0.169590  0.118900  1.0  0.1016
  C  C579  1  0.816040  0.177040  0.152880  1.0  -0.1036
  C  C580  1  0.166110  0.819270  0.322110  1.0  -0.2467
  C  C581  1  0.819570  0.140450  0.142580  1.0  -0.1219
  C  C582  1  0.249480  0.904860  0.359310  1.0  -0.1337
  C  C583  1  0.849090  0.145770  0.176300  1.0  -0.1255
  C  C584  1  0.857020  0.113760  0.165770  1.0  -0.2409
  C  C585  1  0.430620  0.768240  0.610860  1.0  0.0807
  C  C586  1  0.050780  0.666240  0.881080  1.0  0.1031
  C  C587  1  0.024050  0.663350  0.847100  1.0  -0.1048
  C  C588  1  0.497890  0.844680  0.677850  1.0  -0.2471
  C  C589  1  0.997550  0.676980  0.857380  1.0  -0.124
  C  C590  1  0.545760  0.890450  0.640590  1.0  -0.1305
  C  C591  1  0.968840  0.672450  0.823650  1.0  -0.1247
  C  C592  1  0.947010  0.690560  0.834160  1.0  -0.2406
  C  C593  1  0.680340  0.342670  0.610810  1.0  0.0824
  C  C594  1  0.330410  0.715260  0.881110  1.0  0.1027
  C  C595  1  0.322970  0.683960  0.847140  1.0  -0.1041
  C  C596  1  0.680380  0.333650  0.677840  1.0  -0.2468
  C  C597  1  0.359690  0.680560  0.857450  1.0  -0.1182
  C  C598  1  0.594960  0.250420  0.640620  1.0  -0.1385
  C  C599  1  0.354340  0.650980  0.823730  1.0  -0.125
  C  C600  1  0.386580  0.643300  0.834270  1.0  -0.2422
  C  C601  1  0.731650  0.069200  0.389050  1.0  0.0825
  C  C602  1  0.833740  0.449170  0.118930  1.0  0.1016
  C  C603  1  0.836640  0.475910  0.152920  1.0  -0.1041
  C  C604  1  0.655600  0.002540  0.322060  1.0  -0.2477
  C  C605  1  0.823050  0.502440  0.142640  1.0  -0.1184
  C  C606  1  0.609590  0.954410  0.359290  1.0  -0.1305
  C  C607  1  0.827580  0.531170  0.176380  1.0  -0.1253
  C  C608  1  0.809480  0.553000  0.165870  1.0  -0.2401
  C  C609  1  0.819340  0.930210  0.837520  1.0  0.0835
  C  C610  1  0.199180  0.580330  0.115160  1.0  0.1057
  C  C611  1  0.225930  0.573180  0.139130  1.0  -0.1028
  C  C612  1  0.752670  0.930530  0.846920  1.0  -0.249
  C  C613  1  0.252000  0.609710  0.179210  1.0  -0.1148
  C  C614  1  0.704400  0.845050  0.844650  1.0  -0.1308
  C  C615  1  0.280790  0.604880  0.203550  1.0  -0.1214
  C  C616  1  0.301800  0.636590  0.243450  1.0  -0.2395
  C  C617  1  0.092560  0.981860  0.162300  1.0  0.0829
  C  C618  1  0.465330  0.084060  0.884900  1.0  0.1053
  C  C619  1  0.433990  0.086580  0.860880  1.0  -0.1155
  C  C620  1  0.083450  0.905730  0.153290  1.0  -0.2483
  C  C621  1  0.430590  0.072680  0.820820  1.0  -0.1147
  C  C622  1  0.000260  0.859760  0.155470  1.0  -0.1298
  C  C623  1  0.401040  0.076730  0.796430  1.0  -0.1227
  C  C624  1  0.393280  0.058230  0.756560  1.0  -0.2409
  C  C625  1  0.231910  0.842590  0.662310  1.0  0.0831
  C  C626  1  0.334070  0.215330  0.384890  1.0  0.1063
  C  C627  1  0.336600  0.184000  0.360880  1.0  -0.1028
  C  C628  1  0.155790  0.833500  0.653270  1.0  -0.2484
  C  C629  1  0.322720  0.180620  0.320810  1.0  -0.1205
  C  C630  1  0.109820  0.750310  0.655480  1.0  -0.1302
  C  C631  1  0.326750  0.151070  0.296420  1.0  -0.1251
  C  C632  1  0.308270  0.143330  0.256550  1.0  -0.2404
  C  C633  1  0.180230  0.569340  0.337540  1.0  0.0836
  C  C634  1  0.830250  0.949110  0.615160  1.0  0.1035
  C  C635  1  0.823130  0.975880  0.639130  1.0  -0.1145
  C  C636  1  0.180410  0.502530  0.346880  1.0  -0.2595
  C  C637  1  0.859620  0.001930  0.679210  1.0  -0.121
  C  C638  1  0.095020  0.454370  0.344660  1.0  -0.1306
  C  C639  1  0.854820  0.030760  0.703550  1.0  -0.1207
  C  C640  1  0.886490  0.051730  0.743440  1.0  -0.24
  C  C641  1  0.592660  0.430300  0.110860  1.0  0.0812
  C  C642  1  0.965250  0.080380  0.381090  1.0  0.1009
  C  C643  1  0.933950  0.072940  0.347120  1.0  -0.1072
  C  C644  1  0.583900  0.430720  0.177890  1.0  -0.2461
  C  C645  1  0.930500  0.109610  0.357410  1.0  -0.1169
  C  C646  1  0.500530  0.345140  0.140690  1.0  -0.1316
  C  C647  1  0.900980  0.104300  0.323700  1.0  -0.1258
  C  C648  1  0.893150  0.136410  0.334230  1.0  -0.2403
  C  C649  1  0.319380  0.481760  0.889150  1.0  0.0808
  C  C650  1  0.699180  0.583710  0.618920  1.0  0.1021
  C  C651  1  0.725930  0.586620  0.652910  1.0  -0.1135
  C  C652  1  0.252020  0.405270  0.822150  1.0  -0.249
  C  C653  1  0.752480  0.573060  0.642640  1.0  -0.1233
  C  C654  1  0.204200  0.359530  0.859420  1.0  -0.1291
  C  C655  1  0.781190  0.577560  0.676370  1.0  -0.1255
  C  C656  1  0.803080  0.559520  0.665860  1.0  -0.2418
  C  C657  1  0.069660  0.907330  0.889180  1.0  0.0828
  C  C658  1  0.419520  0.534680  0.618880  1.0  0.1016
  C  C659  1  0.426960  0.565980  0.652850  1.0  -0.1129
  C  C660  1  0.069560  0.916310  0.822160  1.0  -0.2456
  C  C661  1  0.390340  0.569460  0.642540  1.0  -0.1189
  C  C662  1  0.155010  0.999560  0.859370  1.0  -0.1402
  C  C663  1  0.395680  0.599030  0.676260  1.0  -0.1253
  C  C664  1  0.363520  0.606800  0.665730  1.0  -0.2409
  C  C665  1  0.018390  0.180830  0.110960  1.0  0.0814
  C  C666  1  0.916220  0.800790  0.381080  1.0  0.1033
  C  C667  1  0.913340  0.774070  0.347090  1.0  -0.1033
  C  C668  1  0.094430  0.247470  0.177940  1.0  -0.2473
  C  C669  1  0.927010  0.747620  0.357370  1.0  -0.12
  C  C670  1  0.140440  0.295620  0.140710  1.0  -0.1294
  C  C671  1  0.922470  0.718880  0.323630  1.0  -0.1246
  C  C672  1  0.940670  0.697150  0.334140  1.0  -0.24
  C  C673  1  0.930650  0.319780  0.662480  1.0  0.084
  C  C674  1  0.550830  0.669690  0.384850  1.0  0.1029
  C  C675  1  0.524090  0.676840  0.360880  1.0  -0.106
  C  C676  1  0.997360  0.319500  0.653100  1.0  -0.2481
  C  C677  1  0.497970  0.640280  0.320790  1.0  -0.1208
  C  C678  1  0.045600  0.404960  0.655360  1.0  -0.1362
  C  C679  1  0.469200  0.645130  0.296450  1.0  -0.1249
  C  C680  1  0.448130  0.613360  0.256550  1.0  -0.241
  C  C681  1  0.657440  0.268130  0.337700  1.0  0.0841
  C  C682  1  0.284690  0.165960  0.615090  1.0  0.1036
  C  C683  1  0.316010  0.163410  0.639090  1.0  -0.1034
  C  C684  1  0.666550  0.344270  0.346680  1.0  -0.2499
  C  C685  1  0.319340  0.177230  0.679160  1.0  -0.1221
  C  C686  1  0.749740  0.390230  0.344520  1.0  -0.1375
  C  C687  1  0.348900  0.173210  0.703560  1.0  -0.1239
  C  C688  1  0.356520  0.191580  0.743430  1.0  -0.2389
  N  N689  1  0.563060  0.487620  0.833400  1.0  -0.3591
  N  N690  1  0.404860  0.033160  0.076840  1.0  -0.3989
  N  N691  1  0.654340  0.730000  0.166790  1.0  -0.3597
  N  N692  1  0.956530  0.328150  0.923130  1.0  -0.3972
  N  N693  1  0.237780  0.904460  0.424330  1.0  -0.3585
  N  N694  1  0.783220  0.206370  0.128290  1.0  -0.4006
  N  N695  1  0.479710  0.813110  0.575590  1.0  -0.3581
  N  N696  1  0.078340  0.655510  0.871710  1.0  -0.4017
  N  N697  1  0.595780  0.262380  0.575580  1.0  -0.3583
  N  N698  1  0.293610  0.716750  0.871720  1.0  -0.403
  N  N699  1  0.686540  0.019810  0.424270  1.0  -0.3565
  N  N700  1  0.844500  0.421640  0.128300  1.0  -0.401
  N  N701  1  0.769880  0.845550  0.833140  1.0  -0.3581
  N  N702  1  0.171960  0.543590  0.076890  1.0  -0.3994
  N  N703  1  0.012320  0.936860  0.166560  1.0  -0.3591
  N  N704  1  0.466880  0.095160  0.923160  1.0  -0.3975
  N  N705  1  0.186900  0.762350  0.666590  1.0  -0.3585
  N  N706  1  0.345160  0.216880  0.423150  1.0  -0.3976
  N  N707  1  0.095640  0.519970  0.333200  1.0  -0.3599
  N  N708  1  0.793510  0.921880  0.576890  1.0  -0.3985
  N  N709  1  0.512240  0.345570  0.075660  1.0  -0.3584
  N  N710  1  0.966740  0.043580  0.371700  1.0  -0.4021
  N  N711  1  0.270350  0.436930  0.924420  1.0  -0.3588
  N  N712  1  0.671620  0.594440  0.628300  1.0  -0.4
  N  N713  1  0.154250  0.987640  0.924410  1.0  -0.3578
  N  N714  1  0.456310  0.533170  0.628280  1.0  -0.4039
  N  N715  1  0.063500  0.230240  0.075740  1.0  -0.3583
  N  N716  1  0.905440  0.828300  0.371710  1.0  -0.4006
  N  N717  1  0.980080  0.404430  0.666850  1.0  -0.3589
  N  N718  1  0.578060  0.706430  0.423110  1.0  -0.3938
  N  N719  1  0.737680  0.313130  0.333460  1.0  -0.3596
  N  N720  1  0.283170  0.154880  0.576830  1.0  -0.399
  O  O721  1  0.808430  0.354770  0.037780  1.0  -0.8012
  O  O722  1  0.583660  0.161750  0.014840  1.0  -0.7879
  O  O723  1  0.772460  0.384990  0.033910  1.0  -0.7573
  O  O724  1  0.458960  0.312560  0.967040  1.0  -0.7905
  O  O725  1  0.663320  0.478620  0.990210  1.0  -0.7696
  O  O726  1  0.485640  0.274090  0.954130  1.0  -0.745
  O  O727  1  0.283690  0.208010  0.947460  1.0  -0.759
  O  O728  1  0.101620  0.018180  0.980760  1.0  -0.7847
  O  O729  1  0.057440  0.003450  0.921700  1.0  -0.759
  O  O730  1  0.771220  0.429180  0.971420  1.0  -0.7488
  O  O731  1  0.721140  0.444370  0.972190  1.0  -0.7986
  O  O732  1  0.942280  0.635390  0.958740  1.0  -0.7844
  O  O733  1  0.516620  0.263590  0.022220  1.0  -0.7608
  O  O734  1  0.366660  0.076190  0.044160  1.0  -0.7806
  O  O735  1  0.877400  0.675050  0.961100  1.0  -0.5142
  O  O736  1  0.810680  0.676600  0.970700  1.0  -0.5236
  O  O737  1  0.571440  0.253460  0.021220  1.0  -0.7753
  O  O738  1  0.317120  0.770730  0.962230  1.0  -0.8033
  O  O739  1  0.146950  0.568810  0.985170  1.0  -0.7892
  O  O740  1  0.351190  0.738590  0.966080  1.0  -0.7558
  O  O741  1  0.345610  0.491950  0.032950  1.0  -0.7905
  O  O742  1  0.488710  0.673350  0.009870  1.0  -0.7675
  O  O743  1  0.320040  0.531510  0.045890  1.0  -0.7432
  O  O744  1  0.260400  0.336070  0.052530  1.0  -0.7581
  O  O745  1  0.037360  0.120700  0.019220  1.0  -0.7805
  O  O746  1  0.081730  0.135650  0.078290  1.0  -0.7586
  O  O747  1  0.457850  0.799800  0.028580  1.0  -0.7491
  O  O748  1  0.472290  0.748970  0.027840  1.0  -0.7984
  O  O749  1  0.676720  0.983520  0.041240  1.0  -0.7847
  O  O750  1  0.241520  0.494470  0.977780  1.0  -0.7609
  O  O751  1  0.032140  0.322520  0.955850  1.0  -0.7793
  O  O752  1  0.714100  0.916480  0.038990  1.0  -0.5112
  O  O753  1  0.706340  0.840460  0.029590  1.0  -0.5244
  O  O754  1  0.232290  0.550210  0.978800  1.0  -0.7759
  O  O755  1  0.104760  0.566890  0.046420  1.0  -0.8005
  O  O756  1  0.911870  0.397000  0.078190  1.0  -0.7897
  O  O757  1  0.134940  0.601010  0.112610  1.0  -0.7572
  O  O758  1  0.062600  0.595580  0.353670  1.0  -0.7903
  O  O759  1  0.228590  0.738350  0.315350  1.0  -0.7681
  O  O760  1  0.024050  0.569880  0.288500  1.0  -0.7417
  O  O761  1  0.958020  0.510590  0.424390  1.0  -0.7566
  O  O762  1  0.768200  0.287470  0.416660  1.0  -0.7825
  O  O763  1  0.753470  0.331820  0.446090  1.0  -0.7576
  O  O764  1  0.179070  0.707640  0.158040  1.0  -0.7312
  O  O765  1  0.194460  0.722250  0.223300  1.0  -0.8009
  O  O766  1  0.385300  0.926550  0.193120  1.0  -0.7825
  O  O767  1  0.013690  0.491430  0.247030  1.0  -0.7632
  O  O768  1  0.826320  0.282110  0.209590  1.0  -0.7786
  O  O769  1  0.425130  0.964020  0.297760  1.0  -0.5109
  O  O770  1  0.426650  0.955820  0.366020  1.0  -0.5231
  O  O771  1  0.003530  0.482290  0.182090  1.0  -0.7779
  O  O772  1  0.520630  0.058390  0.953590  1.0  -0.8116
  O  O773  1  0.318870  0.833670  0.921840  1.0  -0.7915
  O  O774  1  0.488650  0.022480  0.887410  1.0  -0.7557
  O  O775  1  0.241980  0.709080  0.646360  1.0  -0.7909
  O  O776  1  0.423390  0.913520  0.684700  1.0  -0.7679
  O  O777  1  0.281420  0.735550  0.711500  1.0  -0.7444
  O  O778  1  0.086010  0.533520  0.575690  1.0  -0.7582
  O  O779  1  0.870580  0.351390  0.583340  1.0  -0.7811
  O  O780  1  0.885680  0.307400  0.553940  1.0  -0.7564
  O  O781  1  0.549720  0.021070  0.841960  1.0  -0.7473
  O  O782  1  0.498900  0.971080  0.776720  1.0  -0.8074
  O  O783  1  0.733480  0.192160  0.806870  1.0  -0.7833
  O  O784  1  0.244390  0.766600  0.752990  1.0  -0.7631
  O  O785  1  0.072530  0.616700  0.790440  1.0  -0.768
  O  O786  1  0.666480  0.127510  0.702410  1.0  -0.5095
  O  O787  1  0.590480  0.060930  0.634170  1.0  -0.522
  O  O788  1  0.300220  0.821410  0.817950  1.0  -0.7795
  O  O789  1  0.933070  0.395250  0.953650  1.0  -0.8162
  O  O790  1  0.103130  0.588270  0.921890  1.0  -0.7914
  O  O791  1  0.898930  0.364990  0.887450  1.0  -0.7585
  O  O792  1  0.904410  0.437380  0.646350  1.0  -0.7904
  O  O793  1  0.761650  0.271420  0.684670  1.0  -0.7714
  O  O794  1  0.930120  0.475960  0.711510  1.0  -0.7442
  O  O795  1  0.989470  0.542040  0.575660  1.0  -0.7557
  O  O796  1  0.212570  0.731820  0.583340  1.0  -0.781
  O  O797  1  0.168160  0.746510  0.553930  1.0  -0.7568
  O  O798  1  0.792340  0.320890  0.841990  1.0  -0.7304
  O  O799  1  0.777840  0.305640  0.776720  1.0  -0.8004
  O  O800  1  0.573400  0.114600  0.806850  1.0  -0.7846
  O  O801  1  0.008630  0.486390  0.752990  1.0  -0.7625
  O  O802  1  0.217960  0.673790  0.790430  1.0  -0.7789
  O  O803  1  0.536060  0.074960  0.702280  1.0  -0.5126
  O  O804  1  0.544200  0.073410  0.634020  1.0  -0.524
  O  O805  1  0.017790  0.496560  0.817950  1.0  -0.7791
  O  O806  1  0.441590  0.979290  0.046360  1.0  -0.8147
  O  O807  1  0.666410  0.181200  0.078100  1.0  -0.7883
  O  O808  1  0.477450  0.011290  0.112560  1.0  -0.7597
  O  O809  1  0.790980  0.258090  0.353660  1.0  -0.7899
  O  O810  1  0.586530  0.076680  0.315320  1.0  -0.7705
  O  O811  1  0.764490  0.218640  0.288520  1.0  -0.7404
  O  O812  1  0.966460  0.413970  0.424350  1.0  -0.7592
  O  O813  1  0.148590  0.629390  0.416650  1.0  -0.7816
  O  O814  1  0.192610  0.614330  0.446090  1.0  -0.7575
  O  O815  1  0.478880  0.950260  0.158020  1.0  -0.7469
  O  O816  1  0.528930  0.001100  0.223290  1.0  -0.8059
  O  O817  1  0.307820  0.766540  0.193170  1.0  -0.7847
  O  O818  1  0.733390  0.255620  0.247000  1.0  -0.7619
  O  O819  1  0.883410  0.427550  0.209560  1.0  -0.7684
  O  O820  1  0.372590  0.833610  0.297600  1.0  -0.5109
  O  O821  1  0.439210  0.909620  0.365860  1.0  -0.5204
  O  O822  1  0.678600  0.199790  0.182040  1.0  -0.7811
  O  O823  1  0.729470  0.183040  0.037840  1.0  -0.8179
  O  O824  1  0.931240  0.353030  0.014860  1.0  -0.7901
  O  O825  1  0.761540  0.148890  0.033910  1.0  -0.7583
  O  O826  1  0.008300  0.154610  0.967030  1.0  -0.7905
  O  O827  1  0.827160  0.011730  0.990260  1.0  -0.7706
  O  O828  1  0.968610  0.180070  0.954160  1.0  -0.7438
  O  O829  1  0.163800  0.239330  0.947460  1.0  -0.7565
  O  O830  1  0.379040  0.462440  0.980760  1.0  -0.7812
  O  O831  1  0.364420  0.418360  0.921720  1.0  -0.7585
  O  O832  1  0.700350  0.042280  0.971410  1.0  -0.7482
  O  O833  1  0.751120  0.027800  0.972190  1.0  -0.7992
  O  O834  1  0.516610  0.823420  0.958750  1.0  -0.7854
  O  O835  1  0.005610  0.258560  0.022240  1.0  -0.7615
  O  O836  1  0.177540  0.467920  0.044200  1.0  -0.779
  O  O837  1  0.583980  0.786230  0.961130  1.0  -0.516
  O  O838  1  0.660090  0.794070  0.970820  1.0  -0.525
  O  O839  1  0.949890  0.267800  0.021240  1.0  -0.7742
  O  O840  1  0.145310  0.691690  0.962180  1.0  -0.8014
  O  O841  1  0.338350  0.916480  0.985190  1.0  -0.7887
  O  O842  1  0.115040  0.727620  0.966090  1.0  -0.7587
  O  O843  1  0.187400  0.041000  0.032950  1.0  -0.7906
  O  O844  1  0.021290  0.836570  0.009860  1.0  -0.7698
  O  O845  1  0.225950  0.014410  0.045900  1.0  -0.744
  O  O846  1  0.292050  0.216350  0.052520  1.0  -0.7596
  O  O847  1  0.481870  0.398420  0.019220  1.0  -0.7849
  O  O848  1  0.496560  0.442580  0.078270  1.0  -0.7583
  O  O849  1  0.070940  0.728930  0.028600  1.0  -0.7473
  O  O850  1  0.055630  0.778880  0.027820  1.0  -0.7985
  O  O851  1  0.864790  0.557870  0.041320  1.0  -0.785
  O  O852  1  0.236380  0.983380  0.977780  1.0  -0.7608
  O  O853  1  0.423730  0.133280  0.955820  1.0  -0.78
  O  O854  1  0.824830  0.622440  0.038950  1.0  -0.5167
  O  O855  1  0.823360  0.689220  0.029470  1.0  -0.5228
  O  O856  1  0.246550  0.928600  0.978790  1.0  -0.7742
  O  O857  1  0.941590  0.895210  0.462190  1.0  -0.8027
  O  O858  1  0.166480  0.088350  0.485190  1.0  -0.7891
  O  O859  1  0.977610  0.865040  0.466070  1.0  -0.7585
  O  O860  1  0.291120  0.937510  0.532980  1.0  -0.7909
  O  O861  1  0.086750  0.771430  0.509790  1.0  -0.7708
  O  O862  1  0.264400  0.975940  0.545880  1.0  -0.743
  O  O863  1  0.466330  0.041980  0.552530  1.0  -0.7568
  O  O864  1  0.648390  0.231850  0.519240  1.0  -0.7822
  O  O865  1  0.692590  0.246580  0.578300  1.0  -0.7586
  O  O866  1  0.978880  0.820900  0.528590  1.0  -0.7486
  O  O867  1  0.028880  0.805630  0.527810  1.0  -0.799
  O  O868  1  0.807820  0.614720  0.541290  1.0  -0.7853
  O  O869  1  0.233400  0.986400  0.477770  1.0  -0.7619
  O  O870  1  0.383290  0.173750  0.455810  1.0  -0.7809
  O  O871  1  0.872530  0.574860  0.538890  1.0  -0.5149
  O  O872  1  0.939290  0.573350  0.529270  1.0  -0.5236
  O  O873  1  0.178620  0.996560  0.478790  1.0  -0.7748
  O  O874  1  0.432990  0.479420  0.537810  1.0  -0.8024
  O  O875  1  0.602980  0.681200  0.514820  1.0  -0.7901
  O  O876  1  0.398910  0.511530  0.533880  1.0  -0.7574
  O  O877  1  0.404480  0.758140  0.467050  1.0  -0.7893
  O  O878  1  0.261380  0.576750  0.490140  1.0  -0.7704
  O  O879  1  0.429990  0.718510  0.454110  1.0  -0.7426
  O  O880  1  0.489550  0.913910  0.447470  1.0  -0.7583
  O  O881  1  0.712650  0.129290  0.480780  1.0  -0.7824
  O  O882  1  0.668310  0.114390  0.421720  1.0  -0.7586
  O  O883  1  0.292260  0.450310  0.471390  1.0  -0.7466
  O  O884  1  0.277650  0.500950  0.472160  1.0  -0.7986
  O  O885  1  0.073320  0.266490  0.458730  1.0  -0.7847
  O  O886  1  0.508460  0.755510  0.522220  1.0  -0.7618
  O  O887  1  0.717850  0.927490  0.544190  1.0  -0.7785
  O  O888  1  0.035970  0.333600  0.461030  1.0  -0.5162
  O  O889  1  0.043630  0.409530  0.470450  1.0  -0.5223
  O  O890  1  0.517750  0.699840  0.521220  1.0  -0.7744
  O  O891  1  0.645180  0.682990  0.453610  1.0  -0.8153
  O  O892  1  0.838230  0.853100  0.421890  1.0  -0.7918
  O  O893  1  0.614880  0.648830  0.387390  1.0  -0.7594
  O  O894  1  0.687350  0.654390  0.146340  1.0  -0.7896
  O  O895  1  0.521360  0.511580  0.184640  1.0  -0.7694
  O  O896  1  0.725930  0.680100  0.211490  1.0  -0.7426
  O  O897  1  0.792030  0.739450  0.075640  1.0  -0.7576
  O  O898  1  0.981820  0.962560  0.083320  1.0  -0.7823
  O  O899  1  0.996500  0.918150  0.053910  1.0  -0.7567
  O  O900  1  0.570810  0.542260  0.341980  1.0  -0.7296
  O  O901  1  0.555620  0.527840  0.276720  1.0  -0.7999
  O  O902  1  0.364620  0.323410  0.306850  1.0  -0.785
  O  O903  1  0.736310  0.758550  0.252990  1.0  -0.7624
  O  O904  1  0.923700  0.967880  0.290410  1.0  -0.7703
  O  O905  1  0.324920  0.286020  0.202260  1.0  -0.5126
  O  O906  1  0.323420  0.294200  0.133990  1.0  -0.5237
  O  O907  1  0.746510  0.767750  0.317930  1.0  -0.777
  O  O908  1  0.229280  0.191560  0.546370  1.0  -0.8147
  O  O909  1  0.431140  0.416340  0.578110  1.0  -0.789
  O  O910  1  0.261350  0.227530  0.612560  1.0  -0.7591
  O  O911  1  0.507980  0.540880  0.853630  1.0  -0.7897
  O  O912  1  0.326590  0.336460  0.815280  1.0  -0.7713
  O  O913  1  0.468570  0.514450  0.788500  1.0  -0.7448
  O  O914  1  0.663960  0.716450  0.924290  1.0  -0.7557
  O  O915  1  0.879410  0.898610  0.916650  1.0  -0.7829
  O  O916  1  0.864260  0.942550  0.946080  1.0  -0.7578
  O  O917  1  0.200210  0.228830  0.658020  1.0  -0.7482
  O  O918  1  0.251070  0.278890  0.723270  1.0  -0.8083
  O  O919  1  0.016510  0.057800  0.693160  1.0  -0.7843
  O  O920  1  0.505630  0.483420  0.746990  1.0  -0.7633
  O  O921  1  0.677470  0.633340  0.709540  1.0  -0.7672
  O  O922  1  0.083490  0.122480  0.797570  1.0  -0.5115
  O  O923  1  0.159550  0.189140  0.865830  1.0  -0.5215
  O  O924  1  0.449730  0.428550  0.682030  1.0  -0.7816
  O  O925  1  0.816910  0.854760  0.546400  1.0  -0.8008
  O  O926  1  0.646850  0.661720  0.578150  1.0  -0.7913
  O  O927  1  0.850900  0.884820  0.612580  1.0  -0.7564
  O  O928  1  0.845580  0.812590  0.853650  1.0  -0.7904
  O  O929  1  0.988280  0.978520  0.815330  1.0  -0.7677
  O  O930  1  0.819800  0.773970  0.788490  1.0  -0.7426
  O  O931  1  0.760540  0.707980  0.924360  1.0  -0.7582
  O  O932  1  0.537410  0.518140  0.916650  1.0  -0.7828
  O  O933  1  0.581830  0.503480  0.946070  1.0  -0.7582
  O  O934  1  0.957610  0.929050  0.658020  1.0  -0.7303
  O  O935  1  0.972210  0.944410  0.723290  1.0  -0.8014
  O  O936  1  0.176510  0.135260  0.693110  1.0  -0.7822
  O  O937  1  0.741330  0.763580  0.747020  1.0  -0.7625
  O  O938  1  0.532060  0.576260  0.709580  1.0  -0.7795
  O  O939  1  0.213920  0.175030  0.797720  1.0  -0.5129
  O  O940  1  0.205840  0.176670  0.865990  1.0  -0.5236
  O  O941  1  0.732250  0.753490  0.682070  1.0  -0.7791
  O  O942  1  0.308360  0.270640  0.453610  1.0  -0.8125
  O  O943  1  0.083550  0.068780  0.421850  1.0  -0.7916
  O  O944  1  0.272440  0.238600  0.387420  1.0  -0.7566
  O  O945  1  0.958980  0.991880  0.146320  1.0  -0.7901
  O  O946  1  0.163420  0.173270  0.184670  1.0  -0.7685
  O  O947  1  0.985470  0.031320  0.211470  1.0  -0.7417
  O  O948  1  0.783520  0.836010  0.075630  1.0  -0.7593
  O  O949  1  0.601410  0.620600  0.083340  1.0  -0.7813
  O  O950  1  0.557320  0.635580  0.053920  1.0  -0.758
  O  O951  1  0.271010  0.299670  0.341960  1.0  -0.7473
  O  O952  1  0.221100  0.248910  0.276710  1.0  -0.799
  O  O953  1  0.442160  0.483470  0.306840  1.0  -0.7845
  O  O954  1  0.016550  0.994310  0.252980  1.0  -0.7631
  O  O955  1  0.866650  0.822480  0.290430  1.0  -0.7666
  O  O956  1  0.377430  0.416390  0.202380  1.0  -0.5111
  O  O957  1  0.310820  0.340360  0.134130  1.0  -0.52
  O  O958  1  0.071370  0.050190  0.317930  1.0  -0.7788
  O  O959  1  0.020730  0.067140  0.462260  1.0  -0.8149
  O  O960  1  0.818770  0.896930  0.485140  1.0  -0.7886
  O  O961  1  0.988660  0.101300  0.466070  1.0  -0.7557
  O  O962  1  0.741820  0.095520  0.532970  1.0  -0.7899
  O  O963  1  0.922920  0.238340  0.509750  1.0  -0.7685
  O  O964  1  0.781340  0.069900  0.545820  1.0  -0.7437
  O  O965  1  0.586220  0.010650  0.552540  1.0  -0.7594
  O  O966  1  0.370960  0.787550  0.519240  1.0  -0.7842
  O  O967  1  0.385640  0.831710  0.578300  1.0  -0.7578
  O  O968  1  0.049720  0.207770  0.528550  1.0  -0.748
  O  O969  1  0.998890  0.222210  0.527800  1.0  -0.7985
  O  O970  1  0.233470  0.426650  0.541230  1.0  -0.7854
  O  O971  1  0.744420  0.991460  0.477740  1.0  -0.7631
  O  O972  1  0.572450  0.782040  0.455840  1.0  -0.7796
  O  O973  1  0.166110  0.463840  0.538880  1.0  -0.5147
  O  O974  1  0.089900  0.455910  0.529240  1.0  -0.5234
  O  O975  1  0.800130  0.982220  0.478790  1.0  -0.776
  O  O976  1  0.604720  0.558380  0.537780  1.0  -0.8121
  O  O977  1  0.411770  0.333670  0.514850  1.0  -0.7889
  O  O978  1  0.634910  0.522350  0.533880  1.0  -0.7576
  O  O979  1  0.562660  0.209070  0.467040  1.0  -0.7924
  O  O980  1  0.728750  0.413480  0.490140  1.0  -0.768
  O  O981  1  0.524090  0.235640  0.454110  1.0  -0.744
  O  O982  1  0.457930  0.033650  0.447470  1.0  -0.7582
  O  O983  1  0.268110  0.851540  0.480770  1.0  -0.7823
  O  O984  1  0.253480  0.807460  0.421710  1.0  -0.7584
  O  O985  1  0.679210  0.521230  0.471430  1.0  -0.7486
  O  O986  1  0.694360  0.471130  0.472190  1.0  -0.7984
  O  O987  1  0.885370  0.692260  0.458740  1.0  -0.7844
  O  O988  1  0.513590  0.266620  0.522210  1.0  -0.7618
  O  O989  1  0.326220  0.116690  0.544150  1.0  -0.7793
  O  O990  1  0.925150  0.627550  0.461030  1.0  -0.5178
  O  O991  1  0.926610  0.560770  0.470490  1.0  -0.5227
  O  O992  1  0.503460  0.321440  0.521210  1.0  -0.7747
  F  F993  1  0.625040  0.137050  0.012020  1.0  -0.5136
  F  F994  1  0.125060  0.612980  0.987960  1.0  -0.5153
  F  F995  1  0.886980  0.374920  0.012030  1.0  -0.5136
  F  F996  1  0.363020  0.875020  0.987970  1.0  -0.5115
  F  F997  1  0.124960  0.112940  0.487940  1.0  -0.5136
  F  F998  1  0.624950  0.637070  0.512020  1.0  -0.5137
  F  F999  1  0.862940  0.874950  0.487990  1.0  -0.5135
  F  F1000  1  0.386990  0.374990  0.512000  1.0  -0.5123
