# generated using pymatgen
data_Zn7GaP10H10O30F
_symmetry_space_group_name_H-M   'P 1'
_cell_length_a   52.17490000
_cell_length_b   52.17490000
_cell_length_c   10.02290000
_cell_angle_alpha   90.00000000
_cell_angle_beta   90.00000000
_cell_angle_gamma   90.00000000
_symmetry_Int_Tables_number   1
_chemical_formula_structural   Zn7GaP10H10O30F
_chemical_formula_sum   'Zn112 Ga16 P160 H160 O480 F16'
_cell_volume   27284.54074245
_cell_formula_units_Z   16
loop_
 _symmetry_equiv_pos_site_id
 _symmetry_equiv_pos_as_xyz
  1  'x, y, z'
loop_
 _atom_site_type_symbol
 _atom_site_label
 _atom_site_symmetry_multiplicity
 _atom_site_fract_x
 _atom_site_fract_y
 _atom_site_fract_z
 _atom_site_occupancy
 _atom_site_charge
  Zn  Zn1  1  0.531280  0.310470  0.037080  1.0  1.0889
  Zn  Zn2  1  0.611620  0.390360  0.045890  1.0  1.1415
  Zn  Zn3  1  0.679680  0.406010  0.201590  1.0  1.1441
  Zn  Zn4  1  0.031280  0.810470  0.537080  1.0  1.0889
  Zn  Zn5  1  0.111620  0.890360  0.545890  1.0  1.1416
  Zn  Zn6  1  0.179680  0.906010  0.701590  1.0  1.1441
  Zn  Zn7  1  0.968720  0.689530  0.537080  1.0  1.0899
  Zn  Zn8  1  0.888380  0.609640  0.545890  1.0  1.142
  Zn  Zn9  1  0.820320  0.593990  0.701590  1.0  1.1449
  Zn  Zn10  1  0.468720  0.189530  0.037080  1.0  1.0899
  Zn  Zn11  1  0.388380  0.109640  0.045890  1.0  1.142
  Zn  Zn12  1  0.320320  0.093990  0.201590  1.0  1.1449
  Zn  Zn13  1  0.939530  0.281280  0.287080  1.0  1.0883
  Zn  Zn14  1  0.859640  0.361620  0.295890  1.0  1.1417
  Zn  Zn15  1  0.843990  0.429680  0.451590  1.0  1.1448
  Zn  Zn16  1  0.439530  0.781280  0.787080  1.0  1.0883
  Zn  Zn17  1  0.359640  0.861620  0.795890  1.0  1.1417
  Zn  Zn18  1  0.343990  0.929680  0.951590  1.0  1.1448
  Zn  Zn19  1  0.560470  0.718720  0.787080  1.0  1.0871
  Zn  Zn20  1  0.640360  0.638380  0.795890  1.0  1.1415
  Zn  Zn21  1  0.656010  0.570320  0.951590  1.0  1.1448
  Zn  Zn22  1  0.060470  0.218720  0.287080  1.0  1.0871
  Zn  Zn23  1  0.140360  0.138380  0.295890  1.0  1.1422
  Zn  Zn24  1  0.156010  0.070320  0.451590  1.0  1.1448
  Zn  Zn25  1  0.968720  0.310470  0.962920  1.0  1.0897
  Zn  Zn26  1  0.888380  0.390360  0.954110  1.0  1.1418
  Zn  Zn27  1  0.820320  0.406010  0.798410  1.0  1.1446
  Zn  Zn28  1  0.468720  0.810470  0.462920  1.0  1.0897
  Zn  Zn29  1  0.388380  0.890360  0.454110  1.0  1.1418
  Zn  Zn30  1  0.320320  0.906010  0.298410  1.0  1.1446
  Zn  Zn31  1  0.531280  0.689530  0.462920  1.0  1.0893
  Zn  Zn32  1  0.611620  0.609640  0.454110  1.0  1.142
  Zn  Zn33  1  0.679680  0.593990  0.298410  1.0  1.144
  Zn  Zn34  1  0.031280  0.189530  0.962920  1.0  1.0893
  Zn  Zn35  1  0.111620  0.109640  0.954110  1.0  1.1421
  Zn  Zn36  1  0.179680  0.093990  0.798410  1.0  1.144
  Zn  Zn37  1  0.560470  0.281280  0.712920  1.0  1.0873
  Zn  Zn38  1  0.640360  0.361620  0.704110  1.0  1.1417
  Zn  Zn39  1  0.656010  0.429680  0.548410  1.0  1.1455
  Zn  Zn40  1  0.060470  0.781280  0.212920  1.0  1.0873
  Zn  Zn41  1  0.140360  0.861620  0.204110  1.0  1.1425
  Zn  Zn42  1  0.156010  0.929680  0.048410  1.0  1.1455
  Zn  Zn43  1  0.939530  0.718720  0.212920  1.0  1.0886
  Zn  Zn44  1  0.859640  0.638380  0.204110  1.0  1.1412
  Zn  Zn45  1  0.843990  0.570320  0.048410  1.0  1.1445
  Zn  Zn46  1  0.439530  0.218720  0.712920  1.0  1.0886
  Zn  Zn47  1  0.359640  0.138380  0.704110  1.0  1.1412
  Zn  Zn48  1  0.343990  0.070320  0.548410  1.0  1.1445
  Zn  Zn49  1  0.468720  0.689530  0.962920  1.0  1.09
  Zn  Zn50  1  0.388380  0.609640  0.954110  1.0  1.1418
  Zn  Zn51  1  0.320320  0.593990  0.798410  1.0  1.1449
  Zn  Zn52  1  0.968720  0.189530  0.462920  1.0  1.09
  Zn  Zn53  1  0.888380  0.109640  0.454110  1.0  1.1418
  Zn  Zn54  1  0.820320  0.093990  0.298410  1.0  1.1449
  Zn  Zn55  1  0.031280  0.310470  0.462920  1.0  1.089
  Zn  Zn56  1  0.111620  0.390360  0.454110  1.0  1.1415
  Zn  Zn57  1  0.179680  0.406010  0.298410  1.0  1.1441
  Zn  Zn58  1  0.531280  0.810470  0.962920  1.0  1.089
  Zn  Zn59  1  0.611620  0.890360  0.954110  1.0  1.1414
  Zn  Zn60  1  0.679680  0.906010  0.798410  1.0  1.1441
  Zn  Zn61  1  0.060470  0.718720  0.712920  1.0  1.0872
  Zn  Zn62  1  0.140360  0.638380  0.704110  1.0  1.1421
  Zn  Zn63  1  0.156010  0.570320  0.548410  1.0  1.145
  Zn  Zn64  1  0.560470  0.218720  0.212920  1.0  1.0872
  Zn  Zn65  1  0.640360  0.138380  0.204110  1.0  1.1414
  Zn  Zn66  1  0.656010  0.070320  0.048410  1.0  1.145
  Zn  Zn67  1  0.439530  0.281280  0.212920  1.0  1.0885
  Zn  Zn68  1  0.359640  0.361620  0.204110  1.0  1.1414
  Zn  Zn69  1  0.343990  0.429680  0.048410  1.0  1.1449
  Zn  Zn70  1  0.939530  0.781280  0.712920  1.0  1.0885
  Zn  Zn71  1  0.859640  0.861620  0.704110  1.0  1.1414
  Zn  Zn72  1  0.843990  0.929680  0.548410  1.0  1.1449
  Zn  Zn73  1  0.031280  0.689530  0.037080  1.0  1.0892
  Zn  Zn74  1  0.111620  0.609640  0.045890  1.0  1.1422
  Zn  Zn75  1  0.179680  0.593990  0.201590  1.0  1.1441
  Zn  Zn76  1  0.531280  0.189530  0.537080  1.0  1.0892
  Zn  Zn77  1  0.611620  0.109640  0.545890  1.0  1.1422
  Zn  Zn78  1  0.679680  0.093990  0.701590  1.0  1.1441
  Zn  Zn79  1  0.468720  0.310470  0.537080  1.0  1.0897
  Zn  Zn80  1  0.388380  0.390360  0.545890  1.0  1.1418
  Zn  Zn81  1  0.320320  0.406010  0.701590  1.0  1.1445
  Zn  Zn82  1  0.968720  0.810470  0.037080  1.0  1.0897
  Zn  Zn83  1  0.888380  0.890360  0.045890  1.0  1.1418
  Zn  Zn84  1  0.820320  0.906010  0.201590  1.0  1.1445
  Zn  Zn85  1  0.439530  0.718720  0.287080  1.0  1.0884
  Zn  Zn86  1  0.359640  0.638380  0.295890  1.0  1.1414
  Zn  Zn87  1  0.343990  0.570320  0.451590  1.0  1.1443
  Zn  Zn88  1  0.939530  0.218720  0.787080  1.0  1.0884
  Zn  Zn89  1  0.859640  0.138380  0.795890  1.0  1.1414
  Zn  Zn90  1  0.843990  0.070320  0.951590  1.0  1.1443
  Zn  Zn91  1  0.060470  0.281280  0.787080  1.0  1.0872
  Zn  Zn92  1  0.140360  0.361620  0.795890  1.0  1.1427
  Zn  Zn93  1  0.156010  0.429680  0.951590  1.0  1.1453
  Zn  Zn94  1  0.560470  0.781280  0.287080  1.0  1.0872
  Zn  Zn95  1  0.640360  0.861620  0.295890  1.0  1.142
  Zn  Zn96  1  0.656010  0.929680  0.451590  1.0  1.1453
  Zn  Zn97  1  0.585180  0.335180  0.375000  1.0  0.817
  Zn  Zn98  1  0.085180  0.835180  0.875000  1.0  0.817
  Zn  Zn99  1  0.914820  0.664820  0.875000  1.0  0.8172
  Zn  Zn100  1  0.414820  0.164820  0.375000  1.0  0.8172
  Zn  Zn101  1  0.914820  0.335180  0.625000  1.0  0.8173
  Zn  Zn102  1  0.414820  0.835180  0.125000  1.0  0.8173
  Zn  Zn103  1  0.585180  0.664820  0.125000  1.0  0.8169
  Zn  Zn104  1  0.085180  0.164820  0.625000  1.0  0.8169
  Zn  Zn105  1  0.414820  0.664820  0.625000  1.0  0.8172
  Zn  Zn106  1  0.914820  0.164820  0.125000  1.0  0.8172
  Zn  Zn107  1  0.085180  0.335180  0.125000  1.0  0.817
  Zn  Zn108  1  0.585180  0.835180  0.625000  1.0  0.817
  Zn  Zn109  1  0.085180  0.664820  0.375000  1.0  0.8169
  Zn  Zn110  1  0.585180  0.164820  0.875000  1.0  0.8169
  Zn  Zn111  1  0.414820  0.335180  0.875000  1.0  0.8173
  Zn  Zn112  1  0.914820  0.835180  0.375000  1.0  0.8173
  Ga  Ga113  1  0.774250  0.475750  0.125000  1.0  1.5797
  Ga  Ga114  1  0.274250  0.975750  0.625000  1.0  1.5797
  Ga  Ga115  1  0.725750  0.524250  0.625000  1.0  1.578
  Ga  Ga116  1  0.225750  0.024250  0.125000  1.0  1.5779
  Ga  Ga117  1  0.774250  0.524250  0.375000  1.0  1.5782
  Ga  Ga118  1  0.274250  0.024250  0.875000  1.0  1.5782
  Ga  Ga119  1  0.725750  0.475750  0.875000  1.0  1.5795
  Ga  Ga120  1  0.225750  0.975750  0.375000  1.0  1.5795
  Ga  Ga121  1  0.225750  0.524250  0.875000  1.0  1.5779
  Ga  Ga122  1  0.725750  0.024250  0.375000  1.0  1.5779
  Ga  Ga123  1  0.274250  0.475750  0.375000  1.0  1.5797
  Ga  Ga124  1  0.774250  0.975750  0.875000  1.0  1.5797
  Ga  Ga125  1  0.225750  0.475750  0.625000  1.0  1.5795
  Ga  Ga126  1  0.725750  0.975750  0.125000  1.0  1.5795
  Ga  Ga127  1  0.274250  0.524250  0.125000  1.0  1.5782
  Ga  Ga128  1  0.774250  0.024250  0.625000  1.0  1.5782
  P  P129  1  0.720180  0.449560  0.155900  1.0  1.5887
  P  P130  1  0.562850  0.357960  0.087600  1.0  1.3687
  P  P131  1  0.506190  0.299340  0.762500  1.0  1.4788
  P  P132  1  0.625750  0.426590  0.273300  1.0  1.5057
  P  P133  1  0.665460  0.366240  0.983700  1.0  1.4635
  P  P134  1  0.220180  0.949560  0.655900  1.0  1.5887
  P  P135  1  0.062850  0.857960  0.587600  1.0  1.3687
  P  P136  1  0.006190  0.799340  0.262500  1.0  1.4788
  P  P137  1  0.125750  0.926590  0.773300  1.0  1.5057
  P  P138  1  0.165460  0.866240  0.483700  1.0  1.4625
  P  P139  1  0.779820  0.550440  0.655900  1.0  1.5893
  P  P140  1  0.937150  0.642040  0.587600  1.0  1.376
  P  P141  1  0.993810  0.700660  0.262500  1.0  1.4859
  P  P142  1  0.874250  0.573410  0.773300  1.0  1.5068
  P  P143  1  0.834540  0.633760  0.483700  1.0  1.4538
  P  P144  1  0.279820  0.050440  0.155900  1.0  1.5893
  P  P145  1  0.437150  0.142040  0.087600  1.0  1.376
  P  P146  1  0.493810  0.200660  0.762500  1.0  1.4859
  P  P147  1  0.374250  0.073410  0.273300  1.0  1.5068
  P  P148  1  0.334540  0.133760  0.983700  1.0  1.4538
  P  P149  1  0.800440  0.470180  0.405900  1.0  1.5909
  P  P150  1  0.892040  0.312850  0.337600  1.0  1.3748
  P  P151  1  0.950660  0.256190  0.012500  1.0  1.4858
  P  P152  1  0.823410  0.375750  0.523300  1.0  1.5025
  P  P153  1  0.883760  0.415460  0.233700  1.0  1.4642
  P  P154  1  0.300440  0.970180  0.905900  1.0  1.5909
  P  P155  1  0.392040  0.812850  0.837600  1.0  1.3748
  P  P156  1  0.450660  0.756190  0.512500  1.0  1.4858
  P  P157  1  0.323410  0.875750  0.023300  1.0  1.5025
  P  P158  1  0.383760  0.915460  0.733700  1.0  1.4642
  P  P159  1  0.699560  0.529820  0.905900  1.0  1.5903
  P  P160  1  0.607960  0.687150  0.837600  1.0  1.3766
  P  P161  1  0.549340  0.743810  0.512500  1.0  1.4819
  P  P162  1  0.676590  0.624250  0.023300  1.0  1.5036
  P  P163  1  0.616240  0.584540  0.733700  1.0  1.4579
  P  P164  1  0.199560  0.029820  0.405900  1.0  1.5903
  P  P165  1  0.107960  0.187150  0.337600  1.0  1.3766
  P  P166  1  0.049340  0.243810  0.012500  1.0  1.4819
  P  P167  1  0.176590  0.124250  0.523300  1.0  1.5036
  P  P168  1  0.116240  0.084540  0.233700  1.0  1.4668
  P  P169  1  0.779820  0.449560  0.844100  1.0  1.5901
  P  P170  1  0.937150  0.357960  0.912400  1.0  1.374
  P  P171  1  0.993810  0.299340  0.237500  1.0  1.4859
  P  P172  1  0.874250  0.426590  0.726700  1.0  1.5066
  P  P173  1  0.834540  0.366240  0.016300  1.0  1.4545
  P  P174  1  0.279820  0.949560  0.344100  1.0  1.5901
  P  P175  1  0.437150  0.857960  0.412400  1.0  1.374
  P  P176  1  0.493810  0.799340  0.737500  1.0  1.4859
  P  P177  1  0.374250  0.926590  0.226700  1.0  1.5066
  P  P178  1  0.334540  0.866240  0.516300  1.0  1.4545
  P  P179  1  0.720180  0.550440  0.344100  1.0  1.5883
  P  P180  1  0.562850  0.642040  0.412400  1.0  1.3675
  P  P181  1  0.506190  0.700660  0.737500  1.0  1.4785
  P  P182  1  0.625750  0.573410  0.226700  1.0  1.5062
  P  P183  1  0.665460  0.633760  0.516300  1.0  1.4638
  P  P184  1  0.220180  0.050440  0.844100  1.0  1.5883
  P  P185  1  0.062850  0.142040  0.912400  1.0  1.3675
  P  P186  1  0.006190  0.200660  0.237500  1.0  1.4785
  P  P187  1  0.125750  0.073410  0.726700  1.0  1.5062
  P  P188  1  0.165460  0.133760  0.016300  1.0  1.4628
  P  P189  1  0.699560  0.470180  0.594100  1.0  1.588
  P  P190  1  0.607960  0.312850  0.662400  1.0  1.3764
  P  P191  1  0.549340  0.256190  0.987500  1.0  1.4861
  P  P192  1  0.676590  0.375750  0.476700  1.0  1.5026
  P  P193  1  0.616240  0.415460  0.766300  1.0  1.4549
  P  P194  1  0.199560  0.970180  0.094100  1.0  1.588
  P  P195  1  0.107960  0.812850  0.162400  1.0  1.3764
  P  P196  1  0.049340  0.756190  0.487500  1.0  1.4861
  P  P197  1  0.176590  0.875750  0.976700  1.0  1.5026
  P  P198  1  0.116240  0.915460  0.266300  1.0  1.4646
  P  P199  1  0.800440  0.529820  0.094100  1.0  1.5883
  P  P200  1  0.892040  0.687150  0.162400  1.0  1.3723
  P  P201  1  0.950660  0.743810  0.487500  1.0  1.482
  P  P202  1  0.823410  0.624250  0.976700  1.0  1.5042
  P  P203  1  0.883760  0.584540  0.266300  1.0  1.4669
  P  P204  1  0.300440  0.029820  0.594100  1.0  1.5883
  P  P205  1  0.392040  0.187150  0.662400  1.0  1.3723
  P  P206  1  0.450660  0.243810  0.987500  1.0  1.482
  P  P207  1  0.323410  0.124250  0.476700  1.0  1.5042
  P  P208  1  0.383760  0.084540  0.766300  1.0  1.4669
  P  P209  1  0.279820  0.550440  0.844100  1.0  1.5882
  P  P210  1  0.437150  0.642040  0.912400  1.0  1.3739
  P  P211  1  0.493810  0.700660  0.237500  1.0  1.4858
  P  P212  1  0.374250  0.573410  0.726700  1.0  1.5071
  P  P213  1  0.334540  0.633760  0.016300  1.0  1.4545
  P  P214  1  0.779820  0.050440  0.344100  1.0  1.5882
  P  P215  1  0.937150  0.142040  0.412400  1.0  1.3739
  P  P216  1  0.993810  0.200660  0.737500  1.0  1.4858
  P  P217  1  0.874250  0.073410  0.226700  1.0  1.5071
  P  P218  1  0.834540  0.133760  0.516300  1.0  1.4545
  P  P219  1  0.220180  0.449560  0.344100  1.0  1.5873
  P  P220  1  0.062850  0.357960  0.412400  1.0  1.3663
  P  P221  1  0.006190  0.299340  0.737500  1.0  1.4789
  P  P222  1  0.125750  0.426590  0.226700  1.0  1.506
  P  P223  1  0.165460  0.366240  0.516300  1.0  1.463
  P  P224  1  0.720180  0.949560  0.844100  1.0  1.5873
  P  P225  1  0.562850  0.857960  0.912400  1.0  1.3663
  P  P226  1  0.506190  0.799340  0.237500  1.0  1.4789
  P  P227  1  0.625750  0.926590  0.726700  1.0  1.506
  P  P228  1  0.665460  0.866240  0.016300  1.0  1.464
  P  P229  1  0.199560  0.529820  0.594100  1.0  1.5893
  P  P230  1  0.107960  0.687150  0.662400  1.0  1.3742
  P  P231  1  0.049340  0.743810  0.987500  1.0  1.4817
  P  P232  1  0.176590  0.624250  0.476700  1.0  1.5039
  P  P233  1  0.116240  0.584540  0.766300  1.0  1.4673
  P  P234  1  0.699560  0.029820  0.094100  1.0  1.5893
  P  P235  1  0.607960  0.187150  0.162400  1.0  1.3742
  P  P236  1  0.549340  0.243810  0.487500  1.0  1.4817
  P  P237  1  0.676590  0.124250  0.976700  1.0  1.5039
  P  P238  1  0.616240  0.084540  0.266300  1.0  1.4585
  P  P239  1  0.300440  0.470180  0.094100  1.0  1.5896
  P  P240  1  0.392040  0.312850  0.162400  1.0  1.3726
  P  P241  1  0.450660  0.256190  0.487500  1.0  1.4859
  P  P242  1  0.323410  0.375750  0.976700  1.0  1.5025
  P  P243  1  0.383760  0.415460  0.266300  1.0  1.4651
  P  P244  1  0.800440  0.970180  0.594100  1.0  1.5896
  P  P245  1  0.892040  0.812850  0.662400  1.0  1.3726
  P  P246  1  0.950660  0.756190  0.987500  1.0  1.4859
  P  P247  1  0.823410  0.875750  0.476700  1.0  1.5025
  P  P248  1  0.883760  0.915460  0.766300  1.0  1.4651
  P  P249  1  0.220180  0.550440  0.155900  1.0  1.5895
  P  P250  1  0.062850  0.642040  0.087600  1.0  1.3693
  P  P251  1  0.006190  0.700660  0.762500  1.0  1.4787
  P  P252  1  0.125750  0.573410  0.273300  1.0  1.5057
  P  P253  1  0.165460  0.633760  0.983700  1.0  1.4619
  P  P254  1  0.720180  0.050440  0.655900  1.0  1.5895
  P  P255  1  0.562850  0.142040  0.587600  1.0  1.3693
  P  P256  1  0.506190  0.200660  0.262500  1.0  1.4787
  P  P257  1  0.625750  0.073410  0.773300  1.0  1.5057
  P  P258  1  0.665460  0.133760  0.483700  1.0  1.4629
  P  P259  1  0.279820  0.449560  0.655900  1.0  1.5915
  P  P260  1  0.437150  0.357960  0.587600  1.0  1.3754
  P  P261  1  0.493810  0.299340  0.262500  1.0  1.4858
  P  P262  1  0.374250  0.426590  0.773300  1.0  1.5063
  P  P263  1  0.334540  0.366240  0.483700  1.0  1.4543
  P  P264  1  0.779820  0.949560  0.155900  1.0  1.5915
  P  P265  1  0.937150  0.857960  0.087600  1.0  1.3754
  P  P266  1  0.993810  0.799340  0.762500  1.0  1.4858
  P  P267  1  0.874250  0.926590  0.273300  1.0  1.5063
  P  P268  1  0.834540  0.866240  0.983700  1.0  1.4543
  P  P269  1  0.300440  0.529820  0.405900  1.0  1.5894
  P  P270  1  0.392040  0.687150  0.337600  1.0  1.3743
  P  P271  1  0.450660  0.743810  0.012500  1.0  1.482
  P  P272  1  0.323410  0.624250  0.523300  1.0  1.5038
  P  P273  1  0.383760  0.584540  0.233700  1.0  1.4661
  P  P274  1  0.800440  0.029820  0.905900  1.0  1.5894
  P  P275  1  0.892040  0.187150  0.837600  1.0  1.3743
  P  P276  1  0.950660  0.243810  0.512500  1.0  1.482
  P  P277  1  0.823410  0.124250  0.023300  1.0  1.5038
  P  P278  1  0.883760  0.084540  0.733700  1.0  1.4661
  P  P279  1  0.199560  0.470180  0.905900  1.0  1.5891
  P  P280  1  0.107960  0.312850  0.837600  1.0  1.3778
  P  P281  1  0.049340  0.256190  0.512500  1.0  1.4863
  P  P282  1  0.176590  0.375750  0.023300  1.0  1.5026
  P  P283  1  0.116240  0.415460  0.733700  1.0  1.4639
  P  P284  1  0.699560  0.970180  0.405900  1.0  1.5891
  P  P285  1  0.607960  0.812850  0.337600  1.0  1.3778
  P  P286  1  0.549340  0.756190  0.012500  1.0  1.4863
  P  P287  1  0.676590  0.875750  0.523300  1.0  1.5026
  P  P288  1  0.616240  0.915460  0.233700  1.0  1.4542
  H  H289  1  0.709300  0.468900  0.232100  1.0  -0.1007
  H  H290  1  0.548800  0.360900  0.173200  1.0  0.1716
  H  H291  1  0.490600  0.278000  0.745200  1.0  -0.0917
  H  H292  1  0.615500  0.451400  0.262600  1.0  -0.0481
  H  H293  1  0.683300  0.350300  0.053000  1.0  -0.0417
  H  H294  1  0.209300  0.968900  0.732100  1.0  -0.1007
  H  H295  1  0.048800  0.860900  0.673200  1.0  0.1716
  H  H296  1  0.990600  0.778000  0.245200  1.0  -0.0917
  H  H297  1  0.115500  0.951400  0.762600  1.0  -0.0417
  H  H298  1  0.183300  0.850300  0.553000  1.0  -0.0417
  H  H299  1  0.790700  0.531100  0.732100  1.0  -0.1007
  H  H300  1  0.951200  0.639100  0.673200  1.0  0.1711
  H  H301  1  0.009400  0.722000  0.245200  1.0  -0.091
  H  H302  1  0.884500  0.548600  0.762600  1.0  -0.0458
  H  H303  1  0.816700  0.649700  0.553000  1.0  -0.0427
  H  H304  1  0.290700  0.031100  0.232100  1.0  -0.1007
  H  H305  1  0.451200  0.139100  0.173200  1.0  0.1711
  H  H306  1  0.509400  0.222000  0.745200  1.0  -0.091
  H  H307  1  0.384500  0.048600  0.262600  1.0  -0.0458
  H  H308  1  0.316700  0.149700  0.053000  1.0  -0.0427
  H  H309  1  0.781100  0.459300  0.482100  1.0  -0.101
  H  H310  1  0.889100  0.298800  0.423200  1.0  0.1713
  H  H311  1  0.972000  0.240600  0.995200  1.0  -0.0892
  H  H312  1  0.798600  0.365500  0.512600  1.0  -0.0455
  H  H313  1  0.899700  0.433300  0.303000  1.0  -0.0369
  H  H314  1  0.281100  0.959300  0.982100  1.0  -0.101
  H  H315  1  0.389100  0.798800  0.923200  1.0  0.1713
  H  H316  1  0.472000  0.740600  0.495200  1.0  -0.0892
  H  H317  1  0.298600  0.865500  0.012600  1.0  -0.0455
  H  H318  1  0.399700  0.933300  0.803000  1.0  -0.0413
  H  H319  1  0.718900  0.540700  0.982100  1.0  -0.1007
  H  H320  1  0.610900  0.701200  0.923200  1.0  0.1719
  H  H321  1  0.528000  0.759400  0.495200  1.0  -0.0916
  H  H322  1  0.701400  0.634500  0.012600  1.0  -0.0463
  H  H323  1  0.600300  0.566700  0.803000  1.0  -0.0413
  H  H324  1  0.218900  0.040700  0.482100  1.0  -0.1005
  H  H325  1  0.110900  0.201200  0.423200  1.0  0.1719
  H  H326  1  0.028000  0.259400  0.995200  1.0  -0.0916
  H  H327  1  0.201400  0.134500  0.512600  1.0  -0.0463
  H  H328  1  0.100300  0.066700  0.303000  1.0  -0.0408
  H  H329  1  0.790700  0.468900  0.767900  1.0  -0.0992
  H  H330  1  0.951200  0.360900  0.826800  1.0  0.1698
  H  H331  1  0.009400  0.278000  0.254800  1.0  -0.0912
  H  H332  1  0.884500  0.451400  0.737400  1.0  -0.0463
  H  H333  1  0.816700  0.350300  0.947000  1.0  -0.0406
  H  H334  1  0.290700  0.968900  0.267900  1.0  -0.0992
  H  H335  1  0.451200  0.860900  0.326800  1.0  0.1698
  H  H336  1  0.509400  0.778000  0.754800  1.0  -0.0912
  H  H337  1  0.384500  0.951400  0.237400  1.0  -0.0463
  H  H338  1  0.316700  0.850300  0.447000  1.0  -0.0406
  H  H339  1  0.709300  0.531100  0.267900  1.0  -0.1002
  H  H340  1  0.548800  0.639100  0.326800  1.0  0.1684
  H  H341  1  0.490600  0.722000  0.754800  1.0  -0.0918
  H  H342  1  0.615500  0.548600  0.237400  1.0  -0.0475
  H  H343  1  0.683300  0.649700  0.447000  1.0  -0.0416
  H  H344  1  0.209300  0.031100  0.767900  1.0  -0.1002
  H  H345  1  0.048800  0.139100  0.826800  1.0  0.1684
  H  H346  1  0.990600  0.222000  0.254800  1.0  -0.0918
  H  H347  1  0.115500  0.048600  0.737400  1.0  -0.0415
  H  H348  1  0.183300  0.149700  0.947000  1.0  -0.0416
  H  H349  1  0.718900  0.459300  0.517900  1.0  -0.1001
  H  H350  1  0.610900  0.298800  0.576800  1.0  0.1694
  H  H351  1  0.528000  0.240600  0.004800  1.0  -0.0915
  H  H352  1  0.701400  0.365500  0.487400  1.0  -0.0471
  H  H353  1  0.600300  0.433300  0.697000  1.0  -0.0402
  H  H354  1  0.218900  0.959300  0.017900  1.0  -0.0999
  H  H355  1  0.110900  0.798800  0.076800  1.0  0.1694
  H  H356  1  0.028000  0.740600  0.504800  1.0  -0.0915
  H  H357  1  0.201400  0.865500  0.987400  1.0  -0.0471
  H  H358  1  0.100300  0.933300  0.197000  1.0  -0.0411
  H  H359  1  0.781100  0.540700  0.017900  1.0  -0.1001
  H  H360  1  0.889100  0.701200  0.076800  1.0  0.1684
  H  H361  1  0.972000  0.759400  0.504800  1.0  -0.0896
  H  H362  1  0.798600  0.634500  0.987400  1.0  -0.0456
  H  H363  1  0.899700  0.566700  0.197000  1.0  -0.0395
  H  H364  1  0.281100  0.040700  0.517900  1.0  -0.1001
  H  H365  1  0.389100  0.201200  0.576800  1.0  0.1684
  H  H366  1  0.472000  0.259400  0.004800  1.0  -0.0896
  H  H367  1  0.298600  0.134500  0.487400  1.0  -0.0456
  H  H368  1  0.399700  0.066700  0.697000  1.0  -0.0398
  H  H369  1  0.290700  0.531100  0.767900  1.0  -0.0999
  H  H370  1  0.451200  0.639100  0.826800  1.0  0.1686
  H  H371  1  0.509400  0.722000  0.254800  1.0  -0.0912
  H  H372  1  0.384500  0.548600  0.737400  1.0  -0.0463
  H  H373  1  0.316700  0.649700  0.947000  1.0  -0.0421
  H  H374  1  0.790700  0.031100  0.267900  1.0  -0.0999
  H  H375  1  0.951200  0.139100  0.326800  1.0  0.1686
  H  H376  1  0.009400  0.222000  0.754800  1.0  -0.0912
  H  H377  1  0.884500  0.048600  0.237400  1.0  -0.0399
  H  H378  1  0.816700  0.149700  0.447000  1.0  -0.0421
  H  H379  1  0.209300  0.468900  0.267900  1.0  -0.0999
  H  H380  1  0.048800  0.360900  0.326800  1.0  0.1685
  H  H381  1  0.990600  0.278000  0.754800  1.0  -0.0914
  H  H382  1  0.115500  0.451400  0.237400  1.0  -0.0483
  H  H383  1  0.183300  0.350300  0.447000  1.0  -0.0396
  H  H384  1  0.709300  0.968900  0.767900  1.0  -0.0999
  H  H385  1  0.548800  0.860900  0.826800  1.0  0.1685
  H  H386  1  0.490600  0.778000  0.254800  1.0  -0.0914
  H  H387  1  0.615500  0.951400  0.737400  1.0  -0.0483
  H  H388  1  0.683300  0.850300  0.947000  1.0  -0.0396
  H  H389  1  0.218900  0.540700  0.517900  1.0  -0.0995
  H  H390  1  0.110900  0.701200  0.576800  1.0  0.1698
  H  H391  1  0.028000  0.759400  0.004800  1.0  -0.0919
  H  H392  1  0.201400  0.634500  0.487400  1.0  -0.0473
  H  H393  1  0.100300  0.566700  0.697000  1.0  -0.0366
  H  H394  1  0.718900  0.040700  0.017900  1.0  -0.0997
  H  H395  1  0.610900  0.201200  0.076800  1.0  0.1698
  H  H396  1  0.528000  0.259400  0.504800  1.0  -0.0919
  H  H397  1  0.701400  0.134500  0.987400  1.0  -0.0473
  H  H398  1  0.600300  0.066700  0.197000  1.0  -0.04
  H  H399  1  0.281100  0.459300  0.017900  1.0  -0.1005
  H  H400  1  0.389100  0.298800  0.076800  1.0  0.168
  H  H401  1  0.472000  0.240600  0.504800  1.0  -0.0891
  H  H402  1  0.298600  0.365500  0.987400  1.0  -0.0461
  H  H403  1  0.399700  0.433300  0.197000  1.0  -0.0403
  H  H404  1  0.781100  0.959300  0.517900  1.0  -0.1005
  H  H405  1  0.889100  0.798800  0.576800  1.0  0.168
  H  H406  1  0.972000  0.740600  0.004800  1.0  -0.0891
  H  H407  1  0.798600  0.865500  0.487400  1.0  -0.0461
  H  H408  1  0.899700  0.933300  0.697000  1.0  -0.0401
  H  H409  1  0.209300  0.531100  0.232100  1.0  -0.1009
  H  H410  1  0.048800  0.639100  0.173200  1.0  0.17
  H  H411  1  0.990600  0.722000  0.745200  1.0  -0.0916
  H  H412  1  0.115500  0.548600  0.262600  1.0  -0.0471
  H  H413  1  0.183300  0.649700  0.053000  1.0  -0.0424
  H  H414  1  0.709300  0.031100  0.732100  1.0  -0.1009
  H  H415  1  0.548800  0.139100  0.673200  1.0  0.17
  H  H416  1  0.490600  0.222000  0.245200  1.0  -0.0916
  H  H417  1  0.615500  0.048600  0.762600  1.0  -0.0471
  H  H418  1  0.683300  0.149700  0.553000  1.0  -0.0424
  H  H419  1  0.290700  0.468900  0.732100  1.0  -0.0998
  H  H420  1  0.451200  0.360900  0.673200  1.0  0.1712
  H  H421  1  0.509400  0.278000  0.245200  1.0  -0.0914
  H  H422  1  0.384500  0.451400  0.762600  1.0  -0.046
  H  H423  1  0.316700  0.350300  0.553000  1.0  -0.0419
  H  H424  1  0.790700  0.968900  0.232100  1.0  -0.0998
  H  H425  1  0.951200  0.860900  0.173200  1.0  0.1712
  H  H426  1  0.009400  0.778000  0.745200  1.0  -0.0914
  H  H427  1  0.884500  0.951400  0.262600  1.0  -0.0395
  H  H428  1  0.816700  0.850300  0.053000  1.0  -0.0419
  H  H429  1  0.281100  0.540700  0.482100  1.0  -0.1005
  H  H430  1  0.389100  0.701200  0.423200  1.0  0.1701
  H  H431  1  0.472000  0.759400  0.995200  1.0  -0.0893
  H  H432  1  0.298600  0.634500  0.512600  1.0  -0.0448
  H  H433  1  0.399700  0.566700  0.303000  1.0  -0.0417
  H  H434  1  0.781100  0.040700  0.982100  1.0  -0.1005
  H  H435  1  0.889100  0.201200  0.923200  1.0  0.1701
  H  H436  1  0.972000  0.259400  0.495200  1.0  -0.0893
  H  H437  1  0.798600  0.134500  0.012600  1.0  -0.0448
  H  H438  1  0.899700  0.066700  0.803000  1.0  -0.0421
  H  H439  1  0.218900  0.459300  0.982100  1.0  -0.1008
  H  H440  1  0.110900  0.298800  0.923200  1.0  0.1707
  H  H441  1  0.028000  0.240600  0.495200  1.0  -0.0916
  H  H442  1  0.201400  0.365500  0.012600  1.0  -0.0462
  H  H443  1  0.100300  0.433300  0.803000  1.0  -0.0409
  H  H444  1  0.718900  0.959300  0.482100  1.0  -0.101
  H  H445  1  0.610900  0.798800  0.423200  1.0  0.1707
  H  H446  1  0.528000  0.740600  0.995200  1.0  -0.0916
  H  H447  1  0.701400  0.865500  0.512600  1.0  -0.0462
  H  H448  1  0.600300  0.933300  0.303000  1.0  -0.0412
  O  O449  1  0.749230  0.450200  0.172600  1.0  -0.8072
  O  O450  1  0.711580  0.452260  0.010500  1.0  -0.8205
  O  O451  1  0.710610  0.425150  0.211900  1.0  -0.7867
  O  O452  1  0.547700  0.342050  0.990700  1.0  -0.7645
  O  O453  1  0.577510  0.342190  0.182700  1.0  -0.7086
  O  O454  1  0.578700  0.375100  0.003900  1.0  -0.7124
  O  O455  1  0.505370  0.300900  0.914300  1.0  -0.842
  O  O456  1  0.532210  0.305790  0.703200  1.0  -0.7597
  O  O457  1  0.484490  0.316220  0.708500  1.0  -0.792
  O  O458  1  0.650530  0.429400  0.197400  1.0  -0.781
  O  O459  1  0.609810  0.404440  0.226100  1.0  -0.7819
  O  O460  1  0.628200  0.425200  0.420500  1.0  -0.7735
  O  O461  1  0.637900  0.364600  0.041000  1.0  -0.7857
  O  O462  1  0.666667  0.364900  0.837300  1.0  -0.732
  O  O463  1  0.679700  0.389600  0.027000  1.0  -0.7372
  O  O464  1  0.249230  0.950200  0.672600  1.0  -0.8072
  O  O465  1  0.211580  0.952260  0.510500  1.0  -0.8205
  O  O466  1  0.210610  0.925150  0.711900  1.0  -0.7867
  O  O467  1  0.047700  0.842050  0.490700  1.0  -0.7645
  O  O468  1  0.077510  0.842190  0.682700  1.0  -0.7086
  O  O469  1  0.078700  0.875100  0.503900  1.0  -0.7124
  O  O470  1  0.005370  0.800900  0.414300  1.0  -0.842
  O  O471  1  0.032210  0.805790  0.203200  1.0  -0.7597
  O  O472  1  0.984490  0.816220  0.208500  1.0  -0.792
  O  O473  1  0.150530  0.929400  0.697400  1.0  -0.781
  O  O474  1  0.109810  0.904440  0.726100  1.0  -0.7819
  O  O475  1  0.128200  0.925200  0.920500  1.0  -0.7735
  O  O476  1  0.137900  0.864600  0.541000  1.0  -0.7866
  O  O477  1  0.166600  0.864900  0.337300  1.0  -0.7348
  O  O478  1  0.179700  0.889600  0.527000  1.0  -0.7374
  O  O479  1  0.750770  0.549800  0.672600  1.0  -0.8041
  O  O480  1  0.788420  0.547740  0.510500  1.0  -0.8223
  O  O481  1  0.789390  0.574850  0.711900  1.0  -0.7878
  O  O482  1  0.952300  0.657950  0.490700  1.0  -0.7628
  O  O483  1  0.922490  0.657810  0.682700  1.0  -0.7077
  O  O484  1  0.921300  0.624900  0.503900  1.0  -0.7128
  O  O485  1  0.994630  0.699100  0.414300  1.0  -0.8411
  O  O486  1  0.967790  0.694210  0.203200  1.0  -0.7591
  O  O487  1  0.015510  0.683780  0.208500  1.0  -0.7913
  O  O488  1  0.849470  0.570600  0.697400  1.0  -0.7802
  O  O489  1  0.890190  0.595560  0.726100  1.0  -0.7821
  O  O490  1  0.871800  0.574800  0.920500  1.0  -0.7727
  O  O491  1  0.862100  0.635400  0.541000  1.0  -0.7839
  O  O492  1  0.833400  0.635100  0.337300  1.0  -0.7369
  O  O493  1  0.820300  0.610400  0.527000  1.0  -0.7389
  O  O494  1  0.250770  0.049800  0.172600  1.0  -0.8044
  O  O495  1  0.288420  0.047740  0.010500  1.0  -0.8223
  O  O496  1  0.289390  0.074850  0.211900  1.0  -0.7878
  O  O497  1  0.452300  0.157950  0.990700  1.0  -0.7628
  O  O498  1  0.422490  0.157810  0.182700  1.0  -0.7077
  O  O499  1  0.421300  0.124900  0.003900  1.0  -0.7128
  O  O500  1  0.494630  0.199100  0.914300  1.0  -0.8411
  O  O501  1  0.467790  0.194210  0.703200  1.0  -0.7591
  O  O502  1  0.515510  0.183780  0.708500  1.0  -0.7913
  O  O503  1  0.349470  0.070600  0.197400  1.0  -0.7802
  O  O504  1  0.390190  0.095560  0.226100  1.0  -0.7821
  O  O505  1  0.371800  0.074800  0.420500  1.0  -0.7727
  O  O506  1  0.362100  0.135400  0.041000  1.0  -0.7839
  O  O507  1  0.333400  0.135100  0.837300  1.0  -0.7369
  O  O508  1  0.320300  0.110400  0.027000  1.0  -0.7389
  O  O509  1  0.799800  0.499230  0.422600  1.0  -0.8048
  O  O510  1  0.797740  0.461580  0.260500  1.0  -0.8217
  O  O511  1  0.824850  0.460610  0.461900  1.0  -0.7881
  O  O512  1  0.907950  0.297700  0.240700  1.0  -0.7673
  O  O513  1  0.907810  0.327510  0.432700  1.0  -0.7078
  O  O514  1  0.874900  0.328700  0.253900  1.0  -0.7099
  O  O515  1  0.949100  0.255370  0.164300  1.0  -0.8424
  O  O516  1  0.944210  0.282210  0.953200  1.0  -0.7585
  O  O517  1  0.933780  0.234490  0.958500  1.0  -0.7924
  O  O518  1  0.820600  0.400530  0.447400  1.0  -0.7791
  O  O519  1  0.845560  0.359810  0.476100  1.0  -0.7834
  O  O520  1  0.824800  0.378200  0.670500  1.0  -0.7755
  O  O521  1  0.885400  0.387900  0.291000  1.0  -0.7849
  O  O522  1  0.885100  0.416600  0.087300  1.0  -0.7366
  O  O523  1  0.860400  0.429700  0.277000  1.0  -0.7373
  O  O524  1  0.299800  0.999230  0.922600  1.0  -0.8048
  O  O525  1  0.297740  0.961580  0.760500  1.0  -0.8217
  O  O526  1  0.324850  0.960610  0.961900  1.0  -0.7881
  O  O527  1  0.407950  0.797700  0.740700  1.0  -0.7673
  O  O528  1  0.407810  0.827510  0.932700  1.0  -0.7078
  O  O529  1  0.374900  0.828700  0.753900  1.0  -0.7099
  O  O530  1  0.449100  0.755370  0.664300  1.0  -0.8424
  O  O531  1  0.444210  0.782210  0.453200  1.0  -0.7585
  O  O532  1  0.433780  0.734490  0.458500  1.0  -0.7924
  O  O533  1  0.320600  0.900530  0.947400  1.0  -0.7791
  O  O534  1  0.345560  0.859810  0.976100  1.0  -0.7834
  O  O535  1  0.324800  0.878200  0.170500  1.0  -0.7755
  O  O536  1  0.385400  0.887900  0.791000  1.0  -0.7849
  O  O537  1  0.385100  0.916600  0.587300  1.0  -0.7366
  O  O538  1  0.360400  0.929700  0.777000  1.0  -0.7373
  O  O539  1  0.700200  0.500770  0.922600  1.0  -0.8054
  O  O540  1  0.702260  0.538420  0.760500  1.0  -0.821
  O  O541  1  0.675150  0.539390  0.961900  1.0  -0.7886
  O  O542  1  0.592050  0.702300  0.740700  1.0  -0.7643
  O  O543  1  0.592190  0.672490  0.932700  1.0  -0.7091
  O  O544  1  0.625100  0.671300  0.753900  1.0  -0.71
  O  O545  1  0.550900  0.744630  0.664300  1.0  -0.8411
  O  O546  1  0.555790  0.717790  0.453200  1.0  -0.7585
  O  O547  1  0.566220  0.765510  0.458500  1.0  -0.7947
  O  O548  1  0.679400  0.599470  0.947400  1.0  -0.7789
  O  O549  1  0.654440  0.640190  0.976100  1.0  -0.7818
  O  O550  1  0.675200  0.621800  0.170500  1.0  -0.7751
  O  O551  1  0.614600  0.612100  0.791000  1.0  -0.785
  O  O552  1  0.614900  0.583400  0.587300  1.0  -0.7382
  O  O553  1  0.639600  0.570300  0.777000  1.0  -0.7378
  O  O554  1  0.200200  0.000770  0.422600  1.0  -0.8054
  O  O555  1  0.202260  0.038420  0.260500  1.0  -0.821
  O  O556  1  0.175150  0.039390  0.461900  1.0  -0.7886
  O  O557  1  0.092050  0.202300  0.240700  1.0  -0.7643
  O  O558  1  0.092190  0.172490  0.432700  1.0  -0.7091
  O  O559  1  0.125100  0.171300  0.253900  1.0  -0.7102
  O  O560  1  0.050900  0.244630  0.164300  1.0  -0.8411
  O  O561  1  0.055790  0.217790  0.953200  1.0  -0.7585
  O  O562  1  0.066220  0.265510  0.958500  1.0  -0.7947
  O  O563  1  0.179400  0.099470  0.447400  1.0  -0.7789
  O  O564  1  0.154440  0.140190  0.476100  1.0  -0.7818
  O  O565  1  0.175200  0.121800  0.670500  1.0  -0.7751
  O  O566  1  0.114600  0.112100  0.291000  1.0  -0.7853
  O  O567  1  0.114900  0.083400  0.087300  1.0  -0.7381
  O  O568  1  0.139600  0.070300  0.277000  1.0  -0.7378
  O  O569  1  0.750770  0.450200  0.827400  1.0  -0.806
  O  O570  1  0.788420  0.452260  0.989500  1.0  -0.8217
  O  O571  1  0.789390  0.425150  0.788100  1.0  -0.787
  O  O572  1  0.952300  0.342050  0.009300  1.0  -0.7651
  O  O573  1  0.922490  0.342190  0.817300  1.0  -0.7083
  O  O574  1  0.921300  0.375100  0.996100  1.0  -0.7113
  O  O575  1  0.994630  0.300900  0.085700  1.0  -0.8409
  O  O576  1  0.967790  0.305790  0.296800  1.0  -0.7592
  O  O577  1  0.015510  0.316220  0.291500  1.0  -0.7925
  O  O578  1  0.849470  0.429400  0.802600  1.0  -0.7804
  O  O579  1  0.890190  0.404440  0.773900  1.0  -0.7828
  O  O580  1  0.871800  0.425200  0.579500  1.0  -0.7732
  O  O581  1  0.862100  0.364600  0.959000  1.0  -0.7852
  O  O582  1  0.833400  0.364900  0.162700  1.0  -0.7354
  O  O583  1  0.820300  0.389600  0.973000  1.0  -0.7392
  O  O584  1  0.250770  0.950200  0.327400  1.0  -0.8061
  O  O585  1  0.288420  0.952260  0.489500  1.0  -0.8217
  O  O586  1  0.289390  0.925150  0.288100  1.0  -0.787
  O  O587  1  0.452300  0.842050  0.509300  1.0  -0.7651
  O  O588  1  0.422490  0.842190  0.317300  1.0  -0.7083
  O  O589  1  0.421300  0.875100  0.496100  1.0  -0.7113
  O  O590  1  0.494630  0.800900  0.585700  1.0  -0.8409
  O  O591  1  0.467790  0.805790  0.796800  1.0  -0.7592
  O  O592  1  0.515510  0.816220  0.791500  1.0  -0.7925
  O  O593  1  0.349470  0.929400  0.302600  1.0  -0.7804
  O  O594  1  0.390190  0.904440  0.273900  1.0  -0.7828
  O  O595  1  0.371800  0.925200  0.079500  1.0  -0.7732
  O  O596  1  0.362100  0.864600  0.459000  1.0  -0.7852
  O  O597  1  0.333400  0.864900  0.662700  1.0  -0.7354
  O  O598  1  0.320300  0.889600  0.473000  1.0  -0.7392
  O  O599  1  0.749230  0.549800  0.327400  1.0  -0.8057
  O  O600  1  0.711580  0.547740  0.489500  1.0  -0.8213
  O  O601  1  0.710610  0.574850  0.288100  1.0  -0.7862
  O  O602  1  0.547700  0.657950  0.509300  1.0  -0.7659
  O  O603  1  0.577510  0.657810  0.317300  1.0  -0.7072
  O  O604  1  0.578700  0.624900  0.496100  1.0  -0.7135
  O  O605  1  0.505370  0.699100  0.585700  1.0  -0.8425
  O  O606  1  0.532210  0.694210  0.796800  1.0  -0.7609
  O  O607  1  0.484490  0.683780  0.791500  1.0  -0.7913
  O  O608  1  0.650530  0.570600  0.302600  1.0  -0.7814
  O  O609  1  0.609810  0.595560  0.273900  1.0  -0.7833
  O  O610  1  0.628200  0.574800  0.079500  1.0  -0.7743
  O  O611  1  0.637900  0.635400  0.459000  1.0  -0.7838
  O  O612  1  0.666667  0.635100  0.662700  1.0  -0.7307
  O  O613  1  0.679700  0.610400  0.473000  1.0  -0.7377
  O  O614  1  0.249230  0.049800  0.827400  1.0  -0.8057
  O  O615  1  0.211580  0.047740  0.989500  1.0  -0.8213
  O  O616  1  0.210610  0.074850  0.788100  1.0  -0.7862
  O  O617  1  0.047700  0.157950  0.009300  1.0  -0.7659
  O  O618  1  0.077510  0.157810  0.817300  1.0  -0.7072
  O  O619  1  0.078700  0.124900  0.996100  1.0  -0.7135
  O  O620  1  0.005370  0.199100  0.085700  1.0  -0.8425
  O  O621  1  0.032210  0.194210  0.296800  1.0  -0.7609
  O  O622  1  0.984490  0.183780  0.291500  1.0  -0.7913
  O  O623  1  0.150530  0.070600  0.802600  1.0  -0.7814
  O  O624  1  0.109810  0.095560  0.773900  1.0  -0.7833
  O  O625  1  0.128200  0.074800  0.579500  1.0  -0.7743
  O  O626  1  0.137900  0.135400  0.959000  1.0  -0.7845
  O  O627  1  0.166600  0.135100  0.162700  1.0  -0.7328
  O  O628  1  0.179700  0.110400  0.973000  1.0  -0.7379
  O  O629  1  0.700200  0.499230  0.577400  1.0  -0.8051
  O  O630  1  0.702260  0.461580  0.739500  1.0  -0.82
  O  O631  1  0.675150  0.460610  0.538100  1.0  -0.7874
  O  O632  1  0.592050  0.297700  0.759300  1.0  -0.7664
  O  O633  1  0.592190  0.327510  0.567300  1.0  -0.7065
  O  O634  1  0.625100  0.328700  0.746100  1.0  -0.7103
  O  O635  1  0.550900  0.255370  0.835700  1.0  -0.8414
  O  O636  1  0.555790  0.282210  0.046800  1.0  -0.7588
  O  O637  1  0.566220  0.234490  0.041500  1.0  -0.7953
  O  O638  1  0.679400  0.400530  0.552600  1.0  -0.7787
  O  O639  1  0.654440  0.359810  0.523900  1.0  -0.784
  O  O640  1  0.675200  0.378200  0.329500  1.0  -0.7762
  O  O641  1  0.614600  0.387900  0.709000  1.0  -0.7852
  O  O642  1  0.614900  0.416600  0.912700  1.0  -0.7364
  O  O643  1  0.639600  0.429700  0.723000  1.0  -0.7387
  O  O644  1  0.200200  0.999230  0.077400  1.0  -0.8051
  O  O645  1  0.202260  0.961580  0.239500  1.0  -0.82
  O  O646  1  0.175150  0.960610  0.038100  1.0  -0.7874
  O  O647  1  0.092050  0.797700  0.259300  1.0  -0.7664
  O  O648  1  0.092190  0.827510  0.067300  1.0  -0.7065
  O  O649  1  0.125100  0.828700  0.246100  1.0  -0.7104
  O  O650  1  0.050900  0.755370  0.335700  1.0  -0.8414
  O  O651  1  0.055790  0.782210  0.546800  1.0  -0.7588
  O  O652  1  0.066220  0.734490  0.541500  1.0  -0.7953
  O  O653  1  0.179400  0.900530  0.052600  1.0  -0.7787
  O  O654  1  0.154440  0.859810  0.023900  1.0  -0.784
  O  O655  1  0.175200  0.878200  0.829500  1.0  -0.7762
  O  O656  1  0.114600  0.887900  0.209000  1.0  -0.7854
  O  O657  1  0.114900  0.916600  0.412700  1.0  -0.7364
  O  O658  1  0.139600  0.929700  0.223000  1.0  -0.7387
  O  O659  1  0.799800  0.500770  0.077400  1.0  -0.8057
  O  O660  1  0.797740  0.538420  0.239500  1.0  -0.8218
  O  O661  1  0.824850  0.539390  0.038100  1.0  -0.7873
  O  O662  1  0.907950  0.702300  0.259300  1.0  -0.7675
  O  O663  1  0.907810  0.672490  0.067300  1.0  -0.7086
  O  O664  1  0.874900  0.671300  0.246100  1.0  -0.7103
  O  O665  1  0.949100  0.744630  0.335700  1.0  -0.8423
  O  O666  1  0.944210  0.717790  0.546800  1.0  -0.7594
  O  O667  1  0.933780  0.765510  0.541500  1.0  -0.7929
  O  O668  1  0.820600  0.599470  0.052600  1.0  -0.7793
  O  O669  1  0.845560  0.640190  0.023900  1.0  -0.784
  O  O670  1  0.824800  0.621800  0.829500  1.0  -0.7762
  O  O671  1  0.885400  0.612100  0.209000  1.0  -0.7836
  O  O672  1  0.885100  0.583400  0.412700  1.0  -0.7361
  O  O673  1  0.860400  0.570300  0.223000  1.0  -0.7371
  O  O674  1  0.299800  0.000770  0.577400  1.0  -0.8057
  O  O675  1  0.297740  0.038420  0.739500  1.0  -0.8218
  O  O676  1  0.324850  0.039390  0.538100  1.0  -0.7873
  O  O677  1  0.407950  0.202300  0.759300  1.0  -0.7675
  O  O678  1  0.407810  0.172490  0.567300  1.0  -0.7086
  O  O679  1  0.374900  0.171300  0.746100  1.0  -0.7103
  O  O680  1  0.449100  0.244630  0.835700  1.0  -0.8423
  O  O681  1  0.444210  0.217790  0.046800  1.0  -0.7594
  O  O682  1  0.433780  0.265510  0.041500  1.0  -0.7929
  O  O683  1  0.320600  0.099470  0.552600  1.0  -0.7793
  O  O684  1  0.345560  0.140190  0.523900  1.0  -0.784
  O  O685  1  0.324800  0.121800  0.329500  1.0  -0.7762
  O  O686  1  0.385400  0.112100  0.709000  1.0  -0.7836
  O  O687  1  0.385100  0.083400  0.912700  1.0  -0.7361
  O  O688  1  0.360400  0.070300  0.723000  1.0  -0.7371
  O  O689  1  0.250770  0.549800  0.827400  1.0  -0.8051
  O  O690  1  0.288420  0.547740  0.989500  1.0  -0.8225
  O  O691  1  0.289390  0.574850  0.788100  1.0  -0.7874
  O  O692  1  0.452300  0.657950  0.009300  1.0  -0.7649
  O  O693  1  0.422490  0.657810  0.817300  1.0  -0.7064
  O  O694  1  0.421300  0.624900  0.996100  1.0  -0.7135
  O  O695  1  0.494630  0.699100  0.085700  1.0  -0.8413
  O  O696  1  0.467790  0.694210  0.296800  1.0  -0.7599
  O  O697  1  0.515510  0.683780  0.291500  1.0  -0.7915
  O  O698  1  0.349470  0.570600  0.802600  1.0  -0.7804
  O  O699  1  0.390190  0.595560  0.773900  1.0  -0.7823
  O  O700  1  0.371800  0.574800  0.579500  1.0  -0.7728
  O  O701  1  0.362100  0.635400  0.959000  1.0  -0.7836
  O  O702  1  0.333400  0.635100  0.162700  1.0  -0.7358
  O  O703  1  0.320300  0.610400  0.973000  1.0  -0.7393
  O  O704  1  0.750770  0.049800  0.327400  1.0  -0.805
  O  O705  1  0.788420  0.047740  0.489500  1.0  -0.8225
  O  O706  1  0.789390  0.074850  0.288100  1.0  -0.7874
  O  O707  1  0.952300  0.157950  0.509300  1.0  -0.7649
  O  O708  1  0.922490  0.157810  0.317300  1.0  -0.7064
  O  O709  1  0.921300  0.124900  0.496100  1.0  -0.7135
  O  O710  1  0.994630  0.199100  0.585700  1.0  -0.8413
  O  O711  1  0.967790  0.194210  0.796800  1.0  -0.7599
  O  O712  1  0.015510  0.183780  0.791500  1.0  -0.7915
  O  O713  1  0.849470  0.070600  0.302600  1.0  -0.7804
  O  O714  1  0.890190  0.095560  0.273900  1.0  -0.7823
  O  O715  1  0.871800  0.074800  0.079500  1.0  -0.7728
  O  O716  1  0.862100  0.135400  0.459000  1.0  -0.7836
  O  O717  1  0.833400  0.135100  0.662700  1.0  -0.7358
  O  O718  1  0.820300  0.110400  0.473000  1.0  -0.7393
  O  O719  1  0.249230  0.450200  0.327400  1.0  -0.8069
  O  O720  1  0.211580  0.452260  0.489500  1.0  -0.8203
  O  O721  1  0.210610  0.425150  0.288100  1.0  -0.7862
  O  O722  1  0.047700  0.342050  0.509300  1.0  -0.7665
  O  O723  1  0.077510  0.342190  0.317300  1.0  -0.7083
  O  O724  1  0.078700  0.375100  0.496100  1.0  -0.7136
  O  O725  1  0.005370  0.300900  0.585700  1.0  -0.8419
  O  O726  1  0.032210  0.305790  0.796800  1.0  -0.7599
  O  O727  1  0.984490  0.316220  0.791500  1.0  -0.7923
  O  O728  1  0.150530  0.429400  0.302600  1.0  -0.7817
  O  O729  1  0.109810  0.404440  0.273900  1.0  -0.7831
  O  O730  1  0.128200  0.425200  0.079500  1.0  -0.7743
  O  O731  1  0.137900  0.364600  0.459000  1.0  -0.7857
  O  O732  1  0.166600  0.364900  0.662700  1.0  -0.7337
  O  O733  1  0.179700  0.389600  0.473000  1.0  -0.7379
  O  O734  1  0.749230  0.950200  0.827400  1.0  -0.8069
  O  O735  1  0.711580  0.952260  0.989500  1.0  -0.8203
  O  O736  1  0.710610  0.925150  0.788100  1.0  -0.7862
  O  O737  1  0.547700  0.842050  0.009300  1.0  -0.7665
  O  O738  1  0.577510  0.842190  0.817300  1.0  -0.7083
  O  O739  1  0.578700  0.875100  0.996100  1.0  -0.7136
  O  O740  1  0.505370  0.800900  0.085700  1.0  -0.8419
  O  O741  1  0.532210  0.805790  0.296800  1.0  -0.7599
  O  O742  1  0.484490  0.816220  0.291500  1.0  -0.7923
  O  O743  1  0.650530  0.929400  0.802600  1.0  -0.7817
  O  O744  1  0.609810  0.904440  0.773900  1.0  -0.7831
  O  O745  1  0.628200  0.925200  0.579500  1.0  -0.7743
  O  O746  1  0.637900  0.864600  0.959000  1.0  -0.7847
  O  O747  1  0.666667  0.864900  0.162700  1.0  -0.7309
  O  O748  1  0.679700  0.889600  0.973000  1.0  -0.7377
  O  O749  1  0.200200  0.500770  0.577400  1.0  -0.8057
  O  O750  1  0.202260  0.538420  0.739500  1.0  -0.8206
  O  O751  1  0.175150  0.539390  0.538100  1.0  -0.7882
  O  O752  1  0.092050  0.702300  0.759300  1.0  -0.7662
  O  O753  1  0.092190  0.672490  0.567300  1.0  -0.7085
  O  O754  1  0.125100  0.671300  0.746100  1.0  -0.7115
  O  O755  1  0.050900  0.744630  0.835700  1.0  -0.8409
  O  O756  1  0.055790  0.717790  0.046800  1.0  -0.7589
  O  O757  1  0.066220  0.765510  0.041500  1.0  -0.7949
  O  O758  1  0.179400  0.599470  0.552600  1.0  -0.7789
  O  O759  1  0.154440  0.640190  0.523900  1.0  -0.783
  O  O760  1  0.175200  0.621800  0.329500  1.0  -0.7757
  O  O761  1  0.114600  0.612100  0.709000  1.0  -0.7844
  O  O762  1  0.114900  0.583400  0.912700  1.0  -0.7375
  O  O763  1  0.139600  0.570300  0.723000  1.0  -0.7375
  O  O764  1  0.700200  0.000770  0.077400  1.0  -0.8057
  O  O765  1  0.702260  0.038420  0.239500  1.0  -0.8206
  O  O766  1  0.675150  0.039390  0.038100  1.0  -0.7882
  O  O767  1  0.592050  0.202300  0.259300  1.0  -0.7662
  O  O768  1  0.592190  0.172490  0.067300  1.0  -0.7085
  O  O769  1  0.625100  0.171300  0.246100  1.0  -0.7113
  O  O770  1  0.550900  0.244630  0.335700  1.0  -0.8409
  O  O771  1  0.555790  0.217790  0.546800  1.0  -0.7589
  O  O772  1  0.566220  0.265510  0.541500  1.0  -0.7949
  O  O773  1  0.679400  0.099470  0.052600  1.0  -0.7789
  O  O774  1  0.654440  0.140190  0.023900  1.0  -0.783
  O  O775  1  0.675200  0.121800  0.829500  1.0  -0.7757
  O  O776  1  0.614600  0.112100  0.209000  1.0  -0.7842
  O  O777  1  0.614900  0.083400  0.412700  1.0  -0.7376
  O  O778  1  0.639600  0.070300  0.223000  1.0  -0.7375
  O  O779  1  0.299800  0.499230  0.077400  1.0  -0.8054
  O  O780  1  0.297740  0.461580  0.239500  1.0  -0.8215
  O  O781  1  0.324850  0.460610  0.038100  1.0  -0.7868
  O  O782  1  0.407950  0.297700  0.259300  1.0  -0.7687
  O  O783  1  0.407810  0.327510  0.067300  1.0  -0.7065
  O  O784  1  0.374900  0.328700  0.246100  1.0  -0.7107
  O  O785  1  0.449100  0.255370  0.335700  1.0  -0.8429
  O  O786  1  0.444210  0.282210  0.546800  1.0  -0.7591
  O  O787  1  0.433780  0.234490  0.541500  1.0  -0.7927
  O  O788  1  0.320600  0.400530  0.052600  1.0  -0.7792
  O  O789  1  0.345560  0.359810  0.023900  1.0  -0.7838
  O  O790  1  0.324800  0.378200  0.829500  1.0  -0.7762
  O  O791  1  0.385400  0.387900  0.209000  1.0  -0.7845
  O  O792  1  0.385100  0.416600  0.412700  1.0  -0.7351
  O  O793  1  0.360400  0.429700  0.223000  1.0  -0.7375
  O  O794  1  0.799800  0.999230  0.577400  1.0  -0.8054
  O  O795  1  0.797740  0.961580  0.739500  1.0  -0.8215
  O  O796  1  0.824850  0.960610  0.538100  1.0  -0.7868
  O  O797  1  0.907950  0.797700  0.759300  1.0  -0.7687
  O  O798  1  0.907810  0.827510  0.567300  1.0  -0.7065
  O  O799  1  0.874900  0.828700  0.746100  1.0  -0.7107
  O  O800  1  0.949100  0.755370  0.835700  1.0  -0.8429
  O  O801  1  0.944210  0.782210  0.046800  1.0  -0.7591
  O  O802  1  0.933780  0.734490  0.041500  1.0  -0.7927
  O  O803  1  0.820600  0.900530  0.552600  1.0  -0.7792
  O  O804  1  0.845560  0.859810  0.523900  1.0  -0.7838
  O  O805  1  0.824800  0.878200  0.329500  1.0  -0.7762
  O  O806  1  0.885400  0.887900  0.709000  1.0  -0.7845
  O  O807  1  0.885100  0.916600  0.912700  1.0  -0.7351
  O  O808  1  0.860400  0.929700  0.723000  1.0  -0.7375
  O  O809  1  0.249230  0.549800  0.172600  1.0  -0.8052
  O  O810  1  0.211580  0.547740  0.010500  1.0  -0.8212
  O  O811  1  0.210610  0.574850  0.211900  1.0  -0.7866
  O  O812  1  0.047700  0.657950  0.990700  1.0  -0.763
  O  O813  1  0.077510  0.657810  0.182700  1.0  -0.7084
  O  O814  1  0.078700  0.624900  0.003900  1.0  -0.7128
  O  O815  1  0.005370  0.699100  0.914300  1.0  -0.8422
  O  O816  1  0.032210  0.694210  0.703200  1.0  -0.76
  O  O817  1  0.984490  0.683780  0.708500  1.0  -0.7912
  O  O818  1  0.150530  0.570600  0.197400  1.0  -0.7808
  O  O819  1  0.109810  0.595560  0.226100  1.0  -0.782
  O  O820  1  0.128200  0.574800  0.420500  1.0  -0.7736
  O  O821  1  0.137900  0.635400  0.041000  1.0  -0.7849
  O  O822  1  0.166600  0.635100  0.837300  1.0  -0.7342
  O  O823  1  0.179700  0.610400  0.027000  1.0  -0.7375
  O  O824  1  0.749230  0.049800  0.672600  1.0  -0.8052
  O  O825  1  0.711580  0.047740  0.510500  1.0  -0.8212
  O  O826  1  0.710610  0.074850  0.711900  1.0  -0.7866
  O  O827  1  0.547700  0.157950  0.490700  1.0  -0.763
  O  O828  1  0.577510  0.157810  0.682700  1.0  -0.7084
  O  O829  1  0.578700  0.124900  0.503900  1.0  -0.7128
  O  O830  1  0.505370  0.199100  0.414300  1.0  -0.8422
  O  O831  1  0.532210  0.194210  0.203200  1.0  -0.76
  O  O832  1  0.484490  0.183780  0.208500  1.0  -0.7912
  O  O833  1  0.650530  0.070600  0.697400  1.0  -0.7808
  O  O834  1  0.609810  0.095560  0.726100  1.0  -0.782
  O  O835  1  0.628200  0.074800  0.920500  1.0  -0.7736
  O  O836  1  0.637900  0.135400  0.541000  1.0  -0.7842
  O  O837  1  0.666667  0.135100  0.337300  1.0  -0.7319
  O  O838  1  0.679700  0.110400  0.527000  1.0  -0.7373
  O  O839  1  0.250770  0.450200  0.672600  1.0  -0.8062
  O  O840  1  0.288420  0.452260  0.510500  1.0  -0.8216
  O  O841  1  0.289390  0.425150  0.711900  1.0  -0.7873
  O  O842  1  0.452300  0.342050  0.490700  1.0  -0.7634
  O  O843  1  0.422490  0.342190  0.682700  1.0  -0.7083
  O  O844  1  0.421300  0.375100  0.503900  1.0  -0.7104
  O  O845  1  0.494630  0.300900  0.414300  1.0  -0.8409
  O  O846  1  0.467790  0.305790  0.203200  1.0  -0.7592
  O  O847  1  0.515510  0.316220  0.208500  1.0  -0.7924
  O  O848  1  0.349470  0.429400  0.697400  1.0  -0.7806
  O  O849  1  0.390190  0.404440  0.726100  1.0  -0.7825
  O  O850  1  0.371800  0.425200  0.920500  1.0  -0.7728
  O  O851  1  0.362100  0.364600  0.541000  1.0  -0.7858
  O  O852  1  0.333400  0.364900  0.337300  1.0  -0.7367
  O  O853  1  0.320300  0.389600  0.527000  1.0  -0.7388
  O  O854  1  0.750770  0.950200  0.172600  1.0  -0.806
  O  O855  1  0.788420  0.952260  0.010500  1.0  -0.8216
  O  O856  1  0.789390  0.925150  0.211900  1.0  -0.7873
  O  O857  1  0.952300  0.842050  0.990700  1.0  -0.7634
  O  O858  1  0.922490  0.842190  0.182700  1.0  -0.7083
  O  O859  1  0.921300  0.875100  0.003900  1.0  -0.7104
  O  O860  1  0.994630  0.800900  0.914300  1.0  -0.8409
  O  O861  1  0.967790  0.805790  0.703200  1.0  -0.7592
  O  O862  1  0.015510  0.816220  0.708500  1.0  -0.7924
  O  O863  1  0.849470  0.929400  0.197400  1.0  -0.7806
  O  O864  1  0.890190  0.904440  0.226100  1.0  -0.7825
  O  O865  1  0.871800  0.925200  0.420500  1.0  -0.7728
  O  O866  1  0.862100  0.864600  0.041000  1.0  -0.7858
  O  O867  1  0.833400  0.864900  0.837300  1.0  -0.7367
  O  O868  1  0.820300  0.889600  0.027000  1.0  -0.7388
  O  O869  1  0.299800  0.500770  0.422600  1.0  -0.8052
  O  O870  1  0.297740  0.538420  0.260500  1.0  -0.8222
  O  O871  1  0.324850  0.539390  0.461900  1.0  -0.7881
  O  O872  1  0.407950  0.702300  0.240700  1.0  -0.7658
  O  O873  1  0.407810  0.672490  0.432700  1.0  -0.7094
  O  O874  1  0.374900  0.671300  0.253900  1.0  -0.709
  O  O875  1  0.449100  0.744630  0.164300  1.0  -0.8424
  O  O876  1  0.444210  0.717790  0.953200  1.0  -0.7595
  O  O877  1  0.433780  0.765510  0.958500  1.0  -0.7924
  O  O878  1  0.320600  0.599470  0.447400  1.0  -0.7792
  O  O879  1  0.345560  0.640190  0.476100  1.0  -0.7826
  O  O880  1  0.324800  0.621800  0.670500  1.0  -0.7752
  O  O881  1  0.385400  0.612100  0.291000  1.0  -0.7842
  O  O882  1  0.385100  0.583400  0.087300  1.0  -0.7366
  O  O883  1  0.360400  0.570300  0.277000  1.0  -0.7374
  O  O884  1  0.799800  0.000770  0.922600  1.0  -0.8052
  O  O885  1  0.797740  0.038420  0.760500  1.0  -0.8222
  O  O886  1  0.824850  0.039390  0.961900  1.0  -0.7881
  O  O887  1  0.907950  0.202300  0.740700  1.0  -0.7658
  O  O888  1  0.907810  0.172490  0.932700  1.0  -0.7094
  O  O889  1  0.874900  0.171300  0.753900  1.0  -0.709
  O  O890  1  0.949100  0.244630  0.664300  1.0  -0.8424
  O  O891  1  0.944210  0.217790  0.453200  1.0  -0.7595
  O  O892  1  0.933780  0.265510  0.458500  1.0  -0.7924
  O  O893  1  0.820600  0.099470  0.947400  1.0  -0.7792
  O  O894  1  0.845560  0.140190  0.976100  1.0  -0.7826
  O  O895  1  0.824800  0.121800  0.170500  1.0  -0.7752
  O  O896  1  0.885400  0.112100  0.791000  1.0  -0.7842
  O  O897  1  0.885100  0.083400  0.587300  1.0  -0.7366
  O  O898  1  0.860400  0.070300  0.777000  1.0  -0.7374
  O  O899  1  0.200200  0.499230  0.922600  1.0  -0.8051
  O  O900  1  0.202260  0.461580  0.760500  1.0  -0.8205
  O  O901  1  0.175150  0.460610  0.961900  1.0  -0.7882
  O  O902  1  0.092050  0.297700  0.740700  1.0  -0.765
  O  O903  1  0.092190  0.327510  0.932700  1.0  -0.7076
  O  O904  1  0.125100  0.328700  0.753900  1.0  -0.7098
  O  O905  1  0.050900  0.255370  0.664300  1.0  -0.8413
  O  O906  1  0.055790  0.282210  0.453200  1.0  -0.7577
  O  O907  1  0.066220  0.234490  0.458500  1.0  -0.795
  O  O908  1  0.179400  0.400530  0.947400  1.0  -0.7788
  O  O909  1  0.154440  0.359810  0.976100  1.0  -0.7837
  O  O910  1  0.175200  0.378200  0.170500  1.0  -0.7758
  O  O911  1  0.114600  0.387900  0.791000  1.0  -0.7862
  O  O912  1  0.114900  0.416600  0.587300  1.0  -0.7384
  O  O913  1  0.139600  0.429700  0.777000  1.0  -0.7386
  O  O914  1  0.700200  0.999230  0.422600  1.0  -0.8051
  O  O915  1  0.702260  0.961580  0.260500  1.0  -0.8205
  O  O916  1  0.675150  0.960610  0.461900  1.0  -0.7882
  O  O917  1  0.592050  0.797700  0.240700  1.0  -0.765
  O  O918  1  0.592190  0.827510  0.432700  1.0  -0.7076
  O  O919  1  0.625100  0.828700  0.253900  1.0  -0.7097
  O  O920  1  0.550900  0.755370  0.164300  1.0  -0.8413
  O  O921  1  0.555790  0.782210  0.953200  1.0  -0.7577
  O  O922  1  0.566220  0.734490  0.958500  1.0  -0.795
  O  O923  1  0.679400  0.900530  0.447400  1.0  -0.7788
  O  O924  1  0.654440  0.859810  0.476100  1.0  -0.7837
  O  O925  1  0.675200  0.878200  0.670500  1.0  -0.7758
  O  O926  1  0.614600  0.887900  0.291000  1.0  -0.7859
  O  O927  1  0.614900  0.916600  0.087300  1.0  -0.7384
  O  O928  1  0.639600  0.929700  0.277000  1.0  -0.7386
  F  F929  1  0.750000  0.490680  0.000000  1.0  -0.5743
  F  F930  1  0.250000  0.990680  0.500000  1.0  -0.5743
  F  F931  1  0.750000  0.509320  0.500000  1.0  -0.5767
  F  F932  1  0.250000  0.009320  0.000000  1.0  -0.5767
  F  F933  1  0.759320  0.500000  0.250000  1.0  -0.5745
  F  F934  1  0.259320  0.000000  0.750000  1.0  -0.5745
  F  F935  1  0.740680  0.500000  0.750000  1.0  -0.5761
  F  F936  1  0.240680  0.000000  0.250000  1.0  -0.5761
  F  F937  1  0.250000  0.509320  0.000000  1.0  -0.5767
  F  F938  1  0.750000  0.009320  0.500000  1.0  -0.5767
  F  F939  1  0.250000  0.490680  0.500000  1.0  -0.5743
  F  F940  1  0.750000  0.990680  0.000000  1.0  -0.5743
  F  F941  1  0.240680  0.500000  0.750000  1.0  -0.5761
  F  F942  1  0.740680  0.000000  0.250000  1.0  -0.5761
  F  F943  1  0.259320  0.500000  0.250000  1.0  -0.5745
  F  F944  1  0.759320  0.000000  0.750000  1.0  -0.5745
