# generated using pymatgen
data_Zn23Ga4P34H34(O51F2)2
_symmetry_space_group_name_H-M   'P 1'
_cell_length_a   48.56100000
_cell_length_b   66.34000000
_cell_length_c   10.03760000
_cell_angle_alpha   90.00000000
_cell_angle_beta   90.00000000
_cell_angle_gamma   90.00000000
_symmetry_Int_Tables_number   1
_chemical_formula_structural   Zn23Ga4P34H34(O51F2)2
_chemical_formula_sum   'Zn92 Ga16 P136 H136 O408 F16'
_cell_volume   32336.49718142
_cell_formula_units_Z   4
loop_
 _symmetry_equiv_pos_site_id
 _symmetry_equiv_pos_as_xyz
  1  'x, y, z'
loop_
 _atom_site_type_symbol
 _atom_site_label
 _atom_site_symmetry_multiplicity
 _atom_site_fract_x
 _atom_site_fract_y
 _atom_site_fract_z
 _atom_site_occupancy
 _atom_site_charge
  Zn  Zn1  1  0.231680  0.091410  0.422750  1.0  1.1398
  Zn  Zn2  1  0.438770  0.983810  0.829370  1.0  1.1273
  Zn  Zn3  1  0.227960  0.138070  0.920080  1.0  1.1098
  Zn  Zn4  1  0.229290  0.227490  0.913170  1.0  1.0775
  Zn  Zn5  1  0.374850  0.013200  0.672870  1.0  1.1241
  Zn  Zn6  1  0.731680  0.591410  0.422750  1.0  1.1398
  Zn  Zn7  1  0.938770  0.483810  0.829370  1.0  1.1273
  Zn  Zn8  1  0.727960  0.638070  0.920080  1.0  1.1098
  Zn  Zn9  1  0.729290  0.727490  0.913170  1.0  1.0775
  Zn  Zn10  1  0.874850  0.513200  0.672870  1.0  1.1241
  Zn  Zn11  1  0.768320  0.408590  0.922750  1.0  1.1404
  Zn  Zn12  1  0.561230  0.516190  0.329370  1.0  1.1265
  Zn  Zn13  1  0.772040  0.361930  0.420080  1.0  1.1102
  Zn  Zn14  1  0.770710  0.272510  0.413170  1.0  1.0773
  Zn  Zn15  1  0.625150  0.486800  0.172870  1.0  1.1232
  Zn  Zn16  1  0.268320  0.908590  0.922750  1.0  1.1404
  Zn  Zn17  1  0.061230  0.016190  0.329370  1.0  1.1265
  Zn  Zn18  1  0.272040  0.861930  0.420080  1.0  1.1102
  Zn  Zn19  1  0.270710  0.772510  0.413170  1.0  1.0773
  Zn  Zn20  1  0.125150  0.986800  0.172870  1.0  1.1232
  Zn  Zn21  1  0.768320  0.591410  0.077250  1.0  1.1393
  Zn  Zn22  1  0.561230  0.483810  0.670630  1.0  1.1289
  Zn  Zn23  1  0.772040  0.638070  0.579920  1.0  1.1118
  Zn  Zn24  1  0.770710  0.727490  0.586830  1.0  1.0772
  Zn  Zn25  1  0.625150  0.513200  0.827130  1.0  1.1254
  Zn  Zn26  1  0.268320  0.091410  0.077250  1.0  1.1393
  Zn  Zn27  1  0.061230  0.983810  0.670630  1.0  1.1289
  Zn  Zn28  1  0.272040  0.138070  0.579920  1.0  1.1118
  Zn  Zn29  1  0.270710  0.227490  0.586830  1.0  1.0772
  Zn  Zn30  1  0.125150  0.013200  0.827130  1.0  1.1254
  Zn  Zn31  1  0.231680  0.908590  0.577250  1.0  1.1403
  Zn  Zn32  1  0.438770  0.016190  0.170630  1.0  1.1296
  Zn  Zn33  1  0.227960  0.861930  0.079920  1.0  1.1118
  Zn  Zn34  1  0.229290  0.772510  0.086830  1.0  1.0773
  Zn  Zn35  1  0.374850  0.986800  0.327130  1.0  1.1248
  Zn  Zn36  1  0.731680  0.408590  0.577250  1.0  1.1403
  Zn  Zn37  1  0.938770  0.516190  0.170630  1.0  1.1296
  Zn  Zn38  1  0.727960  0.361930  0.079920  1.0  1.1118
  Zn  Zn39  1  0.729290  0.272510  0.086830  1.0  1.0773
  Zn  Zn40  1  0.874850  0.486800  0.327130  1.0  1.1248
  Zn  Zn41  1  0.768320  0.908590  0.577250  1.0  1.141
  Zn  Zn42  1  0.561230  0.016190  0.170630  1.0  1.1262
  Zn  Zn43  1  0.772040  0.861930  0.079920  1.0  1.1103
  Zn  Zn44  1  0.770710  0.772510  0.086830  1.0  1.0771
  Zn  Zn45  1  0.625150  0.986800  0.327130  1.0  1.1237
  Zn  Zn46  1  0.268320  0.408590  0.577250  1.0  1.141
  Zn  Zn47  1  0.061230  0.516190  0.170630  1.0  1.1262
  Zn  Zn48  1  0.272040  0.361930  0.079920  1.0  1.1103
  Zn  Zn49  1  0.270710  0.272510  0.086830  1.0  1.0771
  Zn  Zn50  1  0.125150  0.486800  0.327130  1.0  1.1237
  Zn  Zn51  1  0.231680  0.591410  0.077250  1.0  1.14
  Zn  Zn52  1  0.438770  0.483810  0.670630  1.0  1.1272
  Zn  Zn53  1  0.227960  0.638070  0.579920  1.0  1.1099
  Zn  Zn54  1  0.229290  0.727490  0.586830  1.0  1.0773
  Zn  Zn55  1  0.374850  0.513200  0.827130  1.0  1.1246
  Zn  Zn56  1  0.731680  0.091410  0.077250  1.0  1.14
  Zn  Zn57  1  0.938770  0.983810  0.670630  1.0  1.1272
  Zn  Zn58  1  0.727960  0.138070  0.579920  1.0  1.1099
  Zn  Zn59  1  0.729290  0.227490  0.586830  1.0  1.0773
  Zn  Zn60  1  0.874850  0.013200  0.827130  1.0  1.1246
  Zn  Zn61  1  0.231680  0.408590  0.922750  1.0  1.1398
  Zn  Zn62  1  0.438770  0.516190  0.329370  1.0  1.1297
  Zn  Zn63  1  0.227960  0.361930  0.420080  1.0  1.1116
  Zn  Zn64  1  0.229290  0.272510  0.413170  1.0  1.0774
  Zn  Zn65  1  0.374850  0.486800  0.172870  1.0  1.1244
  Zn  Zn66  1  0.731680  0.908590  0.922750  1.0  1.1398
  Zn  Zn67  1  0.938770  0.016190  0.329370  1.0  1.1297
  Zn  Zn68  1  0.727960  0.861930  0.420080  1.0  1.1116
  Zn  Zn69  1  0.729290  0.772510  0.413170  1.0  1.0774
  Zn  Zn70  1  0.874850  0.986800  0.172870  1.0  1.1244
  Zn  Zn71  1  0.768320  0.091410  0.422750  1.0  1.1388
  Zn  Zn72  1  0.561230  0.983810  0.829370  1.0  1.129
  Zn  Zn73  1  0.772040  0.138070  0.920080  1.0  1.1118
  Zn  Zn74  1  0.770710  0.227490  0.913170  1.0  1.0775
  Zn  Zn75  1  0.625150  0.013200  0.672870  1.0  1.1249
  Zn  Zn76  1  0.268320  0.591410  0.422750  1.0  1.1388
  Zn  Zn77  1  0.061230  0.483810  0.829370  1.0  1.129
  Zn  Zn78  1  0.272040  0.638070  0.920080  1.0  1.1118
  Zn  Zn79  1  0.270710  0.727490  0.913170  1.0  1.0775
  Zn  Zn80  1  0.125150  0.513200  0.672870  1.0  1.1249
  Zn  Zn81  1  0.500000  0.000000  0.500000  1.0  0.9377
  Zn  Zn82  1  0.000000  0.500000  0.500000  1.0  0.9377
  Zn  Zn83  1  0.500000  0.500000  0.000000  1.0  0.9377
  Zn  Zn84  1  0.000000  0.000000  0.000000  1.0  0.9377
  Zn  Zn85  1  0.250000  0.182630  0.250000  1.0  0.8465
  Zn  Zn86  1  0.750000  0.317370  0.750000  1.0  0.8464
  Zn  Zn87  1  0.750000  0.682630  0.250000  1.0  0.8465
  Zn  Zn88  1  0.250000  0.817370  0.750000  1.0  0.8464
  Zn  Zn89  1  0.750000  0.817370  0.750000  1.0  0.8464
  Zn  Zn90  1  0.250000  0.682630  0.250000  1.0  0.8465
  Zn  Zn91  1  0.250000  0.317370  0.750000  1.0  0.8464
  Zn  Zn92  1  0.750000  0.182630  0.250000  1.0  0.8465
  Ga  Ga93  1  0.250000  0.026840  0.750000  1.0  1.5358
  Ga  Ga94  1  0.750000  0.473160  0.250000  1.0  1.5354
  Ga  Ga95  1  0.750000  0.526840  0.750000  1.0  1.5358
  Ga  Ga96  1  0.250000  0.973160  0.250000  1.0  1.5354
  Ga  Ga97  1  0.750000  0.973160  0.250000  1.0  1.5354
  Ga  Ga98  1  0.250000  0.526840  0.750000  1.0  1.5358
  Ga  Ga99  1  0.250000  0.473160  0.250000  1.0  1.5354
  Ga  Ga100  1  0.750000  0.026840  0.750000  1.0  1.5358
  Ga  Ga101  1  0.213260  0.000000  0.500000  1.0  1.5734
  Ga  Ga102  1  0.713260  0.500000  0.500000  1.0  1.5734
  Ga  Ga103  1  0.786740  0.500000  0.000000  1.0  1.573
  Ga  Ga104  1  0.286740  0.000000  0.000000  1.0  1.573
  Ga  Ga105  1  0.786740  0.000000  0.500000  1.0  1.573
  Ga  Ga106  1  0.286740  0.500000  0.500000  1.0  1.573
  Ga  Ga107  1  0.213260  0.500000  0.000000  1.0  1.5734
  Ga  Ga108  1  0.713260  0.000000  0.000000  1.0  1.5734
  P  P109  1  0.310870  0.011450  0.719530  1.0  1.651
  P  P110  1  0.234380  0.044550  0.469810  1.0  1.6406
  P  P111  1  0.400080  0.971600  0.601350  1.0  1.5465
  P  P112  1  0.211450  0.109880  0.146730  1.0  1.4715
  P  P113  1  0.212660  0.121500  0.641270  1.0  1.5044
  P  P114  1  0.215840  0.182980  0.961330  1.0  1.3787
  P  P115  1  0.416000  0.027240  0.890530  1.0  1.4911
  P  P116  1  0.212220  0.255360  0.142200  1.0  1.4441
  P  P117  1  0.810870  0.511450  0.719530  1.0  1.651
  P  P118  1  0.734380  0.544550  0.469810  1.0  1.6406
  P  P119  1  0.900080  0.471600  0.601350  1.0  1.5465
  P  P120  1  0.711450  0.609880  0.146730  1.0  1.4715
  P  P121  1  0.712660  0.621500  0.641270  1.0  1.5044
  P  P122  1  0.715840  0.682980  0.961330  1.0  1.3787
  P  P123  1  0.916000  0.527240  0.890530  1.0  1.4911
  P  P124  1  0.712220  0.755360  0.142200  1.0  1.4441
  P  P125  1  0.689130  0.488550  0.219530  1.0  1.6482
  P  P126  1  0.765620  0.455450  0.969810  1.0  1.6398
  P  P127  1  0.599920  0.528400  0.101350  1.0  1.5437
  P  P128  1  0.788550  0.390120  0.646730  1.0  1.4802
  P  P129  1  0.787340  0.378500  0.141270  1.0  1.5083
  P  P130  1  0.784160  0.317020  0.461330  1.0  1.3866
  P  P131  1  0.584000  0.472760  0.390530  1.0  1.4968
  P  P132  1  0.787780  0.244640  0.642200  1.0  1.4538
  P  P133  1  0.189130  0.988550  0.219530  1.0  1.6482
  P  P134  1  0.265620  0.955450  0.969810  1.0  1.6398
  P  P135  1  0.099920  0.028400  0.101350  1.0  1.5437
  P  P136  1  0.288550  0.890120  0.646730  1.0  1.4802
  P  P137  1  0.287340  0.878500  0.141270  1.0  1.5083
  P  P138  1  0.284160  0.817020  0.461330  1.0  1.3866
  P  P139  1  0.084000  0.972760  0.390530  1.0  1.4968
  P  P140  1  0.287780  0.744640  0.642200  1.0  1.4538
  P  P141  1  0.689130  0.511450  0.780470  1.0  1.6476
  P  P142  1  0.765620  0.544550  0.030190  1.0  1.6398
  P  P143  1  0.599920  0.471600  0.898650  1.0  1.5469
  P  P144  1  0.788550  0.609880  0.353270  1.0  1.4787
  P  P145  1  0.787340  0.621500  0.858730  1.0  1.5081
  P  P146  1  0.784160  0.682980  0.538670  1.0  1.3888
  P  P147  1  0.584000  0.527240  0.609470  1.0  1.4903
  P  P148  1  0.787780  0.755360  0.357800  1.0  1.4531
  P  P149  1  0.189130  0.011450  0.780470  1.0  1.6476
  P  P150  1  0.265620  0.044550  0.030190  1.0  1.6398
  P  P151  1  0.099920  0.971600  0.898650  1.0  1.5469
  P  P152  1  0.288550  0.109880  0.353270  1.0  1.4787
  P  P153  1  0.287340  0.121500  0.858730  1.0  1.5081
  P  P154  1  0.284160  0.182980  0.538670  1.0  1.3888
  P  P155  1  0.084000  0.027240  0.609470  1.0  1.4903
  P  P156  1  0.287780  0.255360  0.357800  1.0  1.4531
  P  P157  1  0.310870  0.988550  0.280470  1.0  1.6513
  P  P158  1  0.234380  0.955450  0.530190  1.0  1.6417
  P  P159  1  0.400080  0.028400  0.398650  1.0  1.5438
  P  P160  1  0.211450  0.890120  0.853270  1.0  1.4723
  P  P161  1  0.212660  0.878500  0.358730  1.0  1.502
  P  P162  1  0.215840  0.817020  0.038670  1.0  1.3807
  P  P163  1  0.416000  0.972760  0.109470  1.0  1.4955
  P  P164  1  0.212220  0.744640  0.857800  1.0  1.4429
  P  P165  1  0.810870  0.488550  0.280470  1.0  1.6513
  P  P166  1  0.734380  0.455450  0.530190  1.0  1.6417
  P  P167  1  0.900080  0.528400  0.398650  1.0  1.5438
  P  P168  1  0.711450  0.390120  0.853270  1.0  1.4723
  P  P169  1  0.712660  0.378500  0.358730  1.0  1.502
  P  P170  1  0.715840  0.317020  0.038670  1.0  1.3807
  P  P171  1  0.916000  0.472760  0.109470  1.0  1.4955
  P  P172  1  0.712220  0.244640  0.857800  1.0  1.4429
  P  P173  1  0.689130  0.988550  0.280470  1.0  1.6483
  P  P174  1  0.765620  0.955450  0.530190  1.0  1.6405
  P  P175  1  0.599920  0.028400  0.398650  1.0  1.5441
  P  P176  1  0.788550  0.890120  0.853270  1.0  1.4805
  P  P177  1  0.787340  0.878500  0.358730  1.0  1.5082
  P  P178  1  0.784160  0.817020  0.038670  1.0  1.3888
  P  P179  1  0.584000  0.972760  0.109470  1.0  1.4957
  P  P180  1  0.787780  0.744640  0.857800  1.0  1.4534
  P  P181  1  0.189130  0.488550  0.280470  1.0  1.6483
  P  P182  1  0.265620  0.455450  0.530190  1.0  1.6405
  P  P183  1  0.099920  0.528400  0.398650  1.0  1.5441
  P  P184  1  0.288550  0.390120  0.853270  1.0  1.4805
  P  P185  1  0.287340  0.378500  0.358730  1.0  1.5082
  P  P186  1  0.284160  0.317020  0.038670  1.0  1.3888
  P  P187  1  0.084000  0.472760  0.109470  1.0  1.4957
  P  P188  1  0.287780  0.244640  0.857800  1.0  1.4534
  P  P189  1  0.310870  0.511450  0.780470  1.0  1.651
  P  P190  1  0.234380  0.544550  0.030190  1.0  1.6412
  P  P191  1  0.400080  0.471600  0.898650  1.0  1.5469
  P  P192  1  0.211450  0.609880  0.353270  1.0  1.4715
  P  P193  1  0.212660  0.621500  0.858730  1.0  1.5036
  P  P194  1  0.215840  0.682980  0.538670  1.0  1.3808
  P  P195  1  0.416000  0.527240  0.609470  1.0  1.4903
  P  P196  1  0.212220  0.755360  0.357800  1.0  1.4435
  P  P197  1  0.810870  0.011450  0.780470  1.0  1.651
  P  P198  1  0.734380  0.044550  0.030190  1.0  1.6412
  P  P199  1  0.900080  0.971600  0.898650  1.0  1.5469
  P  P200  1  0.711450  0.109880  0.353270  1.0  1.4715
  P  P201  1  0.712660  0.121500  0.858730  1.0  1.5036
  P  P202  1  0.715840  0.182980  0.538670  1.0  1.3808
  P  P203  1  0.916000  0.027240  0.609470  1.0  1.4903
  P  P204  1  0.712220  0.255360  0.357800  1.0  1.4435
  P  P205  1  0.310870  0.488550  0.219530  1.0  1.6512
  P  P206  1  0.234380  0.455450  0.969810  1.0  1.641
  P  P207  1  0.400080  0.528400  0.101350  1.0  1.5435
  P  P208  1  0.211450  0.390120  0.646730  1.0  1.4724
  P  P209  1  0.212660  0.378500  0.141270  1.0  1.5026
  P  P210  1  0.215840  0.317020  0.461330  1.0  1.3786
  P  P211  1  0.416000  0.472760  0.390530  1.0  1.4966
  P  P212  1  0.212220  0.244640  0.642200  1.0  1.4439
  P  P213  1  0.810870  0.988550  0.219530  1.0  1.6512
  P  P214  1  0.734380  0.955450  0.969810  1.0  1.641
  P  P215  1  0.900080  0.028400  0.101350  1.0  1.5435
  P  P216  1  0.711450  0.890120  0.646730  1.0  1.4724
  P  P217  1  0.712660  0.878500  0.141270  1.0  1.5026
  P  P218  1  0.715840  0.817020  0.461330  1.0  1.3786
  P  P219  1  0.916000  0.972760  0.390530  1.0  1.4966
  P  P220  1  0.712220  0.744640  0.642200  1.0  1.4439
  P  P221  1  0.689130  0.011450  0.719530  1.0  1.6476
  P  P222  1  0.765620  0.044550  0.469810  1.0  1.6394
  P  P223  1  0.599920  0.971600  0.601350  1.0  1.5465
  P  P224  1  0.788550  0.109880  0.146730  1.0  1.4785
  P  P225  1  0.787340  0.121500  0.641270  1.0  1.5085
  P  P226  1  0.784160  0.182980  0.961330  1.0  1.3866
  P  P227  1  0.584000  0.027240  0.890530  1.0  1.4911
  P  P228  1  0.787780  0.255360  0.142200  1.0  1.4541
  P  P229  1  0.189130  0.511450  0.719530  1.0  1.6476
  P  P230  1  0.265620  0.544550  0.469810  1.0  1.6394
  P  P231  1  0.099920  0.471600  0.601350  1.0  1.5465
  P  P232  1  0.288550  0.609880  0.146730  1.0  1.4785
  P  P233  1  0.287340  0.621500  0.641270  1.0  1.5085
  P  P234  1  0.284160  0.682980  0.961330  1.0  1.3866
  P  P235  1  0.084000  0.527240  0.890530  1.0  1.4911
  P  P236  1  0.287780  0.755360  0.142200  1.0  1.4541
  P  P237  1  0.500000  0.974740  0.785390  1.0  1.462
  P  P238  1  0.000000  0.474740  0.785390  1.0  1.462
  P  P239  1  0.500000  0.525260  0.285390  1.0  1.4599
  P  P240  1  0.000000  0.025260  0.285390  1.0  1.4599
  P  P241  1  0.500000  0.474740  0.714610  1.0  1.4615
  P  P242  1  0.000000  0.974740  0.714610  1.0  1.4615
  P  P243  1  0.500000  0.025260  0.214610  1.0  1.4591
  P  P244  1  0.000000  0.525260  0.214610  1.0  1.4591
  H  H245  1  0.301200  0.995500  0.642500  1.0  -0.0978
  H  H246  1  0.257900  0.039300  0.392400  1.0  -0.0851
  H  H247  1  0.396000  0.953900  0.630100  1.0  0.0528
  H  H248  1  0.189800  0.106600  0.125300  1.0  0.1185
  H  H249  1  0.199100  0.183400  0.013100  1.0  0.1191
  H  H250  1  0.188500  0.127000  0.603800  1.0  -0.0591
  H  H251  1  0.420000  0.045100  0.839500  1.0  -0.0689
  H  H252  1  0.193200  0.257700  0.112800  1.0  0.11
  H  H253  1  0.801200  0.495500  0.642500  1.0  -0.0978
  H  H254  1  0.757900  0.539300  0.392400  1.0  -0.0851
  H  H255  1  0.896000  0.453900  0.630100  1.0  0.0528
  H  H256  1  0.689800  0.606600  0.125300  1.0  0.1185
  H  H257  1  0.699100  0.683400  0.013100  1.0  0.1195
  H  H258  1  0.688500  0.627000  0.603800  1.0  -0.059
  H  H259  1  0.920000  0.545100  0.839500  1.0  -0.0689
  H  H260  1  0.693200  0.757700  0.112800  1.0  0.1123
  H  H261  1  0.698800  0.504500  0.142500  1.0  -0.0988
  H  H262  1  0.742100  0.460700  0.892400  1.0  -0.0853
  H  H263  1  0.604000  0.546100  0.130100  1.0  0.0547
  H  H264  1  0.810200  0.393400  0.625300  1.0  0.1196
  H  H265  1  0.800900  0.316600  0.513100  1.0  0.1183
  H  H266  1  0.811500  0.373000  0.103800  1.0  -0.0611
  H  H267  1  0.580000  0.454900  0.339500  1.0  -0.0685
  H  H268  1  0.806800  0.242300  0.612800  1.0  0.1109
  H  H269  1  0.198800  0.004500  0.142500  1.0  -0.0988
  H  H270  1  0.242100  0.960700  0.892400  1.0  -0.0853
  H  H271  1  0.104000  0.046100  0.130100  1.0  0.0547
  H  H272  1  0.310200  0.893400  0.625300  1.0  0.1196
  H  H273  1  0.300900  0.816600  0.513100  1.0  0.1183
  H  H274  1  0.311500  0.873000  0.103800  1.0  -0.061
  H  H275  1  0.080000  0.954900  0.339500  1.0  -0.0685
  H  H276  1  0.306800  0.742300  0.612800  1.0  0.1129
  H  H277  1  0.698800  0.495500  0.857500  1.0  -0.0993
  H  H278  1  0.742100  0.539300  0.107600  1.0  -0.0869
  H  H279  1  0.604000  0.453900  0.869900  1.0  0.0534
  H  H280  1  0.810200  0.606600  0.374700  1.0  0.1183
  H  H281  1  0.800900  0.683400  0.486900  1.0  0.1175
  H  H282  1  0.811500  0.627000  0.896200  1.0  -0.0623
  H  H283  1  0.580000  0.545100  0.660500  1.0  -0.0706
  H  H284  1  0.806800  0.757700  0.387200  1.0  0.11
  H  H285  1  0.198800  0.995500  0.857500  1.0  -0.0993
  H  H286  1  0.242100  0.039300  0.107600  1.0  -0.0869
  H  H287  1  0.104000  0.953900  0.869900  1.0  0.0534
  H  H288  1  0.310200  0.106600  0.374700  1.0  0.1183
  H  H289  1  0.300900  0.183400  0.486900  1.0  0.1173
  H  H290  1  0.311500  0.127000  0.896200  1.0  -0.0622
  H  H291  1  0.080000  0.045100  0.660500  1.0  -0.0706
  H  H292  1  0.306800  0.257700  0.387200  1.0  0.1122
  H  H293  1  0.301200  0.004500  0.357500  1.0  -0.0999
  H  H294  1  0.257900  0.960700  0.607600  1.0  -0.0863
  H  H295  1  0.396000  0.046100  0.369900  1.0  0.0536
  H  H296  1  0.189800  0.893400  0.874700  1.0  0.1172
  H  H297  1  0.199100  0.816600  0.986900  1.0  0.117
  H  H298  1  0.188500  0.873000  0.396200  1.0  -0.0603
  H  H299  1  0.420000  0.954900  0.160500  1.0  -0.0681
  H  H300  1  0.193200  0.742300  0.887200  1.0  0.1096
  H  H301  1  0.801200  0.504500  0.357500  1.0  -0.0999
  H  H302  1  0.757900  0.460700  0.607600  1.0  -0.0863
  H  H303  1  0.896000  0.546100  0.369900  1.0  0.0536
  H  H304  1  0.689800  0.393400  0.874700  1.0  0.1172
  H  H305  1  0.699100  0.316600  0.986900  1.0  0.1173
  H  H306  1  0.688500  0.373000  0.396200  1.0  -0.0602
  H  H307  1  0.920000  0.454900  0.160500  1.0  -0.0681
  H  H308  1  0.693200  0.242300  0.887200  1.0  0.1124
  H  H309  1  0.698800  0.004500  0.357500  1.0  -0.0998
  H  H310  1  0.742100  0.960700  0.607600  1.0  -0.0862
  H  H311  1  0.604000  0.046100  0.369900  1.0  0.055
  H  H312  1  0.810200  0.893400  0.874700  1.0  0.1186
  H  H313  1  0.800900  0.816600  0.986900  1.0  0.1174
  H  H314  1  0.811500  0.873000  0.396200  1.0  -0.0622
  H  H315  1  0.580000  0.954900  0.160500  1.0  -0.0686
  H  H316  1  0.806800  0.742300  0.887200  1.0  0.1104
  H  H317  1  0.198800  0.504500  0.357500  1.0  -0.0998
  H  H318  1  0.242100  0.460700  0.607600  1.0  -0.0862
  H  H319  1  0.104000  0.546100  0.369900  1.0  0.055
  H  H320  1  0.310200  0.393400  0.874700  1.0  0.1186
  H  H321  1  0.300900  0.316600  0.986900  1.0  0.1172
  H  H322  1  0.311500  0.373000  0.396200  1.0  -0.0621
  H  H323  1  0.080000  0.454900  0.160500  1.0  -0.0686
  H  H324  1  0.306800  0.242300  0.887200  1.0  0.1126
  H  H325  1  0.301200  0.495500  0.857500  1.0  -0.1
  H  H326  1  0.257900  0.539300  0.107600  1.0  -0.0867
  H  H327  1  0.396000  0.453900  0.869900  1.0  0.0526
  H  H328  1  0.189800  0.606600  0.374700  1.0  0.1177
  H  H329  1  0.199100  0.683400  0.486900  1.0  0.1171
  H  H330  1  0.188500  0.627000  0.896200  1.0  -0.0605
  H  H331  1  0.420000  0.545100  0.660500  1.0  -0.0696
  H  H332  1  0.193200  0.757700  0.387200  1.0  0.1092
  H  H333  1  0.801200  0.995500  0.857500  1.0  -0.1
  H  H334  1  0.757900  0.039300  0.107600  1.0  -0.0867
  H  H335  1  0.896000  0.953900  0.869900  1.0  0.0526
  H  H336  1  0.689800  0.106600  0.374700  1.0  0.1177
  H  H337  1  0.699100  0.183400  0.486900  1.0  0.1174
  H  H338  1  0.688500  0.127000  0.896200  1.0  -0.0605
  H  H339  1  0.920000  0.045100  0.660500  1.0  -0.0696
  H  H340  1  0.693200  0.257700  0.387200  1.0  0.1118
  H  H341  1  0.301200  0.504500  0.142500  1.0  -0.0987
  H  H342  1  0.257900  0.460700  0.892400  1.0  -0.0849
  H  H343  1  0.396000  0.546100  0.130100  1.0  0.0533
  H  H344  1  0.189800  0.393400  0.625300  1.0  0.1181
  H  H345  1  0.199100  0.316600  0.513100  1.0  0.1191
  H  H346  1  0.188500  0.373000  0.103800  1.0  -0.0594
  H  H347  1  0.420000  0.454900  0.339500  1.0  -0.0674
  H  H348  1  0.193200  0.242300  0.612800  1.0  0.1098
  H  H349  1  0.801200  0.004500  0.142500  1.0  -0.0987
  H  H350  1  0.757900  0.960700  0.892400  1.0  -0.0849
  H  H351  1  0.896000  0.046100  0.130100  1.0  0.0533
  H  H352  1  0.689800  0.893400  0.625300  1.0  0.1181
  H  H353  1  0.699100  0.816600  0.513100  1.0  0.1195
  H  H354  1  0.688500  0.873000  0.103800  1.0  -0.0593
  H  H355  1  0.920000  0.954900  0.339500  1.0  -0.0674
  H  H356  1  0.693200  0.742300  0.612800  1.0  0.1123
  H  H357  1  0.698800  0.995500  0.642500  1.0  -0.0975
  H  H358  1  0.742100  0.039300  0.392400  1.0  -0.0856
  H  H359  1  0.604000  0.953900  0.630100  1.0  0.0535
  H  H360  1  0.810200  0.106600  0.125300  1.0  0.1193
  H  H361  1  0.800900  0.183400  0.013100  1.0  0.1184
  H  H362  1  0.811500  0.127000  0.603800  1.0  -0.0606
  H  H363  1  0.580000  0.045100  0.839500  1.0  -0.0703
  H  H364  1  0.806800  0.257700  0.112800  1.0  0.1111
  H  H365  1  0.198800  0.495500  0.642500  1.0  -0.0975
  H  H366  1  0.242100  0.539300  0.392400  1.0  -0.0856
  H  H367  1  0.104000  0.453900  0.630100  1.0  0.0535
  H  H368  1  0.310200  0.606600  0.125300  1.0  0.1193
  H  H369  1  0.300900  0.683400  0.013100  1.0  0.1184
  H  H370  1  0.311500  0.627000  0.603800  1.0  -0.0605
  H  H371  1  0.080000  0.545100  0.839500  1.0  -0.0703
  H  H372  1  0.306800  0.757700  0.112800  1.0  0.113
  H  H373  1  0.500000  0.958100  0.726700  1.0  -0.0012
  H  H374  1  0.000000  0.458100  0.726700  1.0  -1e-04
  H  H375  1  0.500000  0.541900  0.226700  1.0  -0.0012
  H  H376  1  0.000000  0.041900  0.226700  1.0  0.0011
  H  H377  1  0.500000  0.458100  0.773300  1.0  -0.0012
  H  H378  1  0.000000  0.958100  0.773300  1.0  -0.0004
  H  H379  1  0.500000  0.041900  0.273300  1.0  -0.0024
  H  H380  1  0.000000  0.541900  0.273300  1.0  -0.0002
  O  O381  1  0.288470  0.027020  0.702000  1.0  -0.8232
  O  O382  1  0.336990  0.019610  0.661300  1.0  -0.8149
  O  O383  1  0.315060  0.004870  0.864100  1.0  -0.823
  O  O384  1  0.213180  0.028130  0.451800  1.0  -0.8091
  O  O385  1  0.243400  0.047560  0.615700  1.0  -0.8379
  O  O386  1  0.222910  0.063680  0.410800  1.0  -0.8226
  O  O387  1  0.379210  0.983720  0.678000  1.0  -0.7736
  O  O388  1  0.429440  0.974960  0.650300  1.0  -0.8147
  O  O389  1  0.398960  0.974000  0.454100  1.0  -0.7835
  O  O390  1  0.215580  0.131260  0.100100  1.0  -0.8179
  O  O391  1  0.214880  0.109280  0.294500  1.0  -0.7937
  O  O392  1  0.227910  0.094560  0.070800  1.0  -0.7759
  O  O393  1  0.218430  0.100330  0.594500  1.0  -0.8011
  O  O394  1  0.211290  0.121110  0.791000  1.0  -0.8108
  O  O395  1  0.232070  0.137570  0.582000  1.0  -0.7792
  O  O396  1  0.239560  0.182870  0.055800  1.0  -0.7151
  O  O397  1  0.214940  0.164790  0.875700  1.0  -0.7136
  O  O398  1  0.216070  0.200940  0.871200  1.0  -0.7477
  O  O399  1  0.387200  0.022520  0.845000  1.0  -0.7966
  O  O400  1  0.416070  0.028500  0.039400  1.0  -0.7894
  O  O401  1  0.437730  0.013140  0.833800  1.0  -0.7794
  O  O402  1  0.230990  0.271810  0.086600  1.0  -0.795
  O  O403  1  0.211410  0.254500  0.291300  1.0  -0.8061
  O  O404  1  0.217930  0.234480  0.090500  1.0  -0.8254
  O  O405  1  0.475450  0.974640  0.873600  1.0  -0.7453
  O  O406  1  0.788470  0.527020  0.702000  1.0  -0.8232
  O  O407  1  0.836990  0.519610  0.661300  1.0  -0.8149
  O  O408  1  0.815060  0.504870  0.864100  1.0  -0.823
  O  O409  1  0.713180  0.528130  0.451800  1.0  -0.8091
  O  O410  1  0.743400  0.547560  0.615700  1.0  -0.8379
  O  O411  1  0.722910  0.563680  0.410800  1.0  -0.8226
  O  O412  1  0.879210  0.483720  0.678000  1.0  -0.7736
  O  O413  1  0.929440  0.474960  0.650300  1.0  -0.8147
  O  O414  1  0.898960  0.474000  0.454100  1.0  -0.7835
  O  O415  1  0.715580  0.631260  0.100100  1.0  -0.8179
  O  O416  1  0.714880  0.609280  0.294500  1.0  -0.7937
  O  O417  1  0.727910  0.594560  0.070800  1.0  -0.7759
  O  O418  1  0.718430  0.600330  0.594500  1.0  -0.8011
  O  O419  1  0.711290  0.621110  0.791000  1.0  -0.8108
  O  O420  1  0.732070  0.637570  0.582000  1.0  -0.7792
  O  O421  1  0.739560  0.682870  0.055800  1.0  -0.7151
  O  O422  1  0.714940  0.664790  0.875700  1.0  -0.7136
  O  O423  1  0.716070  0.700940  0.871200  1.0  -0.7477
  O  O424  1  0.887200  0.522520  0.845000  1.0  -0.7966
  O  O425  1  0.916070  0.528500  0.039400  1.0  -0.7894
  O  O426  1  0.937730  0.513140  0.833800  1.0  -0.7794
  O  O427  1  0.730990  0.771810  0.086600  1.0  -0.795
  O  O428  1  0.711410  0.754500  0.291300  1.0  -0.8061
  O  O429  1  0.717930  0.734480  0.090500  1.0  -0.8254
  O  O430  1  0.975450  0.474640  0.873600  1.0  -0.7453
  O  O431  1  0.711530  0.472980  0.202000  1.0  -0.8241
  O  O432  1  0.663010  0.480390  0.161300  1.0  -0.8142
  O  O433  1  0.684940  0.495130  0.364100  1.0  -0.8208
  O  O434  1  0.786820  0.471870  0.951800  1.0  -0.8101
  O  O435  1  0.756600  0.452440  0.115700  1.0  -0.8385
  O  O436  1  0.777090  0.436320  0.910800  1.0  -0.8212
  O  O437  1  0.620790  0.516280  0.178000  1.0  -0.7742
  O  O438  1  0.570560  0.525040  0.150300  1.0  -0.8132
  O  O439  1  0.601040  0.526000  0.954100  1.0  -0.781
  O  O440  1  0.784420  0.368740  0.600100  1.0  -0.8158
  O  O441  1  0.785120  0.390720  0.794500  1.0  -0.7966
  O  O442  1  0.772090  0.405440  0.570800  1.0  -0.7744
  O  O443  1  0.781570  0.399670  0.094500  1.0  -0.8023
  O  O444  1  0.788710  0.378890  0.291000  1.0  -0.8111
  O  O445  1  0.767930  0.362430  0.082000  1.0  -0.7777
  O  O446  1  0.760440  0.317130  0.555800  1.0  -0.7142
  O  O447  1  0.785060  0.335210  0.375700  1.0  -0.7133
  O  O448  1  0.783930  0.299060  0.371200  1.0  -0.7472
  O  O449  1  0.612800  0.477480  0.345000  1.0  -0.7974
  O  O450  1  0.583930  0.471500  0.539400  1.0  -0.7895
  O  O451  1  0.562270  0.486860  0.333800  1.0  -0.7785
  O  O452  1  0.769010  0.228190  0.586600  1.0  -0.7937
  O  O453  1  0.788590  0.245500  0.791300  1.0  -0.8058
  O  O454  1  0.782070  0.265520  0.590500  1.0  -0.8235
  O  O455  1  0.524550  0.525360  0.373600  1.0  -0.7442
  O  O456  1  0.211530  0.972980  0.202000  1.0  -0.8241
  O  O457  1  0.163010  0.980390  0.161300  1.0  -0.8142
  O  O458  1  0.184940  0.995130  0.364100  1.0  -0.8208
  O  O459  1  0.286820  0.971870  0.951800  1.0  -0.8101
  O  O460  1  0.256600  0.952440  0.115700  1.0  -0.8385
  O  O461  1  0.277090  0.936320  0.910800  1.0  -0.8212
  O  O462  1  0.120790  0.016280  0.178000  1.0  -0.7742
  O  O463  1  0.070560  0.025040  0.150300  1.0  -0.8132
  O  O464  1  0.101040  0.026000  0.954100  1.0  -0.781
  O  O465  1  0.284420  0.868740  0.600100  1.0  -0.8158
  O  O466  1  0.285120  0.890720  0.794500  1.0  -0.7966
  O  O467  1  0.272090  0.905440  0.570800  1.0  -0.7744
  O  O468  1  0.281570  0.899670  0.094500  1.0  -0.8023
  O  O469  1  0.288710  0.878890  0.291000  1.0  -0.8111
  O  O470  1  0.267930  0.862430  0.082000  1.0  -0.7777
  O  O471  1  0.260440  0.817130  0.555800  1.0  -0.7142
  O  O472  1  0.285060  0.835210  0.375700  1.0  -0.7133
  O  O473  1  0.283930  0.799060  0.371200  1.0  -0.7472
  O  O474  1  0.112800  0.977480  0.345000  1.0  -0.7974
  O  O475  1  0.083930  0.971500  0.539400  1.0  -0.7895
  O  O476  1  0.062270  0.986860  0.333800  1.0  -0.7785
  O  O477  1  0.269010  0.728190  0.586600  1.0  -0.7937
  O  O478  1  0.288590  0.745500  0.791300  1.0  -0.8058
  O  O479  1  0.282070  0.765520  0.590500  1.0  -0.8235
  O  O480  1  0.024550  0.025360  0.373600  1.0  -0.7442
  O  O481  1  0.711530  0.527020  0.798000  1.0  -0.8238
  O  O482  1  0.663010  0.519610  0.838700  1.0  -0.8161
  O  O483  1  0.684940  0.504870  0.635900  1.0  -0.8207
  O  O484  1  0.786820  0.528130  0.048200  1.0  -0.809
  O  O485  1  0.756600  0.547560  0.884300  1.0  -0.8398
  O  O486  1  0.777090  0.563680  0.089200  1.0  -0.8224
  O  O487  1  0.620790  0.483720  0.822000  1.0  -0.7728
  O  O488  1  0.570560  0.474960  0.849700  1.0  -0.8129
  O  O489  1  0.601040  0.474000  0.045900  1.0  -0.7857
  O  O490  1  0.784420  0.631260  0.399900  1.0  -0.8164
  O  O491  1  0.785120  0.609280  0.205500  1.0  -0.7942
  O  O492  1  0.772090  0.594560  0.429200  1.0  -0.775
  O  O493  1  0.781570  0.600330  0.905500  1.0  -0.8012
  O  O494  1  0.788710  0.621110  0.709000  1.0  -0.8114
  O  O495  1  0.767930  0.637570  0.918000  1.0  -0.7773
  O  O496  1  0.760440  0.682870  0.444200  1.0  -0.7133
  O  O497  1  0.785060  0.664790  0.624300  1.0  -0.714
  O  O498  1  0.783930  0.700940  0.628800  1.0  -0.7481
  O  O499  1  0.612800  0.522520  0.655000  1.0  -0.7982
  O  O500  1  0.583930  0.528500  0.460600  1.0  -0.7885
  O  O501  1  0.562270  0.513140  0.666200  1.0  -0.7775
  O  O502  1  0.769010  0.771810  0.413400  1.0  -0.7936
  O  O503  1  0.788590  0.754500  0.208700  1.0  -0.8061
  O  O504  1  0.782070  0.734480  0.409500  1.0  -0.8242
  O  O505  1  0.524550  0.474640  0.626400  1.0  -0.7454
  O  O506  1  0.211530  0.027020  0.798000  1.0  -0.8238
  O  O507  1  0.163010  0.019610  0.838700  1.0  -0.8161
  O  O508  1  0.184940  0.004870  0.635900  1.0  -0.8207
  O  O509  1  0.286820  0.028130  0.048200  1.0  -0.809
  O  O510  1  0.256600  0.047560  0.884300  1.0  -0.8398
  O  O511  1  0.277090  0.063680  0.089200  1.0  -0.8224
  O  O512  1  0.120790  0.983720  0.822000  1.0  -0.7728
  O  O513  1  0.070560  0.974960  0.849700  1.0  -0.8129
  O  O514  1  0.101040  0.974000  0.045900  1.0  -0.7857
  O  O515  1  0.284420  0.131260  0.399900  1.0  -0.8164
  O  O516  1  0.285120  0.109280  0.205500  1.0  -0.7942
  O  O517  1  0.272090  0.094560  0.429200  1.0  -0.775
  O  O518  1  0.281570  0.100330  0.905500  1.0  -0.8012
  O  O519  1  0.288710  0.121110  0.709000  1.0  -0.8114
  O  O520  1  0.267930  0.137570  0.918000  1.0  -0.7773
  O  O521  1  0.260440  0.182870  0.444200  1.0  -0.7133
  O  O522  1  0.285060  0.164790  0.624300  1.0  -0.714
  O  O523  1  0.283930  0.200940  0.628800  1.0  -0.7481
  O  O524  1  0.112800  0.022520  0.655000  1.0  -0.7982
  O  O525  1  0.083930  0.028500  0.460600  1.0  -0.7885
  O  O526  1  0.062270  0.013140  0.666200  1.0  -0.7775
  O  O527  1  0.269010  0.271810  0.413400  1.0  -0.7936
  O  O528  1  0.288590  0.254500  0.208700  1.0  -0.8061
  O  O529  1  0.282070  0.234480  0.409500  1.0  -0.8242
  O  O530  1  0.024550  0.974640  0.626400  1.0  -0.7454
  O  O531  1  0.288470  0.972980  0.298000  1.0  -0.8232
  O  O532  1  0.336990  0.980390  0.338700  1.0  -0.8156
  O  O533  1  0.315060  0.995130  0.135900  1.0  -0.8223
  O  O534  1  0.213180  0.971870  0.548200  1.0  -0.8081
  O  O535  1  0.243400  0.952440  0.384300  1.0  -0.8376
  O  O536  1  0.222910  0.936320  0.589200  1.0  -0.8214
  O  O537  1  0.379210  0.016280  0.322000  1.0  -0.774
  O  O538  1  0.429440  0.025040  0.349700  1.0  -0.8139
  O  O539  1  0.398960  0.026000  0.545900  1.0  -0.782
  O  O540  1  0.215580  0.868740  0.899900  1.0  -0.8174
  O  O541  1  0.214880  0.890720  0.705500  1.0  -0.7935
  O  O542  1  0.227910  0.905440  0.929200  1.0  -0.7746
  O  O543  1  0.218430  0.899670  0.405500  1.0  -0.8038
  O  O544  1  0.211290  0.878890  0.209000  1.0  -0.8114
  O  O545  1  0.232070  0.862430  0.418000  1.0  -0.7804
  O  O546  1  0.239560  0.817130  0.944200  1.0  -0.714
  O  O547  1  0.214940  0.835210  0.124300  1.0  -0.714
  O  O548  1  0.216070  0.799060  0.128800  1.0  -0.7472
  O  O549  1  0.387200  0.977480  0.155000  1.0  -0.7959
  O  O550  1  0.416070  0.971500  0.960600  1.0  -0.7878
  O  O551  1  0.437730  0.986860  0.166200  1.0  -0.7788
  O  O552  1  0.230990  0.728190  0.913400  1.0  -0.7951
  O  O553  1  0.211410  0.745500  0.708700  1.0  -0.806
  O  O554  1  0.217930  0.765520  0.909500  1.0  -0.8244
  O  O555  1  0.475450  0.025360  0.126400  1.0  -0.7431
  O  O556  1  0.788470  0.472980  0.298000  1.0  -0.8232
  O  O557  1  0.836990  0.480390  0.338700  1.0  -0.8156
  O  O558  1  0.815060  0.495130  0.135900  1.0  -0.8223
  O  O559  1  0.713180  0.471870  0.548200  1.0  -0.8081
  O  O560  1  0.743400  0.452440  0.384300  1.0  -0.8376
  O  O561  1  0.722910  0.436320  0.589200  1.0  -0.8214
  O  O562  1  0.879210  0.516280  0.322000  1.0  -0.774
  O  O563  1  0.929440  0.525040  0.349700  1.0  -0.8139
  O  O564  1  0.898960  0.526000  0.545900  1.0  -0.782
  O  O565  1  0.715580  0.368740  0.899900  1.0  -0.8174
  O  O566  1  0.714880  0.390720  0.705500  1.0  -0.7935
  O  O567  1  0.727910  0.405440  0.929200  1.0  -0.7746
  O  O568  1  0.718430  0.399670  0.405500  1.0  -0.8038
  O  O569  1  0.711290  0.378890  0.209000  1.0  -0.8114
  O  O570  1  0.732070  0.362430  0.418000  1.0  -0.7804
  O  O571  1  0.739560  0.317130  0.944200  1.0  -0.714
  O  O572  1  0.714940  0.335210  0.124300  1.0  -0.714
  O  O573  1  0.716070  0.299060  0.128800  1.0  -0.7472
  O  O574  1  0.887200  0.477480  0.155000  1.0  -0.7959
  O  O575  1  0.916070  0.471500  0.960600  1.0  -0.7878
  O  O576  1  0.937730  0.486860  0.166200  1.0  -0.7788
  O  O577  1  0.730990  0.228190  0.913400  1.0  -0.7951
  O  O578  1  0.711410  0.245500  0.708700  1.0  -0.806
  O  O579  1  0.717930  0.265520  0.909500  1.0  -0.8244
  O  O580  1  0.975450  0.525360  0.126400  1.0  -0.7431
  O  O581  1  0.711530  0.972980  0.298000  1.0  -0.8243
  O  O582  1  0.663010  0.980390  0.338700  1.0  -0.8145
  O  O583  1  0.684940  0.995130  0.135900  1.0  -0.8204
  O  O584  1  0.786820  0.971870  0.548200  1.0  -0.8088
  O  O585  1  0.756600  0.952440  0.384300  1.0  -0.8381
  O  O586  1  0.777090  0.936320  0.589200  1.0  -0.8217
  O  O587  1  0.620790  0.016280  0.322000  1.0  -0.7734
  O  O588  1  0.570560  0.025040  0.349700  1.0  -0.8126
  O  O589  1  0.601040  0.026000  0.545900  1.0  -0.7816
  O  O590  1  0.784420  0.868740  0.899900  1.0  -0.8164
  O  O591  1  0.785120  0.890720  0.705500  1.0  -0.7946
  O  O592  1  0.772090  0.905440  0.929200  1.0  -0.7739
  O  O593  1  0.781570  0.899670  0.405500  1.0  -0.8031
  O  O594  1  0.788710  0.878890  0.209000  1.0  -0.8111
  O  O595  1  0.767930  0.862430  0.418000  1.0  -0.7779
  O  O596  1  0.760440  0.817130  0.944200  1.0  -0.7132
  O  O597  1  0.785060  0.835210  0.124300  1.0  -0.7139
  O  O598  1  0.783930  0.799060  0.128800  1.0  -0.7476
  O  O599  1  0.612800  0.977480  0.155000  1.0  -0.7973
  O  O600  1  0.583930  0.971500  0.960600  1.0  -0.7894
  O  O601  1  0.562270  0.986860  0.166200  1.0  -0.7774
  O  O602  1  0.769010  0.728190  0.913400  1.0  -0.7937
  O  O603  1  0.788590  0.745500  0.708700  1.0  -0.8048
  O  O604  1  0.782070  0.765520  0.909500  1.0  -0.8236
  O  O605  1  0.524550  0.025360  0.126400  1.0  -0.7436
  O  O606  1  0.211530  0.472980  0.298000  1.0  -0.8243
  O  O607  1  0.163010  0.480390  0.338700  1.0  -0.8145
  O  O608  1  0.184940  0.495130  0.135900  1.0  -0.8204
  O  O609  1  0.286820  0.471870  0.548200  1.0  -0.8088
  O  O610  1  0.256600  0.452440  0.384300  1.0  -0.8381
  O  O611  1  0.277090  0.436320  0.589200  1.0  -0.8217
  O  O612  1  0.120790  0.516280  0.322000  1.0  -0.7734
  O  O613  1  0.070560  0.525040  0.349700  1.0  -0.8126
  O  O614  1  0.101040  0.526000  0.545900  1.0  -0.7816
  O  O615  1  0.284420  0.368740  0.899900  1.0  -0.8164
  O  O616  1  0.285120  0.390720  0.705500  1.0  -0.7946
  O  O617  1  0.272090  0.405440  0.929200  1.0  -0.7739
  O  O618  1  0.281570  0.399670  0.405500  1.0  -0.8031
  O  O619  1  0.288710  0.378890  0.209000  1.0  -0.8111
  O  O620  1  0.267930  0.362430  0.418000  1.0  -0.7779
  O  O621  1  0.260440  0.317130  0.944200  1.0  -0.7132
  O  O622  1  0.285060  0.335210  0.124300  1.0  -0.7139
  O  O623  1  0.283930  0.299060  0.128800  1.0  -0.7476
  O  O624  1  0.112800  0.477480  0.155000  1.0  -0.7973
  O  O625  1  0.083930  0.471500  0.960600  1.0  -0.7894
  O  O626  1  0.062270  0.486860  0.166200  1.0  -0.7774
  O  O627  1  0.269010  0.228190  0.913400  1.0  -0.7937
  O  O628  1  0.288590  0.245500  0.708700  1.0  -0.8048
  O  O629  1  0.282070  0.265520  0.909500  1.0  -0.8236
  O  O630  1  0.024550  0.525360  0.126400  1.0  -0.7436
  O  O631  1  0.288470  0.527020  0.798000  1.0  -0.8226
  O  O632  1  0.336990  0.519610  0.838700  1.0  -0.8153
  O  O633  1  0.315060  0.504870  0.635900  1.0  -0.8227
  O  O634  1  0.213180  0.528130  0.048200  1.0  -0.8087
  O  O635  1  0.243400  0.547560  0.884300  1.0  -0.8396
  O  O636  1  0.222910  0.563680  0.089200  1.0  -0.8228
  O  O637  1  0.379210  0.483720  0.822000  1.0  -0.7735
  O  O638  1  0.429440  0.474960  0.849700  1.0  -0.8143
  O  O639  1  0.398960  0.474000  0.045900  1.0  -0.7851
  O  O640  1  0.215580  0.631260  0.399900  1.0  -0.8185
  O  O641  1  0.214880  0.609280  0.205500  1.0  -0.7925
  O  O642  1  0.227910  0.594560  0.429200  1.0  -0.7751
  O  O643  1  0.218430  0.600330  0.905500  1.0  -0.802
  O  O644  1  0.211290  0.621110  0.709000  1.0  -0.8118
  O  O645  1  0.232070  0.637570  0.918000  1.0  -0.7799
  O  O646  1  0.239560  0.682870  0.444200  1.0  -0.7141
  O  O647  1  0.214940  0.664790  0.624300  1.0  -0.7141
  O  O648  1  0.216070  0.700940  0.628800  1.0  -0.7479
  O  O649  1  0.387200  0.522520  0.655000  1.0  -0.797
  O  O650  1  0.416070  0.528500  0.460600  1.0  -0.7898
  O  O651  1  0.437730  0.513140  0.666200  1.0  -0.7793
  O  O652  1  0.230990  0.771810  0.413400  1.0  -0.7957
  O  O653  1  0.211410  0.754500  0.208700  1.0  -0.8066
  O  O654  1  0.217930  0.734480  0.409500  1.0  -0.8251
  O  O655  1  0.475450  0.474640  0.626400  1.0  -0.745
  O  O656  1  0.788470  0.027020  0.798000  1.0  -0.8226
  O  O657  1  0.836990  0.019610  0.838700  1.0  -0.8153
  O  O658  1  0.815060  0.004870  0.635900  1.0  -0.8227
  O  O659  1  0.713180  0.028130  0.048200  1.0  -0.8087
  O  O660  1  0.743400  0.047560  0.884300  1.0  -0.8396
  O  O661  1  0.722910  0.063680  0.089200  1.0  -0.8228
  O  O662  1  0.879210  0.983720  0.822000  1.0  -0.7735
  O  O663  1  0.929440  0.974960  0.849700  1.0  -0.8143
  O  O664  1  0.898960  0.974000  0.045900  1.0  -0.7851
  O  O665  1  0.715580  0.131260  0.399900  1.0  -0.8185
  O  O666  1  0.714880  0.109280  0.205500  1.0  -0.7925
  O  O667  1  0.727910  0.094560  0.429200  1.0  -0.7751
  O  O668  1  0.718430  0.100330  0.905500  1.0  -0.802
  O  O669  1  0.711290  0.121110  0.709000  1.0  -0.8118
  O  O670  1  0.732070  0.137570  0.918000  1.0  -0.7799
  O  O671  1  0.739560  0.182870  0.444200  1.0  -0.7141
  O  O672  1  0.714940  0.164790  0.624300  1.0  -0.7141
  O  O673  1  0.716070  0.200940  0.628800  1.0  -0.7479
  O  O674  1  0.887200  0.022520  0.655000  1.0  -0.797
  O  O675  1  0.916070  0.028500  0.460600  1.0  -0.7898
  O  O676  1  0.937730  0.013140  0.666200  1.0  -0.7793
  O  O677  1  0.730990  0.271810  0.413400  1.0  -0.7957
  O  O678  1  0.711410  0.254500  0.208700  1.0  -0.8066
  O  O679  1  0.717930  0.234480  0.409500  1.0  -0.8251
  O  O680  1  0.975450  0.974640  0.626400  1.0  -0.745
  O  O681  1  0.288470  0.472980  0.202000  1.0  -0.8232
  O  O682  1  0.336990  0.480390  0.161300  1.0  -0.8153
  O  O683  1  0.315060  0.495130  0.364100  1.0  -0.8228
  O  O684  1  0.213180  0.471870  0.951800  1.0  -0.8092
  O  O685  1  0.243400  0.452440  0.115700  1.0  -0.8381
  O  O686  1  0.222910  0.436320  0.910800  1.0  -0.8212
  O  O687  1  0.379210  0.516280  0.178000  1.0  -0.7745
  O  O688  1  0.429440  0.525040  0.150300  1.0  -0.814
  O  O689  1  0.398960  0.526000  0.954100  1.0  -0.781
  O  O690  1  0.215580  0.368740  0.600100  1.0  -0.8168
  O  O691  1  0.214880  0.390720  0.794500  1.0  -0.7946
  O  O692  1  0.227910  0.405440  0.570800  1.0  -0.7749
  O  O693  1  0.218430  0.399670  0.094500  1.0  -0.8031
  O  O694  1  0.211290  0.378890  0.291000  1.0  -0.8112
  O  O695  1  0.232070  0.362430  0.082000  1.0  -0.7797
  O  O696  1  0.239560  0.317130  0.555800  1.0  -0.715
  O  O697  1  0.214940  0.335210  0.375700  1.0  -0.7132
  O  O698  1  0.216070  0.299060  0.371200  1.0  -0.7472
  O  O699  1  0.387200  0.477480  0.345000  1.0  -0.7955
  O  O700  1  0.416070  0.471500  0.539400  1.0  -0.788
  O  O701  1  0.437730  0.486860  0.333800  1.0  -0.7798
  O  O702  1  0.230990  0.228190  0.586600  1.0  -0.7948
  O  O703  1  0.211410  0.245500  0.791300  1.0  -0.8062
  O  O704  1  0.217930  0.265520  0.590500  1.0  -0.8244
  O  O705  1  0.475450  0.525360  0.373600  1.0  -0.7439
  O  O706  1  0.788470  0.972980  0.202000  1.0  -0.8232
  O  O707  1  0.836990  0.980390  0.161300  1.0  -0.8153
  O  O708  1  0.815060  0.995130  0.364100  1.0  -0.8228
  O  O709  1  0.713180  0.971870  0.951800  1.0  -0.8092
  O  O710  1  0.743400  0.952440  0.115700  1.0  -0.8381
  O  O711  1  0.722910  0.936320  0.910800  1.0  -0.8212
  O  O712  1  0.879210  0.016280  0.178000  1.0  -0.7745
  O  O713  1  0.929440  0.025040  0.150300  1.0  -0.814
  O  O714  1  0.898960  0.026000  0.954100  1.0  -0.781
  O  O715  1  0.715580  0.868740  0.600100  1.0  -0.8168
  O  O716  1  0.714880  0.890720  0.794500  1.0  -0.7946
  O  O717  1  0.727910  0.905440  0.570800  1.0  -0.7749
  O  O718  1  0.718430  0.899670  0.094500  1.0  -0.8031
  O  O719  1  0.711290  0.878890  0.291000  1.0  -0.8112
  O  O720  1  0.732070  0.862430  0.082000  1.0  -0.7797
  O  O721  1  0.739560  0.817130  0.555800  1.0  -0.715
  O  O722  1  0.714940  0.835210  0.375700  1.0  -0.7132
  O  O723  1  0.716070  0.799060  0.371200  1.0  -0.7472
  O  O724  1  0.887200  0.977480  0.345000  1.0  -0.7955
  O  O725  1  0.916070  0.971500  0.539400  1.0  -0.788
  O  O726  1  0.937730  0.986860  0.333800  1.0  -0.7798
  O  O727  1  0.730990  0.728190  0.586600  1.0  -0.7948
  O  O728  1  0.711410  0.745500  0.791300  1.0  -0.8062
  O  O729  1  0.717930  0.765520  0.590500  1.0  -0.8244
  O  O730  1  0.975450  0.025360  0.373600  1.0  -0.7439
  O  O731  1  0.711530  0.027020  0.702000  1.0  -0.8244
  O  O732  1  0.663010  0.019610  0.661300  1.0  -0.8155
  O  O733  1  0.684940  0.004870  0.864100  1.0  -0.8211
  O  O734  1  0.786820  0.028130  0.451800  1.0  -0.8096
  O  O735  1  0.756600  0.047560  0.615700  1.0  -0.8381
  O  O736  1  0.777090  0.063680  0.410800  1.0  -0.8217
  O  O737  1  0.620790  0.983720  0.678000  1.0  -0.773
  O  O738  1  0.570560  0.974960  0.650300  1.0  -0.8135
  O  O739  1  0.601040  0.974000  0.454100  1.0  -0.7843
  O  O740  1  0.784420  0.131260  0.100100  1.0  -0.816
  O  O741  1  0.785120  0.109280  0.294500  1.0  -0.7959
  O  O742  1  0.772090  0.094560  0.070800  1.0  -0.7753
  O  O743  1  0.781570  0.100330  0.594500  1.0  -0.8003
  O  O744  1  0.788710  0.121110  0.791000  1.0  -0.8111
  O  O745  1  0.767930  0.137570  0.582000  1.0  -0.777
  O  O746  1  0.760440  0.182870  0.055800  1.0  -0.7143
  O  O747  1  0.785060  0.164790  0.875700  1.0  -0.7135
  O  O748  1  0.783930  0.200940  0.871200  1.0  -0.7477
  O  O749  1  0.612800  0.022520  0.845000  1.0  -0.7984
  O  O750  1  0.583930  0.028500  0.039400  1.0  -0.7882
  O  O751  1  0.562270  0.013140  0.833800  1.0  -0.7778
  O  O752  1  0.769010  0.271810  0.086600  1.0  -0.7937
  O  O753  1  0.788590  0.254500  0.291300  1.0  -0.8062
  O  O754  1  0.782070  0.234480  0.090500  1.0  -0.8246
  O  O755  1  0.524550  0.974640  0.873600  1.0  -0.7456
  O  O756  1  0.211530  0.527020  0.702000  1.0  -0.8244
  O  O757  1  0.163010  0.519610  0.661300  1.0  -0.8155
  O  O758  1  0.184940  0.504870  0.864100  1.0  -0.8211
  O  O759  1  0.286820  0.528130  0.451800  1.0  -0.8096
  O  O760  1  0.256600  0.547560  0.615700  1.0  -0.8381
  O  O761  1  0.277090  0.563680  0.410800  1.0  -0.8217
  O  O762  1  0.120790  0.483720  0.678000  1.0  -0.773
  O  O763  1  0.070560  0.474960  0.650300  1.0  -0.8135
  O  O764  1  0.101040  0.474000  0.454100  1.0  -0.7843
  O  O765  1  0.284420  0.631260  0.100100  1.0  -0.816
  O  O766  1  0.285120  0.609280  0.294500  1.0  -0.7959
  O  O767  1  0.272090  0.594560  0.070800  1.0  -0.7753
  O  O768  1  0.281570  0.600330  0.594500  1.0  -0.8003
  O  O769  1  0.288710  0.621110  0.791000  1.0  -0.8111
  O  O770  1  0.267930  0.637570  0.582000  1.0  -0.777
  O  O771  1  0.260440  0.682870  0.055800  1.0  -0.7143
  O  O772  1  0.285060  0.664790  0.875700  1.0  -0.7135
  O  O773  1  0.283930  0.700940  0.871200  1.0  -0.7477
  O  O774  1  0.112800  0.522520  0.845000  1.0  -0.7984
  O  O775  1  0.083930  0.528500  0.039400  1.0  -0.7882
  O  O776  1  0.062270  0.513140  0.833800  1.0  -0.7778
  O  O777  1  0.269010  0.771810  0.086600  1.0  -0.7937
  O  O778  1  0.288590  0.754500  0.291300  1.0  -0.8062
  O  O779  1  0.282070  0.734480  0.090500  1.0  -0.8246
  O  O780  1  0.024550  0.474640  0.873600  1.0  -0.7456
  O  O781  1  0.500000  0.992010  0.690600  1.0  -0.7727
  O  O782  1  0.000000  0.492010  0.690600  1.0  -0.7727
  O  O783  1  0.500000  0.507990  0.190600  1.0  -0.7746
  O  O784  1  0.000000  0.007990  0.190600  1.0  -0.7746
  O  O785  1  0.500000  0.492010  0.809400  1.0  -0.7731
  O  O786  1  0.000000  0.992010  0.809400  1.0  -0.7731
  O  O787  1  0.500000  0.007990  0.309400  1.0  -0.7749
  O  O788  1  0.000000  0.507990  0.309400  1.0  -0.7749
  F  F789  1  0.242850  0.005160  0.626400  1.0  -0.5782
  F  F790  1  0.742850  0.505160  0.626400  1.0  -0.5782
  F  F791  1  0.757150  0.494840  0.126400  1.0  -0.5764
  F  F792  1  0.257150  0.994840  0.126400  1.0  -0.5764
  F  F793  1  0.757150  0.505160  0.873600  1.0  -0.5779
  F  F794  1  0.257150  0.005160  0.873600  1.0  -0.5779
  F  F795  1  0.242850  0.994840  0.373600  1.0  -0.5769
  F  F796  1  0.742850  0.494840  0.373600  1.0  -0.5769
  F  F797  1  0.757150  0.994840  0.373600  1.0  -0.5764
  F  F798  1  0.257150  0.494840  0.373600  1.0  -0.5764
  F  F799  1  0.242850  0.505160  0.873600  1.0  -0.5783
  F  F800  1  0.742850  0.005160  0.873600  1.0  -0.5783
  F  F801  1  0.242850  0.494840  0.126400  1.0  -0.5769
  F  F802  1  0.742850  0.994840  0.126400  1.0  -0.5769
  F  F803  1  0.757150  0.005160  0.626400  1.0  -0.5778
  F  F804  1  0.257150  0.505160  0.626400  1.0  -0.5778
