# generated using pymatgen
data_Zn23Ga4P34H62C16N4(O57F2)2
_symmetry_space_group_name_H-M   'P 1'
_cell_length_a   48.56100000
_cell_length_b   66.34000000
_cell_length_c   10.03760000
_cell_angle_alpha   90.00000000
_cell_angle_beta   90.00000000
_cell_angle_gamma   90.00000000
_symmetry_Int_Tables_number   1
_chemical_formula_structural   Zn23Ga4P34H62C16N4(O57F2)2
_chemical_formula_sum   'Zn92 Ga16 P136 H248 C64 N16 O456 F16'
_cell_volume   32336.49718142
_cell_formula_units_Z   4
loop_
 _symmetry_equiv_pos_site_id
 _symmetry_equiv_pos_as_xyz
  1  'x, y, z'
loop_
 _atom_site_type_symbol
 _atom_site_label
 _atom_site_symmetry_multiplicity
 _atom_site_fract_x
 _atom_site_fract_y
 _atom_site_fract_z
 _atom_site_occupancy
 _atom_site_charge
  Zn  Zn1  1  0.235250  0.090930  0.431390  1.0  1.2283
  Zn  Zn2  1  0.764750  0.409070  0.931390  1.0  1.2274
  Zn  Zn3  1  0.764750  0.590930  0.068610  1.0  1.2292
  Zn  Zn4  1  0.235250  0.909070  0.568610  1.0  1.2304
  Zn  Zn5  1  0.764750  0.909070  0.568610  1.0  1.2293
  Zn  Zn6  1  0.235250  0.590930  0.068610  1.0  1.2296
  Zn  Zn7  1  0.235250  0.409070  0.931390  1.0  1.229
  Zn  Zn8  1  0.764750  0.090930  0.431390  1.0  1.2274
  Zn  Zn9  1  0.735250  0.590930  0.431390  1.0  1.2283
  Zn  Zn10  1  0.264750  0.909070  0.931390  1.0  1.2274
  Zn  Zn11  1  0.264750  0.090930  0.068610  1.0  1.2292
  Zn  Zn12  1  0.735250  0.409070  0.568610  1.0  1.2304
  Zn  Zn13  1  0.264750  0.409070  0.568610  1.0  1.2293
  Zn  Zn14  1  0.735250  0.090930  0.068610  1.0  1.2296
  Zn  Zn15  1  0.735250  0.909070  0.931390  1.0  1.229
  Zn  Zn16  1  0.264750  0.590930  0.431390  1.0  1.2274
  Zn  Zn17  1  0.063070  0.014040  0.328510  1.0  1.2139
  Zn  Zn18  1  0.936930  0.485960  0.828510  1.0  1.2145
  Zn  Zn19  1  0.936930  0.514040  0.171490  1.0  1.2136
  Zn  Zn20  1  0.063070  0.985960  0.671490  1.0  1.215
  Zn  Zn21  1  0.936930  0.985960  0.671490  1.0  1.2145
  Zn  Zn22  1  0.063070  0.514040  0.171490  1.0  1.214
  Zn  Zn23  1  0.063070  0.485960  0.828510  1.0  1.2148
  Zn  Zn24  1  0.936930  0.014040  0.328510  1.0  1.2135
  Zn  Zn25  1  0.563070  0.514040  0.328510  1.0  1.2139
  Zn  Zn26  1  0.436930  0.985960  0.828510  1.0  1.2145
  Zn  Zn27  1  0.436930  0.014040  0.171490  1.0  1.2136
  Zn  Zn28  1  0.563070  0.485960  0.671490  1.0  1.215
  Zn  Zn29  1  0.436930  0.485960  0.671490  1.0  1.2145
  Zn  Zn30  1  0.563070  0.014040  0.171490  1.0  1.214
  Zn  Zn31  1  0.563070  0.985960  0.828510  1.0  1.2148
  Zn  Zn32  1  0.436930  0.514040  0.328510  1.0  1.2135
  Zn  Zn33  1  0.230640  0.137210  0.922920  1.0  1.213
  Zn  Zn34  1  0.769360  0.362790  0.422920  1.0  1.213
  Zn  Zn35  1  0.769360  0.637210  0.577080  1.0  1.2126
  Zn  Zn36  1  0.230640  0.862790  0.077080  1.0  1.2128
  Zn  Zn37  1  0.769360  0.862790  0.077080  1.0  1.2129
  Zn  Zn38  1  0.230640  0.637210  0.577080  1.0  1.2128
  Zn  Zn39  1  0.230640  0.362790  0.422920  1.0  1.2129
  Zn  Zn40  1  0.769360  0.137210  0.922920  1.0  1.2129
  Zn  Zn41  1  0.730640  0.637210  0.922920  1.0  1.213
  Zn  Zn42  1  0.269360  0.862790  0.422920  1.0  1.213
  Zn  Zn43  1  0.269360  0.137210  0.577080  1.0  1.2126
  Zn  Zn44  1  0.730640  0.362790  0.077080  1.0  1.2128
  Zn  Zn45  1  0.269360  0.362790  0.077080  1.0  1.2129
  Zn  Zn46  1  0.730640  0.137210  0.577080  1.0  1.2128
  Zn  Zn47  1  0.730640  0.862790  0.422920  1.0  1.2129
  Zn  Zn48  1  0.269360  0.637210  0.922920  1.0  1.2129
  Zn  Zn49  1  0.126180  0.990420  0.180910  1.0  1.217
  Zn  Zn50  1  0.873820  0.509580  0.680910  1.0  1.2174
  Zn  Zn51  1  0.873820  0.490420  0.319090  1.0  1.2169
  Zn  Zn52  1  0.126180  0.009580  0.819090  1.0  1.2177
  Zn  Zn53  1  0.873820  0.009580  0.819090  1.0  1.2173
  Zn  Zn54  1  0.126180  0.490420  0.319090  1.0  1.217
  Zn  Zn55  1  0.126180  0.509580  0.680910  1.0  1.2176
  Zn  Zn56  1  0.873820  0.990420  0.180910  1.0  1.2171
  Zn  Zn57  1  0.626180  0.490420  0.180910  1.0  1.217
  Zn  Zn58  1  0.373820  0.009580  0.680910  1.0  1.2174
  Zn  Zn59  1  0.373820  0.990420  0.319090  1.0  1.2169
  Zn  Zn60  1  0.626180  0.509580  0.819090  1.0  1.2177
  Zn  Zn61  1  0.373820  0.509580  0.819090  1.0  1.2173
  Zn  Zn62  1  0.626180  0.990420  0.319090  1.0  1.217
  Zn  Zn63  1  0.626180  0.009580  0.680910  1.0  1.2176
  Zn  Zn64  1  0.373820  0.490420  0.180910  1.0  1.2171
  Zn  Zn65  1  0.232460  0.227420  0.920740  1.0  1.2092
  Zn  Zn66  1  0.767540  0.272580  0.420740  1.0  1.2073
  Zn  Zn67  1  0.767540  0.727420  0.579260  1.0  1.2088
  Zn  Zn68  1  0.232460  0.772580  0.079260  1.0  1.2076
  Zn  Zn69  1  0.767540  0.772580  0.079260  1.0  1.2073
  Zn  Zn70  1  0.232460  0.727420  0.579260  1.0  1.2093
  Zn  Zn71  1  0.232460  0.272580  0.420740  1.0  1.2076
  Zn  Zn72  1  0.767540  0.227420  0.920740  1.0  1.2087
  Zn  Zn73  1  0.732460  0.727420  0.920740  1.0  1.2089
  Zn  Zn74  1  0.267540  0.772580  0.420740  1.0  1.207
  Zn  Zn75  1  0.267540  0.227420  0.579260  1.0  1.2085
  Zn  Zn76  1  0.732460  0.272580  0.079260  1.0  1.2073
  Zn  Zn77  1  0.267540  0.272580  0.079260  1.0  1.2071
  Zn  Zn78  1  0.732460  0.227420  0.579260  1.0  1.209
  Zn  Zn79  1  0.732460  0.772580  0.420740  1.0  1.2073
  Zn  Zn80  1  0.267540  0.727420  0.920740  1.0  1.2084
  Zn  Zn81  1  0.250000  0.181240  0.250000  1.0  0.7778
  Zn  Zn82  1  0.750000  0.318760  0.750000  1.0  0.7778
  Zn  Zn83  1  0.750000  0.681240  0.250000  1.0  0.7778
  Zn  Zn84  1  0.250000  0.818760  0.750000  1.0  0.7778
  Zn  Zn85  1  0.750000  0.818760  0.750000  1.0  0.7778
  Zn  Zn86  1  0.250000  0.681240  0.250000  1.0  0.7778
  Zn  Zn87  1  0.250000  0.318760  0.750000  1.0  0.7778
  Zn  Zn88  1  0.750000  0.181240  0.250000  1.0  0.7778
  Zn  Zn89  1  0.000000  0.000000  0.000000  1.0  0.6592
  Zn  Zn90  1  0.000000  0.500000  0.500000  1.0  0.6592
  Zn  Zn91  1  0.500000  0.500000  0.000000  1.0  0.6592
  Zn  Zn92  1  0.500000  0.000000  0.500000  1.0  0.6592
  Ga  Ga93  1  0.250000  0.976180  0.250000  1.0  1.7273
  Ga  Ga94  1  0.750000  0.523820  0.750000  1.0  1.7287
  Ga  Ga95  1  0.750000  0.476180  0.250000  1.0  1.7273
  Ga  Ga96  1  0.250000  0.023820  0.750000  1.0  1.7287
  Ga  Ga97  1  0.750000  0.023820  0.750000  1.0  1.7287
  Ga  Ga98  1  0.250000  0.476180  0.250000  1.0  1.7273
  Ga  Ga99  1  0.250000  0.523820  0.750000  1.0  1.7287
  Ga  Ga100  1  0.750000  0.976180  0.250000  1.0  1.7273
  Ga  Ga101  1  0.216310  0.000000  0.500000  1.0  1.7196
  Ga  Ga102  1  0.783690  0.500000  0.000000  1.0  1.719
  Ga  Ga103  1  0.783690  0.000000  0.500000  1.0  1.719
  Ga  Ga104  1  0.216310  0.500000  0.000000  1.0  1.7196
  Ga  Ga105  1  0.716310  0.500000  0.500000  1.0  1.7196
  Ga  Ga106  1  0.283690  0.000000  0.000000  1.0  1.719
  Ga  Ga107  1  0.283690  0.500000  0.500000  1.0  1.719
  Ga  Ga108  1  0.716310  0.000000  0.000000  1.0  1.7196
  P  P109  1  0.190800  0.996340  0.221100  1.0  0.9937
  P  P110  1  0.809200  0.503660  0.721100  1.0  0.9765
  P  P111  1  0.809200  0.496340  0.278900  1.0  0.9922
  P  P112  1  0.190800  0.003660  0.778900  1.0  0.9725
  P  P113  1  0.809200  0.003660  0.778900  1.0  0.9735
  P  P114  1  0.190800  0.496340  0.278900  1.0  0.9918
  P  P115  1  0.190800  0.503660  0.721100  1.0  0.9754
  P  P116  1  0.809200  0.996340  0.221100  1.0  0.9945
  P  P117  1  0.690800  0.496340  0.221100  1.0  0.9937
  P  P118  1  0.309200  0.003660  0.721100  1.0  0.9765
  P  P119  1  0.309200  0.996340  0.278900  1.0  0.9922
  P  P120  1  0.690800  0.503660  0.778900  1.0  0.9725
  P  P121  1  0.309200  0.503660  0.778900  1.0  0.9735
  P  P122  1  0.690800  0.996340  0.278900  1.0  0.9918
  P  P123  1  0.690800  0.003660  0.721100  1.0  0.9754
  P  P124  1  0.309200  0.496340  0.221100  1.0  0.9945
  P  P125  1  0.242430  0.043610  0.474490  1.0  1.1222
  P  P126  1  0.757570  0.456390  0.974490  1.0  1.1487
  P  P127  1  0.757570  0.543610  0.025510  1.0  1.1481
  P  P128  1  0.242430  0.956390  0.525510  1.0  1.1212
  P  P129  1  0.757570  0.956390  0.525510  1.0  1.1482
  P  P130  1  0.242430  0.543610  0.025510  1.0  1.1211
  P  P131  1  0.242430  0.456390  0.974490  1.0  1.122
  P  P132  1  0.757570  0.043610  0.474490  1.0  1.1489
  P  P133  1  0.742430  0.543610  0.474490  1.0  1.1222
  P  P134  1  0.257570  0.956390  0.974490  1.0  1.1487
  P  P135  1  0.257570  0.043610  0.025510  1.0  1.1481
  P  P136  1  0.742430  0.456390  0.525510  1.0  1.1212
  P  P137  1  0.257570  0.456390  0.525510  1.0  1.1482
  P  P138  1  0.742430  0.043610  0.025510  1.0  1.1211
  P  P139  1  0.742430  0.956390  0.974490  1.0  1.122
  P  P140  1  0.257570  0.543610  0.474490  1.0  1.1489
  P  P141  1  0.102060  0.030540  0.095490  1.0  1.0827
  P  P142  1  0.897940  0.469460  0.595490  1.0  1.066
  P  P143  1  0.897940  0.530540  0.404510  1.0  1.0827
  P  P144  1  0.102060  0.969460  0.904510  1.0  1.0669
  P  P145  1  0.897940  0.969460  0.904510  1.0  1.067
  P  P146  1  0.102060  0.530540  0.404510  1.0  1.0826
  P  P147  1  0.102060  0.469460  0.595490  1.0  1.0658
  P  P148  1  0.897940  0.030540  0.095490  1.0  1.0828
  P  P149  1  0.602060  0.530540  0.095490  1.0  1.0827
  P  P150  1  0.397940  0.969460  0.595490  1.0  1.066
  P  P151  1  0.397940  0.030540  0.404510  1.0  1.0827
  P  P152  1  0.602060  0.469460  0.904510  1.0  1.0669
  P  P153  1  0.397940  0.469460  0.904510  1.0  1.067
  P  P154  1  0.602060  0.030540  0.404510  1.0  1.0826
  P  P155  1  0.602060  0.969460  0.595490  1.0  1.0658
  P  P156  1  0.397940  0.530540  0.095490  1.0  1.0828
  P  P157  1  0.208550  0.107350  0.150930  1.0  1.0203
  P  P158  1  0.791450  0.392650  0.650930  1.0  1.005
  P  P159  1  0.791450  0.607350  0.349070  1.0  1.0064
  P  P160  1  0.208550  0.892650  0.849070  1.0  1.019
  P  P161  1  0.791450  0.892650  0.849070  1.0  1.0063
  P  P162  1  0.208550  0.607350  0.349070  1.0  1.0196
  P  P163  1  0.208550  0.392650  0.650930  1.0  1.0194
  P  P164  1  0.791450  0.107350  0.150930  1.0  1.0054
  P  P165  1  0.708550  0.607350  0.150930  1.0  1.0201
  P  P166  1  0.291450  0.892650  0.650930  1.0  1.0047
  P  P167  1  0.291450  0.107350  0.349070  1.0  1.0061
  P  P168  1  0.708550  0.392650  0.849070  1.0  1.0188
  P  P169  1  0.291450  0.392650  0.849070  1.0  1.006
  P  P170  1  0.708550  0.107350  0.349070  1.0  1.0194
  P  P171  1  0.708550  0.892650  0.650930  1.0  1.0193
  P  P172  1  0.291450  0.607350  0.150930  1.0  1.0051
  P  P173  1  0.211900  0.121360  0.636860  1.0  1.0395
  P  P174  1  0.788100  0.378640  0.136860  1.0  1.0264
  P  P175  1  0.788100  0.621360  0.863140  1.0  1.0277
  P  P176  1  0.211900  0.878640  0.363140  1.0  1.0372
  P  P177  1  0.788100  0.878640  0.363140  1.0  1.0255
  P  P178  1  0.211900  0.621360  0.863140  1.0  1.0381
  P  P179  1  0.211900  0.378640  0.136860  1.0  1.0385
  P  P180  1  0.788100  0.121360  0.636860  1.0  1.0282
  P  P181  1  0.711900  0.621360  0.636860  1.0  1.0395
  P  P182  1  0.288100  0.878640  0.136860  1.0  1.0264
  P  P183  1  0.288100  0.121360  0.863140  1.0  1.0277
  P  P184  1  0.711900  0.378640  0.363140  1.0  1.0372
  P  P185  1  0.288100  0.378640  0.363140  1.0  1.0255
  P  P186  1  0.711900  0.121360  0.863140  1.0  1.0381
  P  P187  1  0.711900  0.878640  0.136860  1.0  1.0385
  P  P188  1  0.288100  0.621360  0.636860  1.0  1.0282
  P  P189  1  0.211550  0.182540  0.009180  1.0  1.032
  P  P190  1  0.788450  0.317460  0.509180  1.0  1.0231
  P  P191  1  0.788450  0.682540  0.490820  1.0  1.0224
  P  P192  1  0.211550  0.817460  0.990820  1.0  1.0317
  P  P193  1  0.788450  0.817460  0.990820  1.0  1.0221
  P  P194  1  0.211550  0.682540  0.490820  1.0  1.0323
  P  P195  1  0.211550  0.317460  0.509180  1.0  1.0316
  P  P196  1  0.788450  0.182540  0.009180  1.0  1.0233
  P  P197  1  0.711550  0.682540  0.009180  1.0  1.032
  P  P198  1  0.288450  0.817460  0.509180  1.0  1.0231
  P  P199  1  0.288450  0.182540  0.490820  1.0  1.0224
  P  P200  1  0.711550  0.317460  0.990820  1.0  1.0317
  P  P201  1  0.288450  0.317460  0.990820  1.0  1.0221
  P  P202  1  0.711550  0.182540  0.490820  1.0  1.0323
  P  P203  1  0.711550  0.817460  0.509180  1.0  1.0316
  P  P204  1  0.288450  0.682540  0.009180  1.0  1.0233
  P  P205  1  0.085870  0.972010  0.388730  1.0  1.1018
  P  P206  1  0.914130  0.527990  0.888730  1.0  1.1205
  P  P207  1  0.914130  0.472010  0.111270  1.0  1.1013
  P  P208  1  0.085870  0.027990  0.611270  1.0  1.119
  P  P209  1  0.914130  0.027990  0.611270  1.0  1.1196
  P  P210  1  0.085870  0.472010  0.111270  1.0  1.1004
  P  P211  1  0.085870  0.527990  0.888730  1.0  1.1204
  P  P212  1  0.914130  0.972010  0.388730  1.0  1.1023
  P  P213  1  0.585870  0.472010  0.388730  1.0  1.1018
  P  P214  1  0.414130  0.027990  0.888730  1.0  1.1205
  P  P215  1  0.414130  0.972010  0.111270  1.0  1.1013
  P  P216  1  0.585870  0.527990  0.611270  1.0  1.119
  P  P217  1  0.414130  0.527990  0.611270  1.0  1.1196
  P  P218  1  0.585870  0.972010  0.111270  1.0  1.1004
  P  P219  1  0.585870  0.027990  0.888730  1.0  1.1204
  P  P220  1  0.414130  0.472010  0.388730  1.0  1.1023
  P  P221  1  0.790240  0.743760  0.856680  1.0  0.9366
  P  P222  1  0.209760  0.756240  0.356680  1.0  0.9424
  P  P223  1  0.209760  0.243760  0.643320  1.0  0.9458
  P  P224  1  0.790240  0.256240  0.143320  1.0  0.9383
  P  P225  1  0.209760  0.256240  0.143320  1.0  0.942
  P  P226  1  0.790240  0.243760  0.643320  1.0  0.941
  P  P227  1  0.790240  0.756240  0.356680  1.0  0.9377
  P  P228  1  0.209760  0.743760  0.856680  1.0  0.9396
  P  P229  1  0.290240  0.243760  0.856680  1.0  0.9346
  P  P230  1  0.709760  0.256240  0.356680  1.0  0.9389
  P  P231  1  0.709760  0.743760  0.643320  1.0  0.942
  P  P232  1  0.290240  0.756240  0.143320  1.0  0.9378
  P  P233  1  0.709760  0.756240  0.143320  1.0  0.9424
  P  P234  1  0.290240  0.743760  0.643320  1.0  0.9376
  P  P235  1  0.290240  0.256240  0.356680  1.0  0.9346
  P  P236  1  0.709760  0.243760  0.856680  1.0  0.9384
  P  P237  1  0.000000  0.026890  0.249030  1.0  1.5438
  P  P238  1  0.000000  0.473110  0.749030  1.0  1.5454
  P  P239  1  0.000000  0.526890  0.250970  1.0  1.5447
  P  P240  1  0.000000  0.973110  0.750970  1.0  1.5441
  P  P241  1  0.500000  0.526890  0.249030  1.0  1.5438
  P  P242  1  0.500000  0.973110  0.749030  1.0  1.5454
  P  P243  1  0.500000  0.026890  0.250970  1.0  1.5447
  P  P244  1  0.500000  0.473110  0.750970  1.0  1.5441
  H  H245  1  0.026690  0.975680  0.115130  1.0  0.5196
  H  H246  1  0.973310  0.524320  0.615130  1.0  0.5208
  H  H247  1  0.973310  0.475680  0.384870  1.0  0.5191
  H  H248  1  0.026690  0.024320  0.884870  1.0  0.5195
  H  H249  1  0.973310  0.024320  0.884870  1.0  0.52
  H  H250  1  0.026690  0.475680  0.384870  1.0  0.5187
  H  H251  1  0.026690  0.524320  0.615130  1.0  0.5207
  H  H252  1  0.973310  0.975680  0.115130  1.0  0.5199
  H  H253  1  0.526690  0.475680  0.115130  1.0  0.5196
  H  H254  1  0.473310  0.024320  0.615130  1.0  0.5208
  H  H255  1  0.473310  0.975680  0.384870  1.0  0.5191
  H  H256  1  0.526690  0.524320  0.884870  1.0  0.5195
  H  H257  1  0.473310  0.524320  0.884870  1.0  0.52
  H  H258  1  0.526690  0.975680  0.384870  1.0  0.5187
  H  H259  1  0.526690  0.024320  0.615130  1.0  0.5207
  H  H260  1  0.473310  0.475680  0.115130  1.0  0.5199
  H  H261  1  0.205620  0.166390  0.273950  1.0  0.4845
  H  H262  1  0.794380  0.333610  0.773950  1.0  0.4866
  H  H263  1  0.794380  0.666390  0.226050  1.0  0.4873
  H  H264  1  0.205620  0.833610  0.726050  1.0  0.4846
  H  H265  1  0.794380  0.833610  0.726050  1.0  0.487
  H  H266  1  0.205620  0.666390  0.226050  1.0  0.4841
  H  H267  1  0.205620  0.333610  0.773950  1.0  0.4851
  H  H268  1  0.794380  0.166390  0.273950  1.0  0.4871
  H  H269  1  0.705620  0.666390  0.273950  1.0  0.4845
  H  H270  1  0.294380  0.833610  0.773950  1.0  0.4866
  H  H271  1  0.294380  0.166390  0.226050  1.0  0.4873
  H  H272  1  0.705620  0.333610  0.726050  1.0  0.4846
  H  H273  1  0.294380  0.333610  0.726050  1.0  0.487
  H  H274  1  0.705620  0.166390  0.226050  1.0  0.4841
  H  H275  1  0.705620  0.833610  0.773950  1.0  0.4851
  H  H276  1  0.294380  0.666390  0.273950  1.0  0.4871
  H  H277  1  0.214250  0.198730  0.357680  1.0  0.4019
  H  H278  1  0.785750  0.301270  0.857680  1.0  0.4005
  H  H279  1  0.785750  0.698730  0.142320  1.0  0.4009
  H  H280  1  0.214250  0.801270  0.642320  1.0  0.4022
  H  H281  1  0.785750  0.801270  0.642320  1.0  0.401
  H  H282  1  0.214250  0.698730  0.142320  1.0  0.4016
  H  H283  1  0.214250  0.301270  0.857680  1.0  0.4026
  H  H284  1  0.785750  0.198730  0.357680  1.0  0.4004
  H  H285  1  0.714250  0.698730  0.357680  1.0  0.4038
  H  H286  1  0.285750  0.801270  0.857680  1.0  0.403
  H  H287  1  0.285750  0.198730  0.142320  1.0  0.4027
  H  H288  1  0.714250  0.301270  0.642320  1.0  0.4038
  H  H289  1  0.285750  0.301270  0.642320  1.0  0.4029
  H  H290  1  0.714250  0.198730  0.142320  1.0  0.4033
  H  H291  1  0.714250  0.801270  0.857680  1.0  0.4048
  H  H292  1  0.285750  0.698730  0.357680  1.0  0.4026
  H  H293  1  0.284690  0.938210  0.345070  1.0  0.1994
  H  H294  1  0.715310  0.561790  0.845070  1.0  0.199
  H  H295  1  0.715310  0.438210  0.154930  1.0  0.198
  H  H296  1  0.284690  0.061790  0.654930  1.0  0.199
  H  H297  1  0.715310  0.061790  0.654930  1.0  0.1978
  H  H298  1  0.284690  0.438210  0.154930  1.0  0.1992
  H  H299  1  0.284690  0.561790  0.845070  1.0  0.1998
  H  H300  1  0.715310  0.938210  0.345070  1.0  0.1983
  H  H301  1  0.784690  0.438210  0.345070  1.0  0.1994
  H  H302  1  0.215310  0.061790  0.845070  1.0  0.199
  H  H303  1  0.215310  0.938210  0.154930  1.0  0.198
  H  H304  1  0.784690  0.561790  0.654930  1.0  0.199
  H  H305  1  0.215310  0.561790  0.654930  1.0  0.1978
  H  H306  1  0.784690  0.938210  0.154930  1.0  0.1992
  H  H307  1  0.784690  0.061790  0.845070  1.0  0.1998
  H  H308  1  0.215310  0.438210  0.345070  1.0  0.1983
  H  H309  1  0.293180  0.914350  0.386090  1.0  0.2201
  H  H310  1  0.706820  0.585650  0.886090  1.0  0.2184
  H  H311  1  0.706820  0.414350  0.113910  1.0  0.2194
  H  H312  1  0.293180  0.085650  0.613910  1.0  0.2197
  H  H313  1  0.706820  0.085650  0.613910  1.0  0.219
  H  H314  1  0.293180  0.414350  0.113910  1.0  0.2197
  H  H315  1  0.293180  0.585650  0.886090  1.0  0.219
  H  H316  1  0.706820  0.914350  0.386090  1.0  0.22
  H  H317  1  0.793180  0.414350  0.386090  1.0  0.2201
  H  H318  1  0.206820  0.085650  0.886090  1.0  0.2184
  H  H319  1  0.206820  0.914350  0.113910  1.0  0.2194
  H  H320  1  0.793180  0.585650  0.613910  1.0  0.2197
  H  H321  1  0.206820  0.585650  0.613910  1.0  0.219
  H  H322  1  0.793180  0.914350  0.113910  1.0  0.2197
  H  H323  1  0.793180  0.085650  0.886090  1.0  0.219
  H  H324  1  0.206820  0.414350  0.386090  1.0  0.22
  H  H325  1  0.326300  0.940000  0.460380  1.0  0.1761
  H  H326  1  0.673700  0.560000  0.960380  1.0  0.1767
  H  H327  1  0.673700  0.440000  0.039620  1.0  0.1754
  H  H328  1  0.326300  0.060000  0.539620  1.0  0.1752
  H  H329  1  0.673700  0.060000  0.539620  1.0  0.1753
  H  H330  1  0.326300  0.440000  0.039620  1.0  0.1752
  H  H331  1  0.326300  0.560000  0.960380  1.0  0.1767
  H  H332  1  0.673700  0.940000  0.460380  1.0  0.176
  H  H333  1  0.826300  0.440000  0.460380  1.0  0.1761
  H  H334  1  0.173700  0.060000  0.960380  1.0  0.1767
  H  H335  1  0.173700  0.940000  0.039620  1.0  0.1754
  H  H336  1  0.826300  0.560000  0.539620  1.0  0.1752
  H  H337  1  0.173700  0.560000  0.539620  1.0  0.1753
  H  H338  1  0.826300  0.940000  0.039620  1.0  0.1752
  H  H339  1  0.826300  0.060000  0.960380  1.0  0.1767
  H  H340  1  0.173700  0.440000  0.460380  1.0  0.176
  H  H341  1  0.332000  0.945450  0.286210  1.0  0.1616
  H  H342  1  0.668000  0.554550  0.786210  1.0  0.1613
  H  H343  1  0.668000  0.445450  0.213790  1.0  0.1609
  H  H344  1  0.332000  0.054550  0.713790  1.0  0.1607
  H  H345  1  0.668000  0.054550  0.713790  1.0  0.1611
  H  H346  1  0.332000  0.445450  0.213790  1.0  0.1607
  H  H347  1  0.332000  0.554550  0.786210  1.0  0.161
  H  H348  1  0.668000  0.945450  0.286210  1.0  0.1619
  H  H349  1  0.832000  0.445450  0.286210  1.0  0.1616
  H  H350  1  0.168000  0.054550  0.786210  1.0  0.1613
  H  H351  1  0.168000  0.945450  0.213790  1.0  0.1609
  H  H352  1  0.832000  0.554550  0.713790  1.0  0.1607
  H  H353  1  0.168000  0.554550  0.713790  1.0  0.1611
  H  H354  1  0.832000  0.945450  0.213790  1.0  0.1607
  H  H355  1  0.832000  0.054550  0.786210  1.0  0.161
  H  H356  1  0.168000  0.445450  0.286210  1.0  0.1619
  H  H357  1  0.347390  0.910280  0.245800  1.0  0.1652
  H  H358  1  0.652610  0.589720  0.745800  1.0  0.1648
  H  H359  1  0.652610  0.410280  0.254200  1.0  0.1649
  H  H360  1  0.347390  0.089720  0.754200  1.0  0.1654
  H  H361  1  0.652610  0.089720  0.754200  1.0  0.1653
  H  H362  1  0.347390  0.410280  0.254200  1.0  0.1648
  H  H363  1  0.347390  0.589720  0.745800  1.0  0.1656
  H  H364  1  0.652610  0.910280  0.245800  1.0  0.1649
  H  H365  1  0.847390  0.410280  0.245800  1.0  0.1652
  H  H366  1  0.152610  0.089720  0.745800  1.0  0.1648
  H  H367  1  0.152610  0.910280  0.254200  1.0  0.1649
  H  H368  1  0.847390  0.589720  0.754200  1.0  0.1654
  H  H369  1  0.152610  0.589720  0.754200  1.0  0.1653
  H  H370  1  0.847390  0.910280  0.254200  1.0  0.1648
  H  H371  1  0.847390  0.089720  0.745800  1.0  0.1656
  H  H372  1  0.152610  0.410280  0.245800  1.0  0.1649
  H  H373  1  0.341410  0.904030  0.418390  1.0  0.1743
  H  H374  1  0.658590  0.595970  0.918390  1.0  0.1758
  H  H375  1  0.658590  0.404030  0.081610  1.0  0.1734
  H  H376  1  0.341410  0.095970  0.581610  1.0  0.1757
  H  H377  1  0.658590  0.095970  0.581610  1.0  0.1753
  H  H378  1  0.341410  0.404030  0.081610  1.0  0.1735
  H  H379  1  0.341410  0.595970  0.918390  1.0  0.176
  H  H380  1  0.658590  0.904030  0.418390  1.0  0.1741
  H  H381  1  0.841410  0.404030  0.418390  1.0  0.1743
  H  H382  1  0.158590  0.095970  0.918390  1.0  0.1758
  H  H383  1  0.158590  0.904030  0.081610  1.0  0.1734
  H  H384  1  0.841410  0.595970  0.581610  1.0  0.1757
  H  H385  1  0.158590  0.595970  0.581610  1.0  0.1753
  H  H386  1  0.841410  0.904030  0.081610  1.0  0.1735
  H  H387  1  0.841410  0.095970  0.918390  1.0  0.176
  H  H388  1  0.158590  0.404030  0.418390  1.0  0.1741
  H  H389  1  0.376250  0.928640  0.492410  1.0  0.1884
  H  H390  1  0.623750  0.571360  0.992410  1.0  0.1885
  H  H391  1  0.623750  0.428640  0.007590  1.0  0.1863
  H  H392  1  0.376250  0.071360  0.507590  1.0  0.1862
  H  H393  1  0.623750  0.071360  0.507590  1.0  0.186
  H  H394  1  0.376250  0.428640  0.007590  1.0  0.1865
  H  H395  1  0.376250  0.571360  0.992410  1.0  0.1887
  H  H396  1  0.623750  0.928640  0.492410  1.0  0.188
  H  H397  1  0.876250  0.428640  0.492410  1.0  0.1884
  H  H398  1  0.123750  0.071360  0.992410  1.0  0.1885
  H  H399  1  0.123750  0.928640  0.007590  1.0  0.1863
  H  H400  1  0.876250  0.571360  0.507590  1.0  0.1862
  H  H401  1  0.123750  0.571360  0.507590  1.0  0.186
  H  H402  1  0.876250  0.928640  0.007590  1.0  0.1865
  H  H403  1  0.876250  0.071360  0.992410  1.0  0.1887
  H  H404  1  0.123750  0.428640  0.492410  1.0  0.188
  H  H405  1  0.380940  0.937790  0.324940  1.0  0.185
  H  H406  1  0.619060  0.562210  0.824940  1.0  0.1839
  H  H407  1  0.619060  0.437790  0.175060  1.0  0.1849
  H  H408  1  0.380940  0.062210  0.675060  1.0  0.1845
  H  H409  1  0.619060  0.062210  0.675060  1.0  0.1844
  H  H410  1  0.380940  0.437790  0.175060  1.0  0.1847
  H  H411  1  0.380940  0.562210  0.824940  1.0  0.1842
  H  H412  1  0.619060  0.937790  0.324940  1.0  0.1853
  H  H413  1  0.880940  0.437790  0.324940  1.0  0.185
  H  H414  1  0.119060  0.062210  0.824940  1.0  0.1839
  H  H415  1  0.119060  0.937790  0.175060  1.0  0.1849
  H  H416  1  0.880940  0.562210  0.675060  1.0  0.1845
  H  H417  1  0.119060  0.562210  0.675060  1.0  0.1844
  H  H418  1  0.880940  0.937790  0.175060  1.0  0.1847
  H  H419  1  0.880940  0.062210  0.824940  1.0  0.1842
  H  H420  1  0.119060  0.437790  0.324940  1.0  0.1853
  H  H421  1  0.418680  0.915010  0.389440  1.0  0.1946
  H  H422  1  0.581320  0.584990  0.889440  1.0  0.1903
  H  H423  1  0.581320  0.415010  0.110560  1.0  0.1908
  H  H424  1  0.418680  0.084990  0.610560  1.0  0.193
  H  H425  1  0.581320  0.084990  0.610560  1.0  0.1896
  H  H426  1  0.418680  0.415010  0.110560  1.0  0.1937
  H  H427  1  0.418680  0.584990  0.889440  1.0  0.1935
  H  H428  1  0.581320  0.915010  0.389440  1.0  0.1916
  H  H429  1  0.918680  0.415010  0.389440  1.0  0.1946
  H  H430  1  0.081320  0.084990  0.889440  1.0  0.1903
  H  H431  1  0.081320  0.915010  0.110560  1.0  0.1908
  H  H432  1  0.918680  0.584990  0.610560  1.0  0.193
  H  H433  1  0.081320  0.584990  0.610560  1.0  0.1896
  H  H434  1  0.918680  0.915010  0.110560  1.0  0.1937
  H  H435  1  0.918680  0.084990  0.889440  1.0  0.1935
  H  H436  1  0.081320  0.415010  0.389440  1.0  0.1916
  H  H437  1  0.399040  0.904220  0.254770  1.0  0.1838
  H  H438  1  0.600960  0.595780  0.754770  1.0  0.1824
  H  H439  1  0.600960  0.404220  0.245230  1.0  0.1803
  H  H440  1  0.399040  0.095780  0.745230  1.0  0.1819
  H  H441  1  0.600960  0.095780  0.745230  1.0  0.181
  H  H442  1  0.399040  0.404220  0.245230  1.0  0.1809
  H  H443  1  0.399040  0.595780  0.754770  1.0  0.1831
  H  H444  1  0.600960  0.904220  0.254770  1.0  0.1833
  H  H445  1  0.899040  0.404220  0.254770  1.0  0.1838
  H  H446  1  0.100960  0.095780  0.754770  1.0  0.1824
  H  H447  1  0.100960  0.904220  0.245230  1.0  0.1803
  H  H448  1  0.899040  0.595780  0.745230  1.0  0.1819
  H  H449  1  0.100960  0.595780  0.745230  1.0  0.181
  H  H450  1  0.899040  0.904220  0.245230  1.0  0.1809
  H  H451  1  0.899040  0.095780  0.754770  1.0  0.1831
  H  H452  1  0.100960  0.404220  0.254770  1.0  0.1833
  H  H453  1  0.394640  0.894910  0.423430  1.0  0.1857
  H  H454  1  0.605360  0.605090  0.923430  1.0  0.1836
  H  H455  1  0.605360  0.394910  0.076570  1.0  0.185
  H  H456  1  0.394640  0.105090  0.576570  1.0  0.1835
  H  H457  1  0.605360  0.105090  0.576570  1.0  0.1828
  H  H458  1  0.394640  0.394910  0.076570  1.0  0.1856
  H  H459  1  0.394640  0.605090  0.923430  1.0  0.1847
  H  H460  1  0.605360  0.894910  0.423430  1.0  0.1845
  H  H461  1  0.894640  0.394910  0.423430  1.0  0.1857
  H  H462  1  0.105360  0.105090  0.923430  1.0  0.1836
  H  H463  1  0.105360  0.894910  0.076570  1.0  0.185
  H  H464  1  0.894640  0.605090  0.576570  1.0  0.1835
  H  H465  1  0.105360  0.605090  0.576570  1.0  0.1828
  H  H466  1  0.894640  0.894910  0.076570  1.0  0.1856
  H  H467  1  0.894640  0.105090  0.923430  1.0  0.1847
  H  H468  1  0.105360  0.394910  0.423430  1.0  0.1845
  H  H469  1  0.797340  0.577390  0.774230  1.0  0.2062
  H  H470  1  0.202660  0.922610  0.274230  1.0  0.2057
  H  H471  1  0.202660  0.077390  0.725770  1.0  0.2072
  H  H472  1  0.797340  0.422610  0.225770  1.0  0.2076
  H  H473  1  0.202660  0.422610  0.225770  1.0  0.207
  H  H474  1  0.797340  0.077390  0.725770  1.0  0.2079
  H  H475  1  0.797340  0.922610  0.274230  1.0  0.2058
  H  H476  1  0.202660  0.577390  0.774230  1.0  0.206
  H  H477  1  0.297340  0.077390  0.774230  1.0  0.2062
  H  H478  1  0.702660  0.422610  0.274230  1.0  0.2057
  H  H479  1  0.702660  0.577390  0.725770  1.0  0.2072
  H  H480  1  0.297340  0.922610  0.225770  1.0  0.2076
  H  H481  1  0.702660  0.922610  0.225770  1.0  0.207
  H  H482  1  0.297340  0.577390  0.725770  1.0  0.2079
  H  H483  1  0.297340  0.422610  0.274230  1.0  0.2058
  H  H484  1  0.702660  0.077390  0.774230  1.0  0.206
  H  H485  1  0.000000  0.043950  0.158860  1.0  0.074
  H  H486  1  0.000000  0.456050  0.658860  1.0  0.0732
  H  H487  1  0.000000  0.543950  0.341140  1.0  0.0731
  H  H488  1  0.000000  0.956050  0.841140  1.0  0.0727
  H  H489  1  0.500000  0.543950  0.158860  1.0  0.074
  H  H490  1  0.500000  0.956050  0.658860  1.0  0.0732
  H  H491  1  0.500000  0.043950  0.341140  1.0  0.0731
  H  H492  1  0.500000  0.456050  0.841140  1.0  0.0727
  C  C493  1  0.326250  0.933520  0.358210  1.0  0.149
  C  C494  1  0.673750  0.566480  0.858210  1.0  0.1499
  C  C495  1  0.673750  0.433520  0.141790  1.0  0.149
  C  C496  1  0.326250  0.066480  0.641790  1.0  0.1497
  C  C497  1  0.673750  0.066480  0.641790  1.0  0.1495
  C  C498  1  0.326250  0.433520  0.141790  1.0  0.1488
  C  C499  1  0.326250  0.566480  0.858210  1.0  0.1503
  C  C500  1  0.673750  0.933520  0.358210  1.0  0.1488
  C  C501  1  0.826250  0.433520  0.358210  1.0  0.149
  C  C502  1  0.173750  0.066480  0.858210  1.0  0.1499
  C  C503  1  0.173750  0.933520  0.141790  1.0  0.149
  C  C504  1  0.826250  0.566480  0.641790  1.0  0.1497
  C  C505  1  0.173750  0.566480  0.641790  1.0  0.1495
  C  C506  1  0.826250  0.933520  0.141790  1.0  0.1488
  C  C507  1  0.826250  0.066480  0.858210  1.0  0.1503
  C  C508  1  0.173750  0.433520  0.358210  1.0  0.1488
  C  C509  1  0.347320  0.916370  0.348920  1.0  -0.0698
  C  C510  1  0.652680  0.583630  0.848920  1.0  -0.0712
  C  C511  1  0.652680  0.416370  0.151080  1.0  -0.0705
  C  C512  1  0.347320  0.083630  0.651080  1.0  -0.0706
  C  C513  1  0.652680  0.083630  0.651080  1.0  -0.0712
  C  C514  1  0.347320  0.416370  0.151080  1.0  -0.0697
  C  C515  1  0.347320  0.583630  0.848920  1.0  -0.0708
  C  C516  1  0.652680  0.916370  0.348920  1.0  -0.0707
  C  C517  1  0.847320  0.416370  0.348920  1.0  -0.0698
  C  C518  1  0.152680  0.083630  0.848920  1.0  -0.0712
  C  C519  1  0.152680  0.916370  0.151080  1.0  -0.0705
  C  C520  1  0.847320  0.583630  0.651080  1.0  -0.0706
  C  C521  1  0.152680  0.583630  0.651080  1.0  -0.0712
  C  C522  1  0.847320  0.916370  0.151080  1.0  -0.0697
  C  C523  1  0.847320  0.083630  0.848920  1.0  -0.0708
  C  C524  1  0.152680  0.416370  0.348920  1.0  -0.0707
  C  C525  1  0.376040  0.924240  0.385530  1.0  -0.0839
  C  C526  1  0.623960  0.575760  0.885530  1.0  -0.0826
  C  C527  1  0.623960  0.424240  0.114470  1.0  -0.083
  C  C528  1  0.376040  0.075760  0.614470  1.0  -0.0832
  C  C529  1  0.623960  0.075760  0.614470  1.0  -0.0824
  C  C530  1  0.376040  0.424240  0.114470  1.0  -0.0839
  C  C531  1  0.376040  0.575760  0.885530  1.0  -0.0833
  C  C532  1  0.623960  0.924240  0.385530  1.0  -0.0834
  C  C533  1  0.876040  0.424240  0.385530  1.0  -0.0839
  C  C534  1  0.123960  0.075760  0.885530  1.0  -0.0826
  C  C535  1  0.123960  0.924240  0.114470  1.0  -0.083
  C  C536  1  0.876040  0.575760  0.614470  1.0  -0.0832
  C  C537  1  0.123960  0.575760  0.614470  1.0  -0.0824
  C  C538  1  0.876040  0.924240  0.114470  1.0  -0.0839
  C  C539  1  0.876040  0.075760  0.885530  1.0  -0.0833
  C  C540  1  0.123960  0.424240  0.385530  1.0  -0.0834
  C  C541  1  0.398400  0.908520  0.361580  1.0  -0.2004
  C  C542  1  0.601600  0.591480  0.861580  1.0  -0.2013
  C  C543  1  0.601600  0.408520  0.138420  1.0  -0.1996
  C  C544  1  0.398400  0.091480  0.638420  1.0  -0.2013
  C  C545  1  0.601600  0.091480  0.638420  1.0  -0.2012
  C  C546  1  0.398400  0.408520  0.138420  1.0  -0.2005
  C  C547  1  0.398400  0.591480  0.861580  1.0  -0.2014
  C  C548  1  0.601600  0.908520  0.361580  1.0  -0.1993
  C  C549  1  0.898400  0.408520  0.361580  1.0  -0.2004
  C  C550  1  0.101600  0.091480  0.861580  1.0  -0.2013
  C  C551  1  0.101600  0.908520  0.138420  1.0  -0.1996
  C  C552  1  0.898400  0.591480  0.638420  1.0  -0.2013
  C  C553  1  0.101600  0.591480  0.638420  1.0  -0.2012
  C  C554  1  0.898400  0.908520  0.138420  1.0  -0.2005
  C  C555  1  0.898400  0.091480  0.861580  1.0  -0.2014
  C  C556  1  0.101600  0.408520  0.361580  1.0  -0.1993
  N  N557  1  0.298510  0.926550  0.326260  1.0  -0.3621
  N  N558  1  0.701490  0.573450  0.826260  1.0  -0.3632
  N  N559  1  0.701490  0.426550  0.173740  1.0  -0.3639
  N  N560  1  0.298510  0.073450  0.673740  1.0  -0.362
  N  N561  1  0.701490  0.073450  0.673740  1.0  -0.3635
  N  N562  1  0.298510  0.426550  0.173740  1.0  -0.3624
  N  N563  1  0.298510  0.573450  0.826260  1.0  -0.3617
  N  N564  1  0.701490  0.926550  0.326260  1.0  -0.3637
  N  N565  1  0.798510  0.426550  0.326260  1.0  -0.3621
  N  N566  1  0.201490  0.073450  0.826260  1.0  -0.3632
  N  N567  1  0.201490  0.926550  0.173740  1.0  -0.3639
  N  N568  1  0.798510  0.573450  0.673740  1.0  -0.362
  N  N569  1  0.201490  0.573450  0.673740  1.0  -0.3635
  N  N570  1  0.798510  0.926550  0.173740  1.0  -0.3624
  N  N571  1  0.798510  0.073450  0.826260  1.0  -0.3617
  N  N572  1  0.201490  0.426550  0.326260  1.0  -0.3637
  O  O573  1  0.214520  0.979240  0.186660  1.0  -0.7808
  O  O574  1  0.785480  0.520760  0.686660  1.0  -0.7795
  O  O575  1  0.785480  0.479240  0.313340  1.0  -0.7799
  O  O576  1  0.214520  0.020760  0.813340  1.0  -0.7803
  O  O577  1  0.785480  0.020760  0.813340  1.0  -0.7798
  O  O578  1  0.214520  0.479240  0.313340  1.0  -0.7807
  O  O579  1  0.214520  0.520760  0.686660  1.0  -0.7799
  O  O580  1  0.785480  0.979240  0.186660  1.0  -0.7802
  O  O581  1  0.714520  0.479240  0.186660  1.0  -0.7808
  O  O582  1  0.285480  0.020760  0.686660  1.0  -0.7795
  O  O583  1  0.285480  0.979240  0.313340  1.0  -0.7799
  O  O584  1  0.714520  0.520760  0.813340  1.0  -0.7803
  O  O585  1  0.285480  0.520760  0.813340  1.0  -0.7798
  O  O586  1  0.714520  0.979240  0.313340  1.0  -0.7807
  O  O587  1  0.714520  0.020760  0.686660  1.0  -0.7799
  O  O588  1  0.285480  0.479240  0.186660  1.0  -0.7802
  O  O589  1  0.163790  0.982040  0.184610  1.0  -0.6877
  O  O590  1  0.836210  0.517960  0.684610  1.0  -0.6867
  O  O591  1  0.836210  0.482040  0.315390  1.0  -0.6887
  O  O592  1  0.163790  0.017960  0.815390  1.0  -0.6869
  O  O593  1  0.836210  0.017960  0.815390  1.0  -0.6873
  O  O594  1  0.163790  0.482040  0.315390  1.0  -0.6883
  O  O595  1  0.163790  0.517960  0.684610  1.0  -0.6866
  O  O596  1  0.836210  0.982040  0.184610  1.0  -0.688
  O  O597  1  0.663790  0.482040  0.184610  1.0  -0.6877
  O  O598  1  0.336210  0.017960  0.684610  1.0  -0.6867
  O  O599  1  0.336210  0.982040  0.315390  1.0  -0.6887
  O  O600  1  0.663790  0.517960  0.815390  1.0  -0.6869
  O  O601  1  0.336210  0.517960  0.815390  1.0  -0.6873
  O  O602  1  0.663790  0.982040  0.315390  1.0  -0.6883
  O  O603  1  0.663790  0.017960  0.684610  1.0  -0.6866
  O  O604  1  0.336210  0.482040  0.184610  1.0  -0.688
  O  O605  1  0.189920  0.992320  0.382010  1.0  -0.7536
  O  O606  1  0.810080  0.507680  0.882010  1.0  -0.7525
  O  O607  1  0.810080  0.492320  0.117990  1.0  -0.7531
  O  O608  1  0.189920  0.007680  0.617990  1.0  -0.7529
  O  O609  1  0.810080  0.007680  0.617990  1.0  -0.7523
  O  O610  1  0.189920  0.492320  0.117990  1.0  -0.7538
  O  O611  1  0.189920  0.507680  0.882010  1.0  -0.7526
  O  O612  1  0.810080  0.992320  0.382010  1.0  -0.7535
  O  O613  1  0.689920  0.492320  0.382010  1.0  -0.7536
  O  O614  1  0.310080  0.007680  0.882010  1.0  -0.7525
  O  O615  1  0.310080  0.992320  0.117990  1.0  -0.7531
  O  O616  1  0.689920  0.507680  0.617990  1.0  -0.7529
  O  O617  1  0.310080  0.507680  0.617990  1.0  -0.7523
  O  O618  1  0.689920  0.992320  0.117990  1.0  -0.7538
  O  O619  1  0.689920  0.007680  0.882010  1.0  -0.7526
  O  O620  1  0.310080  0.492320  0.382010  1.0  -0.7535
  O  O621  1  0.218940  0.026310  0.441560  1.0  -0.7659
  O  O622  1  0.781060  0.473690  0.941560  1.0  -0.7651
  O  O623  1  0.781060  0.526310  0.058440  1.0  -0.7641
  O  O624  1  0.218940  0.973690  0.558440  1.0  -0.7644
  O  O625  1  0.781060  0.973690  0.558440  1.0  -0.7641
  O  O626  1  0.218940  0.526310  0.058440  1.0  -0.7643
  O  O627  1  0.218940  0.473690  0.941560  1.0  -0.7652
  O  O628  1  0.781060  0.026310  0.441560  1.0  -0.766
  O  O629  1  0.718940  0.526310  0.441560  1.0  -0.7659
  O  O630  1  0.281060  0.973690  0.941560  1.0  -0.7651
  O  O631  1  0.281060  0.026310  0.058440  1.0  -0.7641
  O  O632  1  0.718940  0.473690  0.558440  1.0  -0.7644
  O  O633  1  0.281060  0.473690  0.558440  1.0  -0.7641
  O  O634  1  0.718940  0.026310  0.058440  1.0  -0.7643
  O  O635  1  0.718940  0.973690  0.941560  1.0  -0.7652
  O  O636  1  0.281060  0.526310  0.441560  1.0  -0.766
  O  O637  1  0.261760  0.956520  0.136540  1.0  -0.7459
  O  O638  1  0.738240  0.543480  0.636540  1.0  -0.7473
  O  O639  1  0.738240  0.456520  0.363460  1.0  -0.7485
  O  O640  1  0.261760  0.043480  0.863460  1.0  -0.7471
  O  O641  1  0.738240  0.043480  0.863460  1.0  -0.7483
  O  O642  1  0.261760  0.456520  0.363460  1.0  -0.7475
  O  O643  1  0.261760  0.543480  0.636540  1.0  -0.7459
  O  O644  1  0.738240  0.956520  0.136540  1.0  -0.7472
  O  O645  1  0.761760  0.456520  0.136540  1.0  -0.7459
  O  O646  1  0.238240  0.043480  0.636540  1.0  -0.7473
  O  O647  1  0.238240  0.956520  0.363460  1.0  -0.7485
  O  O648  1  0.761760  0.543480  0.863460  1.0  -0.7471
  O  O649  1  0.238240  0.543480  0.863460  1.0  -0.7483
  O  O650  1  0.761760  0.956520  0.363460  1.0  -0.7475
  O  O651  1  0.761760  0.043480  0.636540  1.0  -0.7459
  O  O652  1  0.238240  0.456520  0.136540  1.0  -0.7472
  O  O653  1  0.222660  0.063560  0.444350  1.0  -0.7028
  O  O654  1  0.777340  0.436440  0.944350  1.0  -0.7042
  O  O655  1  0.777340  0.563560  0.055650  1.0  -0.7037
  O  O656  1  0.222660  0.936440  0.555650  1.0  -0.7042
  O  O657  1  0.777340  0.936440  0.555650  1.0  -0.7043
  O  O658  1  0.222660  0.563560  0.055650  1.0  -0.7036
  O  O659  1  0.222660  0.436440  0.944350  1.0  -0.7036
  O  O660  1  0.777340  0.063560  0.444350  1.0  -0.7036
  O  O661  1  0.722660  0.563560  0.444350  1.0  -0.7028
  O  O662  1  0.277340  0.936440  0.944350  1.0  -0.7042
  O  O663  1  0.277340  0.063560  0.055650  1.0  -0.7037
  O  O664  1  0.722660  0.436440  0.555650  1.0  -0.7042
  O  O665  1  0.277340  0.436440  0.555650  1.0  -0.7043
  O  O666  1  0.722660  0.063560  0.055650  1.0  -0.7036
  O  O667  1  0.722660  0.936440  0.944350  1.0  -0.7036
  O  O668  1  0.277340  0.563560  0.444350  1.0  -0.7036
  O  O669  1  0.127630  0.016650  0.142360  1.0  -0.6739
  O  O670  1  0.872370  0.483350  0.642360  1.0  -0.6718
  O  O671  1  0.872370  0.516650  0.357640  1.0  -0.672
  O  O672  1  0.127630  0.983350  0.857640  1.0  -0.6734
  O  O673  1  0.872370  0.983350  0.857640  1.0  -0.6718
  O  O674  1  0.127630  0.516650  0.357640  1.0  -0.6734
  O  O675  1  0.127630  0.483350  0.642360  1.0  -0.6733
  O  O676  1  0.872370  0.016650  0.142360  1.0  -0.6723
  O  O677  1  0.627630  0.516650  0.142360  1.0  -0.6739
  O  O678  1  0.372370  0.983350  0.642360  1.0  -0.6718
  O  O679  1  0.372370  0.016650  0.357640  1.0  -0.672
  O  O680  1  0.627630  0.483350  0.857640  1.0  -0.6734
  O  O681  1  0.372370  0.483350  0.857640  1.0  -0.6718
  O  O682  1  0.627630  0.016650  0.357640  1.0  -0.6734
  O  O683  1  0.627630  0.983350  0.642360  1.0  -0.6733
  O  O684  1  0.372370  0.516650  0.142360  1.0  -0.6723
  O  O685  1  0.077610  0.015780  0.153610  1.0  -0.7523
  O  O686  1  0.922390  0.484220  0.653610  1.0  -0.7519
  O  O687  1  0.922390  0.515780  0.346390  1.0  -0.7522
  O  O688  1  0.077610  0.984220  0.846390  1.0  -0.7524
  O  O689  1  0.922390  0.984220  0.846390  1.0  -0.7522
  O  O690  1  0.077610  0.515780  0.346390  1.0  -0.7526
  O  O691  1  0.077610  0.484220  0.653610  1.0  -0.7522
  O  O692  1  0.922390  0.015780  0.153610  1.0  -0.7519
  O  O693  1  0.577610  0.515780  0.153610  1.0  -0.7523
  O  O694  1  0.422390  0.984220  0.653610  1.0  -0.7519
  O  O695  1  0.422390  0.015780  0.346390  1.0  -0.7522
  O  O696  1  0.577610  0.484220  0.846390  1.0  -0.7524
  O  O697  1  0.422390  0.484220  0.846390  1.0  -0.7522
  O  O698  1  0.577610  0.015780  0.346390  1.0  -0.7526
  O  O699  1  0.577610  0.984220  0.653610  1.0  -0.7522
  O  O700  1  0.422390  0.515780  0.153610  1.0  -0.7519
  O  O701  1  0.101700  0.978110  0.057880  1.0  -0.7605
  O  O702  1  0.898300  0.521890  0.557880  1.0  -0.7598
  O  O703  1  0.898300  0.478110  0.442120  1.0  -0.7598
  O  O704  1  0.101700  0.021890  0.942120  1.0  -0.7607
  O  O705  1  0.898300  0.021890  0.942120  1.0  -0.7597
  O  O706  1  0.101700  0.478110  0.442120  1.0  -0.7605
  O  O707  1  0.101700  0.521890  0.557880  1.0  -0.7606
  O  O708  1  0.898300  0.978110  0.057880  1.0  -0.76
  O  O709  1  0.601700  0.478110  0.057880  1.0  -0.7605
  O  O710  1  0.398300  0.021890  0.557880  1.0  -0.7598
  O  O711  1  0.398300  0.978110  0.442120  1.0  -0.7598
  O  O712  1  0.601700  0.521890  0.942120  1.0  -0.7607
  O  O713  1  0.398300  0.521890  0.942120  1.0  -0.7597
  O  O714  1  0.601700  0.978110  0.442120  1.0  -0.7605
  O  O715  1  0.601700  0.021890  0.557880  1.0  -0.7606
  O  O716  1  0.398300  0.478110  0.057880  1.0  -0.76
  O  O717  1  0.228350  0.125740  0.096450  1.0  -0.7555
  O  O718  1  0.771650  0.374260  0.596450  1.0  -0.7555
  O  O719  1  0.771650  0.625740  0.403550  1.0  -0.7546
  O  O720  1  0.228350  0.874260  0.903550  1.0  -0.7569
  O  O721  1  0.771650  0.874260  0.903550  1.0  -0.7561
  O  O722  1  0.228350  0.625740  0.403550  1.0  -0.7558
  O  O723  1  0.228350  0.374260  0.596450  1.0  -0.7565
  O  O724  1  0.771650  0.125740  0.096450  1.0  -0.7541
  O  O725  1  0.728350  0.625740  0.096450  1.0  -0.7555
  O  O726  1  0.271650  0.874260  0.596450  1.0  -0.7555
  O  O727  1  0.271650  0.125740  0.403550  1.0  -0.7546
  O  O728  1  0.728350  0.374260  0.903550  1.0  -0.7569
  O  O729  1  0.271650  0.374260  0.903550  1.0  -0.7561
  O  O730  1  0.728350  0.125740  0.403550  1.0  -0.7558
  O  O731  1  0.728350  0.874260  0.596450  1.0  -0.7565
  O  O732  1  0.271650  0.625740  0.096450  1.0  -0.7541
  O  O733  1  0.218050  0.108500  0.307820  1.0  -0.717
  O  O734  1  0.781950  0.391500  0.807820  1.0  -0.7166
  O  O735  1  0.781950  0.608500  0.192180  1.0  -0.7164
  O  O736  1  0.218050  0.891500  0.692180  1.0  -0.7178
  O  O737  1  0.781950  0.891500  0.692180  1.0  -0.716
  O  O738  1  0.218050  0.608500  0.192180  1.0  -0.7177
  O  O739  1  0.218050  0.391500  0.807820  1.0  -0.7168
  O  O740  1  0.781950  0.108500  0.307820  1.0  -0.717
  O  O741  1  0.718050  0.608500  0.307820  1.0  -0.717
  O  O742  1  0.281950  0.891500  0.807820  1.0  -0.7166
  O  O743  1  0.281950  0.108500  0.192180  1.0  -0.7164
  O  O744  1  0.718050  0.391500  0.692180  1.0  -0.7178
  O  O745  1  0.281950  0.391500  0.692180  1.0  -0.716
  O  O746  1  0.718050  0.108500  0.192180  1.0  -0.7177
  O  O747  1  0.718050  0.891500  0.807820  1.0  -0.7168
  O  O748  1  0.281950  0.608500  0.307820  1.0  -0.717
  O  O749  1  0.270700  0.089070  0.385420  1.0  -0.7351
  O  O750  1  0.729300  0.410930  0.885420  1.0  -0.733
  O  O751  1  0.729300  0.589070  0.114580  1.0  -0.7355
  O  O752  1  0.270700  0.910930  0.614580  1.0  -0.7336
  O  O753  1  0.729300  0.910930  0.614580  1.0  -0.7336
  O  O754  1  0.270700  0.589070  0.114580  1.0  -0.7351
  O  O755  1  0.270700  0.410930  0.885420  1.0  -0.7328
  O  O756  1  0.729300  0.089070  0.385420  1.0  -0.7354
  O  O757  1  0.770700  0.589070  0.385420  1.0  -0.7351
  O  O758  1  0.229300  0.910930  0.885420  1.0  -0.733
  O  O759  1  0.229300  0.089070  0.114580  1.0  -0.7355
  O  O760  1  0.770700  0.410930  0.614580  1.0  -0.7336
  O  O761  1  0.229300  0.410930  0.614580  1.0  -0.7336
  O  O762  1  0.770700  0.089070  0.114580  1.0  -0.7351
  O  O763  1  0.770700  0.910930  0.885420  1.0  -0.7328
  O  O764  1  0.229300  0.589070  0.385420  1.0  -0.7354
  O  O765  1  0.233650  0.103510  0.597000  1.0  -0.734
  O  O766  1  0.766350  0.396490  0.097000  1.0  -0.732
  O  O767  1  0.766350  0.603510  0.903000  1.0  -0.7327
  O  O768  1  0.233650  0.896490  0.403000  1.0  -0.733
  O  O769  1  0.766350  0.896490  0.403000  1.0  -0.7319
  O  O770  1  0.233650  0.603510  0.903000  1.0  -0.7337
  O  O771  1  0.233650  0.396490  0.097000  1.0  -0.7333
  O  O772  1  0.766350  0.103510  0.597000  1.0  -0.7328
  O  O773  1  0.733650  0.603510  0.597000  1.0  -0.734
  O  O774  1  0.266350  0.896490  0.097000  1.0  -0.732
  O  O775  1  0.266350  0.103510  0.903000  1.0  -0.7327
  O  O776  1  0.733650  0.396490  0.403000  1.0  -0.733
  O  O777  1  0.266350  0.396490  0.403000  1.0  -0.7319
  O  O778  1  0.733650  0.103510  0.903000  1.0  -0.7337
  O  O779  1  0.733650  0.896490  0.097000  1.0  -0.7333
  O  O780  1  0.266350  0.603510  0.597000  1.0  -0.7328
  O  O781  1  0.216350  0.119430  0.798080  1.0  -0.7425
  O  O782  1  0.783650  0.380570  0.298080  1.0  -0.7415
  O  O783  1  0.783650  0.619430  0.701920  1.0  -0.7419
  O  O784  1  0.216350  0.880570  0.201920  1.0  -0.7423
  O  O785  1  0.783650  0.880570  0.201920  1.0  -0.7413
  O  O786  1  0.216350  0.619430  0.701920  1.0  -0.7432
  O  O787  1  0.216350  0.380570  0.298080  1.0  -0.7417
  O  O788  1  0.783650  0.119430  0.798080  1.0  -0.7418
  O  O789  1  0.716350  0.619430  0.798080  1.0  -0.7425
  O  O790  1  0.283650  0.880570  0.298080  1.0  -0.7415
  O  O791  1  0.283650  0.119430  0.701920  1.0  -0.7419
  O  O792  1  0.716350  0.380570  0.201920  1.0  -0.7423
  O  O793  1  0.283650  0.380570  0.201920  1.0  -0.7413
  O  O794  1  0.716350  0.119430  0.701920  1.0  -0.7432
  O  O795  1  0.716350  0.880570  0.298080  1.0  -0.7417
  O  O796  1  0.283650  0.619430  0.798080  1.0  -0.7418
  O  O797  1  0.266520  0.139810  0.882360  1.0  -0.7043
  O  O798  1  0.733480  0.360190  0.382360  1.0  -0.7052
  O  O799  1  0.733480  0.639810  0.617640  1.0  -0.706
  O  O800  1  0.266520  0.860190  0.117640  1.0  -0.7035
  O  O801  1  0.733480  0.860190  0.117640  1.0  -0.7053
  O  O802  1  0.266520  0.639810  0.617640  1.0  -0.704
  O  O803  1  0.266520  0.360190  0.382360  1.0  -0.7036
  O  O804  1  0.733480  0.139810  0.882360  1.0  -0.706
  O  O805  1  0.766520  0.639810  0.882360  1.0  -0.7043
  O  O806  1  0.233480  0.860190  0.382360  1.0  -0.7052
  O  O807  1  0.233480  0.139810  0.617640  1.0  -0.706
  O  O808  1  0.766520  0.360190  0.117640  1.0  -0.7035
  O  O809  1  0.233480  0.360190  0.117640  1.0  -0.7053
  O  O810  1  0.766520  0.139810  0.617640  1.0  -0.704
  O  O811  1  0.766520  0.860190  0.382360  1.0  -0.7036
  O  O812  1  0.233480  0.639810  0.882360  1.0  -0.706
  O  O813  1  0.242510  0.181250  0.069350  1.0  -0.7822
  O  O814  1  0.757490  0.318750  0.569350  1.0  -0.7838
  O  O815  1  0.757490  0.681250  0.430650  1.0  -0.7836
  O  O816  1  0.242510  0.818750  0.930650  1.0  -0.7816
  O  O817  1  0.757490  0.818750  0.930650  1.0  -0.7836
  O  O818  1  0.242510  0.681250  0.430650  1.0  -0.7818
  O  O819  1  0.242510  0.318750  0.569350  1.0  -0.7822
  O  O820  1  0.757490  0.181250  0.069350  1.0  -0.7837
  O  O821  1  0.742510  0.681250  0.069350  1.0  -0.7822
  O  O822  1  0.257490  0.818750  0.569350  1.0  -0.7838
  O  O823  1  0.257490  0.181250  0.430650  1.0  -0.7836
  O  O824  1  0.742510  0.318750  0.930650  1.0  -0.7816
  O  O825  1  0.257490  0.318750  0.930650  1.0  -0.7836
  O  O826  1  0.742510  0.181250  0.430650  1.0  -0.7818
  O  O827  1  0.742510  0.818750  0.569350  1.0  -0.7822
  O  O828  1  0.257490  0.681250  0.069350  1.0  -0.7837
  O  O829  1  0.215250  0.163510  0.904890  1.0  -0.706
  O  O830  1  0.784750  0.336490  0.404890  1.0  -0.7053
  O  O831  1  0.784750  0.663510  0.595110  1.0  -0.7058
  O  O832  1  0.215250  0.836490  0.095110  1.0  -0.7042
  O  O833  1  0.784750  0.836490  0.095110  1.0  -0.7052
  O  O834  1  0.215250  0.663510  0.595110  1.0  -0.7049
  O  O835  1  0.215250  0.336490  0.404890  1.0  -0.7056
  O  O836  1  0.784750  0.163510  0.904890  1.0  -0.7058
  O  O837  1  0.715250  0.663510  0.904890  1.0  -0.706
  O  O838  1  0.284750  0.836490  0.404890  1.0  -0.7053
  O  O839  1  0.284750  0.163510  0.595110  1.0  -0.7058
  O  O840  1  0.715250  0.336490  0.095110  1.0  -0.7042
  O  O841  1  0.284750  0.336490  0.095110  1.0  -0.7052
  O  O842  1  0.715250  0.163510  0.595110  1.0  -0.7049
  O  O843  1  0.715250  0.836490  0.404890  1.0  -0.7056
  O  O844  1  0.284750  0.663510  0.904890  1.0  -0.7058
  O  O845  1  0.110200  0.988020  0.349250  1.0  -0.7209
  O  O846  1  0.889800  0.511980  0.849250  1.0  -0.7223
  O  O847  1  0.889800  0.488020  0.150750  1.0  -0.7207
  O  O848  1  0.110200  0.011980  0.650750  1.0  -0.7213
  O  O849  1  0.889800  0.011980  0.650750  1.0  -0.722
  O  O850  1  0.110200  0.488020  0.150750  1.0  -0.7201
  O  O851  1  0.110200  0.511980  0.849250  1.0  -0.7219
  O  O852  1  0.889800  0.988020  0.349250  1.0  -0.7214
  O  O853  1  0.610200  0.488020  0.349250  1.0  -0.7209
  O  O854  1  0.389800  0.011980  0.849250  1.0  -0.7223
  O  O855  1  0.389800  0.988020  0.150750  1.0  -0.7207
  O  O856  1  0.610200  0.511980  0.650750  1.0  -0.7213
  O  O857  1  0.389800  0.511980  0.650750  1.0  -0.722
  O  O858  1  0.610200  0.988020  0.150750  1.0  -0.7201
  O  O859  1  0.610200  0.011980  0.849250  1.0  -0.7219
  O  O860  1  0.389800  0.488020  0.349250  1.0  -0.7214
  O  O861  1  0.088230  0.024710  0.449770  1.0  -0.6694
  O  O862  1  0.911770  0.475290  0.949770  1.0  -0.6703
  O  O863  1  0.911770  0.524710  0.050230  1.0  -0.6698
  O  O864  1  0.088230  0.975290  0.550230  1.0  -0.6695
  O  O865  1  0.911770  0.975290  0.550230  1.0  -0.6704
  O  O866  1  0.088230  0.524710  0.050230  1.0  -0.6694
  O  O867  1  0.088230  0.475290  0.949770  1.0  -0.6693
  O  O868  1  0.911770  0.024710  0.449770  1.0  -0.6698
  O  O869  1  0.588230  0.524710  0.449770  1.0  -0.6694
  O  O870  1  0.411770  0.975290  0.949770  1.0  -0.6703
  O  O871  1  0.411770  0.024710  0.050230  1.0  -0.6698
  O  O872  1  0.588230  0.475290  0.550230  1.0  -0.6695
  O  O873  1  0.411770  0.475290  0.550230  1.0  -0.6704
  O  O874  1  0.588230  0.024710  0.050230  1.0  -0.6694
  O  O875  1  0.588230  0.975290  0.949770  1.0  -0.6693
  O  O876  1  0.411770  0.524710  0.449770  1.0  -0.6698
  O  O877  1  0.060390  0.987620  0.368870  1.0  -0.7166
  O  O878  1  0.939610  0.512380  0.868870  1.0  -0.7156
  O  O879  1  0.939610  0.487620  0.131130  1.0  -0.7157
  O  O880  1  0.060390  0.012380  0.631130  1.0  -0.7168
  O  O881  1  0.939610  0.012380  0.631130  1.0  -0.7155
  O  O882  1  0.060390  0.487620  0.131130  1.0  -0.7164
  O  O883  1  0.060390  0.512380  0.868870  1.0  -0.717
  O  O884  1  0.939610  0.987620  0.368870  1.0  -0.7158
  O  O885  1  0.560390  0.487620  0.368870  1.0  -0.7166
  O  O886  1  0.439610  0.012380  0.868870  1.0  -0.7156
  O  O887  1  0.439610  0.987620  0.131130  1.0  -0.7157
  O  O888  1  0.560390  0.512380  0.631130  1.0  -0.7168
  O  O889  1  0.439610  0.512380  0.631130  1.0  -0.7155
  O  O890  1  0.560390  0.987620  0.131130  1.0  -0.7164
  O  O891  1  0.560390  0.012380  0.868870  1.0  -0.717
  O  O892  1  0.439610  0.487620  0.368870  1.0  -0.7158
  O  O893  1  0.026790  0.025070  0.350060  1.0  -0.6973
  O  O894  1  0.973210  0.474930  0.850060  1.0  -0.6986
  O  O895  1  0.973210  0.525070  0.149940  1.0  -0.6985
  O  O896  1  0.026790  0.974930  0.649940  1.0  -0.6977
  O  O897  1  0.973210  0.974930  0.649940  1.0  -0.6983
  O  O898  1  0.026790  0.525070  0.149940  1.0  -0.6987
  O  O899  1  0.026790  0.474930  0.850060  1.0  -0.6979
  O  O900  1  0.973210  0.025070  0.350060  1.0  -0.6975
  O  O901  1  0.526790  0.525070  0.350060  1.0  -0.6973
  O  O902  1  0.473210  0.974930  0.850060  1.0  -0.6986
  O  O903  1  0.473210  0.025070  0.149940  1.0  -0.6985
  O  O904  1  0.526790  0.474930  0.649940  1.0  -0.6977
  O  O905  1  0.473210  0.474930  0.649940  1.0  -0.6983
  O  O906  1  0.526790  0.025070  0.149940  1.0  -0.6987
  O  O907  1  0.526790  0.974930  0.850060  1.0  -0.6979
  O  O908  1  0.473210  0.525070  0.350060  1.0  -0.6975
  O  O909  1  0.027150  0.980900  0.022810  1.0  -0.5247
  O  O910  1  0.972850  0.519100  0.522810  1.0  -0.5239
  O  O911  1  0.972850  0.480900  0.477190  1.0  -0.5276
  O  O912  1  0.027150  0.019100  0.977190  1.0  -0.5271
  O  O913  1  0.972850  0.019100  0.977190  1.0  -0.5274
  O  O914  1  0.027150  0.480900  0.477190  1.0  -0.5268
  O  O915  1  0.027150  0.519100  0.522810  1.0  -0.524
  O  O916  1  0.972850  0.980900  0.022810  1.0  -0.525
  O  O917  1  0.527150  0.480900  0.022810  1.0  -0.5247
  O  O918  1  0.472850  0.019100  0.522810  1.0  -0.5239
  O  O919  1  0.472850  0.980900  0.477190  1.0  -0.5276
  O  O920  1  0.527150  0.519100  0.977190  1.0  -0.5271
  O  O921  1  0.472850  0.519100  0.977190  1.0  -0.5274
  O  O922  1  0.527150  0.980900  0.477190  1.0  -0.5268
  O  O923  1  0.527150  0.019100  0.522810  1.0  -0.524
  O  O924  1  0.472850  0.480900  0.022810  1.0  -0.525
  O  O925  1  0.224640  0.161280  0.285490  1.0  -0.5025
  O  O926  1  0.775360  0.338720  0.785490  1.0  -0.505
  O  O927  1  0.775360  0.661280  0.214510  1.0  -0.5055
  O  O928  1  0.224640  0.838720  0.714510  1.0  -0.5026
  O  O929  1  0.775360  0.838720  0.714510  1.0  -0.5037
  O  O930  1  0.224640  0.661280  0.214510  1.0  -0.5032
  O  O931  1  0.224640  0.338720  0.785490  1.0  -0.504
  O  O932  1  0.775360  0.161280  0.285490  1.0  -0.5051
  O  O933  1  0.724640  0.661280  0.285490  1.0  -0.5024
  O  O934  1  0.275360  0.838720  0.785490  1.0  -0.505
  O  O935  1  0.275360  0.161280  0.214510  1.0  -0.5054
  O  O936  1  0.724640  0.338720  0.714510  1.0  -0.5025
  O  O937  1  0.275360  0.338720  0.714510  1.0  -0.5036
  O  O938  1  0.724640  0.161280  0.214510  1.0  -0.5031
  O  O939  1  0.724640  0.838720  0.785490  1.0  -0.504
  O  O940  1  0.275360  0.661280  0.285490  1.0  -0.505
  O  O941  1  0.224100  0.201150  0.272690  1.0  -0.4994
  O  O942  1  0.775900  0.298850  0.772690  1.0  -0.5009
  O  O943  1  0.775900  0.701150  0.227310  1.0  -0.5011
  O  O944  1  0.224100  0.798850  0.727310  1.0  -0.4989
  O  O945  1  0.775900  0.798850  0.727310  1.0  -0.5004
  O  O946  1  0.224100  0.701150  0.227310  1.0  -0.4995
  O  O947  1  0.224100  0.298850  0.772690  1.0  -0.4997
  O  O948  1  0.775900  0.201150  0.272690  1.0  -0.5001
  O  O949  1  0.724100  0.701150  0.272690  1.0  -0.4994
  O  O950  1  0.275900  0.798850  0.772690  1.0  -0.5009
  O  O951  1  0.275900  0.201150  0.227310  1.0  -0.5011
  O  O952  1  0.724100  0.298850  0.727310  1.0  -0.4989
  O  O953  1  0.275900  0.298850  0.727310  1.0  -0.5004
  O  O954  1  0.724100  0.201150  0.227310  1.0  -0.4995
  O  O955  1  0.724100  0.798850  0.772690  1.0  -0.4997
  O  O956  1  0.275900  0.701150  0.272690  1.0  -0.5001
  O  O957  1  0.218000  0.200730  0.901280  1.0  -0.6892
  O  O958  1  0.782000  0.299270  0.401280  1.0  -0.6869
  O  O959  1  0.782000  0.700730  0.598720  1.0  -0.6886
  O  O960  1  0.218000  0.799270  0.098720  1.0  -0.6913
  O  O961  1  0.782000  0.799270  0.098720  1.0  -0.6893
  O  O962  1  0.218000  0.700730  0.598720  1.0  -0.6908
  O  O963  1  0.218000  0.299270  0.401280  1.0  -0.6897
  O  O964  1  0.782000  0.200730  0.901280  1.0  -0.6866
  O  O965  1  0.718000  0.700730  0.901280  1.0  -0.6902
  O  O966  1  0.282000  0.799270  0.401280  1.0  -0.688
  O  O967  1  0.282000  0.200730  0.598720  1.0  -0.6897
  O  O968  1  0.718000  0.299270  0.098720  1.0  -0.6922
  O  O969  1  0.282000  0.299270  0.098720  1.0  -0.6905
  O  O970  1  0.718000  0.200730  0.598720  1.0  -0.6917
  O  O971  1  0.718000  0.799270  0.401280  1.0  -0.6907
  O  O972  1  0.282000  0.700730  0.901280  1.0  -0.6877
  O  O973  1  0.268660  0.225540  0.884870  1.0  -0.7053
  O  O974  1  0.731340  0.274460  0.384870  1.0  -0.707
  O  O975  1  0.731340  0.725540  0.615130  1.0  -0.7074
  O  O976  1  0.268660  0.774460  0.115130  1.0  -0.706
  O  O977  1  0.731340  0.774460  0.115130  1.0  -0.7076
  O  O978  1  0.268660  0.725540  0.615130  1.0  -0.7057
  O  O979  1  0.268660  0.274460  0.384870  1.0  -0.7057
  O  O980  1  0.731340  0.225540  0.884870  1.0  -0.7069
  O  O981  1  0.768660  0.725540  0.884870  1.0  -0.7053
  O  O982  1  0.231340  0.774460  0.384870  1.0  -0.707
  O  O983  1  0.231340  0.225540  0.615130  1.0  -0.7074
  O  O984  1  0.768660  0.274460  0.115130  1.0  -0.706
  O  O985  1  0.231340  0.274460  0.115130  1.0  -0.7076
  O  O986  1  0.768660  0.225540  0.615130  1.0  -0.7057
  O  O987  1  0.768660  0.774460  0.384870  1.0  -0.7057
  O  O988  1  0.231340  0.725540  0.884870  1.0  -0.7069
  O  O989  1  0.217660  0.245960  0.801050  1.0  -0.6834
  O  O990  1  0.782340  0.254040  0.301050  1.0  -0.6831
  O  O991  1  0.782340  0.745960  0.698950  1.0  -0.6827
  O  O992  1  0.217660  0.754040  0.198950  1.0  -0.6843
  O  O993  1  0.782340  0.754040  0.198950  1.0  -0.6828
  O  O994  1  0.217660  0.745960  0.698950  1.0  -0.6841
  O  O995  1  0.217660  0.254040  0.301050  1.0  -0.6831
  O  O996  1  0.782340  0.245960  0.801050  1.0  -0.6834
  O  O997  1  0.717660  0.745960  0.801050  1.0  -0.6834
  O  O998  1  0.282340  0.754040  0.301050  1.0  -0.6831
  O  O999  1  0.282340  0.245960  0.698950  1.0  -0.6827
  O  O1000  1  0.717660  0.254040  0.198950  1.0  -0.6843
  O  O1001  1  0.282340  0.254040  0.198950  1.0  -0.6828
  O  O1002  1  0.717660  0.245960  0.698950  1.0  -0.6841
  O  O1003  1  0.717660  0.754040  0.301050  1.0  -0.6831
  O  O1004  1  0.282340  0.745960  0.801050  1.0  -0.6834
  O  O1005  1  0.229710  0.237880  0.092800  1.0  -0.7562
  O  O1006  1  0.770290  0.262120  0.592800  1.0  -0.7539
  O  O1007  1  0.770290  0.737880  0.407200  1.0  -0.7554
  O  O1008  1  0.229710  0.762120  0.907200  1.0  -0.7549
  O  O1009  1  0.770290  0.762120  0.907200  1.0  -0.7542
  O  O1010  1  0.229710  0.737880  0.407200  1.0  -0.7563
  O  O1011  1  0.229710  0.262120  0.592800  1.0  -0.7547
  O  O1012  1  0.770290  0.237880  0.092800  1.0  -0.7552
  O  O1013  1  0.729710  0.737880  0.092800  1.0  -0.7562
  O  O1014  1  0.270290  0.762120  0.592800  1.0  -0.7539
  O  O1015  1  0.270290  0.237880  0.407200  1.0  -0.7554
  O  O1016  1  0.729710  0.262120  0.907200  1.0  -0.7549
  O  O1017  1  0.270290  0.262120  0.907200  1.0  -0.7542
  O  O1018  1  0.729710  0.237880  0.407200  1.0  -0.7563
  O  O1019  1  0.729710  0.762120  0.592800  1.0  -0.7547
  O  O1020  1  0.270290  0.737880  0.092800  1.0  -0.7552
  O  O1021  1  0.000000  0.004750  0.180890  1.0  -0.808
  O  O1022  1  0.000000  0.495250  0.680890  1.0  -0.8072
  O  O1023  1  0.000000  0.504750  0.319110  1.0  -0.8073
  O  O1024  1  0.000000  0.995250  0.819110  1.0  -0.8067
  O  O1025  1  0.500000  0.504750  0.180890  1.0  -0.808
  O  O1026  1  0.500000  0.995250  0.680890  1.0  -0.8072
  O  O1027  1  0.500000  0.004750  0.319110  1.0  -0.8073
  O  O1028  1  0.500000  0.495250  0.819110  1.0  -0.8067
  F  F1029  1  0.259450  0.993390  0.123650  1.0  -0.4873
  F  F1030  1  0.740550  0.506610  0.623650  1.0  -0.4848
  F  F1031  1  0.740550  0.493390  0.376350  1.0  -0.4877
  F  F1032  1  0.259450  0.006610  0.876350  1.0  -0.4849
  F  F1033  1  0.740550  0.006610  0.876350  1.0  -0.4852
  F  F1034  1  0.259450  0.493390  0.376350  1.0  -0.4878
  F  F1035  1  0.259450  0.506610  0.623650  1.0  -0.4845
  F  F1036  1  0.740550  0.993390  0.123650  1.0  -0.4873
  F  F1037  1  0.759450  0.493390  0.123650  1.0  -0.4873
  F  F1038  1  0.240550  0.006610  0.623650  1.0  -0.4848
  F  F1039  1  0.240550  0.993390  0.376350  1.0  -0.4877
  F  F1040  1  0.759450  0.506610  0.876350  1.0  -0.485
  F  F1041  1  0.240550  0.506610  0.876350  1.0  -0.4852
  F  F1042  1  0.759450  0.993390  0.376350  1.0  -0.4879
  F  F1043  1  0.759450  0.006610  0.623650  1.0  -0.4845
  F  F1044  1  0.240550  0.493390  0.123650  1.0  -0.4873
