# generated using pymatgen
data_Zn7GaP10H10O30F
_symmetry_space_group_name_H-M   'P 1'
_cell_length_a   66.31300000
_cell_length_b   66.31300000
_cell_length_c   9.98200000
_cell_angle_alpha   90.00000000
_cell_angle_beta   90.00000000
_cell_angle_gamma   90.00000000
_symmetry_Int_Tables_number   1
_chemical_formula_structural   Zn7GaP10H10O30F
_chemical_formula_sum   'Zn112 Ga16 P160 H160 O480 F16'
_cell_volume   43894.98623856
_cell_formula_units_Z   16
loop_
 _symmetry_equiv_pos_site_id
 _symmetry_equiv_pos_as_xyz
  1  'x, y, z'
loop_
 _atom_site_type_symbol
 _atom_site_label
 _atom_site_symmetry_multiplicity
 _atom_site_fract_x
 _atom_site_fract_y
 _atom_site_fract_z
 _atom_site_occupancy
 _atom_site_charge
  Zn  Zn1  1  0.158510  0.013170  0.923520  1.0  1.1229
  Zn  Zn2  1  0.111990  0.983680  0.078700  1.0  1.1003
  Zn  Zn3  1  0.022390  0.984850  0.086300  1.0  1.0819
  Zn  Zn4  1  0.658510  0.513170  0.423520  1.0  1.1229
  Zn  Zn5  1  0.611990  0.483680  0.578700  1.0  1.1003
  Zn  Zn6  1  0.522390  0.484850  0.586300  1.0  1.0819
  Zn  Zn7  1  0.341490  0.986830  0.423520  1.0  1.1238
  Zn  Zn8  1  0.388010  0.016320  0.578700  1.0  1.1001
  Zn  Zn9  1  0.477610  0.015150  0.586300  1.0  1.083
  Zn  Zn10  1  0.841490  0.486830  0.923520  1.0  1.1238
  Zn  Zn11  1  0.888010  0.516320  0.078700  1.0  1.1001
  Zn  Zn12  1  0.977610  0.515150  0.086300  1.0  1.083
  Zn  Zn13  1  0.236830  0.908510  0.173520  1.0  1.1224
  Zn  Zn14  1  0.266320  0.861990  0.328700  1.0  1.0996
  Zn  Zn15  1  0.265150  0.772390  0.336300  1.0  1.082
  Zn  Zn16  1  0.736830  0.408510  0.673520  1.0  1.1224
  Zn  Zn17  1  0.766320  0.361990  0.828700  1.0  1.0996
  Zn  Zn18  1  0.765150  0.272390  0.836300  1.0  1.082
  Zn  Zn19  1  0.263170  0.091490  0.673520  1.0  1.1225
  Zn  Zn20  1  0.233680  0.138010  0.828700  1.0  1.0991
  Zn  Zn21  1  0.234850  0.227610  0.836300  1.0  1.0819
  Zn  Zn22  1  0.763170  0.591490  0.173520  1.0  1.1225
  Zn  Zn23  1  0.733680  0.638010  0.328700  1.0  1.0991
  Zn  Zn24  1  0.734850  0.727610  0.336300  1.0  1.0819
  Zn  Zn25  1  0.341490  0.013170  0.076480  1.0  1.1241
  Zn  Zn26  1  0.388010  0.983680  0.921300  1.0  1.1026
  Zn  Zn27  1  0.477610  0.984850  0.913700  1.0  1.0831
  Zn  Zn28  1  0.841490  0.513170  0.576480  1.0  1.1241
  Zn  Zn29  1  0.888010  0.483680  0.421300  1.0  1.1026
  Zn  Zn30  1  0.977610  0.484850  0.413700  1.0  1.0831
  Zn  Zn31  1  0.158510  0.986830  0.576480  1.0  1.1242
  Zn  Zn32  1  0.111990  0.016320  0.421300  1.0  1.102
  Zn  Zn33  1  0.022390  0.015150  0.413700  1.0  1.0825
  Zn  Zn34  1  0.658510  0.486830  0.076480  1.0  1.1242
  Zn  Zn35  1  0.611990  0.516320  0.921300  1.0  1.102
  Zn  Zn36  1  0.522390  0.515150  0.913700  1.0  1.0825
  Zn  Zn37  1  0.263170  0.908510  0.826480  1.0  1.1236
  Zn  Zn38  1  0.233680  0.861990  0.671300  1.0  1.1012
  Zn  Zn39  1  0.234850  0.772390  0.663700  1.0  1.0815
  Zn  Zn40  1  0.763170  0.408510  0.326480  1.0  1.1236
  Zn  Zn41  1  0.733680  0.361990  0.171300  1.0  1.1012
  Zn  Zn42  1  0.734850  0.272390  0.163700  1.0  1.0815
  Zn  Zn43  1  0.236830  0.091490  0.326480  1.0  1.1229
  Zn  Zn44  1  0.266320  0.138010  0.171300  1.0  1.1012
  Zn  Zn45  1  0.265150  0.227610  0.163700  1.0  1.0824
  Zn  Zn46  1  0.736830  0.591490  0.826480  1.0  1.1229
  Zn  Zn47  1  0.766320  0.638010  0.671300  1.0  1.1012
  Zn  Zn48  1  0.765150  0.727610  0.663700  1.0  1.0824
  Zn  Zn49  1  0.841490  0.986830  0.076480  1.0  1.1237
  Zn  Zn50  1  0.888010  0.016320  0.921300  1.0  1.1004
  Zn  Zn51  1  0.977610  0.015150  0.913700  1.0  1.0832
  Zn  Zn52  1  0.341490  0.486830  0.576480  1.0  1.1237
  Zn  Zn53  1  0.388010  0.516320  0.421300  1.0  1.1004
  Zn  Zn54  1  0.477610  0.515150  0.413700  1.0  1.0832
  Zn  Zn55  1  0.658510  0.013170  0.576480  1.0  1.1232
  Zn  Zn56  1  0.611990  0.983680  0.421300  1.0  1.1004
  Zn  Zn57  1  0.522390  0.984850  0.413700  1.0  1.0821
  Zn  Zn58  1  0.158510  0.513170  0.076480  1.0  1.1232
  Zn  Zn59  1  0.111990  0.483680  0.921300  1.0  1.1004
  Zn  Zn60  1  0.022390  0.484850  0.913700  1.0  1.0821
  Zn  Zn61  1  0.763170  0.091490  0.826480  1.0  1.1229
  Zn  Zn62  1  0.733680  0.138010  0.671300  1.0  1.0993
  Zn  Zn63  1  0.734850  0.227610  0.663700  1.0  1.0818
  Zn  Zn64  1  0.263170  0.591490  0.326480  1.0  1.1229
  Zn  Zn65  1  0.233680  0.638010  0.171300  1.0  1.0993
  Zn  Zn66  1  0.234850  0.727610  0.163700  1.0  1.0818
  Zn  Zn67  1  0.736830  0.908510  0.326480  1.0  1.1226
  Zn  Zn68  1  0.766320  0.861990  0.171300  1.0  1.0998
  Zn  Zn69  1  0.765150  0.772390  0.163700  1.0  1.0822
  Zn  Zn70  1  0.236830  0.408510  0.826480  1.0  1.1226
  Zn  Zn71  1  0.266320  0.361990  0.671300  1.0  1.0998
  Zn  Zn72  1  0.265150  0.272390  0.663700  1.0  1.0822
  Zn  Zn73  1  0.658510  0.986830  0.923520  1.0  1.124
  Zn  Zn74  1  0.611990  0.016320  0.078700  1.0  1.1017
  Zn  Zn75  1  0.522390  0.015150  0.086300  1.0  1.0823
  Zn  Zn76  1  0.158510  0.486830  0.423520  1.0  1.124
  Zn  Zn77  1  0.111990  0.516320  0.578700  1.0  1.1017
  Zn  Zn78  1  0.022390  0.515150  0.586300  1.0  1.0823
  Zn  Zn79  1  0.841490  0.013170  0.423520  1.0  1.124
  Zn  Zn80  1  0.888010  0.983680  0.578700  1.0  1.1024
  Zn  Zn81  1  0.977610  0.984850  0.586300  1.0  1.0829
  Zn  Zn82  1  0.341490  0.513170  0.923520  1.0  1.124
  Zn  Zn83  1  0.388010  0.483680  0.078700  1.0  1.1024
  Zn  Zn84  1  0.477610  0.484850  0.086300  1.0  1.0829
  Zn  Zn85  1  0.736830  0.091490  0.173520  1.0  1.1227
  Zn  Zn86  1  0.766320  0.138010  0.328700  1.0  1.1011
  Zn  Zn87  1  0.765150  0.227610  0.336300  1.0  1.0822
  Zn  Zn88  1  0.236830  0.591490  0.673520  1.0  1.1227
  Zn  Zn89  1  0.266320  0.638010  0.828700  1.0  1.1011
  Zn  Zn90  1  0.265150  0.727610  0.836300  1.0  1.0822
  Zn  Zn91  1  0.763170  0.908510  0.673520  1.0  1.1233
  Zn  Zn92  1  0.733680  0.861990  0.828700  1.0  1.101
  Zn  Zn93  1  0.734850  0.772390  0.836300  1.0  1.0815
  Zn  Zn94  1  0.263170  0.408510  0.173520  1.0  1.1233
  Zn  Zn95  1  0.233680  0.361990  0.328700  1.0  1.101
  Zn  Zn96  1  0.234850  0.272390  0.336300  1.0  1.0815
  Zn  Zn97  1  0.067220  0.000000  0.750000  1.0  0.8969
  Zn  Zn98  1  0.567220  0.500000  0.250000  1.0  0.8969
  Zn  Zn99  1  0.432780  0.000000  0.250000  1.0  0.8966
  Zn  Zn100  1  0.932780  0.500000  0.750000  1.0  0.8966
  Zn  Zn101  1  0.250000  0.817220  0.000000  1.0  0.8967
  Zn  Zn102  1  0.750000  0.317220  0.500000  1.0  0.8967
  Zn  Zn103  1  0.250000  0.182780  0.500000  1.0  0.8967
  Zn  Zn104  1  0.750000  0.682780  0.000000  1.0  0.8967
  Zn  Zn105  1  0.932780  0.000000  0.250000  1.0  0.8966
  Zn  Zn106  1  0.432780  0.500000  0.750000  1.0  0.8966
  Zn  Zn107  1  0.567220  0.000000  0.750000  1.0  0.8969
  Zn  Zn108  1  0.067220  0.500000  0.250000  1.0  0.8969
  Zn  Zn109  1  0.750000  0.182780  0.000000  1.0  0.8967
  Zn  Zn110  1  0.250000  0.682780  0.500000  1.0  0.8967
  Zn  Zn111  1  0.750000  0.817220  0.500000  1.0  0.8967
  Zn  Zn112  1  0.250000  0.317220  0.000000  1.0  0.8967
  Ga  Ga113  1  0.250000  0.027000  0.000000  1.0  1.502
  Ga  Ga114  1  0.750000  0.527000  0.500000  1.0  1.502
  Ga  Ga115  1  0.250000  0.973000  0.500000  1.0  1.502
  Ga  Ga116  1  0.750000  0.473000  0.000000  1.0  1.502
  Ga  Ga117  1  0.223000  0.000000  0.250000  1.0  1.5051
  Ga  Ga118  1  0.723000  0.500000  0.750000  1.0  1.5051
  Ga  Ga119  1  0.277000  0.000000  0.750000  1.0  1.5039
  Ga  Ga120  1  0.777000  0.500000  0.250000  1.0  1.5039
  Ga  Ga121  1  0.750000  0.973000  0.000000  1.0  1.502
  Ga  Ga122  1  0.250000  0.473000  0.500000  1.0  1.502
  Ga  Ga123  1  0.750000  0.027000  0.500000  1.0  1.502
  Ga  Ga124  1  0.250000  0.527000  0.000000  1.0  1.502
  Ga  Ga125  1  0.777000  0.000000  0.750000  1.0  1.5039
  Ga  Ga126  1  0.277000  0.500000  0.250000  1.0  1.5039
  Ga  Ga127  1  0.723000  0.000000  0.250000  1.0  1.5051
  Ga  Ga128  1  0.223000  0.500000  0.750000  1.0  1.5051
  P  P129  1  0.140090  0.971590  0.851500  1.0  1.5388
  P  P130  1  0.128570  0.027370  0.143500  1.0  1.5721
  P  P131  1  0.205400  0.011560  0.971400  1.0  1.5829
  P  P132  1  0.066870  0.975470  0.034700  1.0  1.5755
  P  P133  1  0.005460  0.027710  0.146100  1.0  1.4961
  P  P134  1  0.640090  0.471590  0.351500  1.0  1.5388
  P  P135  1  0.628570  0.527370  0.643500  1.0  1.5721
  P  P136  1  0.705400  0.511560  0.471400  1.0  1.5829
  P  P137  1  0.566870  0.475470  0.534700  1.0  1.5755
  P  P138  1  0.505460  0.527710  0.646100  1.0  1.4961
  P  P139  1  0.359910  0.028410  0.351500  1.0  1.5443
  P  P140  1  0.371430  0.972630  0.643500  1.0  1.5734
  P  P141  1  0.294600  0.988440  0.471400  1.0  1.5836
  P  P142  1  0.433130  0.024530  0.534700  1.0  1.5751
  P  P143  1  0.494540  0.972290  0.646100  1.0  1.4986
  P  P144  1  0.859910  0.528410  0.851500  1.0  1.5443
  P  P145  1  0.871430  0.472630  0.143500  1.0  1.5734
  P  P146  1  0.794600  0.488440  0.971400  1.0  1.5836
  P  P147  1  0.933130  0.524530  0.034700  1.0  1.5751
  P  P148  1  0.994540  0.472290  0.146100  1.0  1.4986
  P  P149  1  0.278410  0.890090  0.101500  1.0  1.5409
  P  P150  1  0.222630  0.878570  0.393500  1.0  1.5692
  P  P151  1  0.238440  0.955400  0.221400  1.0  1.5875
  P  P152  1  0.274530  0.816870  0.284700  1.0  1.5744
  P  P153  1  0.222290  0.755460  0.396100  1.0  1.4955
  P  P154  1  0.778410  0.390090  0.601500  1.0  1.5409
  P  P155  1  0.722630  0.378570  0.893500  1.0  1.5692
  P  P156  1  0.738440  0.455400  0.721400  1.0  1.5875
  P  P157  1  0.774530  0.316870  0.784700  1.0  1.5744
  P  P158  1  0.722290  0.255460  0.896100  1.0  1.4955
  P  P159  1  0.221590  0.109910  0.601500  1.0  1.5435
  P  P160  1  0.277370  0.121430  0.893500  1.0  1.57
  P  P161  1  0.261560  0.044600  0.721400  1.0  1.5868
  P  P162  1  0.225470  0.183130  0.784700  1.0  1.5734
  P  P163  1  0.277710  0.244540  0.896100  1.0  1.4963
  P  P164  1  0.721590  0.609910  0.101500  1.0  1.5435
  P  P165  1  0.777370  0.621430  0.393500  1.0  1.57
  P  P166  1  0.761560  0.544600  0.221400  1.0  1.5868
  P  P167  1  0.725470  0.683130  0.284700  1.0  1.5734
  P  P168  1  0.777710  0.744540  0.396100  1.0  1.4963
  P  P169  1  0.359910  0.971590  0.148500  1.0  1.5412
  P  P170  1  0.371430  0.027370  0.856500  1.0  1.572
  P  P171  1  0.294600  0.011560  0.028600  1.0  1.584
  P  P172  1  0.433130  0.975470  0.965300  1.0  1.5752
  P  P173  1  0.494540  0.027710  0.853900  1.0  1.4959
  P  P174  1  0.859910  0.471590  0.648500  1.0  1.5412
  P  P175  1  0.871430  0.527370  0.356500  1.0  1.572
  P  P176  1  0.794600  0.511560  0.528600  1.0  1.584
  P  P177  1  0.933130  0.475470  0.465300  1.0  1.5752
  P  P178  1  0.994540  0.527710  0.353900  1.0  1.4959
  P  P179  1  0.140090  0.028410  0.648500  1.0  1.5426
  P  P180  1  0.128570  0.972630  0.356500  1.0  1.5733
  P  P181  1  0.205400  0.988440  0.528600  1.0  1.5835
  P  P182  1  0.066870  0.024530  0.465300  1.0  1.5742
  P  P183  1  0.005460  0.972290  0.353900  1.0  1.495
  P  P184  1  0.640090  0.528410  0.148500  1.0  1.5426
  P  P185  1  0.628570  0.472630  0.856500  1.0  1.5733
  P  P186  1  0.705400  0.488440  0.028600  1.0  1.5835
  P  P187  1  0.566870  0.524530  0.965300  1.0  1.5742
  P  P188  1  0.505460  0.472290  0.853900  1.0  1.495
  P  P189  1  0.221590  0.890090  0.898500  1.0  1.5435
  P  P190  1  0.277370  0.878570  0.606500  1.0  1.5702
  P  P191  1  0.261560  0.955400  0.778600  1.0  1.5885
  P  P192  1  0.225470  0.816870  0.715300  1.0  1.573
  P  P193  1  0.277710  0.755460  0.603900  1.0  1.4958
  P  P194  1  0.721590  0.390090  0.398500  1.0  1.5435
  P  P195  1  0.777370  0.378570  0.106500  1.0  1.5702
  P  P196  1  0.761560  0.455400  0.278600  1.0  1.5885
  P  P197  1  0.725470  0.316870  0.215300  1.0  1.573
  P  P198  1  0.777710  0.255460  0.103900  1.0  1.4958
  P  P199  1  0.278410  0.109910  0.398500  1.0  1.5401
  P  P200  1  0.222630  0.121430  0.106500  1.0  1.569
  P  P201  1  0.238440  0.044600  0.278600  1.0  1.5875
  P  P202  1  0.274530  0.183130  0.215300  1.0  1.5739
  P  P203  1  0.222290  0.244540  0.103900  1.0  1.4936
  P  P204  1  0.778410  0.609910  0.898500  1.0  1.5401
  P  P205  1  0.722630  0.621430  0.606500  1.0  1.569
  P  P206  1  0.738440  0.544600  0.778600  1.0  1.5875
  P  P207  1  0.774530  0.683130  0.715300  1.0  1.5739
  P  P208  1  0.722290  0.744540  0.603900  1.0  1.4936
  P  P209  1  0.859910  0.028410  0.148500  1.0  1.5442
  P  P210  1  0.871430  0.972630  0.856500  1.0  1.5734
  P  P211  1  0.794600  0.988440  0.028600  1.0  1.5844
  P  P212  1  0.933130  0.024530  0.965300  1.0  1.5741
  P  P213  1  0.994540  0.972290  0.853900  1.0  1.4967
  P  P214  1  0.359910  0.528410  0.648500  1.0  1.5442
  P  P215  1  0.371430  0.472630  0.356500  1.0  1.5734
  P  P216  1  0.294600  0.488440  0.528600  1.0  1.5844
  P  P217  1  0.433130  0.524530  0.465300  1.0  1.5741
  P  P218  1  0.494540  0.472290  0.353900  1.0  1.4967
  P  P219  1  0.640090  0.971590  0.648500  1.0  1.5386
  P  P220  1  0.628570  0.027370  0.356500  1.0  1.572
  P  P221  1  0.705400  0.011560  0.528600  1.0  1.5836
  P  P222  1  0.566870  0.975470  0.465300  1.0  1.5747
  P  P223  1  0.505460  0.027710  0.353900  1.0  1.495
  P  P224  1  0.140090  0.471590  0.148500  1.0  1.5386
  P  P225  1  0.128570  0.527370  0.856500  1.0  1.572
  P  P226  1  0.205400  0.511560  0.028600  1.0  1.5836
  P  P227  1  0.066870  0.475470  0.965300  1.0  1.5747
  P  P228  1  0.005460  0.527710  0.853900  1.0  1.495
  P  P229  1  0.721590  0.109910  0.898500  1.0  1.5433
  P  P230  1  0.777370  0.121430  0.606500  1.0  1.57
  P  P231  1  0.761560  0.044600  0.778600  1.0  1.5872
  P  P232  1  0.725470  0.183130  0.715300  1.0  1.5727
  P  P233  1  0.777710  0.244540  0.603900  1.0  1.4948
  P  P234  1  0.221590  0.609910  0.398500  1.0  1.5433
  P  P235  1  0.277370  0.621430  0.106500  1.0  1.57
  P  P236  1  0.261560  0.544600  0.278600  1.0  1.5872
  P  P237  1  0.225470  0.683130  0.215300  1.0  1.5727
  P  P238  1  0.277710  0.744540  0.103900  1.0  1.4948
  P  P239  1  0.778410  0.890090  0.398500  1.0  1.541
  P  P240  1  0.722630  0.878570  0.106500  1.0  1.5692
  P  P241  1  0.738440  0.955400  0.278600  1.0  1.5885
  P  P242  1  0.774530  0.816870  0.215300  1.0  1.5735
  P  P243  1  0.722290  0.755460  0.103900  1.0  1.4936
  P  P244  1  0.278410  0.390090  0.898500  1.0  1.541
  P  P245  1  0.222630  0.378570  0.606500  1.0  1.5692
  P  P246  1  0.238440  0.455400  0.778600  1.0  1.5885
  P  P247  1  0.274530  0.316870  0.715300  1.0  1.5735
  P  P248  1  0.222290  0.255460  0.603900  1.0  1.4936
  P  P249  1  0.640090  0.028410  0.851500  1.0  1.5428
  P  P250  1  0.628570  0.972630  0.143500  1.0  1.5733
  P  P251  1  0.705400  0.988440  0.971400  1.0  1.5828
  P  P252  1  0.566870  0.024530  0.034700  1.0  1.5746
  P  P253  1  0.505460  0.972290  0.146100  1.0  1.497
  P  P254  1  0.140090  0.528410  0.351500  1.0  1.5428
  P  P255  1  0.128570  0.472630  0.643500  1.0  1.5733
  P  P256  1  0.205400  0.488440  0.471400  1.0  1.5828
  P  P257  1  0.066870  0.524530  0.534700  1.0  1.5746
  P  P258  1  0.005460  0.472290  0.646100  1.0  1.497
  P  P259  1  0.859910  0.971590  0.351500  1.0  1.5414
  P  P260  1  0.871430  0.027370  0.643500  1.0  1.5721
  P  P261  1  0.794600  0.011560  0.471400  1.0  1.5833
  P  P262  1  0.933130  0.975470  0.534700  1.0  1.5754
  P  P263  1  0.994540  0.027710  0.646100  1.0  1.497
  P  P264  1  0.359910  0.471590  0.851500  1.0  1.5414
  P  P265  1  0.371430  0.527370  0.143500  1.0  1.5721
  P  P266  1  0.294600  0.511560  0.971400  1.0  1.5833
  P  P267  1  0.433130  0.475470  0.034700  1.0  1.5754
  P  P268  1  0.494540  0.527710  0.146100  1.0  1.497
  P  P269  1  0.778410  0.109910  0.101500  1.0  1.5401
  P  P270  1  0.722630  0.121430  0.393500  1.0  1.569
  P  P271  1  0.738440  0.044600  0.221400  1.0  1.5869
  P  P272  1  0.774530  0.183130  0.284700  1.0  1.5742
  P  P273  1  0.722290  0.244540  0.396100  1.0  1.4955
  P  P274  1  0.278410  0.609910  0.601500  1.0  1.5401
  P  P275  1  0.222630  0.621430  0.893500  1.0  1.569
  P  P276  1  0.238440  0.544600  0.721400  1.0  1.5869
  P  P277  1  0.274530  0.683130  0.784700  1.0  1.5742
  P  P278  1  0.222290  0.744540  0.896100  1.0  1.4955
  P  P279  1  0.721590  0.890090  0.601500  1.0  1.5436
  P  P280  1  0.777370  0.878570  0.893500  1.0  1.5702
  P  P281  1  0.761560  0.955400  0.721400  1.0  1.5876
  P  P282  1  0.725470  0.816870  0.784700  1.0  1.5729
  P  P283  1  0.777710  0.755460  0.896100  1.0  1.4972
  P  P284  1  0.221590  0.390090  0.101500  1.0  1.5436
  P  P285  1  0.277370  0.378570  0.393500  1.0  1.5702
  P  P286  1  0.261560  0.455400  0.221400  1.0  1.5876
  P  P287  1  0.225470  0.316870  0.284700  1.0  1.5729
  P  P288  1  0.277710  0.255460  0.396100  1.0  1.4972
  H  H289  1  0.146300  0.951200  0.869400  1.0  -0.0463
  H  H290  1  0.123900  0.047600  0.093400  1.0  -0.0724
  H  H291  1  0.210700  0.997200  0.870700  1.0  -0.0227
  H  H292  1  0.066200  0.959400  0.938300  1.0  -0.0398
  H  H293  1  0.010100  0.042000  0.061800  1.0  -0.0051
  H  H294  1  0.646300  0.451200  0.369400  1.0  -0.0463
  H  H295  1  0.623900  0.547600  0.593400  1.0  -0.0724
  H  H296  1  0.710700  0.497200  0.370700  1.0  -0.0227
  H  H297  1  0.566200  0.459400  0.438300  1.0  -0.0398
  H  H298  1  0.510100  0.542000  0.561800  1.0  -0.0002
  H  H299  1  0.353700  0.048800  0.369400  1.0  -0.0469
  H  H300  1  0.376100  0.952400  0.593400  1.0  -0.0684
  H  H301  1  0.289300  0.002800  0.370700  1.0  -0.0248
  H  H302  1  0.433800  0.040600  0.438300  1.0  -0.0393
  H  H303  1  0.489900  0.958000  0.561800  1.0  -0.0019
  H  H304  1  0.853700  0.548800  0.869400  1.0  -0.0469
  H  H305  1  0.876100  0.452400  0.093400  1.0  -0.0684
  H  H306  1  0.789300  0.502800  0.870700  1.0  -0.0248
  H  H307  1  0.933800  0.540600  0.938300  1.0  -0.0393
  H  H308  1  0.989900  0.458000  0.061800  1.0  -0.0073
  H  H309  1  0.298800  0.896300  0.119400  1.0  -0.0433
  H  H310  1  0.202400  0.873900  0.343400  1.0  -0.0653
  H  H311  1  0.252800  0.960700  0.120700  1.0  -0.0209
  H  H312  1  0.290600  0.816200  0.188300  1.0  -0.0385
  H  H313  1  0.208000  0.760100  0.311800  1.0  -0.0013
  H  H314  1  0.798800  0.396300  0.619400  1.0  -0.0433
  H  H315  1  0.702400  0.373900  0.843400  1.0  -0.0653
  H  H316  1  0.752800  0.460700  0.620700  1.0  -0.0209
  H  H317  1  0.790600  0.316200  0.688300  1.0  -0.0385
  H  H318  1  0.708000  0.260100  0.811800  1.0  -0.0028
  H  H319  1  0.201200  0.103700  0.619400  1.0  -0.0438
  H  H320  1  0.297600  0.126100  0.843400  1.0  -0.0667
  H  H321  1  0.247200  0.039300  0.620700  1.0  -0.0201
  H  H322  1  0.209400  0.183800  0.688300  1.0  -0.0389
  H  H323  1  0.292000  0.239900  0.811800  1.0  -0.0021
  H  H324  1  0.701200  0.603700  0.119400  1.0  -0.0438
  H  H325  1  0.797600  0.626100  0.343400  1.0  -0.0667
  H  H326  1  0.747200  0.539300  0.120700  1.0  -0.0201
  H  H327  1  0.709400  0.683800  0.188300  1.0  -0.0389
  H  H328  1  0.792000  0.739900  0.311800  1.0  -0.0
  H  H329  1  0.353700  0.951200  0.130600  1.0  -0.0464
  H  H330  1  0.376100  0.047600  0.906600  1.0  -0.0716
  H  H331  1  0.289300  0.997200  0.129300  1.0  -0.024
  H  H332  1  0.433800  0.959400  0.061700  1.0  -0.0406
  H  H333  1  0.489900  0.042000  0.938200  1.0  -0.0036
  H  H334  1  0.853700  0.451200  0.630600  1.0  -0.0464
  H  H335  1  0.876100  0.547600  0.406600  1.0  -0.0716
  H  H336  1  0.789300  0.497200  0.629300  1.0  -0.024
  H  H337  1  0.933800  0.459400  0.561700  1.0  -0.0406
  H  H338  1  0.989900  0.542000  0.438200  1.0  -0.0084
  H  H339  1  0.146300  0.048800  0.630600  1.0  -0.0457
  H  H340  1  0.123900  0.952400  0.406600  1.0  -0.0703
  H  H341  1  0.210700  0.002800  0.629300  1.0  -0.0241
  H  H342  1  0.066200  0.040600  0.561700  1.0  -0.0401
  H  H343  1  0.010100  0.958000  0.438200  1.0  -0.0082
  H  H344  1  0.646300  0.548800  0.130600  1.0  -0.0457
  H  H345  1  0.623900  0.452400  0.906600  1.0  -0.0703
  H  H346  1  0.710700  0.502800  0.129300  1.0  -0.0241
  H  H347  1  0.566200  0.540600  0.061700  1.0  -0.0401
  H  H348  1  0.510100  0.458000  0.938200  1.0  -0.0025
  H  H349  1  0.201200  0.896300  0.880600  1.0  -0.0432
  H  H350  1  0.297600  0.873900  0.656600  1.0  -0.0679
  H  H351  1  0.247200  0.960700  0.879300  1.0  -0.0204
  H  H352  1  0.209400  0.816200  0.811700  1.0  -0.0397
  H  H353  1  0.292000  0.760100  0.688200  1.0  -0.0034
  H  H354  1  0.701200  0.396300  0.380600  1.0  -0.0432
  H  H355  1  0.797600  0.373900  0.156600  1.0  -0.0679
  H  H356  1  0.747200  0.460700  0.379300  1.0  -0.0204
  H  H357  1  0.709400  0.316200  0.311700  1.0  -0.0397
  H  H358  1  0.792000  0.260100  0.188200  1.0  -0.0011
  H  H359  1  0.298800  0.103700  0.380600  1.0  -0.0437
  H  H360  1  0.202400  0.126100  0.156600  1.0  -0.0661
  H  H361  1  0.252800  0.039300  0.379300  1.0  -0.0211
  H  H362  1  0.290600  0.183800  0.311700  1.0  -0.0403
  H  H363  1  0.208000  0.239900  0.188200  1.0  -0.0028
  H  H364  1  0.798800  0.603700  0.880600  1.0  -0.0437
  H  H365  1  0.702400  0.626100  0.656600  1.0  -0.0661
  H  H366  1  0.752800  0.539300  0.879300  1.0  -0.0211
  H  H367  1  0.790600  0.683800  0.811700  1.0  -0.0403
  H  H368  1  0.708000  0.739900  0.688200  1.0  -0.0046
  H  H369  1  0.853700  0.048800  0.130600  1.0  -0.0463
  H  H370  1  0.876100  0.952400  0.906600  1.0  -0.0698
  H  H371  1  0.789300  0.002800  0.129300  1.0  -0.0243
  H  H372  1  0.933800  0.040600  0.061700  1.0  -0.0402
  H  H373  1  0.989900  0.958000  0.938200  1.0  -0.0088
  H  H374  1  0.353700  0.548800  0.630600  1.0  -0.0463
  H  H375  1  0.376100  0.452400  0.406600  1.0  -0.0698
  H  H376  1  0.289300  0.502800  0.629300  1.0  -0.0243
  H  H377  1  0.433800  0.540600  0.561700  1.0  -0.0402
  H  H378  1  0.489900  0.458000  0.438200  1.0  -0.0037
  H  H379  1  0.646300  0.951200  0.630600  1.0  -0.0457
  H  H380  1  0.623900  0.047600  0.406600  1.0  -0.0722
  H  H381  1  0.710700  0.997200  0.629300  1.0  -0.0234
  H  H382  1  0.566200  0.959400  0.561700  1.0  -0.0405
  H  H383  1  0.510100  0.042000  0.438200  1.0  -0.0026
  H  H384  1  0.146300  0.451200  0.130600  1.0  -0.0457
  H  H385  1  0.123900  0.547600  0.906600  1.0  -0.0722
  H  H386  1  0.210700  0.497200  0.129300  1.0  -0.0234
  H  H387  1  0.066200  0.459400  0.061700  1.0  -0.0405
  H  H388  1  0.010100  0.542000  0.938200  1.0  -0.0068
  H  H389  1  0.701200  0.103700  0.880600  1.0  -0.0436
  H  H390  1  0.797600  0.126100  0.656600  1.0  -0.0677
  H  H391  1  0.747200  0.039300  0.879300  1.0  -0.0204
  H  H392  1  0.709400  0.183800  0.811700  1.0  -0.0397
  H  H393  1  0.792000  0.239900  0.688200  1.0  -0.0015
  H  H394  1  0.201200  0.603700  0.380600  1.0  -0.0436
  H  H395  1  0.297600  0.626100  0.156600  1.0  -0.0677
  H  H396  1  0.247200  0.539300  0.379300  1.0  -0.0204
  H  H397  1  0.209400  0.683800  0.311700  1.0  -0.0397
  H  H398  1  0.292000  0.739900  0.188200  1.0  -0.0044
  H  H399  1  0.798800  0.896300  0.380600  1.0  -0.0428
  H  H400  1  0.702400  0.873900  0.156600  1.0  -0.0658
  H  H401  1  0.752800  0.960700  0.379300  1.0  -0.0214
  H  H402  1  0.790600  0.816200  0.311700  1.0  -0.0403
  H  H403  1  0.708000  0.760100  0.188200  1.0  -0.005
  H  H404  1  0.298800  0.396300  0.880600  1.0  -0.0428
  H  H405  1  0.202400  0.373900  0.656600  1.0  -0.0658
  H  H406  1  0.252800  0.460700  0.879300  1.0  -0.0214
  H  H407  1  0.290600  0.316200  0.811700  1.0  -0.0403
  H  H408  1  0.208000  0.260100  0.688200  1.0  -0.0028
  H  H409  1  0.646300  0.048800  0.869400  1.0  -0.0464
  H  H410  1  0.623900  0.952400  0.093400  1.0  -0.0691
  H  H411  1  0.710700  0.002800  0.870700  1.0  -0.0244
  H  H412  1  0.566200  0.040600  0.938300  1.0  -0.0394
  H  H413  1  0.510100  0.958000  0.061800  1.0  -0.0009
  H  H414  1  0.146300  0.548800  0.369400  1.0  -0.0464
  H  H415  1  0.123900  0.452400  0.593400  1.0  -0.0691
  H  H416  1  0.210700  0.502800  0.370700  1.0  -0.0244
  H  H417  1  0.066200  0.540600  0.438300  1.0  -0.0394
  H  H418  1  0.010100  0.458000  0.561800  1.0  -0.0064
  H  H419  1  0.853700  0.951200  0.369400  1.0  -0.0471
  H  H420  1  0.876100  0.047600  0.593400  1.0  -0.0719
  H  H421  1  0.789300  0.997200  0.370700  1.0  -0.0234
  H  H422  1  0.933800  0.959400  0.438300  1.0  -0.04
  H  H423  1  0.989900  0.042000  0.561800  1.0  -0.0067
  H  H424  1  0.353700  0.451200  0.869400  1.0  -0.0471
  H  H425  1  0.376100  0.547600  0.093400  1.0  -0.0719
  H  H426  1  0.289300  0.497200  0.870700  1.0  -0.0234
  H  H427  1  0.433800  0.459400  0.938300  1.0  -0.04
  H  H428  1  0.489900  0.542000  0.061800  1.0  -0.0017
  H  H429  1  0.798800  0.103700  0.119400  1.0  -0.0441
  H  H430  1  0.702400  0.126100  0.343400  1.0  -0.0654
  H  H431  1  0.752800  0.039300  0.120700  1.0  -0.0203
  H  H432  1  0.790600  0.183800  0.188300  1.0  -0.0384
  H  H433  1  0.708000  0.239900  0.311800  1.0  -0.0038
  H  H434  1  0.298800  0.603700  0.619400  1.0  -0.0441
  H  H435  1  0.202400  0.626100  0.843400  1.0  -0.0654
  H  H436  1  0.252800  0.539300  0.620700  1.0  -0.0203
  H  H437  1  0.290600  0.683800  0.688300  1.0  -0.0384
  H  H438  1  0.208000  0.739900  0.811800  1.0  -0.0024
  H  H439  1  0.701200  0.896300  0.619400  1.0  -0.0435
  H  H440  1  0.797600  0.873900  0.843400  1.0  -0.0673
  H  H441  1  0.747200  0.960700  0.620700  1.0  -0.0202
  H  H442  1  0.709400  0.816200  0.688300  1.0  -0.039
  H  H443  1  0.792000  0.760100  0.811800  1.0  0.0012
  H  H444  1  0.201200  0.396300  0.119400  1.0  -0.0435
  H  H445  1  0.297600  0.373900  0.343400  1.0  -0.0673
  H  H446  1  0.247200  0.460700  0.120700  1.0  -0.0202
  H  H447  1  0.209400  0.316200  0.188300  1.0  -0.039
  H  H448  1  0.292000  0.260100  0.311800  1.0  -0.0009
  O  O449  1  0.155540  0.983740  0.925900  1.0  -0.7829
  O  O450  1  0.118380  0.974870  0.901900  1.0  -0.7941
  O  O451  1  0.140470  0.974180  0.704400  1.0  -0.7802
  O  O452  1  0.149830  0.021810  0.092600  1.0  -0.7838
  O  O453  1  0.112400  0.012560  0.080800  1.0  -0.7944
  O  O454  1  0.128140  0.028200  0.294400  1.0  -0.8315
  O  O455  1  0.221970  0.027230  0.956600  1.0  -0.8254
  O  O456  1  0.202450  0.004920  0.117900  1.0  -0.8201
  O  O457  1  0.186150  0.019420  0.914100  1.0  -0.8374
  O  O458  1  0.067110  0.992250  0.937700  1.0  -0.775
  O  O459  1  0.049520  0.975200  0.118100  1.0  -0.6473
  O  O460  1  0.084900  0.974670  0.115200  1.0  -0.6392
  O  O461  1  0.021910  0.014000  0.086500  1.0  -0.8025
  O  O462  1  0.984030  0.022700  0.086400  1.0  -0.8839
  O  O463  1  0.005550  0.027500  0.292800  1.0  -0.8039
  O  O464  1  0.655540  0.483740  0.425900  1.0  -0.7829
  O  O465  1  0.618380  0.474870  0.401900  1.0  -0.7941
  O  O466  1  0.640470  0.474180  0.204400  1.0  -0.7802
  O  O467  1  0.649830  0.521810  0.592600  1.0  -0.7838
  O  O468  1  0.612400  0.512560  0.580800  1.0  -0.7944
  O  O469  1  0.628140  0.528200  0.794400  1.0  -0.8315
  O  O470  1  0.721970  0.527230  0.456600  1.0  -0.8254
  O  O471  1  0.702450  0.504920  0.617900  1.0  -0.8201
  O  O472  1  0.686150  0.519420  0.414100  1.0  -0.8374
  O  O473  1  0.567110  0.492250  0.437700  1.0  -0.775
  O  O474  1  0.549520  0.475200  0.618100  1.0  -0.6473
  O  O475  1  0.584900  0.474670  0.615200  1.0  -0.6392
  O  O476  1  0.521910  0.514000  0.586500  1.0  -0.8025
  O  O477  1  0.484030  0.522700  0.586400  1.0  -0.8839
  O  O478  1  0.505550  0.527500  0.792800  1.0  -0.8039
  O  O479  1  0.344460  0.016260  0.425900  1.0  -0.7825
  O  O480  1  0.381620  0.025130  0.401900  1.0  -0.794
  O  O481  1  0.359530  0.025820  0.204400  1.0  -0.7776
  O  O482  1  0.350170  0.978190  0.592600  1.0  -0.7848
  O  O483  1  0.387600  0.987440  0.580800  1.0  -0.7948
  O  O484  1  0.371860  0.971800  0.794400  1.0  -0.834
  O  O485  1  0.278030  0.972770  0.456600  1.0  -0.8268
  O  O486  1  0.297550  0.995080  0.617900  1.0  -0.8206
  O  O487  1  0.313850  0.980580  0.414100  1.0  -0.8349
  O  O488  1  0.432890  0.007750  0.437700  1.0  -0.7756
  O  O489  1  0.450480  0.024800  0.618100  1.0  -0.6479
  O  O490  1  0.415100  0.025330  0.615200  1.0  -0.6403
  O  O491  1  0.478090  0.986000  0.586500  1.0  -0.8019
  O  O492  1  0.515970  0.977300  0.586400  1.0  -0.8851
  O  O493  1  0.494450  0.972500  0.792800  1.0  -0.8055
  O  O494  1  0.844460  0.516260  0.925900  1.0  -0.7825
  O  O495  1  0.881620  0.525130  0.901900  1.0  -0.794
  O  O496  1  0.859530  0.525820  0.704400  1.0  -0.7776
  O  O497  1  0.850170  0.478190  0.092600  1.0  -0.7848
  O  O498  1  0.887600  0.487440  0.080800  1.0  -0.7948
  O  O499  1  0.871860  0.471800  0.294400  1.0  -0.834
  O  O500  1  0.778030  0.472770  0.956600  1.0  -0.8268
  O  O501  1  0.797550  0.495080  0.117900  1.0  -0.8206
  O  O502  1  0.813850  0.480580  0.914100  1.0  -0.8349
  O  O503  1  0.932890  0.507750  0.937700  1.0  -0.7756
  O  O504  1  0.950480  0.524800  0.118100  1.0  -0.6479
  O  O505  1  0.915100  0.525330  0.115200  1.0  -0.6403
  O  O506  1  0.978090  0.486000  0.086500  1.0  -0.8019
  O  O507  1  0.015970  0.477300  0.086400  1.0  -0.8851
  O  O508  1  0.994450  0.472500  0.292800  1.0  -0.8055
  O  O509  1  0.266260  0.905540  0.175900  1.0  -0.7861
  O  O510  1  0.275130  0.868380  0.151900  1.0  -0.795
  O  O511  1  0.275820  0.890470  0.954400  1.0  -0.7763
  O  O512  1  0.228190  0.899830  0.342600  1.0  -0.7855
  O  O513  1  0.237440  0.862400  0.330800  1.0  -0.7985
  O  O514  1  0.221800  0.878140  0.544400  1.0  -0.8321
  O  O515  1  0.222770  0.971970  0.206600  1.0  -0.8241
  O  O516  1  0.245080  0.952450  0.367900  1.0  -0.8251
  O  O517  1  0.230580  0.936150  0.164100  1.0  -0.8337
  O  O518  1  0.257750  0.817110  0.187700  1.0  -0.7712
  O  O519  1  0.274800  0.799520  0.368100  1.0  -0.6464
  O  O520  1  0.275330  0.834900  0.365200  1.0  -0.6408
  O  O521  1  0.236000  0.771910  0.336500  1.0  -0.8048
  O  O522  1  0.227300  0.734030  0.336400  1.0  -0.8855
  O  O523  1  0.222500  0.755550  0.542800  1.0  -0.8046
  O  O524  1  0.766260  0.405540  0.675900  1.0  -0.7861
  O  O525  1  0.775130  0.368380  0.651900  1.0  -0.795
  O  O526  1  0.775820  0.390470  0.454400  1.0  -0.7763
  O  O527  1  0.728190  0.399830  0.842600  1.0  -0.7855
  O  O528  1  0.737440  0.362400  0.830800  1.0  -0.7985
  O  O529  1  0.721800  0.378140  0.044400  1.0  -0.8321
  O  O530  1  0.722770  0.471970  0.706600  1.0  -0.8241
  O  O531  1  0.745080  0.452450  0.867900  1.0  -0.8251
  O  O532  1  0.730580  0.436150  0.664100  1.0  -0.8337
  O  O533  1  0.757750  0.317110  0.687700  1.0  -0.7712
  O  O534  1  0.774800  0.299520  0.868100  1.0  -0.6464
  O  O535  1  0.775330  0.334900  0.865200  1.0  -0.6408
  O  O536  1  0.736000  0.271910  0.836500  1.0  -0.8048
  O  O537  1  0.727300  0.234030  0.836400  1.0  -0.8855
  O  O538  1  0.722500  0.255550  0.042800  1.0  -0.8046
  O  O539  1  0.233740  0.094460  0.675900  1.0  -0.7864
  O  O540  1  0.224870  0.131620  0.651900  1.0  -0.7947
  O  O541  1  0.224180  0.109530  0.454400  1.0  -0.7761
  O  O542  1  0.271810  0.100170  0.842600  1.0  -0.7846
  O  O543  1  0.262560  0.137600  0.830800  1.0  -0.7961
  O  O544  1  0.278200  0.121860  0.044400  1.0  -0.8318
  O  O545  1  0.277230  0.028030  0.706600  1.0  -0.8254
  O  O546  1  0.254920  0.047550  0.867900  1.0  -0.8242
  O  O547  1  0.269420  0.063850  0.664100  1.0  -0.8346
  O  O548  1  0.242250  0.182890  0.687700  1.0  -0.7712
  O  O549  1  0.225200  0.200480  0.868100  1.0  -0.6469
  O  O550  1  0.224670  0.165100  0.865200  1.0  -0.641
  O  O551  1  0.264000  0.228090  0.836500  1.0  -0.8036
  O  O552  1  0.272700  0.265970  0.836400  1.0  -0.8859
  O  O553  1  0.277500  0.244450  0.042800  1.0  -0.8032
  O  O554  1  0.733740  0.594460  0.175900  1.0  -0.7864
  O  O555  1  0.724870  0.631620  0.151900  1.0  -0.7947
  O  O556  1  0.724180  0.609530  0.954400  1.0  -0.7761
  O  O557  1  0.771810  0.600170  0.342600  1.0  -0.7846
  O  O558  1  0.762560  0.637600  0.330800  1.0  -0.7961
  O  O559  1  0.778200  0.621860  0.544400  1.0  -0.8318
  O  O560  1  0.777230  0.528030  0.206600  1.0  -0.8254
  O  O561  1  0.754920  0.547550  0.367900  1.0  -0.8242
  O  O562  1  0.769420  0.563850  0.164100  1.0  -0.8346
  O  O563  1  0.742250  0.682890  0.187700  1.0  -0.7712
  O  O564  1  0.725200  0.700480  0.368100  1.0  -0.6469
  O  O565  1  0.724670  0.665100  0.365200  1.0  -0.641
  O  O566  1  0.764000  0.728090  0.336500  1.0  -0.8036
  O  O567  1  0.772700  0.765970  0.336400  1.0  -0.8859
  O  O568  1  0.777500  0.744450  0.542800  1.0  -0.8032
  O  O569  1  0.344460  0.983740  0.074100  1.0  -0.7817
  O  O570  1  0.381620  0.974870  0.098100  1.0  -0.793
  O  O571  1  0.359530  0.974180  0.295600  1.0  -0.7785
  O  O572  1  0.350170  0.021810  0.907400  1.0  -0.7848
  O  O573  1  0.387600  0.012560  0.919200  1.0  -0.7952
  O  O574  1  0.371860  0.028200  0.705600  1.0  -0.8331
  O  O575  1  0.278030  0.027230  0.043400  1.0  -0.8245
  O  O576  1  0.297550  0.004920  0.882100  1.0  -0.821
  O  O577  1  0.313850  0.019420  0.085900  1.0  -0.8352
  O  O578  1  0.432890  0.992250  0.062300  1.0  -0.775
  O  O579  1  0.450480  0.975200  0.881900  1.0  -0.6486
  O  O580  1  0.415100  0.974670  0.884800  1.0  -0.6392
  O  O581  1  0.478090  0.014000  0.913500  1.0  -0.8027
  O  O582  1  0.515970  0.022700  0.913600  1.0  -0.8856
  O  O583  1  0.494450  0.027500  0.707200  1.0  -0.8068
  O  O584  1  0.844460  0.483740  0.574100  1.0  -0.7817
  O  O585  1  0.881620  0.474870  0.598100  1.0  -0.793
  O  O586  1  0.859530  0.474180  0.795600  1.0  -0.7785
  O  O587  1  0.850170  0.521810  0.407400  1.0  -0.7848
  O  O588  1  0.887600  0.512560  0.419200  1.0  -0.7952
  O  O589  1  0.871860  0.528200  0.205600  1.0  -0.8331
  O  O590  1  0.778030  0.527230  0.543400  1.0  -0.8245
  O  O591  1  0.797550  0.504920  0.382100  1.0  -0.821
  O  O592  1  0.813850  0.519420  0.585900  1.0  -0.8352
  O  O593  1  0.932890  0.492250  0.562300  1.0  -0.775
  O  O594  1  0.950480  0.475200  0.381900  1.0  -0.6486
  O  O595  1  0.915100  0.474670  0.384800  1.0  -0.6392
  O  O596  1  0.978090  0.514000  0.413500  1.0  -0.8027
  O  O597  1  0.015970  0.522700  0.413600  1.0  -0.8856
  O  O598  1  0.994450  0.527500  0.207200  1.0  -0.8068
  O  O599  1  0.155540  0.016260  0.574100  1.0  -0.7827
  O  O600  1  0.118380  0.025130  0.598100  1.0  -0.7926
  O  O601  1  0.140470  0.025820  0.795600  1.0  -0.7778
  O  O602  1  0.149830  0.978190  0.407400  1.0  -0.7829
  O  O603  1  0.112400  0.987440  0.419200  1.0  -0.794
  O  O604  1  0.128140  0.971800  0.205600  1.0  -0.8331
  O  O605  1  0.221970  0.972770  0.543400  1.0  -0.827
  O  O606  1  0.202450  0.995080  0.382100  1.0  -0.8204
  O  O607  1  0.186150  0.980580  0.585900  1.0  -0.8339
  O  O608  1  0.067110  0.007750  0.562300  1.0  -0.7757
  O  O609  1  0.049520  0.024800  0.381900  1.0  -0.6472
  O  O610  1  0.084900  0.025330  0.384800  1.0  -0.6391
  O  O611  1  0.021910  0.986000  0.413500  1.0  -0.8023
  O  O612  1  0.984030  0.977300  0.413600  1.0  -0.8842
  O  O613  1  0.005550  0.972500  0.207200  1.0  -0.8058
  O  O614  1  0.655540  0.516260  0.074100  1.0  -0.7827
  O  O615  1  0.618380  0.525130  0.098100  1.0  -0.7926
  O  O616  1  0.640470  0.525820  0.295600  1.0  -0.7778
  O  O617  1  0.649830  0.478190  0.907400  1.0  -0.7829
  O  O618  1  0.612400  0.487440  0.919200  1.0  -0.794
  O  O619  1  0.628140  0.471800  0.705600  1.0  -0.8331
  O  O620  1  0.721970  0.472770  0.043400  1.0  -0.827
  O  O621  1  0.702450  0.495080  0.882100  1.0  -0.8204
  O  O622  1  0.686150  0.480580  0.085900  1.0  -0.8339
  O  O623  1  0.567110  0.507750  0.062300  1.0  -0.7757
  O  O624  1  0.549520  0.524800  0.881900  1.0  -0.6472
  O  O625  1  0.584900  0.525330  0.884800  1.0  -0.6391
  O  O626  1  0.521910  0.486000  0.913500  1.0  -0.8023
  O  O627  1  0.484030  0.477300  0.913600  1.0  -0.8842
  O  O628  1  0.505550  0.472500  0.707200  1.0  -0.8058
  O  O629  1  0.233740  0.905540  0.824100  1.0  -0.7861
  O  O630  1  0.224870  0.868380  0.848100  1.0  -0.794
  O  O631  1  0.224180  0.890470  0.045600  1.0  -0.7754
  O  O632  1  0.271810  0.899830  0.657400  1.0  -0.784
  O  O633  1  0.262560  0.862400  0.669200  1.0  -0.7969
  O  O634  1  0.278200  0.878140  0.455600  1.0  -0.8313
  O  O635  1  0.277230  0.971970  0.793400  1.0  -0.8246
  O  O636  1  0.254920  0.952450  0.632100  1.0  -0.8254
  O  O637  1  0.269420  0.936150  0.835900  1.0  -0.8331
  O  O638  1  0.242250  0.817110  0.812300  1.0  -0.7716
  O  O639  1  0.225200  0.799520  0.631900  1.0  -0.6475
  O  O640  1  0.224670  0.834900  0.634800  1.0  -0.6406
  O  O641  1  0.264000  0.771910  0.663500  1.0  -0.804
  O  O642  1  0.272700  0.734030  0.663600  1.0  -0.887
  O  O643  1  0.277500  0.755550  0.457200  1.0  -0.8041
  O  O644  1  0.733740  0.405540  0.324100  1.0  -0.7861
  O  O645  1  0.724870  0.368380  0.348100  1.0  -0.794
  O  O646  1  0.724180  0.390470  0.545600  1.0  -0.7754
  O  O647  1  0.771810  0.399830  0.157400  1.0  -0.784
  O  O648  1  0.762560  0.362400  0.169200  1.0  -0.7969
  O  O649  1  0.778200  0.378140  0.955600  1.0  -0.8313
  O  O650  1  0.777230  0.471970  0.293400  1.0  -0.8246
  O  O651  1  0.754920  0.452450  0.132100  1.0  -0.8254
  O  O652  1  0.769420  0.436150  0.335900  1.0  -0.8331
  O  O653  1  0.742250  0.317110  0.312300  1.0  -0.7716
  O  O654  1  0.725200  0.299520  0.131900  1.0  -0.6475
  O  O655  1  0.724670  0.334900  0.134800  1.0  -0.6406
  O  O656  1  0.764000  0.271910  0.163500  1.0  -0.804
  O  O657  1  0.772700  0.234030  0.163600  1.0  -0.887
  O  O658  1  0.777500  0.255550  0.957200  1.0  -0.8041
  O  O659  1  0.266260  0.094460  0.324100  1.0  -0.7858
  O  O660  1  0.275130  0.131620  0.348100  1.0  -0.7917
  O  O661  1  0.275820  0.109530  0.545600  1.0  -0.7758
  O  O662  1  0.228190  0.100170  0.157400  1.0  -0.7862
  O  O663  1  0.237440  0.137600  0.169200  1.0  -0.7967
  O  O664  1  0.221800  0.121860  0.955600  1.0  -0.8329
  O  O665  1  0.222770  0.028030  0.293400  1.0  -0.8238
  O  O666  1  0.245080  0.047550  0.132100  1.0  -0.8253
  O  O667  1  0.230580  0.063850  0.335900  1.0  -0.8338
  O  O668  1  0.257750  0.182890  0.312300  1.0  -0.7719
  O  O669  1  0.274800  0.200480  0.131900  1.0  -0.6473
  O  O670  1  0.275330  0.165100  0.134800  1.0  -0.6403
  O  O671  1  0.236000  0.228090  0.163500  1.0  -0.8039
  O  O672  1  0.227300  0.265970  0.163600  1.0  -0.8866
  O  O673  1  0.222500  0.244450  0.957200  1.0  -0.8059
  O  O674  1  0.766260  0.594460  0.824100  1.0  -0.7858
  O  O675  1  0.775130  0.631620  0.848100  1.0  -0.7917
  O  O676  1  0.775820  0.609530  0.045600  1.0  -0.7758
  O  O677  1  0.728190  0.600170  0.657400  1.0  -0.7862
  O  O678  1  0.737440  0.637600  0.669200  1.0  -0.7967
  O  O679  1  0.721800  0.621860  0.455600  1.0  -0.8329
  O  O680  1  0.722770  0.528030  0.793400  1.0  -0.8238
  O  O681  1  0.745080  0.547550  0.632100  1.0  -0.8253
  O  O682  1  0.730580  0.563850  0.835900  1.0  -0.8338
  O  O683  1  0.757750  0.682890  0.812300  1.0  -0.7719
  O  O684  1  0.774800  0.700480  0.631900  1.0  -0.6473
  O  O685  1  0.775330  0.665100  0.634800  1.0  -0.6403
  O  O686  1  0.736000  0.728090  0.663500  1.0  -0.8039
  O  O687  1  0.727300  0.765970  0.663600  1.0  -0.8866
  O  O688  1  0.722500  0.744450  0.457200  1.0  -0.8059
  O  O689  1  0.844460  0.016260  0.074100  1.0  -0.782
  O  O690  1  0.881620  0.025130  0.098100  1.0  -0.7933
  O  O691  1  0.859530  0.025820  0.295600  1.0  -0.7774
  O  O692  1  0.850170  0.978190  0.907400  1.0  -0.7845
  O  O693  1  0.887600  0.987440  0.919200  1.0  -0.7946
  O  O694  1  0.871860  0.971800  0.705600  1.0  -0.8341
  O  O695  1  0.778030  0.972770  0.043400  1.0  -0.8264
  O  O696  1  0.797550  0.995080  0.882100  1.0  -0.8208
  O  O697  1  0.813850  0.980580  0.085900  1.0  -0.834
  O  O698  1  0.932890  0.007750  0.062300  1.0  -0.7758
  O  O699  1  0.950480  0.024800  0.881900  1.0  -0.6485
  O  O700  1  0.915100  0.025330  0.884800  1.0  -0.6399
  O  O701  1  0.978090  0.986000  0.913500  1.0  -0.8018
  O  O702  1  0.015970  0.977300  0.913600  1.0  -0.8855
  O  O703  1  0.994450  0.972500  0.707200  1.0  -0.8041
  O  O704  1  0.344460  0.516260  0.574100  1.0  -0.782
  O  O705  1  0.381620  0.525130  0.598100  1.0  -0.7933
  O  O706  1  0.359530  0.525820  0.795600  1.0  -0.7774
  O  O707  1  0.350170  0.478190  0.407400  1.0  -0.7845
  O  O708  1  0.387600  0.487440  0.419200  1.0  -0.7946
  O  O709  1  0.371860  0.471800  0.205600  1.0  -0.8341
  O  O710  1  0.278030  0.472770  0.543400  1.0  -0.8264
  O  O711  1  0.297550  0.495080  0.382100  1.0  -0.8208
  O  O712  1  0.313850  0.480580  0.585900  1.0  -0.834
  O  O713  1  0.432890  0.507750  0.562300  1.0  -0.7758
  O  O714  1  0.450480  0.524800  0.381900  1.0  -0.6485
  O  O715  1  0.415100  0.525330  0.384800  1.0  -0.6399
  O  O716  1  0.478090  0.486000  0.413500  1.0  -0.8018
  O  O717  1  0.515970  0.477300  0.413600  1.0  -0.8855
  O  O718  1  0.494450  0.472500  0.207200  1.0  -0.8041
  O  O719  1  0.655540  0.983740  0.574100  1.0  -0.7823
  O  O720  1  0.618380  0.974870  0.598100  1.0  -0.7927
  O  O721  1  0.640470  0.974180  0.795600  1.0  -0.7802
  O  O722  1  0.649830  0.021810  0.407400  1.0  -0.783
  O  O723  1  0.612400  0.012560  0.419200  1.0  -0.7942
  O  O724  1  0.628140  0.028200  0.205600  1.0  -0.8319
  O  O725  1  0.721970  0.027230  0.543400  1.0  -0.825
  O  O726  1  0.702450  0.004920  0.382100  1.0  -0.8208
  O  O727  1  0.686150  0.019420  0.585900  1.0  -0.8363
  O  O728  1  0.567110  0.992250  0.562300  1.0  -0.7752
  O  O729  1  0.549520  0.975200  0.381900  1.0  -0.6478
  O  O730  1  0.584900  0.974670  0.384800  1.0  -0.6386
  O  O731  1  0.521910  0.014000  0.413500  1.0  -0.803
  O  O732  1  0.484030  0.022700  0.413600  1.0  -0.8844
  O  O733  1  0.505550  0.027500  0.207200  1.0  -0.8034
  O  O734  1  0.155540  0.483740  0.074100  1.0  -0.7823
  O  O735  1  0.118380  0.474870  0.098100  1.0  -0.7927
  O  O736  1  0.140470  0.474180  0.295600  1.0  -0.7802
  O  O737  1  0.149830  0.521810  0.907400  1.0  -0.783
  O  O738  1  0.112400  0.512560  0.919200  1.0  -0.7942
  O  O739  1  0.128140  0.528200  0.705600  1.0  -0.8319
  O  O740  1  0.221970  0.527230  0.043400  1.0  -0.825
  O  O741  1  0.202450  0.504920  0.882100  1.0  -0.8208
  O  O742  1  0.186150  0.519420  0.085900  1.0  -0.8363
  O  O743  1  0.067110  0.492250  0.062300  1.0  -0.7752
  O  O744  1  0.049520  0.475200  0.881900  1.0  -0.6478
  O  O745  1  0.084900  0.474670  0.884800  1.0  -0.6386
  O  O746  1  0.021910  0.514000  0.913500  1.0  -0.803
  O  O747  1  0.984030  0.522700  0.913600  1.0  -0.8844
  O  O748  1  0.005550  0.527500  0.707200  1.0  -0.8034
  O  O749  1  0.733740  0.094460  0.824100  1.0  -0.786
  O  O750  1  0.724870  0.131620  0.848100  1.0  -0.7934
  O  O751  1  0.724180  0.109530  0.045600  1.0  -0.7764
  O  O752  1  0.771810  0.100170  0.657400  1.0  -0.7845
  O  O753  1  0.762560  0.137600  0.669200  1.0  -0.7956
  O  O754  1  0.778200  0.121860  0.455600  1.0  -0.8319
  O  O755  1  0.777230  0.028030  0.793400  1.0  -0.8248
  O  O756  1  0.754920  0.047550  0.632100  1.0  -0.8255
  O  O757  1  0.769420  0.063850  0.835900  1.0  -0.8339
  O  O758  1  0.742250  0.182890  0.812300  1.0  -0.7716
  O  O759  1  0.725200  0.200480  0.631900  1.0  -0.6479
  O  O760  1  0.724670  0.165100  0.634800  1.0  -0.6412
  O  O761  1  0.764000  0.228090  0.663500  1.0  -0.8037
  O  O762  1  0.772700  0.265970  0.663600  1.0  -0.8864
  O  O763  1  0.777500  0.244450  0.457200  1.0  -0.8014
  O  O764  1  0.233740  0.594460  0.324100  1.0  -0.786
  O  O765  1  0.224870  0.631620  0.348100  1.0  -0.7934
  O  O766  1  0.224180  0.609530  0.545600  1.0  -0.7764
  O  O767  1  0.271810  0.600170  0.157400  1.0  -0.7845
  O  O768  1  0.262560  0.637600  0.169200  1.0  -0.7956
  O  O769  1  0.278200  0.621860  0.955600  1.0  -0.8319
  O  O770  1  0.277230  0.528030  0.293400  1.0  -0.8248
  O  O771  1  0.254920  0.547550  0.132100  1.0  -0.8255
  O  O772  1  0.269420  0.563850  0.335900  1.0  -0.8339
  O  O773  1  0.242250  0.682890  0.312300  1.0  -0.7716
  O  O774  1  0.225200  0.700480  0.131900  1.0  -0.6479
  O  O775  1  0.224670  0.665100  0.134800  1.0  -0.6412
  O  O776  1  0.264000  0.728090  0.163500  1.0  -0.8037
  O  O777  1  0.272700  0.765970  0.163600  1.0  -0.8864
  O  O778  1  0.277500  0.744450  0.957200  1.0  -0.8014
  O  O779  1  0.766260  0.905540  0.324100  1.0  -0.786
  O  O780  1  0.775130  0.868380  0.348100  1.0  -0.7928
  O  O781  1  0.775820  0.890470  0.545600  1.0  -0.7769
  O  O782  1  0.728190  0.899830  0.157400  1.0  -0.7853
  O  O783  1  0.737440  0.862400  0.169200  1.0  -0.7977
  O  O784  1  0.721800  0.878140  0.955600  1.0  -0.8325
  O  O785  1  0.722770  0.971970  0.293400  1.0  -0.8236
  O  O786  1  0.745080  0.952450  0.132100  1.0  -0.825
  O  O787  1  0.730580  0.936150  0.335900  1.0  -0.8331
  O  O788  1  0.757750  0.817110  0.312300  1.0  -0.7719
  O  O789  1  0.774800  0.799520  0.131900  1.0  -0.6469
  O  O790  1  0.775330  0.834900  0.134800  1.0  -0.6399
  O  O791  1  0.736000  0.771910  0.163500  1.0  -0.8042
  O  O792  1  0.727300  0.734030  0.163600  1.0  -0.8866
  O  O793  1  0.722500  0.755550  0.957200  1.0  -0.804
  O  O794  1  0.266260  0.405540  0.824100  1.0  -0.786
  O  O795  1  0.275130  0.368380  0.848100  1.0  -0.7928
  O  O796  1  0.275820  0.390470  0.045600  1.0  -0.7769
  O  O797  1  0.228190  0.399830  0.657400  1.0  -0.7853
  O  O798  1  0.237440  0.362400  0.669200  1.0  -0.7977
  O  O799  1  0.221800  0.378140  0.455600  1.0  -0.8325
  O  O800  1  0.222770  0.471970  0.793400  1.0  -0.8236
  O  O801  1  0.245080  0.452450  0.632100  1.0  -0.825
  O  O802  1  0.230580  0.436150  0.835900  1.0  -0.8331
  O  O803  1  0.257750  0.317110  0.812300  1.0  -0.7719
  O  O804  1  0.274800  0.299520  0.631900  1.0  -0.6469
  O  O805  1  0.275330  0.334900  0.634800  1.0  -0.6399
  O  O806  1  0.236000  0.271910  0.663500  1.0  -0.8042
  O  O807  1  0.227300  0.234030  0.663600  1.0  -0.8866
  O  O808  1  0.222500  0.255550  0.457200  1.0  -0.804
  O  O809  1  0.655540  0.016260  0.925900  1.0  -0.7837
  O  O810  1  0.618380  0.025130  0.901900  1.0  -0.7938
  O  O811  1  0.640470  0.025820  0.704400  1.0  -0.7783
  O  O812  1  0.649830  0.978190  0.092600  1.0  -0.7836
  O  O813  1  0.612400  0.987440  0.080800  1.0  -0.7944
  O  O814  1  0.628140  0.971800  0.294400  1.0  -0.8331
  O  O815  1  0.721970  0.972770  0.956600  1.0  -0.827
  O  O816  1  0.702450  0.995080  0.117900  1.0  -0.82
  O  O817  1  0.686150  0.980580  0.914100  1.0  -0.8347
  O  O818  1  0.567110  0.007750  0.937700  1.0  -0.7754
  O  O819  1  0.549520  0.024800  0.118100  1.0  -0.6467
  O  O820  1  0.584900  0.025330  0.115200  1.0  -0.6392
  O  O821  1  0.521910  0.986000  0.086500  1.0  -0.8026
  O  O822  1  0.484030  0.977300  0.086400  1.0  -0.8837
  O  O823  1  0.505550  0.972500  0.292800  1.0  -0.8032
  O  O824  1  0.155540  0.516260  0.425900  1.0  -0.7837
  O  O825  1  0.118380  0.525130  0.401900  1.0  -0.7938
  O  O826  1  0.140470  0.525820  0.204400  1.0  -0.7783
  O  O827  1  0.149830  0.478190  0.592600  1.0  -0.7836
  O  O828  1  0.112400  0.487440  0.580800  1.0  -0.7944
  O  O829  1  0.128140  0.471800  0.794400  1.0  -0.8331
  O  O830  1  0.221970  0.472770  0.456600  1.0  -0.827
  O  O831  1  0.202450  0.495080  0.617900  1.0  -0.82
  O  O832  1  0.186150  0.480580  0.414100  1.0  -0.8347
  O  O833  1  0.067110  0.507750  0.437700  1.0  -0.7754
  O  O834  1  0.049520  0.524800  0.618100  1.0  -0.6467
  O  O835  1  0.084900  0.525330  0.615200  1.0  -0.6392
  O  O836  1  0.021910  0.486000  0.586500  1.0  -0.8026
  O  O837  1  0.984030  0.477300  0.586400  1.0  -0.8837
  O  O838  1  0.005550  0.472500  0.792800  1.0  -0.8032
  O  O839  1  0.844460  0.983740  0.425900  1.0  -0.782
  O  O840  1  0.881620  0.974870  0.401900  1.0  -0.7939
  O  O841  1  0.859530  0.974180  0.204400  1.0  -0.7783
  O  O842  1  0.850170  0.021810  0.592600  1.0  -0.785
  O  O843  1  0.887600  0.012560  0.580800  1.0  -0.7949
  O  O844  1  0.871860  0.028200  0.794400  1.0  -0.8325
  O  O845  1  0.778030  0.027230  0.456600  1.0  -0.825
  O  O846  1  0.797550  0.004920  0.617900  1.0  -0.8205
  O  O847  1  0.813850  0.019420  0.414100  1.0  -0.8364
  O  O848  1  0.932890  0.992250  0.437700  1.0  -0.7747
  O  O849  1  0.950480  0.975200  0.618100  1.0  -0.648
  O  O850  1  0.915100  0.974670  0.615200  1.0  -0.64
  O  O851  1  0.978090  0.014000  0.586500  1.0  -0.8021
  O  O852  1  0.015970  0.022700  0.586400  1.0  -0.8852
  O  O853  1  0.994450  0.027500  0.792800  1.0  -0.8034
  O  O854  1  0.344460  0.483740  0.925900  1.0  -0.782
  O  O855  1  0.381620  0.474870  0.901900  1.0  -0.7939
  O  O856  1  0.359530  0.474180  0.704400  1.0  -0.7783
  O  O857  1  0.350170  0.521810  0.092600  1.0  -0.785
  O  O858  1  0.387600  0.512560  0.080800  1.0  -0.7949
  O  O859  1  0.371860  0.528200  0.294400  1.0  -0.8325
  O  O860  1  0.278030  0.527230  0.956600  1.0  -0.825
  O  O861  1  0.297550  0.504920  0.117900  1.0  -0.8205
  O  O862  1  0.313850  0.519420  0.914100  1.0  -0.8364
  O  O863  1  0.432890  0.492250  0.937700  1.0  -0.7747
  O  O864  1  0.450480  0.475200  0.118100  1.0  -0.648
  O  O865  1  0.415100  0.474670  0.115200  1.0  -0.64
  O  O866  1  0.478090  0.514000  0.086500  1.0  -0.8021
  O  O867  1  0.515970  0.522700  0.086400  1.0  -0.8852
  O  O868  1  0.494450  0.527500  0.292800  1.0  -0.8034
  O  O869  1  0.766260  0.094460  0.175900  1.0  -0.7859
  O  O870  1  0.775130  0.131620  0.151900  1.0  -0.7925
  O  O871  1  0.775820  0.109530  0.954400  1.0  -0.7751
  O  O872  1  0.728190  0.100170  0.342600  1.0  -0.7858
  O  O873  1  0.737440  0.137600  0.330800  1.0  -0.7975
  O  O874  1  0.721800  0.121860  0.544400  1.0  -0.8323
  O  O875  1  0.722770  0.028030  0.206600  1.0  -0.8243
  O  O876  1  0.745080  0.047550  0.367900  1.0  -0.8241
  O  O877  1  0.730580  0.063850  0.164100  1.0  -0.8343
  O  O878  1  0.757750  0.182890  0.187700  1.0  -0.7711
  O  O879  1  0.774800  0.200480  0.368100  1.0  -0.6466
  O  O880  1  0.775330  0.165100  0.365200  1.0  -0.6411
  O  O881  1  0.736000  0.228090  0.336500  1.0  -0.8039
  O  O882  1  0.727300  0.265970  0.336400  1.0  -0.8866
  O  O883  1  0.722500  0.244450  0.542800  1.0  -0.8031
  O  O884  1  0.266260  0.594460  0.675900  1.0  -0.7859
  O  O885  1  0.275130  0.631620  0.651900  1.0  -0.7925
  O  O886  1  0.275820  0.609530  0.454400  1.0  -0.7751
  O  O887  1  0.228190  0.600170  0.842600  1.0  -0.7858
  O  O888  1  0.237440  0.637600  0.830800  1.0  -0.7975
  O  O889  1  0.221800  0.621860  0.044400  1.0  -0.8323
  O  O890  1  0.222770  0.528030  0.706600  1.0  -0.8243
  O  O891  1  0.245080  0.547550  0.867900  1.0  -0.8241
  O  O892  1  0.230580  0.563850  0.664100  1.0  -0.8343
  O  O893  1  0.257750  0.682890  0.687700  1.0  -0.7711
  O  O894  1  0.274800  0.700480  0.868100  1.0  -0.6466
  O  O895  1  0.275330  0.665100  0.865200  1.0  -0.6411
  O  O896  1  0.236000  0.728090  0.836500  1.0  -0.8039
  O  O897  1  0.227300  0.765970  0.836400  1.0  -0.8866
  O  O898  1  0.222500  0.744450  0.042800  1.0  -0.8031
  O  O899  1  0.733740  0.905540  0.675900  1.0  -0.7869
  O  O900  1  0.724870  0.868380  0.651900  1.0  -0.7967
  O  O901  1  0.724180  0.890470  0.454400  1.0  -0.7755
  O  O902  1  0.771810  0.899830  0.842600  1.0  -0.7844
  O  O903  1  0.762560  0.862400  0.830800  1.0  -0.7974
  O  O904  1  0.778200  0.878140  0.044400  1.0  -0.8312
  O  O905  1  0.777230  0.971970  0.706600  1.0  -0.8253
  O  O906  1  0.754920  0.952450  0.867900  1.0  -0.8254
  O  O907  1  0.769420  0.936150  0.664100  1.0  -0.8342
  O  O908  1  0.742250  0.817110  0.687700  1.0  -0.7712
  O  O909  1  0.725200  0.799520  0.868100  1.0  -0.6468
  O  O910  1  0.724670  0.834900  0.865200  1.0  -0.6407
  O  O911  1  0.764000  0.771910  0.836500  1.0  -0.8043
  O  O912  1  0.772700  0.734030  0.836400  1.0  -0.8854
  O  O913  1  0.777500  0.755550  0.042800  1.0  -0.8013
  O  O914  1  0.233740  0.405540  0.175900  1.0  -0.7869
  O  O915  1  0.224870  0.368380  0.151900  1.0  -0.7967
  O  O916  1  0.224180  0.390470  0.954400  1.0  -0.7755
  O  O917  1  0.271810  0.399830  0.342600  1.0  -0.7844
  O  O918  1  0.262560  0.362400  0.330800  1.0  -0.7974
  O  O919  1  0.278200  0.378140  0.544400  1.0  -0.8312
  O  O920  1  0.277230  0.471970  0.206600  1.0  -0.8253
  O  O921  1  0.254920  0.452450  0.367900  1.0  -0.8254
  O  O922  1  0.269420  0.436150  0.164100  1.0  -0.8342
  O  O923  1  0.242250  0.317110  0.187700  1.0  -0.7712
  O  O924  1  0.225200  0.299520  0.368100  1.0  -0.6468
  O  O925  1  0.224670  0.334900  0.365200  1.0  -0.6407
  O  O926  1  0.264000  0.271910  0.336500  1.0  -0.8043
  O  O927  1  0.272700  0.234030  0.336400  1.0  -0.8854
  O  O928  1  0.277500  0.255550  0.542800  1.0  -0.8013
  F  F929  1  0.244460  0.005540  0.125000  1.0  -0.5848
  F  F930  1  0.744460  0.505540  0.625000  1.0  -0.5848
  F  F931  1  0.255540  0.994460  0.625000  1.0  -0.5829
  F  F932  1  0.755540  0.494460  0.125000  1.0  -0.5829
  F  F933  1  0.244460  0.994460  0.375000  1.0  -0.5837
  F  F934  1  0.744460  0.494460  0.875000  1.0  -0.5837
  F  F935  1  0.255540  0.005540  0.875000  1.0  -0.5839
  F  F936  1  0.755540  0.505540  0.375000  1.0  -0.5839
  F  F937  1  0.755540  0.994460  0.875000  1.0  -0.5829
  F  F938  1  0.255540  0.494460  0.375000  1.0  -0.5829
  F  F939  1  0.744460  0.005540  0.375000  1.0  -0.5848
  F  F940  1  0.244460  0.505540  0.875000  1.0  -0.5848
  F  F941  1  0.755540  0.005540  0.625000  1.0  -0.5839
  F  F942  1  0.255540  0.505540  0.125000  1.0  -0.5839
  F  F943  1  0.744460  0.994460  0.125000  1.0  -0.5837
  F  F944  1  0.244460  0.494460  0.625000  1.0  -0.5837
