# generated using pymatgen
data_Zn33Ga4P46H32(O69F2)2
_symmetry_space_group_name_H-M   'P 1'
_cell_length_a   84.04300000
_cell_length_b   66.29800000
_cell_length_c   10.03560000
_cell_angle_alpha   90.00000000
_cell_angle_beta   90.00000000
_cell_angle_gamma   90.00000000
_symmetry_Int_Tables_number   1
_chemical_formula_structural   Zn33Ga4P46H32(O69F2)2
_chemical_formula_sum   'Zn132 Ga16 P184 H128 O552 F16'
_cell_volume   55917.18716818
_cell_formula_units_Z   4
loop_
 _symmetry_equiv_pos_site_id
 _symmetry_equiv_pos_as_xyz
  1  'x, y, z'
loop_
 _atom_site_type_symbol
 _atom_site_label
 _atom_site_symmetry_multiplicity
 _atom_site_fract_x
 _atom_site_fract_y
 _atom_site_fract_z
 _atom_site_occupancy
 _atom_site_charge
  Zn  Zn1  1  0.141120  0.983660  0.171310  1.0  1.142
  Zn  Zn2  1  0.177800  0.986770  0.673710  1.0  1.1307
  Zn  Zn3  1  0.260260  0.908570  0.424160  1.0  1.1401
  Zn  Zn4  1  0.263000  0.861970  0.921540  1.0  1.1517
  Zn  Zn5  1  0.070690  0.984900  0.163600  1.0  1.1643
  Zn  Zn6  1  0.035140  0.984880  0.663600  1.0  1.1464
  Zn  Zn7  1  0.261990  0.772500  0.914100  1.0  1.1594
  Zn  Zn8  1  0.641120  0.483660  0.171310  1.0  1.142
  Zn  Zn9  1  0.677800  0.486770  0.673710  1.0  1.1307
  Zn  Zn10  1  0.760260  0.408570  0.424160  1.0  1.1401
  Zn  Zn11  1  0.763000  0.361970  0.921540  1.0  1.1517
  Zn  Zn12  1  0.570690  0.484900  0.163600  1.0  1.1643
  Zn  Zn13  1  0.535140  0.484880  0.663600  1.0  1.1464
  Zn  Zn14  1  0.761990  0.272500  0.914100  1.0  1.1594
  Zn  Zn15  1  0.858880  0.516340  0.671310  1.0  1.1419
  Zn  Zn16  1  0.822200  0.513230  0.173710  1.0  1.1293
  Zn  Zn17  1  0.739740  0.591430  0.924160  1.0  1.14
  Zn  Zn18  1  0.737000  0.638030  0.421540  1.0  1.1505
  Zn  Zn19  1  0.929310  0.515100  0.663600  1.0  1.1651
  Zn  Zn20  1  0.964860  0.515120  0.163600  1.0  1.1467
  Zn  Zn21  1  0.738010  0.727500  0.414100  1.0  1.1587
  Zn  Zn22  1  0.358880  0.016340  0.671310  1.0  1.1419
  Zn  Zn23  1  0.322200  0.013230  0.173710  1.0  1.1293
  Zn  Zn24  1  0.239740  0.091430  0.924160  1.0  1.14
  Zn  Zn25  1  0.237000  0.138030  0.421540  1.0  1.1505
  Zn  Zn26  1  0.429310  0.015100  0.663600  1.0  1.1651
  Zn  Zn27  1  0.464860  0.015120  0.163600  1.0  1.1467
  Zn  Zn28  1  0.238010  0.227500  0.414100  1.0  1.1587
  Zn  Zn29  1  0.858880  0.483660  0.328690  1.0  1.1443
  Zn  Zn30  1  0.822200  0.486770  0.826290  1.0  1.1302
  Zn  Zn31  1  0.739740  0.408570  0.075840  1.0  1.1397
  Zn  Zn32  1  0.737000  0.361970  0.578460  1.0  1.152
  Zn  Zn33  1  0.929310  0.484900  0.336400  1.0  1.1649
  Zn  Zn34  1  0.964860  0.484880  0.836400  1.0  1.1471
  Zn  Zn35  1  0.738010  0.272500  0.585900  1.0  1.1586
  Zn  Zn36  1  0.358880  0.983660  0.328690  1.0  1.1443
  Zn  Zn37  1  0.322200  0.986770  0.826290  1.0  1.1302
  Zn  Zn38  1  0.239740  0.908570  0.075840  1.0  1.1397
  Zn  Zn39  1  0.237000  0.861970  0.578460  1.0  1.152
  Zn  Zn40  1  0.429310  0.984900  0.336400  1.0  1.1649
  Zn  Zn41  1  0.464860  0.984880  0.836400  1.0  1.1471
  Zn  Zn42  1  0.238010  0.772500  0.585900  1.0  1.1586
  Zn  Zn43  1  0.141120  0.016340  0.828690  1.0  1.143
  Zn  Zn44  1  0.177800  0.013230  0.326290  1.0  1.1313
  Zn  Zn45  1  0.260260  0.091430  0.575840  1.0  1.14
  Zn  Zn46  1  0.263000  0.138030  0.078460  1.0  1.1533
  Zn  Zn47  1  0.070690  0.015100  0.836400  1.0  1.1643
  Zn  Zn48  1  0.035140  0.015120  0.336400  1.0  1.1461
  Zn  Zn49  1  0.261990  0.227500  0.085900  1.0  1.1594
  Zn  Zn50  1  0.641120  0.516340  0.828690  1.0  1.143
  Zn  Zn51  1  0.677800  0.513230  0.326290  1.0  1.1313
  Zn  Zn52  1  0.760260  0.591430  0.575840  1.0  1.14
  Zn  Zn53  1  0.763000  0.638030  0.078460  1.0  1.1533
  Zn  Zn54  1  0.570690  0.515100  0.836400  1.0  1.1643
  Zn  Zn55  1  0.535140  0.515120  0.336400  1.0  1.1461
  Zn  Zn56  1  0.761990  0.727500  0.085900  1.0  1.1594
  Zn  Zn57  1  0.858880  0.016340  0.828690  1.0  1.1418
  Zn  Zn58  1  0.822200  0.013230  0.326290  1.0  1.1299
  Zn  Zn59  1  0.739740  0.091430  0.575840  1.0  1.14
  Zn  Zn60  1  0.737000  0.138030  0.078460  1.0  1.1504
  Zn  Zn61  1  0.929310  0.015100  0.836400  1.0  1.165
  Zn  Zn62  1  0.964860  0.015120  0.336400  1.0  1.1469
  Zn  Zn63  1  0.738010  0.227500  0.085900  1.0  1.1586
  Zn  Zn64  1  0.358880  0.516340  0.828690  1.0  1.1418
  Zn  Zn65  1  0.322200  0.513230  0.326290  1.0  1.1299
  Zn  Zn66  1  0.239740  0.591430  0.575840  1.0  1.14
  Zn  Zn67  1  0.237000  0.638030  0.078460  1.0  1.1504
  Zn  Zn68  1  0.429310  0.515100  0.836400  1.0  1.165
  Zn  Zn69  1  0.464860  0.515120  0.336400  1.0  1.1469
  Zn  Zn70  1  0.238010  0.727500  0.085900  1.0  1.1586
  Zn  Zn71  1  0.141120  0.483660  0.328690  1.0  1.1419
  Zn  Zn72  1  0.177800  0.486770  0.826290  1.0  1.1315
  Zn  Zn73  1  0.260260  0.408570  0.075840  1.0  1.1403
  Zn  Zn74  1  0.263000  0.361970  0.578460  1.0  1.1517
  Zn  Zn75  1  0.070690  0.484900  0.336400  1.0  1.1641
  Zn  Zn76  1  0.035140  0.484880  0.836400  1.0  1.1466
  Zn  Zn77  1  0.261990  0.272500  0.585900  1.0  1.1592
  Zn  Zn78  1  0.641120  0.983660  0.328690  1.0  1.1419
  Zn  Zn79  1  0.677800  0.986770  0.826290  1.0  1.1315
  Zn  Zn80  1  0.760260  0.908570  0.075840  1.0  1.1403
  Zn  Zn81  1  0.763000  0.861970  0.578460  1.0  1.1517
  Zn  Zn82  1  0.570690  0.984900  0.336400  1.0  1.1641
  Zn  Zn83  1  0.535140  0.984880  0.836400  1.0  1.1466
  Zn  Zn84  1  0.761990  0.772500  0.585900  1.0  1.1592
  Zn  Zn85  1  0.141120  0.516340  0.671310  1.0  1.1429
  Zn  Zn86  1  0.177800  0.513230  0.173710  1.0  1.1304
  Zn  Zn87  1  0.260260  0.591430  0.924160  1.0  1.1398
  Zn  Zn88  1  0.263000  0.638030  0.421540  1.0  1.1533
  Zn  Zn89  1  0.070690  0.515100  0.663600  1.0  1.1646
  Zn  Zn90  1  0.035140  0.515120  0.163600  1.0  1.1459
  Zn  Zn91  1  0.261990  0.727500  0.414100  1.0  1.1596
  Zn  Zn92  1  0.641120  0.016340  0.671310  1.0  1.1429
  Zn  Zn93  1  0.677800  0.013230  0.173710  1.0  1.1304
  Zn  Zn94  1  0.760260  0.091430  0.924160  1.0  1.1398
  Zn  Zn95  1  0.763000  0.138030  0.421540  1.0  1.1533
  Zn  Zn96  1  0.570690  0.015100  0.663600  1.0  1.1646
  Zn  Zn97  1  0.535140  0.015120  0.163600  1.0  1.1459
  Zn  Zn98  1  0.761990  0.227500  0.414100  1.0  1.1596
  Zn  Zn99  1  0.858880  0.983660  0.171310  1.0  1.1444
  Zn  Zn100  1  0.822200  0.986770  0.673710  1.0  1.1296
  Zn  Zn101  1  0.739740  0.908570  0.424160  1.0  1.1396
  Zn  Zn102  1  0.737000  0.861970  0.921540  1.0  1.1522
  Zn  Zn103  1  0.929310  0.984900  0.163600  1.0  1.1651
  Zn  Zn104  1  0.964860  0.984880  0.663600  1.0  1.1469
  Zn  Zn105  1  0.738010  0.772500  0.914100  1.0  1.1587
  Zn  Zn106  1  0.358880  0.483660  0.171310  1.0  1.1444
  Zn  Zn107  1  0.322200  0.486770  0.673710  1.0  1.1296
  Zn  Zn108  1  0.239740  0.408570  0.424160  1.0  1.1396
  Zn  Zn109  1  0.237000  0.361970  0.921540  1.0  1.1522
  Zn  Zn110  1  0.429310  0.484900  0.163600  1.0  1.1651
  Zn  Zn111  1  0.464860  0.484880  0.663600  1.0  1.1469
  Zn  Zn112  1  0.238010  0.272500  0.914100  1.0  1.1587
  Zn  Zn113  1  0.250000  0.817290  0.250000  1.0  0.8388
  Zn  Zn114  1  0.750000  0.682710  0.750000  1.0  0.8389
  Zn  Zn115  1  0.750000  0.317290  0.250000  1.0  0.8388
  Zn  Zn116  1  0.250000  0.182710  0.750000  1.0  0.8389
  Zn  Zn117  1  0.750000  0.182710  0.750000  1.0  0.8389
  Zn  Zn118  1  0.250000  0.317290  0.250000  1.0  0.8388
  Zn  Zn119  1  0.250000  0.682710  0.750000  1.0  0.8389
  Zn  Zn120  1  0.750000  0.817290  0.250000  1.0  0.8388
  Zn  Zn121  1  0.000000  0.000000  0.000000  1.0  0.8804
  Zn  Zn122  1  0.500000  0.500000  0.000000  1.0  0.8804
  Zn  Zn123  1  0.000000  0.500000  0.500000  1.0  0.8804
  Zn  Zn124  1  0.500000  0.000000  0.500000  1.0  0.8804
  Zn  Zn125  1  0.105960  0.000000  0.500000  1.0  0.9243
  Zn  Zn126  1  0.605960  0.500000  0.500000  1.0  0.9243
  Zn  Zn127  1  0.894040  0.500000  0.000000  1.0  0.9243
  Zn  Zn128  1  0.394040  0.000000  0.000000  1.0  0.9243
  Zn  Zn129  1  0.894040  0.000000  0.500000  1.0  0.9243
  Zn  Zn130  1  0.394040  0.500000  0.500000  1.0  0.9243
  Zn  Zn131  1  0.105960  0.500000  0.000000  1.0  0.9243
  Zn  Zn132  1  0.605960  0.000000  0.000000  1.0  0.9243
  Ga  Ga133  1  0.250000  0.972860  0.750000  1.0  1.5227
  Ga  Ga134  1  0.750000  0.527140  0.250000  1.0  1.5231
  Ga  Ga135  1  0.750000  0.472860  0.750000  1.0  1.5227
  Ga  Ga136  1  0.250000  0.027140  0.250000  1.0  1.5231
  Ga  Ga137  1  0.750000  0.027140  0.250000  1.0  1.5231
  Ga  Ga138  1  0.250000  0.527140  0.250000  1.0  1.5231
  Ga  Ga139  1  0.250000  0.472860  0.750000  1.0  1.5227
  Ga  Ga140  1  0.750000  0.972860  0.750000  1.0  1.5227
  Ga  Ga141  1  0.228550  0.000000  0.000000  1.0  1.5644
  Ga  Ga142  1  0.728550  0.500000  0.000000  1.0  1.5644
  Ga  Ga143  1  0.771450  0.500000  0.500000  1.0  1.5632
  Ga  Ga144  1  0.271450  0.000000  0.500000  1.0  1.5632
  Ga  Ga145  1  0.771450  0.000000  0.000000  1.0  1.5632
  Ga  Ga146  1  0.271450  0.500000  0.000000  1.0  1.5632
  Ga  Ga147  1  0.228550  0.500000  0.500000  1.0  1.5644
  Ga  Ga148  1  0.728550  0.000000  0.500000  1.0  1.5644
  P  P149  1  0.259090  0.955460  0.473500  1.0  1.6504
  P  P150  1  0.105660  0.975380  0.218200  1.0  1.4248
  P  P151  1  0.272540  0.890700  0.148100  1.0  1.5262
  P  P152  1  0.154230  0.972600  0.892100  1.0  1.5101
  P  P153  1  0.163670  0.971080  0.397400  1.0  1.4749
  P  P154  1  0.269650  0.816790  0.970000  1.0  0.9439
  P  P155  1  0.271570  0.878260  0.642900  1.0  1.5113
  P  P156  1  0.057610  0.971730  0.896200  1.0  1.4737
  P  P157  1  0.048340  0.972050  0.394400  1.0  0.9313
  P  P158  1  0.214850  0.988520  0.722600  1.0  0.8958
  P  P159  1  0.228200  0.756040  0.859100  1.0  1.5672
  P  P160  1  0.759090  0.455460  0.473500  1.0  1.6504
  P  P161  1  0.605660  0.475380  0.218200  1.0  1.4248
  P  P162  1  0.772540  0.390700  0.148100  1.0  1.5262
  P  P163  1  0.654230  0.472600  0.892100  1.0  1.5101
  P  P164  1  0.663670  0.471080  0.397400  1.0  1.4749
  P  P165  1  0.769650  0.316790  0.970000  1.0  0.9439
  P  P166  1  0.771570  0.378260  0.642900  1.0  1.5113
  P  P167  1  0.557610  0.471730  0.896200  1.0  1.4737
  P  P168  1  0.548340  0.472050  0.394400  1.0  0.9313
  P  P169  1  0.714850  0.488520  0.722600  1.0  0.8958
  P  P170  1  0.728200  0.256040  0.859100  1.0  1.5672
  P  P171  1  0.740910  0.544540  0.973500  1.0  1.6512
  P  P172  1  0.894340  0.524620  0.718200  1.0  1.4238
  P  P173  1  0.727460  0.609300  0.648100  1.0  1.5276
  P  P174  1  0.845770  0.527400  0.392100  1.0  1.508
  P  P175  1  0.836330  0.528920  0.897400  1.0  1.4747
  P  P176  1  0.730350  0.683210  0.470000  1.0  0.9453
  P  P177  1  0.728430  0.621740  0.142900  1.0  1.5105
  P  P178  1  0.942390  0.528270  0.396200  1.0  1.4709
  P  P179  1  0.951660  0.527950  0.894400  1.0  0.942
  P  P180  1  0.785150  0.511480  0.222600  1.0  0.8827
  P  P181  1  0.771800  0.743960  0.359100  1.0  1.5705
  P  P182  1  0.240910  0.044540  0.973500  1.0  1.6512
  P  P183  1  0.394340  0.024620  0.718200  1.0  1.4238
  P  P184  1  0.227460  0.109300  0.648100  1.0  1.5276
  P  P185  1  0.345770  0.027400  0.392100  1.0  1.508
  P  P186  1  0.336330  0.028920  0.897400  1.0  1.4747
  P  P187  1  0.230350  0.183210  0.470000  1.0  0.9453
  P  P188  1  0.228430  0.121740  0.142900  1.0  1.5105
  P  P189  1  0.442390  0.028270  0.396200  1.0  1.4709
  P  P190  1  0.451660  0.027950  0.894400  1.0  0.942
  P  P191  1  0.285150  0.011480  0.222600  1.0  0.8827
  P  P192  1  0.271800  0.243960  0.359100  1.0  1.5705
  P  P193  1  0.740910  0.455460  0.026500  1.0  1.6507
  P  P194  1  0.894340  0.475380  0.281800  1.0  1.4229
  P  P195  1  0.727460  0.390700  0.351900  1.0  1.5265
  P  P196  1  0.845770  0.472600  0.607900  1.0  1.5085
  P  P197  1  0.836330  0.471080  0.102600  1.0  1.4752
  P  P198  1  0.730350  0.316790  0.530000  1.0  0.9469
  P  P199  1  0.728430  0.378260  0.857100  1.0  1.5067
  P  P200  1  0.942390  0.471730  0.603800  1.0  1.4738
  P  P201  1  0.951660  0.472050  0.105600  1.0  0.9288
  P  P202  1  0.785150  0.488520  0.777400  1.0  0.8962
  P  P203  1  0.771800  0.256040  0.640900  1.0  1.5708
  P  P204  1  0.240910  0.955460  0.026500  1.0  1.6507
  P  P205  1  0.394340  0.975380  0.281800  1.0  1.4229
  P  P206  1  0.227460  0.890700  0.351900  1.0  1.5265
  P  P207  1  0.345770  0.972600  0.607900  1.0  1.5085
  P  P208  1  0.336330  0.971080  0.102600  1.0  1.4752
  P  P209  1  0.230350  0.816790  0.530000  1.0  0.9469
  P  P210  1  0.228430  0.878260  0.857100  1.0  1.5067
  P  P211  1  0.442390  0.971730  0.603800  1.0  1.4738
  P  P212  1  0.451660  0.972050  0.105600  1.0  0.9288
  P  P213  1  0.285150  0.988520  0.777400  1.0  0.8962
  P  P214  1  0.271800  0.756040  0.640900  1.0  1.5708
  P  P215  1  0.259090  0.044540  0.526500  1.0  1.6513
  P  P216  1  0.105660  0.024620  0.781800  1.0  1.4225
  P  P217  1  0.272540  0.109300  0.851900  1.0  1.5262
  P  P218  1  0.154230  0.027400  0.107900  1.0  1.5066
  P  P219  1  0.163670  0.028920  0.602600  1.0  1.4742
  P  P220  1  0.269650  0.183210  0.030000  1.0  0.9452
  P  P221  1  0.271570  0.121740  0.357100  1.0  1.5075
  P  P222  1  0.057610  0.028270  0.103800  1.0  1.4714
  P  P223  1  0.048340  0.027950  0.605600  1.0  0.9391
  P  P224  1  0.214850  0.011480  0.277400  1.0  0.8844
  P  P225  1  0.228200  0.243960  0.140900  1.0  1.5679
  P  P226  1  0.759090  0.544540  0.526500  1.0  1.6513
  P  P227  1  0.605660  0.524620  0.781800  1.0  1.4225
  P  P228  1  0.772540  0.609300  0.851900  1.0  1.5262
  P  P229  1  0.654230  0.527400  0.107900  1.0  1.5066
  P  P230  1  0.663670  0.528920  0.602600  1.0  1.4742
  P  P231  1  0.769650  0.683210  0.030000  1.0  0.9452
  P  P232  1  0.771570  0.621740  0.357100  1.0  1.5075
  P  P233  1  0.557610  0.528270  0.103800  1.0  1.4714
  P  P234  1  0.548340  0.527950  0.605600  1.0  0.9391
  P  P235  1  0.714850  0.511480  0.277400  1.0  0.8844
  P  P236  1  0.728200  0.743960  0.140900  1.0  1.5679
  P  P237  1  0.740910  0.044540  0.526500  1.0  1.6513
  P  P238  1  0.894340  0.024620  0.781800  1.0  1.4222
  P  P239  1  0.727460  0.109300  0.851900  1.0  1.5271
  P  P240  1  0.845770  0.027400  0.107900  1.0  1.5087
  P  P241  1  0.836330  0.028920  0.602600  1.0  1.4743
  P  P242  1  0.730350  0.183210  0.030000  1.0  0.947
  P  P243  1  0.728430  0.121740  0.357100  1.0  1.5097
  P  P244  1  0.942390  0.028270  0.103800  1.0  1.4722
  P  P245  1  0.951660  0.027950  0.605600  1.0  0.9398
  P  P246  1  0.785150  0.011480  0.277400  1.0  0.883
  P  P247  1  0.771800  0.243960  0.140900  1.0  1.5711
  P  P248  1  0.240910  0.544540  0.526500  1.0  1.6513
  P  P249  1  0.394340  0.524620  0.781800  1.0  1.4222
  P  P250  1  0.227460  0.609300  0.851900  1.0  1.5271
  P  P251  1  0.345770  0.527400  0.107900  1.0  1.5087
  P  P252  1  0.336330  0.528920  0.602600  1.0  1.4743
  P  P253  1  0.230350  0.683210  0.030000  1.0  0.947
  P  P254  1  0.228430  0.621740  0.357100  1.0  1.5097
  P  P255  1  0.442390  0.528270  0.103800  1.0  1.4722
  P  P256  1  0.451660  0.527950  0.605600  1.0  0.9398
  P  P257  1  0.285150  0.511480  0.277400  1.0  0.883
  P  P258  1  0.271800  0.743960  0.140900  1.0  1.5711
  P  P259  1  0.259090  0.455460  0.026500  1.0  1.6506
  P  P260  1  0.105660  0.475380  0.281800  1.0  1.4231
  P  P261  1  0.272540  0.390700  0.351900  1.0  1.5257
  P  P262  1  0.154230  0.472600  0.607900  1.0  1.5105
  P  P263  1  0.163670  0.471080  0.102600  1.0  1.4748
  P  P264  1  0.269650  0.316790  0.530000  1.0  0.9455
  P  P265  1  0.271570  0.378260  0.857100  1.0  1.5104
  P  P266  1  0.057610  0.471730  0.603800  1.0  1.4747
  P  P267  1  0.048340  0.472050  0.105600  1.0  0.9288
  P  P268  1  0.214850  0.488520  0.777400  1.0  0.8952
  P  P269  1  0.228200  0.256040  0.640900  1.0  1.5676
  P  P270  1  0.759090  0.955460  0.026500  1.0  1.6506
  P  P271  1  0.605660  0.975380  0.281800  1.0  1.4231
  P  P272  1  0.772540  0.890700  0.351900  1.0  1.5257
  P  P273  1  0.654230  0.972600  0.607900  1.0  1.5105
  P  P274  1  0.663670  0.971080  0.102600  1.0  1.4748
  P  P275  1  0.769650  0.816790  0.530000  1.0  0.9455
  P  P276  1  0.771570  0.878260  0.857100  1.0  1.5104
  P  P277  1  0.557610  0.971730  0.603800  1.0  1.4747
  P  P278  1  0.548340  0.972050  0.105600  1.0  0.9288
  P  P279  1  0.714850  0.988520  0.777400  1.0  0.8952
  P  P280  1  0.728200  0.756040  0.640900  1.0  1.5676
  P  P281  1  0.259090  0.544540  0.973500  1.0  1.6513
  P  P282  1  0.105660  0.524620  0.718200  1.0  1.424
  P  P283  1  0.272540  0.609300  0.648100  1.0  1.5267
  P  P284  1  0.154230  0.527400  0.392100  1.0  1.5059
  P  P285  1  0.163670  0.528920  0.897400  1.0  1.4745
  P  P286  1  0.269650  0.683210  0.470000  1.0  0.9441
  P  P287  1  0.271570  0.621740  0.142900  1.0  1.5082
  P  P288  1  0.057610  0.528270  0.396200  1.0  1.4701
  P  P289  1  0.048340  0.527950  0.894400  1.0  0.9411
  P  P290  1  0.214850  0.511480  0.222600  1.0  0.8843
  P  P291  1  0.228200  0.743960  0.359100  1.0  1.5674
  P  P292  1  0.759090  0.044540  0.973500  1.0  1.6513
  P  P293  1  0.605660  0.024620  0.718200  1.0  1.424
  P  P294  1  0.772540  0.109300  0.648100  1.0  1.5267
  P  P295  1  0.654230  0.027400  0.392100  1.0  1.5059
  P  P296  1  0.663670  0.028920  0.897400  1.0  1.4745
  P  P297  1  0.769650  0.183210  0.470000  1.0  0.9441
  P  P298  1  0.771570  0.121740  0.142900  1.0  1.5082
  P  P299  1  0.557610  0.028270  0.396200  1.0  1.4701
  P  P300  1  0.548340  0.027950  0.894400  1.0  0.9411
  P  P301  1  0.714850  0.011480  0.222600  1.0  0.8843
  P  P302  1  0.728200  0.243960  0.359100  1.0  1.5674
  P  P303  1  0.740910  0.955460  0.473500  1.0  1.6505
  P  P304  1  0.894340  0.975380  0.218200  1.0  1.4246
  P  P305  1  0.727460  0.890700  0.148100  1.0  1.5271
  P  P306  1  0.845770  0.972600  0.892100  1.0  1.5081
  P  P307  1  0.836330  0.971080  0.397400  1.0  1.4753
  P  P308  1  0.730350  0.816790  0.970000  1.0  0.9456
  P  P309  1  0.728430  0.878260  0.642900  1.0  1.5077
  P  P310  1  0.942390  0.971730  0.896200  1.0  1.4727
  P  P311  1  0.951660  0.972050  0.394400  1.0  0.9314
  P  P312  1  0.785150  0.988520  0.722600  1.0  0.8964
  P  P313  1  0.771800  0.756040  0.859100  1.0  1.5703
  P  P314  1  0.240910  0.455460  0.473500  1.0  1.6505
  P  P315  1  0.394340  0.475380  0.218200  1.0  1.4246
  P  P316  1  0.227460  0.390700  0.148100  1.0  1.5271
  P  P317  1  0.345770  0.472600  0.892100  1.0  1.5081
  P  P318  1  0.336330  0.471080  0.397400  1.0  1.4753
  P  P319  1  0.230350  0.316790  0.970000  1.0  0.9456
  P  P320  1  0.228430  0.378260  0.642900  1.0  1.5077
  P  P321  1  0.442390  0.471730  0.896200  1.0  1.4727
  P  P322  1  0.451660  0.472050  0.394400  1.0  0.9314
  P  P323  1  0.285150  0.488520  0.722600  1.0  0.8964
  P  P324  1  0.271800  0.256040  0.859100  1.0  1.5703
  P  P325  1  0.000000  0.974840  0.721200  1.0  0.8477
  P  P326  1  0.500000  0.474840  0.721200  1.0  0.8477
  P  P327  1  0.000000  0.525160  0.221200  1.0  0.8603
  P  P328  1  0.500000  0.025160  0.221200  1.0  0.8603
  P  P329  1  0.000000  0.474840  0.778800  1.0  0.8517
  P  P330  1  0.500000  0.974840  0.778800  1.0  0.8517
  P  P331  1  0.000000  0.025160  0.278800  1.0  0.864
  P  P332  1  0.500000  0.525160  0.278800  1.0  0.864
  H  H333  1  0.244600  0.960700  0.385100  1.0  -0.0573
  H  H334  1  0.104300  0.954000  0.303900  1.0  -0.0365
  H  H335  1  0.290200  0.895300  0.115600  1.0  -0.0148
  H  H336  1  0.149700  0.949700  0.846100  1.0  -0.0446
  H  H337  1  0.168100  0.947300  0.365400  1.0  -0.0314
  H  H338  1  0.287300  0.875300  0.567300  1.0  -0.0207
  H  H339  1  0.062600  0.949100  0.839300  1.0  -0.0502
  H  H340  1  0.213200  0.762700  0.926400  1.0  -0.0338
  H  H341  1  0.744600  0.460700  0.385100  1.0  -0.0573
  H  H342  1  0.604300  0.454000  0.303900  1.0  -0.0365
  H  H343  1  0.790200  0.395300  0.115600  1.0  -0.0148
  H  H344  1  0.649700  0.449700  0.846100  1.0  -0.0446
  H  H345  1  0.668100  0.447300  0.365400  1.0  -0.0314
  H  H346  1  0.787300  0.375300  0.567300  1.0  -0.0207
  H  H347  1  0.562600  0.449100  0.839300  1.0  -0.0502
  H  H348  1  0.713200  0.262700  0.926400  1.0  -0.0338
  H  H349  1  0.755400  0.539300  0.885100  1.0  -0.0581
  H  H350  1  0.895700  0.546000  0.803900  1.0  -0.0349
  H  H351  1  0.709800  0.604700  0.615600  1.0  -0.011
  H  H352  1  0.850300  0.550300  0.346100  1.0  -0.044
  H  H353  1  0.831900  0.552700  0.865400  1.0  -0.0315
  H  H354  1  0.712700  0.624700  0.067300  1.0  -0.0172
  H  H355  1  0.937400  0.550900  0.339300  1.0  -0.0505
  H  H356  1  0.786800  0.737300  0.426400  1.0  -0.0355
  H  H357  1  0.255400  0.039300  0.885100  1.0  -0.0581
  H  H358  1  0.395700  0.046000  0.803900  1.0  -0.0349
  H  H359  1  0.209800  0.104700  0.615600  1.0  -0.011
  H  H360  1  0.350300  0.050300  0.346100  1.0  -0.044
  H  H361  1  0.331900  0.052700  0.865400  1.0  -0.0315
  H  H362  1  0.212700  0.124700  0.067300  1.0  -0.0172
  H  H363  1  0.437400  0.050900  0.339300  1.0  -0.0505
  H  H364  1  0.286800  0.237300  0.426400  1.0  -0.0355
  H  H365  1  0.755400  0.460700  0.114900  1.0  -0.0573
  H  H366  1  0.895700  0.454000  0.196100  1.0  -0.036
  H  H367  1  0.709800  0.395300  0.384400  1.0  -0.011
  H  H368  1  0.850300  0.449700  0.653900  1.0  -0.0453
  H  H369  1  0.831900  0.447300  0.134600  1.0  -0.0321
  H  H370  1  0.712700  0.375300  0.932700  1.0  -0.0188
  H  H371  1  0.937400  0.449100  0.660700  1.0  -0.0519
  H  H372  1  0.786800  0.262700  0.573600  1.0  -0.0344
  H  H373  1  0.255400  0.960700  0.114900  1.0  -0.0573
  H  H374  1  0.395700  0.954000  0.196100  1.0  -0.036
  H  H375  1  0.209800  0.895300  0.384400  1.0  -0.011
  H  H376  1  0.350300  0.949700  0.653900  1.0  -0.0453
  H  H377  1  0.331900  0.947300  0.134600  1.0  -0.0321
  H  H378  1  0.212700  0.875300  0.932700  1.0  -0.0188
  H  H379  1  0.437400  0.949100  0.660700  1.0  -0.0519
  H  H380  1  0.286800  0.762700  0.573600  1.0  -0.0344
  H  H381  1  0.244600  0.039300  0.614900  1.0  -0.0573
  H  H382  1  0.104300  0.046000  0.696100  1.0  -0.0343
  H  H383  1  0.290200  0.104700  0.884400  1.0  -0.0151
  H  H384  1  0.149700  0.050300  0.153900  1.0  -0.044
  H  H385  1  0.168100  0.052700  0.634600  1.0  -0.032
  H  H386  1  0.287300  0.124700  0.432700  1.0  -0.0207
  H  H387  1  0.062600  0.050900  0.160700  1.0  -0.0498
  H  H388  1  0.213200  0.237300  0.073600  1.0  -0.0337
  H  H389  1  0.744600  0.539300  0.614900  1.0  -0.0573
  H  H390  1  0.604300  0.546000  0.696100  1.0  -0.0343
  H  H391  1  0.790200  0.604700  0.884400  1.0  -0.0151
  H  H392  1  0.649700  0.550300  0.153900  1.0  -0.044
  H  H393  1  0.668100  0.552700  0.634600  1.0  -0.032
  H  H394  1  0.787300  0.624700  0.432700  1.0  -0.0207
  H  H395  1  0.562600  0.550900  0.160700  1.0  -0.0498
  H  H396  1  0.713200  0.737300  0.073600  1.0  -0.0337
  H  H397  1  0.755400  0.039300  0.614900  1.0  -0.0578
  H  H398  1  0.895700  0.046000  0.696100  1.0  -0.0344
  H  H399  1  0.709800  0.104700  0.884400  1.0  -0.0113
  H  H400  1  0.850300  0.050300  0.153900  1.0  -0.0431
  H  H401  1  0.831900  0.052700  0.634600  1.0  -0.032
  H  H402  1  0.712700  0.124700  0.432700  1.0  -0.0182
  H  H403  1  0.937400  0.050900  0.160700  1.0  -0.0501
  H  H404  1  0.786800  0.237300  0.073600  1.0  -0.0349
  H  H405  1  0.255400  0.539300  0.614900  1.0  -0.0578
  H  H406  1  0.395700  0.546000  0.696100  1.0  -0.0344
  H  H407  1  0.209800  0.604700  0.884400  1.0  -0.0113
  H  H408  1  0.350300  0.550300  0.153900  1.0  -0.0431
  H  H409  1  0.331900  0.552700  0.634600  1.0  -0.032
  H  H410  1  0.212700  0.624700  0.432700  1.0  -0.0182
  H  H411  1  0.437400  0.550900  0.160700  1.0  -0.0501
  H  H412  1  0.286800  0.737300  0.073600  1.0  -0.0349
  H  H413  1  0.244600  0.460700  0.114900  1.0  -0.0568
  H  H414  1  0.104300  0.454000  0.196100  1.0  -0.0361
  H  H415  1  0.290200  0.395300  0.384400  1.0  -0.0149
  H  H416  1  0.149700  0.449700  0.653900  1.0  -0.0459
  H  H417  1  0.168100  0.447300  0.134600  1.0  -0.032
  H  H418  1  0.287300  0.375300  0.932700  1.0  -0.0213
  H  H419  1  0.062600  0.449100  0.660700  1.0  -0.0517
  H  H420  1  0.213200  0.262700  0.573600  1.0  -0.0332
  H  H421  1  0.744600  0.960700  0.114900  1.0  -0.0568
  H  H422  1  0.604300  0.954000  0.196100  1.0  -0.0361
  H  H423  1  0.790200  0.895300  0.384400  1.0  -0.0149
  H  H424  1  0.649700  0.949700  0.653900  1.0  -0.0459
  H  H425  1  0.668100  0.947300  0.134600  1.0  -0.032
  H  H426  1  0.787300  0.875300  0.932700  1.0  -0.0213
  H  H427  1  0.562600  0.949100  0.660700  1.0  -0.0517
  H  H428  1  0.713200  0.762700  0.573600  1.0  -0.0332
  H  H429  1  0.244600  0.539300  0.885100  1.0  -0.0575
  H  H430  1  0.104300  0.546000  0.803900  1.0  -0.0346
  H  H431  1  0.290200  0.604700  0.615600  1.0  -0.0147
  H  H432  1  0.149700  0.550300  0.346100  1.0  -0.0448
  H  H433  1  0.168100  0.552700  0.865400  1.0  -0.0315
  H  H434  1  0.287300  0.624700  0.067300  1.0  -0.0198
  H  H435  1  0.062600  0.550900  0.339300  1.0  -0.0498
  H  H436  1  0.213200  0.737300  0.426400  1.0  -0.0342
  H  H437  1  0.744600  0.039300  0.885100  1.0  -0.0575
  H  H438  1  0.604300  0.046000  0.803900  1.0  -0.0346
  H  H439  1  0.790200  0.104700  0.615600  1.0  -0.0147
  H  H440  1  0.649700  0.050300  0.346100  1.0  -0.0448
  H  H441  1  0.668100  0.052700  0.865400  1.0  -0.0315
  H  H442  1  0.787300  0.124700  0.067300  1.0  -0.0198
  H  H443  1  0.562600  0.050900  0.339300  1.0  -0.0498
  H  H444  1  0.713200  0.237300  0.426400  1.0  -0.0342
  H  H445  1  0.755400  0.960700  0.385100  1.0  -0.0579
  H  H446  1  0.895700  0.954000  0.303900  1.0  -0.0367
  H  H447  1  0.709800  0.895300  0.115600  1.0  -0.0109
  H  H448  1  0.850300  0.949700  0.846100  1.0  -0.044
  H  H449  1  0.831900  0.947300  0.365400  1.0  -0.0316
  H  H450  1  0.712700  0.875300  0.567300  1.0  -0.0182
  H  H451  1  0.937400  0.949100  0.839300  1.0  -0.0506
  H  H452  1  0.786800  0.762700  0.926400  1.0  -0.035
  H  H453  1  0.255400  0.460700  0.385100  1.0  -0.0579
  H  H454  1  0.395700  0.454000  0.303900  1.0  -0.0367
  H  H455  1  0.209800  0.395300  0.115600  1.0  -0.0109
  H  H456  1  0.350300  0.449700  0.846100  1.0  -0.044
  H  H457  1  0.331900  0.447300  0.365400  1.0  -0.0316
  H  H458  1  0.212700  0.375300  0.567300  1.0  -0.0182
  H  H459  1  0.437400  0.449100  0.839300  1.0  -0.0506
  H  H460  1  0.286800  0.262700  0.926400  1.0  -0.035
  O  O461  1  0.271490  0.972170  0.453100  1.0  -0.7688
  O  O462  1  0.253940  0.952440  0.619300  1.0  -0.7855
  O  O463  1  0.265610  0.936040  0.414300  1.0  -0.7944
  O  O464  1  0.120110  0.974440  0.134500  1.0  -0.6997
  O  O465  1  0.091900  0.975840  0.126600  1.0  -0.6928
  O  O466  1  0.106050  0.992420  0.307800  1.0  -0.7129
  O  O467  1  0.270760  0.891040  0.298300  1.0  -0.7846
  O  O468  1  0.270050  0.869300  0.100100  1.0  -0.7383
  O  O469  1  0.262750  0.906250  0.074300  1.0  -0.747
  O  O470  1  0.153930  0.971410  0.042900  1.0  -0.7543
  O  O471  1  0.170470  0.977930  0.850600  1.0  -0.7034
  O  O472  1  0.141490  0.987070  0.836600  1.0  -0.7321
  O  O473  1  0.146720  0.975140  0.347000  1.0  -0.7417
  O  O474  1  0.175590  0.983160  0.328600  1.0  -0.6702
  O  O475  1  0.164170  0.973750  0.544200  1.0  -0.7296
  O  O476  1  0.270090  0.835690  0.884700  1.0  -0.7273
  O  O477  1  0.269010  0.799510  0.874900  1.0  -0.6794
  O  O478  1  0.256300  0.817340  0.056600  1.0  -0.6806
  O  O479  1  0.267500  0.898830  0.602900  1.0  -0.6857
  O  O480  1  0.260230  0.862260  0.585500  1.0  -0.7303
  O  O481  1  0.272680  0.878510  0.793300  1.0  -0.7687
  O  O482  1  0.056710  0.972320  0.042400  1.0  -0.6926
  O  O483  1  0.040800  0.976590  0.843100  1.0  -0.7361
  O  O484  1  0.070190  0.986000  0.842800  1.0  -0.7535
  O  O485  1  0.048780  0.971520  0.541500  1.0  -0.6987
  O  O486  1  0.035250  0.986500  0.338400  1.0  -0.7473
  O  O487  1  0.064690  0.975850  0.344600  1.0  -0.6975
  O  O488  1  0.199740  0.980330  0.663600  1.0  -0.763
  O  O489  1  0.227920  0.972480  0.703300  1.0  -0.7818
  O  O490  1  0.212460  0.994780  0.867500  1.0  -0.7592
  O  O491  1  0.239180  0.772500  0.911700  1.0  -0.7618
  O  O492  1  0.230920  0.735070  0.906300  1.0  -0.7209
  O  O493  1  0.227820  0.755200  0.713800  1.0  -0.6865
  O  O494  1  0.013970  0.976190  0.628000  1.0  -0.7046
  O  O495  1  0.771490  0.472170  0.453100  1.0  -0.7688
  O  O496  1  0.753940  0.452440  0.619300  1.0  -0.7855
  O  O497  1  0.765610  0.436040  0.414300  1.0  -0.7944
  O  O498  1  0.620110  0.474440  0.134500  1.0  -0.6997
  O  O499  1  0.591900  0.475840  0.126600  1.0  -0.6928
  O  O500  1  0.606050  0.492420  0.307800  1.0  -0.7129
  O  O501  1  0.770760  0.391040  0.298300  1.0  -0.7846
  O  O502  1  0.770050  0.369300  0.100100  1.0  -0.7383
  O  O503  1  0.762750  0.406250  0.074300  1.0  -0.747
  O  O504  1  0.653930  0.471410  0.042900  1.0  -0.7543
  O  O505  1  0.670470  0.477930  0.850600  1.0  -0.7034
  O  O506  1  0.641490  0.487070  0.836600  1.0  -0.7321
  O  O507  1  0.646720  0.475140  0.347000  1.0  -0.7417
  O  O508  1  0.675590  0.483160  0.328600  1.0  -0.6702
  O  O509  1  0.664170  0.473750  0.544200  1.0  -0.7296
  O  O510  1  0.770090  0.335690  0.884700  1.0  -0.7273
  O  O511  1  0.769010  0.299510  0.874900  1.0  -0.6794
  O  O512  1  0.756300  0.317340  0.056600  1.0  -0.6806
  O  O513  1  0.767500  0.398830  0.602900  1.0  -0.6857
  O  O514  1  0.760230  0.362260  0.585500  1.0  -0.7303
  O  O515  1  0.772680  0.378510  0.793300  1.0  -0.7687
  O  O516  1  0.556710  0.472320  0.042400  1.0  -0.6926
  O  O517  1  0.540800  0.476590  0.843100  1.0  -0.7361
  O  O518  1  0.570190  0.486000  0.842800  1.0  -0.7535
  O  O519  1  0.548780  0.471520  0.541500  1.0  -0.6987
  O  O520  1  0.535250  0.486500  0.338400  1.0  -0.7473
  O  O521  1  0.564690  0.475850  0.344600  1.0  -0.6975
  O  O522  1  0.699740  0.480330  0.663600  1.0  -0.763
  O  O523  1  0.727920  0.472480  0.703300  1.0  -0.7818
  O  O524  1  0.712460  0.494780  0.867500  1.0  -0.7592
  O  O525  1  0.739180  0.272500  0.911700  1.0  -0.7618
  O  O526  1  0.730920  0.235070  0.906300  1.0  -0.7209
  O  O527  1  0.727820  0.255200  0.713800  1.0  -0.6865
  O  O528  1  0.513970  0.476190  0.628000  1.0  -0.7046
  O  O529  1  0.728510  0.527830  0.953100  1.0  -0.7678
  O  O530  1  0.746060  0.547560  0.119300  1.0  -0.7859
  O  O531  1  0.734390  0.563960  0.914300  1.0  -0.7928
  O  O532  1  0.879890  0.525560  0.634500  1.0  -0.6977
  O  O533  1  0.908100  0.524160  0.626600  1.0  -0.692
  O  O534  1  0.893950  0.507580  0.807800  1.0  -0.7151
  O  O535  1  0.729240  0.608960  0.798300  1.0  -0.7837
  O  O536  1  0.729950  0.630700  0.600100  1.0  -0.7387
  O  O537  1  0.737250  0.593750  0.574300  1.0  -0.748
  O  O538  1  0.846070  0.528590  0.542900  1.0  -0.7551
  O  O539  1  0.829530  0.522070  0.350600  1.0  -0.7042
  O  O540  1  0.858510  0.512930  0.336600  1.0  -0.7322
  O  O541  1  0.853280  0.524860  0.847000  1.0  -0.7435
  O  O542  1  0.824410  0.516840  0.828600  1.0  -0.6699
  O  O543  1  0.835830  0.526250  0.044200  1.0  -0.727
  O  O544  1  0.729910  0.664310  0.384700  1.0  -0.7285
  O  O545  1  0.730990  0.700490  0.374900  1.0  -0.6793
  O  O546  1  0.743700  0.682660  0.556600  1.0  -0.6818
  O  O547  1  0.732500  0.601170  0.102900  1.0  -0.6863
  O  O548  1  0.739770  0.637740  0.085500  1.0  -0.7301
  O  O549  1  0.727320  0.621490  0.293300  1.0  -0.7693
  O  O550  1  0.943290  0.527680  0.542400  1.0  -0.6925
  O  O551  1  0.959200  0.523410  0.343100  1.0  -0.7373
  O  O552  1  0.929810  0.514000  0.342800  1.0  -0.7551
  O  O553  1  0.951220  0.528480  0.041500  1.0  -0.6974
  O  O554  1  0.964750  0.513500  0.838400  1.0  -0.7467
  O  O555  1  0.935310  0.524150  0.844600  1.0  -0.6969
  O  O556  1  0.800260  0.519670  0.163600  1.0  -0.7625
  O  O557  1  0.772080  0.527520  0.203300  1.0  -0.7819
  O  O558  1  0.787540  0.505220  0.367500  1.0  -0.7577
  O  O559  1  0.760820  0.727500  0.411700  1.0  -0.7625
  O  O560  1  0.769080  0.764930  0.406300  1.0  -0.7175
  O  O561  1  0.772180  0.744800  0.213800  1.0  -0.685
  O  O562  1  0.986030  0.523810  0.128000  1.0  -0.7033
  O  O563  1  0.228510  0.027830  0.953100  1.0  -0.7678
  O  O564  1  0.246060  0.047560  0.119300  1.0  -0.7859
  O  O565  1  0.234390  0.063960  0.914300  1.0  -0.7928
  O  O566  1  0.379890  0.025560  0.634500  1.0  -0.6977
  O  O567  1  0.408100  0.024160  0.626600  1.0  -0.692
  O  O568  1  0.393950  0.007580  0.807800  1.0  -0.7151
  O  O569  1  0.229240  0.108960  0.798300  1.0  -0.7837
  O  O570  1  0.229950  0.130700  0.600100  1.0  -0.7387
  O  O571  1  0.237250  0.093750  0.574300  1.0  -0.748
  O  O572  1  0.346070  0.028590  0.542900  1.0  -0.7551
  O  O573  1  0.329530  0.022070  0.350600  1.0  -0.7042
  O  O574  1  0.358510  0.012930  0.336600  1.0  -0.7322
  O  O575  1  0.353280  0.024860  0.847000  1.0  -0.7435
  O  O576  1  0.324410  0.016840  0.828600  1.0  -0.6699
  O  O577  1  0.335830  0.026250  0.044200  1.0  -0.727
  O  O578  1  0.229910  0.164310  0.384700  1.0  -0.7285
  O  O579  1  0.230990  0.200490  0.374900  1.0  -0.6793
  O  O580  1  0.243700  0.182660  0.556600  1.0  -0.6818
  O  O581  1  0.232500  0.101170  0.102900  1.0  -0.6863
  O  O582  1  0.239770  0.137740  0.085500  1.0  -0.7301
  O  O583  1  0.227320  0.121490  0.293300  1.0  -0.7693
  O  O584  1  0.443290  0.027680  0.542400  1.0  -0.6925
  O  O585  1  0.459200  0.023410  0.343100  1.0  -0.7373
  O  O586  1  0.429810  0.014000  0.342800  1.0  -0.7551
  O  O587  1  0.451220  0.028480  0.041500  1.0  -0.6974
  O  O588  1  0.464750  0.013500  0.838400  1.0  -0.7467
  O  O589  1  0.435310  0.024150  0.844600  1.0  -0.6969
  O  O590  1  0.300260  0.019670  0.163600  1.0  -0.7625
  O  O591  1  0.272080  0.027520  0.203300  1.0  -0.7819
  O  O592  1  0.287540  0.005220  0.367500  1.0  -0.7577
  O  O593  1  0.260820  0.227500  0.411700  1.0  -0.7625
  O  O594  1  0.269080  0.264930  0.406300  1.0  -0.7175
  O  O595  1  0.272180  0.244800  0.213800  1.0  -0.685
  O  O596  1  0.486030  0.023810  0.128000  1.0  -0.7033
  O  O597  1  0.728510  0.472170  0.046900  1.0  -0.7668
  O  O598  1  0.746060  0.452440  0.880700  1.0  -0.7846
  O  O599  1  0.734390  0.436040  0.085700  1.0  -0.7937
  O  O600  1  0.879890  0.474440  0.365500  1.0  -0.7003
  O  O601  1  0.908100  0.475840  0.373400  1.0  -0.6928
  O  O602  1  0.893950  0.492420  0.192200  1.0  -0.7126
  O  O603  1  0.729240  0.391040  0.201700  1.0  -0.7854
  O  O604  1  0.729950  0.369300  0.399900  1.0  -0.7398
  O  O605  1  0.737250  0.406250  0.425700  1.0  -0.7478
  O  O606  1  0.846070  0.471410  0.457100  1.0  -0.7545
  O  O607  1  0.829530  0.477930  0.649400  1.0  -0.7017
  O  O608  1  0.858510  0.487070  0.663400  1.0  -0.7319
  O  O609  1  0.853280  0.475140  0.153000  1.0  -0.7417
  O  O610  1  0.824410  0.483160  0.171400  1.0  -0.6697
  O  O611  1  0.835830  0.473750  0.955800  1.0  -0.7285
  O  O612  1  0.729910  0.335690  0.615300  1.0  -0.7279
  O  O613  1  0.730990  0.299510  0.625100  1.0  -0.6814
  O  O614  1  0.743700  0.317340  0.443400  1.0  -0.6813
  O  O615  1  0.732500  0.398830  0.897100  1.0  -0.6877
  O  O616  1  0.739770  0.362260  0.914500  1.0  -0.7302
  O  O617  1  0.727320  0.378510  0.706700  1.0  -0.77
  O  O618  1  0.943290  0.472320  0.457600  1.0  -0.6919
  O  O619  1  0.959200  0.476590  0.656900  1.0  -0.7368
  O  O620  1  0.929810  0.486000  0.657200  1.0  -0.7545
  O  O621  1  0.951220  0.471520  0.958500  1.0  -0.6988
  O  O622  1  0.964750  0.486500  0.161600  1.0  -0.7488
  O  O623  1  0.935310  0.475850  0.155400  1.0  -0.6971
  O  O624  1  0.800260  0.480330  0.836400  1.0  -0.764
  O  O625  1  0.772080  0.472480  0.796700  1.0  -0.7818
  O  O626  1  0.787540  0.494780  0.632500  1.0  -0.758
  O  O627  1  0.760820  0.272500  0.588300  1.0  -0.7617
  O  O628  1  0.769080  0.235070  0.593700  1.0  -0.7183
  O  O629  1  0.772180  0.255200  0.786200  1.0  -0.6849
  O  O630  1  0.986030  0.476190  0.872000  1.0  -0.7068
  O  O631  1  0.228510  0.972170  0.046900  1.0  -0.7668
  O  O632  1  0.246060  0.952440  0.880700  1.0  -0.7846
  O  O633  1  0.234390  0.936040  0.085700  1.0  -0.7937
  O  O634  1  0.379890  0.974440  0.365500  1.0  -0.7003
  O  O635  1  0.408100  0.975840  0.373400  1.0  -0.6928
  O  O636  1  0.393950  0.992420  0.192200  1.0  -0.7126
  O  O637  1  0.229240  0.891040  0.201700  1.0  -0.7854
  O  O638  1  0.229950  0.869300  0.399900  1.0  -0.7398
  O  O639  1  0.237250  0.906250  0.425700  1.0  -0.7478
  O  O640  1  0.346070  0.971410  0.457100  1.0  -0.7545
  O  O641  1  0.329530  0.977930  0.649400  1.0  -0.7017
  O  O642  1  0.358510  0.987070  0.663400  1.0  -0.7319
  O  O643  1  0.353280  0.975140  0.153000  1.0  -0.7417
  O  O644  1  0.324410  0.983160  0.171400  1.0  -0.6697
  O  O645  1  0.335830  0.973750  0.955800  1.0  -0.7285
  O  O646  1  0.229910  0.835690  0.615300  1.0  -0.7279
  O  O647  1  0.230990  0.799510  0.625100  1.0  -0.6814
  O  O648  1  0.243700  0.817340  0.443400  1.0  -0.6813
  O  O649  1  0.232500  0.898830  0.897100  1.0  -0.6877
  O  O650  1  0.239770  0.862260  0.914500  1.0  -0.7302
  O  O651  1  0.227320  0.878510  0.706700  1.0  -0.77
  O  O652  1  0.443290  0.972320  0.457600  1.0  -0.6919
  O  O653  1  0.459200  0.976590  0.656900  1.0  -0.7368
  O  O654  1  0.429810  0.986000  0.657200  1.0  -0.7545
  O  O655  1  0.451220  0.971520  0.958500  1.0  -0.6988
  O  O656  1  0.464750  0.986500  0.161600  1.0  -0.7488
  O  O657  1  0.435310  0.975850  0.155400  1.0  -0.6971
  O  O658  1  0.300260  0.980330  0.836400  1.0  -0.764
  O  O659  1  0.272080  0.972480  0.796700  1.0  -0.7818
  O  O660  1  0.287540  0.994780  0.632500  1.0  -0.758
  O  O661  1  0.260820  0.772500  0.588300  1.0  -0.7617
  O  O662  1  0.269080  0.735070  0.593700  1.0  -0.7183
  O  O663  1  0.272180  0.755200  0.786200  1.0  -0.6849
  O  O664  1  0.486030  0.976190  0.872000  1.0  -0.7068
  O  O665  1  0.271490  0.027830  0.546900  1.0  -0.7698
  O  O666  1  0.253940  0.047560  0.380700  1.0  -0.7861
  O  O667  1  0.265610  0.063960  0.585700  1.0  -0.7936
  O  O668  1  0.120110  0.025560  0.865500  1.0  -0.6986
  O  O669  1  0.091900  0.024160  0.873400  1.0  -0.6925
  O  O670  1  0.106050  0.007580  0.692200  1.0  -0.7149
  O  O671  1  0.270760  0.108960  0.701700  1.0  -0.784
  O  O672  1  0.270050  0.130700  0.899900  1.0  -0.7381
  O  O673  1  0.262750  0.093750  0.925700  1.0  -0.7471
  O  O674  1  0.153930  0.028590  0.957100  1.0  -0.7541
  O  O675  1  0.170470  0.022070  0.149400  1.0  -0.7035
  O  O676  1  0.141490  0.012930  0.163400  1.0  -0.7334
  O  O677  1  0.146720  0.024860  0.653000  1.0  -0.7426
  O  O678  1  0.175590  0.016840  0.671400  1.0  -0.6707
  O  O679  1  0.164170  0.026250  0.455800  1.0  -0.7284
  O  O680  1  0.270090  0.164310  0.115300  1.0  -0.728
  O  O681  1  0.269010  0.200490  0.125100  1.0  -0.6804
  O  O682  1  0.256300  0.182660  0.943400  1.0  -0.6809
  O  O683  1  0.267500  0.101170  0.397100  1.0  -0.6865
  O  O684  1  0.260230  0.137740  0.414500  1.0  -0.7298
  O  O685  1  0.272680  0.121490  0.206700  1.0  -0.7689
  O  O686  1  0.056710  0.027680  0.957600  1.0  -0.6935
  O  O687  1  0.040800  0.023410  0.156900  1.0  -0.7373
  O  O688  1  0.070190  0.014000  0.157200  1.0  -0.7546
  O  O689  1  0.048780  0.028480  0.458500  1.0  -0.6981
  O  O690  1  0.035250  0.013500  0.661600  1.0  -0.746
  O  O691  1  0.064690  0.024150  0.655400  1.0  -0.6974
  O  O692  1  0.199740  0.019670  0.336400  1.0  -0.7643
  O  O693  1  0.227920  0.027520  0.296700  1.0  -0.7841
  O  O694  1  0.212460  0.005220  0.132500  1.0  -0.7597
  O  O695  1  0.239180  0.227500  0.088300  1.0  -0.7632
  O  O696  1  0.230920  0.264930  0.093700  1.0  -0.7186
  O  O697  1  0.227820  0.244800  0.286200  1.0  -0.6864
  O  O698  1  0.013970  0.023810  0.372000  1.0  -0.7057
  O  O699  1  0.771490  0.527830  0.546900  1.0  -0.7698
  O  O700  1  0.753940  0.547560  0.380700  1.0  -0.7861
  O  O701  1  0.765610  0.563960  0.585700  1.0  -0.7936
  O  O702  1  0.620110  0.525560  0.865500  1.0  -0.6986
  O  O703  1  0.591900  0.524160  0.873400  1.0  -0.6925
  O  O704  1  0.606050  0.507580  0.692200  1.0  -0.7149
  O  O705  1  0.770760  0.608960  0.701700  1.0  -0.784
  O  O706  1  0.770050  0.630700  0.899900  1.0  -0.7381
  O  O707  1  0.762750  0.593750  0.925700  1.0  -0.7471
  O  O708  1  0.653930  0.528590  0.957100  1.0  -0.7541
  O  O709  1  0.670470  0.522070  0.149400  1.0  -0.7035
  O  O710  1  0.641490  0.512930  0.163400  1.0  -0.7334
  O  O711  1  0.646720  0.524860  0.653000  1.0  -0.7426
  O  O712  1  0.675590  0.516840  0.671400  1.0  -0.6707
  O  O713  1  0.664170  0.526250  0.455800  1.0  -0.7284
  O  O714  1  0.770090  0.664310  0.115300  1.0  -0.728
  O  O715  1  0.769010  0.700490  0.125100  1.0  -0.6804
  O  O716  1  0.756300  0.682660  0.943400  1.0  -0.6809
  O  O717  1  0.767500  0.601170  0.397100  1.0  -0.6865
  O  O718  1  0.760230  0.637740  0.414500  1.0  -0.7298
  O  O719  1  0.772680  0.621490  0.206700  1.0  -0.7689
  O  O720  1  0.556710  0.527680  0.957600  1.0  -0.6935
  O  O721  1  0.540800  0.523410  0.156900  1.0  -0.7373
  O  O722  1  0.570190  0.514000  0.157200  1.0  -0.7546
  O  O723  1  0.548780  0.528480  0.458500  1.0  -0.6981
  O  O724  1  0.535250  0.513500  0.661600  1.0  -0.746
  O  O725  1  0.564690  0.524150  0.655400  1.0  -0.6974
  O  O726  1  0.699740  0.519670  0.336400  1.0  -0.7643
  O  O727  1  0.727920  0.527520  0.296700  1.0  -0.7841
  O  O728  1  0.712460  0.505220  0.132500  1.0  -0.7597
  O  O729  1  0.739180  0.727500  0.088300  1.0  -0.7632
  O  O730  1  0.730920  0.764930  0.093700  1.0  -0.7186
  O  O731  1  0.727820  0.744800  0.286200  1.0  -0.6864
  O  O732  1  0.513970  0.523810  0.372000  1.0  -0.7057
  O  O733  1  0.728510  0.027830  0.546900  1.0  -0.7678
  O  O734  1  0.746060  0.047560  0.380700  1.0  -0.7862
  O  O735  1  0.734390  0.063960  0.585700  1.0  -0.7931
  O  O736  1  0.879890  0.025560  0.865500  1.0  -0.6985
  O  O737  1  0.908100  0.024160  0.873400  1.0  -0.6924
  O  O738  1  0.893950  0.007580  0.692200  1.0  -0.7149
  O  O739  1  0.729240  0.108960  0.701700  1.0  -0.7845
  O  O740  1  0.729950  0.130700  0.899900  1.0  -0.7396
  O  O741  1  0.737250  0.093750  0.925700  1.0  -0.7474
  O  O742  1  0.846070  0.028590  0.957100  1.0  -0.755
  O  O743  1  0.829530  0.022070  0.149400  1.0  -0.7028
  O  O744  1  0.858510  0.012930  0.163400  1.0  -0.7327
  O  O745  1  0.853280  0.024860  0.653000  1.0  -0.7428
  O  O746  1  0.824410  0.016840  0.671400  1.0  -0.6703
  O  O747  1  0.835830  0.026250  0.455800  1.0  -0.7277
  O  O748  1  0.729910  0.164310  0.115300  1.0  -0.7281
  O  O749  1  0.730990  0.200490  0.125100  1.0  -0.6806
  O  O750  1  0.743700  0.182660  0.943400  1.0  -0.6813
  O  O751  1  0.732500  0.101170  0.397100  1.0  -0.6875
  O  O752  1  0.739770  0.137740  0.414500  1.0  -0.7301
  O  O753  1  0.727320  0.121490  0.206700  1.0  -0.7701
  O  O754  1  0.943290  0.027680  0.957600  1.0  -0.6931
  O  O755  1  0.959200  0.023410  0.156900  1.0  -0.7374
  O  O756  1  0.929810  0.014000  0.157200  1.0  -0.7554
  O  O757  1  0.951220  0.028480  0.458500  1.0  -0.6981
  O  O758  1  0.964750  0.013500  0.661600  1.0  -0.7474
  O  O759  1  0.935310  0.024150  0.655400  1.0  -0.6972
  O  O760  1  0.800260  0.019670  0.336400  1.0  -0.7632
  O  O761  1  0.772080  0.027520  0.296700  1.0  -0.7829
  O  O762  1  0.787540  0.005220  0.132500  1.0  -0.7571
  O  O763  1  0.760820  0.227500  0.088300  1.0  -0.7626
  O  O764  1  0.769080  0.264930  0.093700  1.0  -0.7163
  O  O765  1  0.772180  0.244800  0.286200  1.0  -0.6849
  O  O766  1  0.986030  0.023810  0.372000  1.0  -0.705
  O  O767  1  0.228510  0.527830  0.546900  1.0  -0.7678
  O  O768  1  0.246060  0.547560  0.380700  1.0  -0.7862
  O  O769  1  0.234390  0.563960  0.585700  1.0  -0.7931
  O  O770  1  0.379890  0.525560  0.865500  1.0  -0.6985
  O  O771  1  0.408100  0.524160  0.873400  1.0  -0.6924
  O  O772  1  0.393950  0.507580  0.692200  1.0  -0.7149
  O  O773  1  0.229240  0.608960  0.701700  1.0  -0.7845
  O  O774  1  0.229950  0.630700  0.899900  1.0  -0.7396
  O  O775  1  0.237250  0.593750  0.925700  1.0  -0.7474
  O  O776  1  0.346070  0.528590  0.957100  1.0  -0.755
  O  O777  1  0.329530  0.522070  0.149400  1.0  -0.7028
  O  O778  1  0.358510  0.512930  0.163400  1.0  -0.7327
  O  O779  1  0.353280  0.524860  0.653000  1.0  -0.7428
  O  O780  1  0.324410  0.516840  0.671400  1.0  -0.6703
  O  O781  1  0.335830  0.526250  0.455800  1.0  -0.7277
  O  O782  1  0.229910  0.664310  0.115300  1.0  -0.7281
  O  O783  1  0.230990  0.700490  0.125100  1.0  -0.6806
  O  O784  1  0.243700  0.682660  0.943400  1.0  -0.6813
  O  O785  1  0.232500  0.601170  0.397100  1.0  -0.6875
  O  O786  1  0.239770  0.637740  0.414500  1.0  -0.7301
  O  O787  1  0.227320  0.621490  0.206700  1.0  -0.7701
  O  O788  1  0.443290  0.527680  0.957600  1.0  -0.6931
  O  O789  1  0.459200  0.523410  0.156900  1.0  -0.7374
  O  O790  1  0.429810  0.514000  0.157200  1.0  -0.7554
  O  O791  1  0.451220  0.528480  0.458500  1.0  -0.6981
  O  O792  1  0.464750  0.513500  0.661600  1.0  -0.7474
  O  O793  1  0.435310  0.524150  0.655400  1.0  -0.6972
  O  O794  1  0.300260  0.519670  0.336400  1.0  -0.7632
  O  O795  1  0.272080  0.527520  0.296700  1.0  -0.7829
  O  O796  1  0.287540  0.505220  0.132500  1.0  -0.7571
  O  O797  1  0.260820  0.727500  0.088300  1.0  -0.7626
  O  O798  1  0.269080  0.764930  0.093700  1.0  -0.7163
  O  O799  1  0.272180  0.744800  0.286200  1.0  -0.6849
  O  O800  1  0.486030  0.523810  0.372000  1.0  -0.705
  O  O801  1  0.271490  0.472170  0.046900  1.0  -0.769
  O  O802  1  0.253940  0.452440  0.880700  1.0  -0.7847
  O  O803  1  0.265610  0.436040  0.085700  1.0  -0.794
  O  O804  1  0.120110  0.474440  0.365500  1.0  -0.7004
  O  O805  1  0.091900  0.475840  0.373400  1.0  -0.6927
  O  O806  1  0.106050  0.492420  0.192200  1.0  -0.7126
  O  O807  1  0.270760  0.391040  0.201700  1.0  -0.7852
  O  O808  1  0.270050  0.369300  0.399900  1.0  -0.7392
  O  O809  1  0.262750  0.406250  0.425700  1.0  -0.7473
  O  O810  1  0.153930  0.471410  0.457100  1.0  -0.7537
  O  O811  1  0.170470  0.477930  0.649400  1.0  -0.7024
  O  O812  1  0.141490  0.487070  0.663400  1.0  -0.7323
  O  O813  1  0.146720  0.475140  0.153000  1.0  -0.7417
  O  O814  1  0.175590  0.483160  0.171400  1.0  -0.6701
  O  O815  1  0.164170  0.473750  0.955800  1.0  -0.7298
  O  O816  1  0.270090  0.335690  0.615300  1.0  -0.7273
  O  O817  1  0.269010  0.299510  0.625100  1.0  -0.6807
  O  O818  1  0.256300  0.317340  0.443400  1.0  -0.681
  O  O819  1  0.267500  0.398830  0.897100  1.0  -0.6861
  O  O820  1  0.260230  0.362260  0.914500  1.0  -0.7301
  O  O821  1  0.272680  0.378510  0.706700  1.0  -0.7686
  O  O822  1  0.056710  0.472320  0.457600  1.0  -0.6923
  O  O823  1  0.040800  0.476590  0.656900  1.0  -0.7366
  O  O824  1  0.070190  0.486000  0.657200  1.0  -0.7535
  O  O825  1  0.048780  0.471520  0.958500  1.0  -0.6984
  O  O826  1  0.035250  0.486500  0.161600  1.0  -0.7478
  O  O827  1  0.064690  0.475850  0.155400  1.0  -0.6979
  O  O828  1  0.199740  0.480330  0.836400  1.0  -0.764
  O  O829  1  0.227920  0.472480  0.796700  1.0  -0.7829
  O  O830  1  0.212460  0.494780  0.632500  1.0  -0.7588
  O  O831  1  0.239180  0.272500  0.588300  1.0  -0.7622
  O  O832  1  0.230920  0.235070  0.593700  1.0  -0.7198
  O  O833  1  0.227820  0.255200  0.786200  1.0  -0.6859
  O  O834  1  0.013970  0.476190  0.872000  1.0  -0.7071
  O  O835  1  0.771490  0.972170  0.046900  1.0  -0.769
  O  O836  1  0.753940  0.952440  0.880700  1.0  -0.7847
  O  O837  1  0.765610  0.936040  0.085700  1.0  -0.794
  O  O838  1  0.620110  0.974440  0.365500  1.0  -0.7004
  O  O839  1  0.591900  0.975840  0.373400  1.0  -0.6927
  O  O840  1  0.606050  0.992420  0.192200  1.0  -0.7126
  O  O841  1  0.770760  0.891040  0.201700  1.0  -0.7852
  O  O842  1  0.770050  0.869300  0.399900  1.0  -0.7392
  O  O843  1  0.762750  0.906250  0.425700  1.0  -0.7473
  O  O844  1  0.653930  0.971410  0.457100  1.0  -0.7537
  O  O845  1  0.670470  0.977930  0.649400  1.0  -0.7024
  O  O846  1  0.641490  0.987070  0.663400  1.0  -0.7323
  O  O847  1  0.646720  0.975140  0.153000  1.0  -0.7417
  O  O848  1  0.675590  0.983160  0.171400  1.0  -0.6701
  O  O849  1  0.664170  0.973750  0.955800  1.0  -0.7298
  O  O850  1  0.770090  0.835690  0.615300  1.0  -0.7273
  O  O851  1  0.769010  0.799510  0.625100  1.0  -0.6807
  O  O852  1  0.756300  0.817340  0.443400  1.0  -0.681
  O  O853  1  0.767500  0.898830  0.897100  1.0  -0.6861
  O  O854  1  0.760230  0.862260  0.914500  1.0  -0.7301
  O  O855  1  0.772680  0.878510  0.706700  1.0  -0.7686
  O  O856  1  0.556710  0.972320  0.457600  1.0  -0.6923
  O  O857  1  0.540800  0.976590  0.656900  1.0  -0.7366
  O  O858  1  0.570190  0.986000  0.657200  1.0  -0.7535
  O  O859  1  0.548780  0.971520  0.958500  1.0  -0.6984
  O  O860  1  0.535250  0.986500  0.161600  1.0  -0.7478
  O  O861  1  0.564690  0.975850  0.155400  1.0  -0.6979
  O  O862  1  0.699740  0.980330  0.836400  1.0  -0.764
  O  O863  1  0.727920  0.972480  0.796700  1.0  -0.7829
  O  O864  1  0.712460  0.994780  0.632500  1.0  -0.7588
  O  O865  1  0.739180  0.772500  0.588300  1.0  -0.7622
  O  O866  1  0.730920  0.735070  0.593700  1.0  -0.7198
  O  O867  1  0.727820  0.755200  0.786200  1.0  -0.6859
  O  O868  1  0.513970  0.976190  0.872000  1.0  -0.7071
  O  O869  1  0.271490  0.527830  0.953100  1.0  -0.769
  O  O870  1  0.253940  0.547560  0.119300  1.0  -0.7858
  O  O871  1  0.265610  0.563960  0.914300  1.0  -0.7935
  O  O872  1  0.120110  0.525560  0.634500  1.0  -0.6976
  O  O873  1  0.091900  0.524160  0.626600  1.0  -0.6921
  O  O874  1  0.106050  0.507580  0.807800  1.0  -0.7151
  O  O875  1  0.270760  0.608960  0.798300  1.0  -0.7838
  O  O876  1  0.270050  0.630700  0.600100  1.0  -0.7371
  O  O877  1  0.262750  0.593750  0.574300  1.0  -0.7472
  O  O878  1  0.153930  0.528590  0.542900  1.0  -0.7542
  O  O879  1  0.170470  0.522070  0.350600  1.0  -0.7051
  O  O880  1  0.141490  0.512930  0.336600  1.0  -0.7329
  O  O881  1  0.146720  0.524860  0.847000  1.0  -0.7429
  O  O882  1  0.175590  0.516840  0.828600  1.0  -0.6703
  O  O883  1  0.164170  0.526250  0.044200  1.0  -0.7274
  O  O884  1  0.270090  0.664310  0.384700  1.0  -0.7282
  O  O885  1  0.269010  0.700490  0.374900  1.0  -0.6791
  O  O886  1  0.256300  0.682660  0.556600  1.0  -0.6806
  O  O887  1  0.267500  0.601170  0.102900  1.0  -0.6855
  O  O888  1  0.260230  0.637740  0.085500  1.0  -0.7299
  O  O889  1  0.272680  0.621490  0.293300  1.0  -0.7687
  O  O890  1  0.056710  0.527680  0.542400  1.0  -0.693
  O  O891  1  0.040800  0.523410  0.343100  1.0  -0.7369
  O  O892  1  0.070190  0.514000  0.342800  1.0  -0.754
  O  O893  1  0.048780  0.528480  0.041500  1.0  -0.6976
  O  O894  1  0.035250  0.513500  0.838400  1.0  -0.7456
  O  O895  1  0.064690  0.524150  0.844600  1.0  -0.6971
  O  O896  1  0.199740  0.519670  0.163600  1.0  -0.7639
  O  O897  1  0.227920  0.527520  0.203300  1.0  -0.7818
  O  O898  1  0.212460  0.505220  0.367500  1.0  -0.7602
  O  O899  1  0.239180  0.727500  0.411700  1.0  -0.7625
  O  O900  1  0.230920  0.764930  0.406300  1.0  -0.7198
  O  O901  1  0.227820  0.744800  0.213800  1.0  -0.6866
  O  O902  1  0.013970  0.523810  0.128000  1.0  -0.7038
  O  O903  1  0.771490  0.027830  0.953100  1.0  -0.769
  O  O904  1  0.753940  0.047560  0.119300  1.0  -0.7858
  O  O905  1  0.765610  0.063960  0.914300  1.0  -0.7935
  O  O906  1  0.620110  0.025560  0.634500  1.0  -0.6976
  O  O907  1  0.591900  0.024160  0.626600  1.0  -0.6921
  O  O908  1  0.606050  0.007580  0.807800  1.0  -0.7151
  O  O909  1  0.770760  0.108960  0.798300  1.0  -0.7838
  O  O910  1  0.770050  0.130700  0.600100  1.0  -0.7371
  O  O911  1  0.762750  0.093750  0.574300  1.0  -0.7472
  O  O912  1  0.653930  0.028590  0.542900  1.0  -0.7542
  O  O913  1  0.670470  0.022070  0.350600  1.0  -0.7051
  O  O914  1  0.641490  0.012930  0.336600  1.0  -0.7329
  O  O915  1  0.646720  0.024860  0.847000  1.0  -0.7429
  O  O916  1  0.675590  0.016840  0.828600  1.0  -0.6703
  O  O917  1  0.664170  0.026250  0.044200  1.0  -0.7274
  O  O918  1  0.770090  0.164310  0.384700  1.0  -0.7282
  O  O919  1  0.769010  0.200490  0.374900  1.0  -0.6791
  O  O920  1  0.756300  0.182660  0.556600  1.0  -0.6806
  O  O921  1  0.767500  0.101170  0.102900  1.0  -0.6855
  O  O922  1  0.760230  0.137740  0.085500  1.0  -0.7299
  O  O923  1  0.772680  0.121490  0.293300  1.0  -0.7687
  O  O924  1  0.556710  0.027680  0.542400  1.0  -0.693
  O  O925  1  0.540800  0.023410  0.343100  1.0  -0.7369
  O  O926  1  0.570190  0.014000  0.342800  1.0  -0.754
  O  O927  1  0.548780  0.028480  0.041500  1.0  -0.6976
  O  O928  1  0.535250  0.013500  0.838400  1.0  -0.7456
  O  O929  1  0.564690  0.024150  0.844600  1.0  -0.6971
  O  O930  1  0.699740  0.019670  0.163600  1.0  -0.7639
  O  O931  1  0.727920  0.027520  0.203300  1.0  -0.7818
  O  O932  1  0.712460  0.005220  0.367500  1.0  -0.7602
  O  O933  1  0.739180  0.227500  0.411700  1.0  -0.7625
  O  O934  1  0.730920  0.264930  0.406300  1.0  -0.7198
  O  O935  1  0.727820  0.244800  0.213800  1.0  -0.6866
  O  O936  1  0.513970  0.023810  0.128000  1.0  -0.7038
  O  O937  1  0.728510  0.972170  0.453100  1.0  -0.7672
  O  O938  1  0.746060  0.952440  0.619300  1.0  -0.7855
  O  O939  1  0.734390  0.936040  0.414300  1.0  -0.7938
  O  O940  1  0.879890  0.974440  0.134500  1.0  -0.6997
  O  O941  1  0.908100  0.975840  0.126600  1.0  -0.6928
  O  O942  1  0.893950  0.992420  0.307800  1.0  -0.7128
  O  O943  1  0.729240  0.891040  0.298300  1.0  -0.7839
  O  O944  1  0.729950  0.869300  0.100100  1.0  -0.7389
  O  O945  1  0.737250  0.906250  0.074300  1.0  -0.7476
  O  O946  1  0.846070  0.971410  0.042900  1.0  -0.755
  O  O947  1  0.829530  0.977930  0.850600  1.0  -0.7026
  O  O948  1  0.858510  0.987070  0.836600  1.0  -0.732
  O  O949  1  0.853280  0.975140  0.347000  1.0  -0.742
  O  O950  1  0.824410  0.983160  0.328600  1.0  -0.6696
  O  O951  1  0.835830  0.973750  0.544200  1.0  -0.7284
  O  O952  1  0.729910  0.835690  0.884700  1.0  -0.7279
  O  O953  1  0.730990  0.799510  0.874900  1.0  -0.6802
  O  O954  1  0.743700  0.817340  0.056600  1.0  -0.6817
  O  O955  1  0.732500  0.898830  0.602900  1.0  -0.6873
  O  O956  1  0.739770  0.862260  0.585500  1.0  -0.7303
  O  O957  1  0.727320  0.878510  0.793300  1.0  -0.7696
  O  O958  1  0.943290  0.972320  0.042400  1.0  -0.6924
  O  O959  1  0.959200  0.976590  0.843100  1.0  -0.7366
  O  O960  1  0.929810  0.986000  0.842800  1.0  -0.7546
  O  O961  1  0.951220  0.971520  0.541500  1.0  -0.6989
  O  O962  1  0.964750  0.986500  0.338400  1.0  -0.7483
  O  O963  1  0.935310  0.975850  0.344600  1.0  -0.6966
  O  O964  1  0.800260  0.980330  0.663600  1.0  -0.7628
  O  O965  1  0.772080  0.972480  0.703300  1.0  -0.7816
  O  O966  1  0.787540  0.994780  0.867500  1.0  -0.7587
  O  O967  1  0.760820  0.772500  0.911700  1.0  -0.7618
  O  O968  1  0.769080  0.735070  0.906300  1.0  -0.7193
  O  O969  1  0.772180  0.755200  0.713800  1.0  -0.6851
  O  O970  1  0.986030  0.976190  0.628000  1.0  -0.7042
  O  O971  1  0.228510  0.472170  0.453100  1.0  -0.7672
  O  O972  1  0.246060  0.452440  0.619300  1.0  -0.7855
  O  O973  1  0.234390  0.436040  0.414300  1.0  -0.7938
  O  O974  1  0.379890  0.474440  0.134500  1.0  -0.6997
  O  O975  1  0.408100  0.475840  0.126600  1.0  -0.6928
  O  O976  1  0.393950  0.492420  0.307800  1.0  -0.7128
  O  O977  1  0.229240  0.391040  0.298300  1.0  -0.7839
  O  O978  1  0.229950  0.369300  0.100100  1.0  -0.7389
  O  O979  1  0.237250  0.406250  0.074300  1.0  -0.7476
  O  O980  1  0.346070  0.471410  0.042900  1.0  -0.755
  O  O981  1  0.329530  0.477930  0.850600  1.0  -0.7026
  O  O982  1  0.358510  0.487070  0.836600  1.0  -0.732
  O  O983  1  0.353280  0.475140  0.347000  1.0  -0.742
  O  O984  1  0.324410  0.483160  0.328600  1.0  -0.6696
  O  O985  1  0.335830  0.473750  0.544200  1.0  -0.7284
  O  O986  1  0.229910  0.335690  0.884700  1.0  -0.7279
  O  O987  1  0.230990  0.299510  0.874900  1.0  -0.6802
  O  O988  1  0.243700  0.317340  0.056600  1.0  -0.6817
  O  O989  1  0.232500  0.398830  0.602900  1.0  -0.6873
  O  O990  1  0.239770  0.362260  0.585500  1.0  -0.7303
  O  O991  1  0.227320  0.378510  0.793300  1.0  -0.7696
  O  O992  1  0.443290  0.472320  0.042400  1.0  -0.6924
  O  O993  1  0.459200  0.476590  0.843100  1.0  -0.7366
  O  O994  1  0.429810  0.486000  0.842800  1.0  -0.7546
  O  O995  1  0.451220  0.471520  0.541500  1.0  -0.6989
  O  O996  1  0.464750  0.486500  0.338400  1.0  -0.7483
  O  O997  1  0.435310  0.475850  0.344600  1.0  -0.6966
  O  O998  1  0.300260  0.480330  0.663600  1.0  -0.7628
  O  O999  1  0.272080  0.472480  0.703300  1.0  -0.7816
  O  O1000  1  0.287540  0.494780  0.867500  1.0  -0.7587
  O  O1001  1  0.260820  0.272500  0.911700  1.0  -0.7618
  O  O1002  1  0.269080  0.235070  0.906300  1.0  -0.7193
  O  O1003  1  0.272180  0.255200  0.713800  1.0  -0.6851
  O  O1004  1  0.486030  0.476190  0.628000  1.0  -0.7042
  O  O1005  1  0.000000  0.993700  0.801400  1.0  -0.7127
  O  O1006  1  0.500000  0.493700  0.801400  1.0  -0.7127
  O  O1007  1  0.000000  0.506300  0.301400  1.0  -0.7123
  O  O1008  1  0.500000  0.006300  0.301400  1.0  -0.7123
  O  O1009  1  0.000000  0.493700  0.698600  1.0  -0.7129
  O  O1010  1  0.500000  0.993700  0.698600  1.0  -0.7129
  O  O1011  1  0.000000  0.006300  0.198600  1.0  -0.7123
  O  O1012  1  0.500000  0.506300  0.198600  1.0  -0.7123
  F  F1013  1  0.254060  0.994920  0.624400  1.0  -0.5377
  F  F1014  1  0.754060  0.494920  0.624400  1.0  -0.5377
  F  F1015  1  0.745940  0.505080  0.124400  1.0  -0.5388
  F  F1016  1  0.245940  0.005080  0.124400  1.0  -0.5388
  F  F1017  1  0.745940  0.494920  0.875600  1.0  -0.5378
  F  F1018  1  0.245940  0.994920  0.875600  1.0  -0.5378
  F  F1019  1  0.254060  0.005080  0.375600  1.0  -0.5385
  F  F1020  1  0.754060  0.505080  0.375600  1.0  -0.5385
  F  F1021  1  0.745940  0.005080  0.375600  1.0  -0.5387
  F  F1022  1  0.245940  0.505080  0.375600  1.0  -0.5387
  F  F1023  1  0.254060  0.494920  0.875600  1.0  -0.5377
  F  F1024  1  0.754060  0.994920  0.875600  1.0  -0.5377
  F  F1025  1  0.254060  0.505080  0.124400  1.0  -0.5385
  F  F1026  1  0.754060  0.005080  0.124400  1.0  -0.5385
  F  F1027  1  0.745940  0.994920  0.624400  1.0  -0.5378
  F  F1028  1  0.245940  0.494920  0.624400  1.0  -0.5378
