# generated using pymatgen
data_MgH5C11O5
_symmetry_space_group_name_H-M   'P 1'
_cell_length_a   30.47870000
_cell_length_b   30.47870000
_cell_length_c   30.47870000
_cell_angle_alpha   109.47100000
_cell_angle_beta   109.47100000
_cell_angle_gamma   109.47100000
_symmetry_Int_Tables_number   1
_chemical_formula_structural   MgH5C11O5
_chemical_formula_sum   'Mg48 H240 C528 O240'
_cell_volume   21795.70767500
_cell_formula_units_Z   48
loop_
 _symmetry_equiv_pos_site_id
 _symmetry_equiv_pos_as_xyz
  1  'x, y, z'
loop_
 _atom_site_type_symbol
 _atom_site_label
 _atom_site_symmetry_multiplicity
 _atom_site_fract_x
 _atom_site_fract_y
 _atom_site_fract_z
 _atom_site_occupancy
 _atom_site_charge
  Mg  Mg1  1  0.769400  0.215400  0.215400  1.0  1.5711
  Mg  Mg2  1  0.673500  0.243000  0.243000  1.0  1.5074
  Mg  Mg3  1  0.000000  0.554000  0.784600  1.0  1.5737
  Mg  Mg4  1  0.000000  0.430500  0.757000  1.0  1.5033
  Mg  Mg5  1  0.000000  0.784600  0.554000  1.0  1.5715
  Mg  Mg6  1  0.000000  0.757000  0.430500  1.0  1.5053
  Mg  Mg7  1  0.230600  0.446000  0.446000  1.0  1.5766
  Mg  Mg8  1  0.326500  0.569500  0.569500  1.0  1.5063
  Mg  Mg9  1  0.554000  0.000000  0.784600  1.0  1.5728
  Mg  Mg10  1  0.430500  0.000000  0.757000  1.0  1.504
  Mg  Mg11  1  0.446000  0.230600  0.446000  1.0  1.5765
  Mg  Mg12  1  0.569500  0.326500  0.569500  1.0  1.5062
  Mg  Mg13  1  0.215400  0.769400  0.215400  1.0  1.571
  Mg  Mg14  1  0.243000  0.673500  0.243000  1.0  1.5076
  Mg  Mg15  1  0.784600  0.000000  0.554000  1.0  1.5705
  Mg  Mg16  1  0.757000  0.000000  0.430500  1.0  1.4934
  Mg  Mg17  1  0.554000  0.784600  0.000000  1.0  1.5741
  Mg  Mg18  1  0.430500  0.757000  0.000000  1.0  1.5055
  Mg  Mg19  1  0.215400  0.215400  0.769400  1.0  1.5678
  Mg  Mg20  1  0.243000  0.243000  0.673500  1.0  1.5074
  Mg  Mg21  1  0.446000  0.446000  0.230600  1.0  1.5767
  Mg  Mg22  1  0.569500  0.569500  0.326500  1.0  1.5041
  Mg  Mg23  1  0.784600  0.554000  0.000000  1.0  1.5734
  Mg  Mg24  1  0.757000  0.430500  0.000000  1.0  1.5062
  Mg  Mg25  1  0.784600  0.230600  0.784600  1.0  1.5712
  Mg  Mg26  1  0.757000  0.326500  0.757000  1.0  1.5074
  Mg  Mg27  1  0.446000  0.000000  0.215400  1.0  1.5711
  Mg  Mg28  1  0.569500  0.000000  0.243000  1.0  1.5072
  Mg  Mg29  1  0.215400  0.000000  0.446000  1.0  1.5707
  Mg  Mg30  1  0.243000  0.000000  0.569500  1.0  1.4952
  Mg  Mg31  1  0.554000  0.769400  0.554000  1.0  1.5784
  Mg  Mg32  1  0.430500  0.673500  0.430500  1.0  1.5069
  Mg  Mg33  1  0.000000  0.446000  0.215400  1.0  1.573
  Mg  Mg34  1  0.000000  0.569500  0.243000  1.0  1.5072
  Mg  Mg35  1  0.769400  0.554000  0.554000  1.0  1.5782
  Mg  Mg36  1  0.673500  0.430500  0.430500  1.0  1.5086
  Mg  Mg37  1  0.230600  0.784600  0.784600  1.0  1.5702
  Mg  Mg38  1  0.326500  0.757000  0.757000  1.0  1.5054
  Mg  Mg39  1  0.000000  0.215400  0.446000  1.0  1.5708
  Mg  Mg40  1  0.000000  0.243000  0.569500  1.0  1.5064
  Mg  Mg41  1  0.215400  0.446000  0.000000  1.0  1.5732
  Mg  Mg42  1  0.243000  0.569500  0.000000  1.0  1.5084
  Mg  Mg43  1  0.784600  0.784600  0.230600  1.0  1.5671
  Mg  Mg44  1  0.757000  0.757000  0.326500  1.0  1.5066
  Mg  Mg45  1  0.554000  0.554000  0.769400  1.0  1.5773
  Mg  Mg46  1  0.430500  0.430500  0.673500  1.0  1.5068
  Mg  Mg47  1  0.446000  0.215400  0.000000  1.0  1.5722
  Mg  Mg48  1  0.569500  0.243000  0.000000  1.0  1.5051
  H  H49  1  0.673900  0.349100  0.272400  1.0  0.0746
  H  H50  1  0.611300  0.311400  0.247500  1.0  0.1189
  H  H51  1  0.758300  0.320200  0.374300  1.0  0.0866
  H  H52  1  0.796500  0.272700  0.132600  1.0  0.0862
  H  H53  1  0.076700  0.401500  0.727600  1.0  0.0691
  H  H54  1  0.063900  0.363800  0.752500  1.0  0.1208
  H  H55  1  0.945900  0.384000  0.625700  1.0  0.0883
  H  H56  1  0.140100  0.663900  0.867400  1.0  0.0846
  H  H57  1  0.923300  0.650900  0.324800  1.0  0.0726
  H  H58  1  0.936100  0.688600  0.299900  1.0  0.1178
  H  H59  1  0.054100  0.679800  0.438100  1.0  0.0889
  H  H60  1  0.859900  0.727300  0.523800  1.0  0.0863
  H  H61  1  0.326100  0.598500  0.675200  1.0  0.0652
  H  H62  1  0.388700  0.636200  0.700100  1.0  0.1239
  H  H63  1  0.241700  0.616000  0.561900  1.0  0.0886
  H  H64  1  0.203500  0.336100  0.476200  1.0  0.0851
  H  H65  1  0.324800  0.923300  0.650900  1.0  0.0721
  H  H66  1  0.299900  0.936100  0.688600  1.0  0.1201
  H  H67  1  0.438100  0.054100  0.679800  1.0  0.0893
  H  H68  1  0.523800  0.859900  0.727300  1.0  0.0855
  H  H69  1  0.675200  0.326100  0.598500  1.0  0.0723
  H  H70  1  0.700100  0.388700  0.636200  1.0  0.1138
  H  H71  1  0.561900  0.241700  0.616000  1.0  0.0884
  H  H72  1  0.476200  0.203500  0.336100  1.0  0.0865
  H  H73  1  0.272400  0.673900  0.349100  1.0  0.0743
  H  H74  1  0.247500  0.611300  0.311400  1.0  0.1095
  H  H75  1  0.374300  0.758300  0.320200  1.0  0.0874
  H  H76  1  0.132600  0.796500  0.272700  1.0  0.0855
  H  H77  1  0.727600  0.076700  0.401500  1.0  0.0704
  H  H78  1  0.752500  0.063900  0.363800  1.0  0.1191
  H  H79  1  0.625700  0.945900  0.384000  1.0  0.0891
  H  H80  1  0.867400  0.140100  0.663900  1.0  0.0856
  H  H81  1  0.401500  0.727600  0.076700  1.0  0.0721
  H  H82  1  0.363800  0.752500  0.063900  1.0  0.1127
  H  H83  1  0.384000  0.625700  0.945900  1.0  0.0886
  H  H84  1  0.663900  0.867400  0.140100  1.0  0.086
  H  H85  1  0.349100  0.272400  0.673900  1.0  0.0706
  H  H86  1  0.311400  0.247500  0.611300  1.0  0.1095
  H  H87  1  0.320200  0.374300  0.758300  1.0  0.088
  H  H88  1  0.272700  0.132600  0.796500  1.0  0.0858
  H  H89  1  0.598500  0.675200  0.326100  1.0  0.0684
  H  H90  1  0.636200  0.700100  0.388700  1.0  0.1204
  H  H91  1  0.616000  0.561900  0.241700  1.0  0.088
  H  H92  1  0.336100  0.476200  0.203500  1.0  0.0844
  H  H93  1  0.650900  0.324800  0.923300  1.0  0.0752
  H  H94  1  0.688600  0.299900  0.936100  1.0  0.1208
  H  H95  1  0.679800  0.438100  0.054100  1.0  0.0875
  H  H96  1  0.727300  0.523800  0.859900  1.0  0.0868
  H  H97  1  0.650900  0.326100  0.727600  1.0  0.077
  H  H98  1  0.688600  0.388700  0.752500  1.0  0.1154
  H  H99  1  0.679800  0.241700  0.625700  1.0  0.0878
  H  H100  1  0.727300  0.203500  0.867400  1.0  0.0865
  H  H101  1  0.598500  0.923300  0.272400  1.0  0.0713
  H  H102  1  0.636200  0.936100  0.247500  1.0  0.117
  H  H103  1  0.616000  0.054100  0.374300  1.0  0.0892
  H  H104  1  0.336100  0.859900  0.132600  1.0  0.0856
  H  H105  1  0.349100  0.076700  0.675200  1.0  0.0727
  H  H106  1  0.311400  0.063900  0.700100  1.0  0.1176
  H  H107  1  0.320200  0.945900  0.561900  1.0  0.0893
  H  H108  1  0.272700  0.140100  0.476200  1.0  0.085
  H  H109  1  0.401500  0.673900  0.324800  1.0  0.0725
  H  H110  1  0.363800  0.611300  0.299900  1.0  0.1106
  H  H111  1  0.384000  0.758300  0.438100  1.0  0.0891
  H  H112  1  0.663900  0.796500  0.523800  1.0  0.0855
  H  H113  1  0.076700  0.675200  0.349100  1.0  0.0722
  H  H114  1  0.063900  0.700100  0.311400  1.0  0.1195
  H  H115  1  0.945900  0.561900  0.320200  1.0  0.0882
  H  H116  1  0.140100  0.476200  0.272700  1.0  0.0856
  H  H117  1  0.673900  0.324800  0.401500  1.0  0.074
  H  H118  1  0.611300  0.299900  0.363800  1.0  0.1172
  H  H119  1  0.758300  0.438100  0.384000  1.0  0.0883
  H  H120  1  0.796500  0.523800  0.663900  1.0  0.0859
  H  H121  1  0.326100  0.727600  0.650900  1.0  0.0708
  H  H122  1  0.388700  0.752500  0.688600  1.0  0.1134
  H  H123  1  0.241700  0.625700  0.679800  1.0  0.0886
  H  H124  1  0.203500  0.867400  0.727300  1.0  0.0866
  H  H125  1  0.923300  0.272400  0.598500  1.0  0.0695
  H  H126  1  0.936100  0.247500  0.636200  1.0  0.1076
  H  H127  1  0.054100  0.374300  0.616000  1.0  0.0891
  H  H128  1  0.859900  0.132600  0.336100  1.0  0.0853
  H  H129  1  0.272400  0.598500  0.923300  1.0  0.0674
  H  H130  1  0.247500  0.636200  0.936100  1.0  0.116
  H  H131  1  0.374300  0.616000  0.054100  1.0  0.0887
  H  H132  1  0.132600  0.336100  0.859900  1.0  0.0846
  H  H133  1  0.727600  0.650900  0.326100  1.0  0.0727
  H  H134  1  0.752500  0.688600  0.388700  1.0  0.1195
  H  H135  1  0.625700  0.679800  0.241700  1.0  0.0881
  H  H136  1  0.867400  0.727300  0.203500  1.0  0.0848
  H  H137  1  0.324800  0.401500  0.673900  1.0  0.0689
  H  H138  1  0.299900  0.363800  0.611300  1.0  0.1178
  H  H139  1  0.438100  0.384000  0.758300  1.0  0.0886
  H  H140  1  0.523800  0.663900  0.796500  1.0  0.085
  H  H141  1  0.675200  0.349100  0.076700  1.0  0.0773
  H  H142  1  0.700100  0.311400  0.063900  1.0  0.1208
  H  H143  1  0.561900  0.320200  0.945900  1.0  0.0888
  H  H144  1  0.476200  0.272700  0.140100  1.0  0.087
  H  H145  1  0.326100  0.650900  0.727600  1.0  0.0758
  H  H146  1  0.388700  0.688600  0.752500  1.0  0.1203
  H  H147  1  0.241700  0.679800  0.625700  1.0  0.0881
  H  H148  1  0.203500  0.727300  0.867400  1.0  0.0872
  H  H149  1  0.923300  0.598500  0.272400  1.0  0.0674
  H  H150  1  0.936100  0.636200  0.247500  1.0  0.1178
  H  H151  1  0.054100  0.616000  0.374300  1.0  0.0884
  H  H152  1  0.859900  0.336100  0.132600  1.0  0.0842
  H  H153  1  0.076700  0.349100  0.675200  1.0  0.0718
  H  H154  1  0.063900  0.311400  0.700100  1.0  0.1194
  H  H155  1  0.945900  0.320200  0.561900  1.0  0.089
  H  H156  1  0.140100  0.272700  0.476200  1.0  0.0852
  H  H157  1  0.673900  0.401500  0.324800  1.0  0.0661
  H  H158  1  0.611300  0.363800  0.299900  1.0  0.1183
  H  H159  1  0.758300  0.384000  0.438100  1.0  0.089
  H  H160  1  0.796500  0.663900  0.523800  1.0  0.0853
  H  H161  1  0.675200  0.076700  0.349100  1.0  0.0719
  H  H162  1  0.700100  0.063900  0.311400  1.0  0.1185
  H  H163  1  0.561900  0.945900  0.320200  1.0  0.0896
  H  H164  1  0.476200  0.140100  0.272700  1.0  0.0859
  H  H165  1  0.324800  0.673900  0.401500  1.0  0.0736
  H  H166  1  0.299900  0.611300  0.363800  1.0  0.1114
  H  H167  1  0.438100  0.758300  0.384000  1.0  0.0888
  H  H168  1  0.523800  0.796500  0.663900  1.0  0.0863
  H  H169  1  0.727600  0.326100  0.650900  1.0  0.0724
  H  H170  1  0.752500  0.388700  0.688600  1.0  0.1148
  H  H171  1  0.625700  0.241700  0.679800  1.0  0.088
  H  H172  1  0.867400  0.203500  0.727300  1.0  0.0859
  H  H173  1  0.272400  0.923300  0.598500  1.0  0.0692
  H  H174  1  0.247500  0.936100  0.636200  1.0  0.1142
  H  H175  1  0.374300  0.054100  0.616000  1.0  0.0888
  H  H176  1  0.132600  0.859900  0.336100  1.0  0.0848
  H  H177  1  0.598500  0.272400  0.923300  1.0  0.0689
  H  H178  1  0.636200  0.247500  0.936100  1.0  0.1076
  H  H179  1  0.616000  0.374300  0.054100  1.0  0.0903
  H  H180  1  0.336100  0.132600  0.859900  1.0  0.0866
  H  H181  1  0.650900  0.727600  0.326100  1.0  0.0697
  H  H182  1  0.688600  0.752500  0.388700  1.0  0.1122
  H  H183  1  0.679800  0.625700  0.241700  1.0  0.0883
  H  H184  1  0.727300  0.867400  0.203500  1.0  0.0853
  H  H185  1  0.401500  0.324800  0.673900  1.0  0.0721
  H  H186  1  0.363800  0.299900  0.611300  1.0  0.1192
  H  H187  1  0.384000  0.438100  0.758300  1.0  0.0878
  H  H188  1  0.663900  0.523800  0.796500  1.0  0.0849
  H  H189  1  0.349100  0.675200  0.076700  1.0  0.0754
  H  H190  1  0.311400  0.700100  0.063900  1.0  0.1175
  H  H191  1  0.320200  0.561900  0.945900  1.0  0.0873
  H  H192  1  0.272700  0.476200  0.140100  1.0  0.0862
  H  H193  1  0.349100  0.673900  0.272400  1.0  0.0743
  H  H194  1  0.311400  0.611300  0.247500  1.0  0.1129
  H  H195  1  0.320200  0.758300  0.374300  1.0  0.0874
  H  H196  1  0.272700  0.796500  0.132600  1.0  0.0864
  H  H197  1  0.401500  0.076700  0.727600  1.0  0.0703
  H  H198  1  0.363800  0.063900  0.752500  1.0  0.1199
  H  H199  1  0.384000  0.945900  0.625700  1.0  0.089
  H  H200  1  0.663900  0.140100  0.867400  1.0  0.085
  H  H201  1  0.650900  0.923300  0.324800  1.0  0.0694
  H  H202  1  0.688600  0.936100  0.299900  1.0  0.1196
  H  H203  1  0.679800  0.054100  0.438100  1.0  0.0894
  H  H204  1  0.727300  0.859900  0.523800  1.0  0.0859
  H  H205  1  0.598500  0.326100  0.675200  1.0  0.07
  H  H206  1  0.636200  0.388700  0.700100  1.0  0.1121
  H  H207  1  0.616000  0.241700  0.561900  1.0  0.0882
  H  H208  1  0.336100  0.203500  0.476200  1.0  0.0851
  H  H209  1  0.923300  0.324800  0.650900  1.0  0.0686
  H  H210  1  0.936100  0.299900  0.688600  1.0  0.1222
  H  H211  1  0.054100  0.438100  0.679800  1.0  0.0875
  H  H212  1  0.859900  0.523800  0.727300  1.0  0.0851
  H  H213  1  0.326100  0.675200  0.598500  1.0  0.0712
  H  H214  1  0.388700  0.700100  0.636200  1.0  0.1177
  H  H215  1  0.241700  0.561900  0.616000  1.0  0.0875
  H  H216  1  0.203500  0.476200  0.336100  1.0  0.0863
  H  H217  1  0.673900  0.272400  0.349100  1.0  0.0705
  H  H218  1  0.611300  0.247500  0.311400  1.0  0.1103
  H  H219  1  0.758300  0.374300  0.320200  1.0  0.0883
  H  H220  1  0.796500  0.132600  0.272700  1.0  0.0859
  H  H221  1  0.076700  0.727600  0.401500  1.0  0.0705
  H  H222  1  0.063900  0.752500  0.363800  1.0  0.1117
  H  H223  1  0.945900  0.625700  0.384000  1.0  0.0889
  H  H224  1  0.140100  0.867400  0.663900  1.0  0.0857
  H  H225  1  0.727600  0.401500  0.076700  1.0  0.0662
  H  H226  1  0.752500  0.363800  0.063900  1.0  0.1225
  H  H227  1  0.625700  0.384000  0.945900  1.0  0.0879
  H  H228  1  0.867400  0.663900  0.140100  1.0  0.0854
  H  H229  1  0.272400  0.349100  0.673900  1.0  0.0724
  H  H230  1  0.247500  0.311400  0.611300  1.0  0.1156
  H  H231  1  0.374300  0.320200  0.758300  1.0  0.0874
  H  H232  1  0.132600  0.272700  0.796500  1.0  0.0855
  H  H233  1  0.675200  0.598500  0.326100  1.0  0.0652
  H  H234  1  0.700100  0.636200  0.388700  1.0  0.1198
  H  H235  1  0.561900  0.616000  0.241700  1.0  0.0894
  H  H236  1  0.476200  0.336100  0.203500  1.0  0.0845
  H  H237  1  0.324800  0.650900  0.923300  1.0  0.0738
  H  H238  1  0.299900  0.688600  0.936100  1.0  0.1203
  H  H239  1  0.438100  0.679800  0.054100  1.0  0.0883
  H  H240  1  0.523800  0.727300  0.859900  1.0  0.0864
  H  H241  1  0.856100  0.229300  0.373200  1.0  0.092
  H  H242  1  0.856100  0.482900  0.626800  1.0  0.0906
  H  H243  1  0.143900  0.770700  0.626800  1.0  0.0919
  H  H244  1  0.143900  0.517100  0.373200  1.0  0.0909
  H  H245  1  0.626800  0.143900  0.770700  1.0  0.0917
  H  H246  1  0.373200  0.143900  0.517100  1.0  0.0914
  H  H247  1  0.373200  0.856100  0.229300  1.0  0.0917
  H  H248  1  0.626800  0.856100  0.482900  1.0  0.0914
  H  H249  1  0.482900  0.626800  0.856100  1.0  0.0907
  H  H250  1  0.229300  0.373200  0.856100  1.0  0.0916
  H  H251  1  0.517100  0.373200  0.143900  1.0  0.0908
  H  H252  1  0.770700  0.626800  0.143900  1.0  0.0916
  H  H253  1  0.770700  0.143900  0.626800  1.0  0.0923
  H  H254  1  0.517100  0.143900  0.373200  1.0  0.0908
  H  H255  1  0.229300  0.856100  0.373200  1.0  0.0922
  H  H256  1  0.482900  0.856100  0.626800  1.0  0.0909
  H  H257  1  0.856100  0.373200  0.229300  1.0  0.0915
  H  H258  1  0.856100  0.626800  0.482900  1.0  0.0907
  H  H259  1  0.143900  0.626800  0.770700  1.0  0.0913
  H  H260  1  0.143900  0.373200  0.517100  1.0  0.0912
  H  H261  1  0.373200  0.517100  0.143900  1.0  0.0909
  H  H262  1  0.626800  0.770700  0.143900  1.0  0.0919
  H  H263  1  0.626800  0.482900  0.856100  1.0  0.0908
  H  H264  1  0.373200  0.229300  0.856100  1.0  0.092
  H  H265  1  0.632600  0.114200  0.000000  1.0  0.1002
  H  H266  1  0.114200  0.632600  0.000000  1.0  0.0996
  H  H267  1  0.885800  0.885800  0.518400  1.0  0.1017
  H  H268  1  0.367400  0.367400  0.481600  1.0  0.1005
  H  H269  1  0.518400  0.885800  0.885800  1.0  0.1015
  H  H270  1  0.481600  0.367400  0.367400  1.0  0.1003
  H  H271  1  0.000000  0.632600  0.114200  1.0  0.0996
  H  H272  1  0.000000  0.114200  0.632600  1.0  0.0995
  H  H273  1  0.632600  0.000000  0.114200  1.0  0.0994
  H  H274  1  0.114200  0.000000  0.632600  1.0  0.0994
  H  H275  1  0.367400  0.481600  0.367400  1.0  0.1004
  H  H276  1  0.885800  0.518400  0.885800  1.0  0.1014
  H  H277  1  0.885800  0.367400  0.000000  1.0  0.099
  H  H278  1  0.367400  0.885800  0.000000  1.0  0.0997
  H  H279  1  0.114200  0.114200  0.481600  1.0  0.1018
  H  H280  1  0.632600  0.632600  0.518400  1.0  0.1012
  H  H281  1  0.114200  0.481600  0.114200  1.0  0.1007
  H  H282  1  0.632600  0.518400  0.632600  1.0  0.0999
  H  H283  1  0.367400  0.000000  0.885800  1.0  0.0998
  H  H284  1  0.885800  0.000000  0.367400  1.0  0.0998
  H  H285  1  0.000000  0.367400  0.885800  1.0  0.0999
  H  H286  1  0.000000  0.885800  0.367400  1.0  0.1
  H  H287  1  0.518400  0.632600  0.632600  1.0  0.0999
  H  H288  1  0.481600  0.114200  0.114200  1.0  0.1022
  C  C289  1  0.646700  0.330500  0.280400  1.0  0.0101
  C  C290  1  0.781700  0.251800  0.324500  1.0  0.6897
  C  C291  1  0.818100  0.272400  0.384100  1.0  -0.1363
  C  C292  1  0.815420  0.310600  0.423820  1.0  0.0324
  C  C293  1  0.781550  0.332900  0.411050  1.0  -0.168
  C  C294  1  0.708100  0.184160  0.097860  1.0  0.6703
  C  C295  1  0.706970  0.181330  0.049020  1.0  0.0032
  C  C296  1  0.745800  0.221800  0.050220  1.0  -0.0092
  C  C297  1  0.792680  0.268790  0.099090  1.0  -0.1423
  C  C298  1  0.050100  0.366300  0.719600  1.0  -0.0142
  C  C299  1  0.927300  0.457200  0.675500  1.0  0.6878
  C  C300  1  0.888300  0.434000  0.615900  1.0  -0.1311
  C  C301  1  0.886780  0.391600  0.576180  1.0  0.0326
  C  C302  1  0.921850  0.370500  0.588950  1.0  -0.1624
  C  C303  1  0.086300  0.610240  0.902140  1.0  0.6646
  C  C304  1  0.132310  0.657950  0.950980  1.0  0.014
  C  C305  1  0.171580  0.695580  0.949780  1.0  -0.0112
  C  C306  1  0.169700  0.693590  0.900910  1.0  -0.1479
  C  C307  1  0.949900  0.669500  0.316200  1.0  -0.0371
  C  C308  1  0.072700  0.748200  0.529900  1.0  0.6896
  C  C309  1  0.111700  0.727600  0.545700  1.0  -0.1304
  C  C310  1  0.113220  0.689400  0.504820  1.0  0.0338
  C  C311  1  0.078150  0.667100  0.448650  1.0  -0.1596
  C  C312  1  0.913700  0.815840  0.523940  1.0  0.6632
  C  C313  1  0.867690  0.818670  0.525640  1.0  0.0131
  C  C314  1  0.828420  0.778200  0.524000  1.0  -0.018
  C  C315  1  0.830300  0.731210  0.523890  1.0  -0.1447
  C  C316  1  0.353300  0.633700  0.683800  1.0  -0.0233
  C  C317  1  0.218300  0.542800  0.470100  1.0  0.6864
  C  C318  1  0.181900  0.566000  0.454300  1.0  -0.137
  C  C319  1  0.184580  0.608400  0.495180  1.0  0.0327
  C  C320  1  0.218450  0.629500  0.551350  1.0  -0.167
  C  C321  1  0.291900  0.389760  0.476060  1.0  0.6659
  C  C322  1  0.293030  0.342050  0.474360  1.0  0.0065
  C  C323  1  0.254200  0.304420  0.476000  1.0  -0.01
  C  C324  1  0.207320  0.306410  0.476110  1.0  -0.1425
  C  C325  1  0.316200  0.949900  0.669500  1.0  -0.0361
  C  C326  1  0.529900  0.072700  0.748200  1.0  0.6912
  C  C327  1  0.545700  0.111700  0.727600  1.0  -0.1311
  C  C328  1  0.504820  0.113220  0.689400  1.0  0.0332
  C  C329  1  0.448650  0.078150  0.667100  1.0  -0.1613
  C  C330  1  0.523940  0.913700  0.815840  1.0  0.6624
  C  C331  1  0.525640  0.867690  0.818670  1.0  0.0139
  C  C332  1  0.524000  0.828420  0.778200  1.0  -0.0203
  C  C333  1  0.523890  0.830300  0.731210  1.0  -0.146
  C  C334  1  0.683800  0.353300  0.633700  1.0  -0.0198
  C  C335  1  0.470100  0.218300  0.542800  1.0  0.6886
  C  C336  1  0.454300  0.181900  0.566000  1.0  -0.1358
  C  C337  1  0.495180  0.184580  0.608400  1.0  0.0324
  C  C338  1  0.551350  0.218450  0.629500  1.0  -0.1684
  C  C339  1  0.476060  0.291900  0.389760  1.0  0.6715
  C  C340  1  0.474360  0.293030  0.342050  1.0  0.0076
  C  C341  1  0.476000  0.254200  0.304420  1.0  -0.0108
  C  C342  1  0.476110  0.207320  0.306410  1.0  -0.1416
  C  C343  1  0.280400  0.646700  0.330500  1.0  0.0068
  C  C344  1  0.324500  0.781700  0.251800  1.0  0.6876
  C  C345  1  0.384100  0.818100  0.272400  1.0  -0.1354
  C  C346  1  0.423820  0.815420  0.310600  1.0  0.0328
  C  C347  1  0.411050  0.781550  0.332900  1.0  -0.1672
  C  C348  1  0.097860  0.708100  0.184160  1.0  0.6674
  C  C349  1  0.049020  0.706970  0.181330  1.0  0.0047
  C  C350  1  0.050220  0.745800  0.221800  1.0  -0.0096
  C  C351  1  0.099090  0.792680  0.268790  1.0  -0.1444
  C  C352  1  0.719600  0.050100  0.366300  1.0  -0.0167
  C  C353  1  0.675500  0.927300  0.457200  1.0  0.686
  C  C354  1  0.615900  0.888300  0.434000  1.0  -0.1308
  C  C355  1  0.576180  0.886780  0.391600  1.0  0.0339
  C  C356  1  0.588950  0.921850  0.370500  1.0  -0.162
  C  C357  1  0.902140  0.086300  0.610240  1.0  0.6628
  C  C358  1  0.950980  0.132310  0.657950  1.0  0.01
  C  C359  1  0.949780  0.171580  0.695580  1.0  -0.012
  C  C360  1  0.900910  0.169700  0.693590  1.0  -0.1466
  C  C361  1  0.366300  0.719600  0.050100  1.0  -0.0251
  C  C362  1  0.457200  0.675500  0.927300  1.0  0.687
  C  C363  1  0.434000  0.615900  0.888300  1.0  -0.1313
  C  C364  1  0.391600  0.576180  0.886780  1.0  0.0329
  C  C365  1  0.370500  0.588950  0.921850  1.0  -0.162
  C  C366  1  0.610240  0.902140  0.086300  1.0  0.665
  C  C367  1  0.657950  0.950980  0.132310  1.0  0.0133
  C  C368  1  0.695580  0.949780  0.171580  1.0  -0.0117
  C  C369  1  0.693590  0.900910  0.169700  1.0  -0.1511
  C  C370  1  0.330500  0.280400  0.646700  1.0  0.0116
  C  C371  1  0.251800  0.324500  0.781700  1.0  0.6865
  C  C372  1  0.272400  0.384100  0.818100  1.0  -0.1365
  C  C373  1  0.310600  0.423820  0.815420  1.0  0.0327
  C  C374  1  0.332900  0.411050  0.781550  1.0  -0.169
  C  C375  1  0.184160  0.097860  0.708100  1.0  0.6667
  C  C376  1  0.181330  0.049020  0.706970  1.0  0.0077
  C  C377  1  0.221800  0.050220  0.745800  1.0  -0.0102
  C  C378  1  0.268790  0.099090  0.792680  1.0  -0.1432
  C  C379  1  0.633700  0.683800  0.353300  1.0  -0.0129
  C  C380  1  0.542800  0.470100  0.218300  1.0  0.6905
  C  C381  1  0.566000  0.454300  0.181900  1.0  -0.138
  C  C382  1  0.608400  0.495180  0.184580  1.0  0.0317
  C  C383  1  0.629500  0.551350  0.218450  1.0  -0.1683
  C  C384  1  0.389760  0.476060  0.291900  1.0  0.6681
  C  C385  1  0.342050  0.474360  0.293030  1.0  0.0042
  C  C386  1  0.304420  0.476000  0.254200  1.0  -0.0118
  C  C387  1  0.306410  0.476110  0.207320  1.0  -0.1446
  C  C388  1  0.669500  0.316200  0.949900  1.0  -0.0357
  C  C389  1  0.748200  0.529900  0.072700  1.0  0.6905
  C  C390  1  0.727600  0.545700  0.111700  1.0  -0.1324
  C  C391  1  0.689400  0.504820  0.113220  1.0  0.032
  C  C392  1  0.667100  0.448650  0.078150  1.0  -0.1589
  C  C393  1  0.815840  0.523940  0.913700  1.0  0.6693
  C  C394  1  0.818670  0.525640  0.867690  1.0  0.0146
  C  C395  1  0.778200  0.524000  0.828420  1.0  -0.0181
  C  C396  1  0.731210  0.523890  0.830300  1.0  -0.1442
  C  C397  1  0.669500  0.353300  0.719600  1.0  0.0079
  C  C398  1  0.748200  0.218300  0.675500  1.0  0.6908
  C  C399  1  0.727600  0.181900  0.615900  1.0  -0.1359
  C  C400  1  0.689400  0.184580  0.576180  1.0  0.0325
  C  C401  1  0.667100  0.218450  0.588950  1.0  -0.1681
  C  C402  1  0.815840  0.291900  0.902140  1.0  0.6724
  C  C403  1  0.818670  0.293030  0.950980  1.0  0.0051
  C  C404  1  0.778200  0.254200  0.949780  1.0  -0.0091
  C  C405  1  0.731210  0.207320  0.900910  1.0  -0.1428
  C  C406  1  0.633700  0.949900  0.280400  1.0  -0.0161
  C  C407  1  0.542800  0.072700  0.324500  1.0  0.687
  C  C408  1  0.566000  0.111700  0.384100  1.0  -0.1314
  C  C409  1  0.608400  0.113220  0.423820  1.0  0.0326
  C  C410  1  0.629500  0.078150  0.411050  1.0  -0.1641
  C  C411  1  0.389760  0.913700  0.097860  1.0  0.6617
  C  C412  1  0.342050  0.867690  0.049020  1.0  0.0104
  C  C413  1  0.304420  0.828420  0.050220  1.0  -0.0125
  C  C414  1  0.306410  0.830300  0.099090  1.0  -0.1457
  C  C415  1  0.330500  0.050100  0.683800  1.0  -0.0363
  C  C416  1  0.251800  0.927300  0.470100  1.0  0.6891
  C  C417  1  0.272400  0.888300  0.454300  1.0  -0.1318
  C  C418  1  0.310600  0.886780  0.495180  1.0  0.0332
  C  C419  1  0.332900  0.921850  0.551350  1.0  -0.158
  C  C420  1  0.184160  0.086300  0.476060  1.0  0.6618
  C  C421  1  0.181330  0.132310  0.474360  1.0  0.0104
  C  C422  1  0.221800  0.171580  0.476000  1.0  -0.0195
  C  C423  1  0.268790  0.169700  0.476110  1.0  -0.1458
  C  C424  1  0.366300  0.646700  0.316200  1.0  -0.0191
  C  C425  1  0.457200  0.781700  0.529900  1.0  0.687
  C  C426  1  0.434000  0.818100  0.545700  1.0  -0.1355
  C  C427  1  0.391600  0.815420  0.504820  1.0  0.0333
  C  C428  1  0.370500  0.781550  0.448650  1.0  -0.1667
  C  C429  1  0.610240  0.708100  0.523940  1.0  0.6667
  C  C430  1  0.657950  0.706970  0.525640  1.0  0.0069
  C  C431  1  0.695580  0.745800  0.524000  1.0  -0.0104
  C  C432  1  0.693590  0.792680  0.523890  1.0  -0.1431
  C  C433  1  0.050100  0.683800  0.330500  1.0  -0.0334
  C  C434  1  0.927300  0.470100  0.251800  1.0  0.6903
  C  C435  1  0.888300  0.454300  0.272400  1.0  -0.1318
  C  C436  1  0.886780  0.495180  0.310600  1.0  0.0323
  C  C437  1  0.921850  0.551350  0.332900  1.0  -0.1611
  C  C438  1  0.086300  0.476060  0.184160  1.0  0.6648
  C  C439  1  0.132310  0.474360  0.181330  1.0  0.0119
  C  C440  1  0.171580  0.476000  0.221800  1.0  -0.0211
  C  C441  1  0.169700  0.476110  0.268790  1.0  -0.1447
  C  C442  1  0.646700  0.316200  0.366300  1.0  -0.0192
  C  C443  1  0.781700  0.529900  0.457200  1.0  0.6899
  C  C444  1  0.818100  0.545700  0.434000  1.0  -0.137
  C  C445  1  0.815420  0.504820  0.391600  1.0  0.0319
  C  C446  1  0.781550  0.448650  0.370500  1.0  -0.1663
  C  C447  1  0.708100  0.523940  0.610240  1.0  0.6722
  C  C448  1  0.706970  0.525640  0.657950  1.0  0.0032
  C  C449  1  0.745800  0.524000  0.695580  1.0  -0.0096
  C  C450  1  0.792680  0.523890  0.693590  1.0  -0.1435
  C  C451  1  0.353300  0.719600  0.669500  1.0  0.0022
  C  C452  1  0.218300  0.675500  0.748200  1.0  0.6877
  C  C453  1  0.181900  0.615900  0.727600  1.0  -0.1366
  C  C454  1  0.184580  0.576180  0.689400  1.0  0.0326
  C  C455  1  0.218450  0.588950  0.667100  1.0  -0.1683
  C  C456  1  0.291900  0.902140  0.815840  1.0  0.6665
  C  C457  1  0.293030  0.950980  0.818670  1.0  0.0068
  C  C458  1  0.254200  0.949780  0.778200  1.0  -0.0096
  C  C459  1  0.207320  0.900910  0.731210  1.0  -0.1449
  C  C460  1  0.949900  0.280400  0.633700  1.0  -0.0156
  C  C461  1  0.072700  0.324500  0.542800  1.0  0.6868
  C  C462  1  0.111700  0.384100  0.566000  1.0  -0.1327
  C  C463  1  0.113220  0.423820  0.608400  1.0  0.0328
  C  C464  1  0.078150  0.411050  0.629500  1.0  -0.1624
  C  C465  1  0.913700  0.097860  0.389760  1.0  0.665
  C  C466  1  0.867690  0.049020  0.342050  1.0  0.0125
  C  C467  1  0.828420  0.050220  0.304420  1.0  -0.0092
  C  C468  1  0.830300  0.099090  0.306410  1.0  -0.1461
  C  C469  1  0.280400  0.633700  0.949900  1.0  -0.0226
  C  C470  1  0.324500  0.542800  0.072700  1.0  0.688
  C  C471  1  0.384100  0.566000  0.111700  1.0  -0.1318
  C  C472  1  0.423820  0.608400  0.113220  1.0  0.0334
  C  C473  1  0.411050  0.629500  0.078150  1.0  -0.1619
  C  C474  1  0.097860  0.389760  0.913700  1.0  0.6627
  C  C475  1  0.049020  0.342050  0.867690  1.0  0.0161
  C  C476  1  0.050220  0.304420  0.828420  1.0  -0.0097
  C  C477  1  0.099090  0.306410  0.830300  1.0  -0.1456
  C  C478  1  0.719600  0.669500  0.353300  1.0  0.0126
  C  C479  1  0.675500  0.748200  0.218300  1.0  0.6875
  C  C480  1  0.615900  0.727600  0.181900  1.0  -0.1364
  C  C481  1  0.576180  0.689400  0.184580  1.0  0.032
  C  C482  1  0.588950  0.667100  0.218450  1.0  -0.1672
  C  C483  1  0.902140  0.815840  0.291900  1.0  0.6652
  C  C484  1  0.950980  0.818670  0.293030  1.0  0.0022
  C  C485  1  0.949780  0.778200  0.254200  1.0  -0.0096
  C  C486  1  0.900910  0.731210  0.207320  1.0  -0.1414
  C  C487  1  0.316200  0.366300  0.646700  1.0  -0.0175
  C  C488  1  0.529900  0.457200  0.781700  1.0  0.689
  C  C489  1  0.545700  0.434000  0.818100  1.0  -0.1363
  C  C490  1  0.504820  0.391600  0.815420  1.0  0.0331
  C  C491  1  0.448650  0.370500  0.781550  1.0  -0.1679
  C  C492  1  0.523940  0.610240  0.708100  1.0  0.6668
  C  C493  1  0.525640  0.657950  0.706970  1.0  0.0033
  C  C494  1  0.524000  0.695580  0.745800  1.0  -0.0105
  C  C495  1  0.523890  0.693590  0.792680  1.0  -0.142
  C  C496  1  0.683800  0.330500  0.050100  1.0  -0.0373
  C  C497  1  0.470100  0.251800  0.927300  1.0  0.6916
  C  C498  1  0.454300  0.272400  0.888300  1.0  -0.1314
  C  C499  1  0.495180  0.310600  0.886780  1.0  0.0327
  C  C500  1  0.551350  0.332900  0.921850  1.0  -0.159
  C  C501  1  0.476060  0.184160  0.086300  1.0  0.6669
  C  C502  1  0.474360  0.181330  0.132310  1.0  0.0111
  C  C503  1  0.476000  0.221800  0.171580  1.0  -0.0183
  C  C504  1  0.476110  0.268790  0.169700  1.0  -0.1457
  C  C505  1  0.353300  0.669500  0.719600  1.0  0.0068
  C  C506  1  0.218300  0.748200  0.675500  1.0  0.6896
  C  C507  1  0.181900  0.727600  0.615900  1.0  -0.1361
  C  C508  1  0.184580  0.689400  0.576180  1.0  0.032
  C  C509  1  0.218450  0.667100  0.588950  1.0  -0.168
  C  C510  1  0.291900  0.815840  0.902140  1.0  0.6707
  C  C511  1  0.293030  0.818670  0.950980  1.0  0.0019
  C  C512  1  0.254200  0.778200  0.949780  1.0  -0.0089
  C  C513  1  0.207320  0.731210  0.900910  1.0  -0.1446
  C  C514  1  0.949900  0.633700  0.280400  1.0  -0.0157
  C  C515  1  0.072700  0.542800  0.324500  1.0  0.6879
  C  C516  1  0.111700  0.566000  0.384100  1.0  -0.132
  C  C517  1  0.113220  0.608400  0.423820  1.0  0.0335
  C  C518  1  0.078150  0.629500  0.411050  1.0  -0.1626
  C  C519  1  0.913700  0.389760  0.097860  1.0  0.6644
  C  C520  1  0.867690  0.342050  0.049020  1.0  0.0123
  C  C521  1  0.828420  0.304420  0.050220  1.0  -0.0104
  C  C522  1  0.830300  0.306410  0.099090  1.0  -0.1462
  C  C523  1  0.050100  0.330500  0.683800  1.0  -0.0323
  C  C524  1  0.927300  0.251800  0.470100  1.0  0.6899
  C  C525  1  0.888300  0.272400  0.454300  1.0  -0.1315
  C  C526  1  0.886780  0.310600  0.495180  1.0  0.0327
  C  C527  1  0.921850  0.332900  0.551350  1.0  -0.159
  C  C528  1  0.086300  0.184160  0.476060  1.0  0.6621
  C  C529  1  0.132310  0.181330  0.474360  1.0  0.0103
  C  C530  1  0.171580  0.221800  0.476000  1.0  -0.0189
  C  C531  1  0.169700  0.268790  0.476110  1.0  -0.1452
  C  C532  1  0.646700  0.366300  0.316200  1.0  -0.0228
  C  C533  1  0.781700  0.457200  0.529900  1.0  0.6871
  C  C534  1  0.818100  0.434000  0.545700  1.0  -0.1363
  C  C535  1  0.815420  0.391600  0.504820  1.0  0.0329
  C  C536  1  0.781550  0.370500  0.448650  1.0  -0.1667
  C  C537  1  0.708100  0.610240  0.523940  1.0  0.6652
  C  C538  1  0.706970  0.657950  0.525640  1.0  0.0072
  C  C539  1  0.745800  0.695580  0.524000  1.0  -0.0095
  C  C540  1  0.792680  0.693590  0.523890  1.0  -0.1433
  C  C541  1  0.683800  0.050100  0.330500  1.0  -0.0369
  C  C542  1  0.470100  0.927300  0.251800  1.0  0.6901
  C  C543  1  0.454300  0.888300  0.272400  1.0  -0.1309
  C  C544  1  0.495180  0.886780  0.310600  1.0  0.0327
  C  C545  1  0.551350  0.921850  0.332900  1.0  -0.1607
  C  C546  1  0.476060  0.086300  0.184160  1.0  0.6618
  C  C547  1  0.474360  0.132310  0.181330  1.0  0.0102
  C  C548  1  0.476000  0.171580  0.221800  1.0  -0.0213
  C  C549  1  0.476110  0.169700  0.268790  1.0  -0.1465
  C  C550  1  0.316200  0.646700  0.366300  1.0  -0.0182
  C  C551  1  0.529900  0.781700  0.457200  1.0  0.6904
  C  C552  1  0.545700  0.818100  0.434000  1.0  -0.1357
  C  C553  1  0.504820  0.815420  0.391600  1.0  0.033
  C  C554  1  0.448650  0.781550  0.370500  1.0  -0.1668
  C  C555  1  0.523940  0.708100  0.610240  1.0  0.6717
  C  C556  1  0.525640  0.706970  0.657950  1.0  0.005
  C  C557  1  0.524000  0.745800  0.695580  1.0  -0.009
  C  C558  1  0.523890  0.792680  0.693590  1.0  -0.1442
  C  C559  1  0.719600  0.353300  0.669500  1.0  0.0055
  C  C560  1  0.675500  0.218300  0.748200  1.0  0.6876
  C  C561  1  0.615900  0.181900  0.727600  1.0  -0.1357
  C  C562  1  0.576180  0.184580  0.689400  1.0  0.0332
  C  C563  1  0.588950  0.218450  0.667100  1.0  -0.1678
  C  C564  1  0.902140  0.291900  0.815840  1.0  0.6671
  C  C565  1  0.950980  0.293030  0.818670  1.0  0.0066
  C  C566  1  0.949780  0.254200  0.778200  1.0  -0.0103
  C  C567  1  0.900910  0.207320  0.731210  1.0  -0.1437
  C  C568  1  0.280400  0.949900  0.633700  1.0  -0.0146
  C  C569  1  0.324500  0.072700  0.542800  1.0  0.6863
  C  C570  1  0.384100  0.111700  0.566000  1.0  -0.1324
  C  C571  1  0.423820  0.113220  0.608400  1.0  0.0329
  C  C572  1  0.411050  0.078150  0.629500  1.0  -0.1604
  C  C573  1  0.097860  0.913700  0.389760  1.0  0.6616
  C  C574  1  0.049020  0.867690  0.342050  1.0  0.0103
  C  C575  1  0.050220  0.828420  0.304420  1.0  -0.0114
  C  C576  1  0.099090  0.830300  0.306410  1.0  -0.1451
  C  C577  1  0.633700  0.280400  0.949900  1.0  -0.0226
  C  C578  1  0.542800  0.324500  0.072700  1.0  0.6867
  C  C579  1  0.566000  0.384100  0.111700  1.0  -0.132
  C  C580  1  0.608400  0.423820  0.113220  1.0  0.0331
  C  C581  1  0.629500  0.411050  0.078150  1.0  -0.1622
  C  C582  1  0.389760  0.097860  0.913700  1.0  0.6653
  C  C583  1  0.342050  0.049020  0.867690  1.0  0.0147
  C  C584  1  0.304420  0.050220  0.828420  1.0  -0.0109
  C  C585  1  0.306410  0.099090  0.830300  1.0  -0.149
  C  C586  1  0.669500  0.719600  0.353300  1.0  0.0109
  C  C587  1  0.748200  0.675500  0.218300  1.0  0.6877
  C  C588  1  0.727600  0.615900  0.181900  1.0  -0.1373
  C  C589  1  0.689400  0.576180  0.184580  1.0  0.0323
  C  C590  1  0.667100  0.588950  0.218450  1.0  -0.1679
  C  C591  1  0.815840  0.902140  0.291900  1.0  0.6664
  C  C592  1  0.818670  0.950980  0.293030  1.0  0.0043
  C  C593  1  0.778200  0.949780  0.254200  1.0  -0.0093
  C  C594  1  0.731210  0.900910  0.207320  1.0  -0.1448
  C  C595  1  0.366300  0.316200  0.646700  1.0  -0.0127
  C  C596  1  0.457200  0.529900  0.781700  1.0  0.689
  C  C597  1  0.434000  0.545700  0.818100  1.0  -0.1368
  C  C598  1  0.391600  0.504820  0.815420  1.0  0.0316
  C  C599  1  0.370500  0.448650  0.781550  1.0  -0.1683
  C  C600  1  0.610240  0.523940  0.708100  1.0  0.667
  C  C601  1  0.657950  0.525640  0.706970  1.0  0.0037
  C  C602  1  0.695580  0.524000  0.745800  1.0  -0.0121
  C  C603  1  0.693590  0.523890  0.792680  1.0  -0.1435
  C  C604  1  0.330500  0.683800  0.050100  1.0  -0.0382
  C  C605  1  0.251800  0.470100  0.927300  1.0  0.692
  C  C606  1  0.272400  0.454300  0.888300  1.0  -0.1318
  C  C607  1  0.310600  0.495180  0.886780  1.0  0.0326
  C  C608  1  0.332900  0.551350  0.921850  1.0  -0.1586
  C  C609  1  0.184160  0.476060  0.086300  1.0  0.669
  C  C610  1  0.181330  0.474360  0.132310  1.0  0.012
  C  C611  1  0.221800  0.476000  0.171580  1.0  -0.0187
  C  C612  1  0.268790  0.476110  0.169700  1.0  -0.1482
  C  C613  1  0.330500  0.646700  0.280400  1.0  0.0069
  C  C614  1  0.251800  0.781700  0.324500  1.0  0.6881
  C  C615  1  0.272400  0.818100  0.384100  1.0  -0.1357
  C  C616  1  0.310600  0.815420  0.423820  1.0  0.0322
  C  C617  1  0.332900  0.781550  0.411050  1.0  -0.1687
  C  C618  1  0.184160  0.708100  0.097860  1.0  0.671
  C  C619  1  0.181330  0.706970  0.049020  1.0  0.0079
  C  C620  1  0.221800  0.745800  0.050220  1.0  -0.0095
  C  C621  1  0.268790  0.792680  0.099090  1.0  -0.142
  C  C622  1  0.366300  0.050100  0.719600  1.0  -0.0168
  C  C623  1  0.457200  0.927300  0.675500  1.0  0.6891
  C  C624  1  0.434000  0.888300  0.615900  1.0  -0.131
  C  C625  1  0.391600  0.886780  0.576180  1.0  0.0332
  C  C626  1  0.370500  0.921850  0.588950  1.0  -0.1643
  C  C627  1  0.610240  0.086300  0.902140  1.0  0.663
  C  C628  1  0.657950  0.132310  0.950980  1.0  0.0115
  C  C629  1  0.695580  0.171580  0.949780  1.0  -0.0126
  C  C630  1  0.693590  0.169700  0.900910  1.0  -0.1492
  C  C631  1  0.669500  0.949900  0.316200  1.0  -0.0356
  C  C632  1  0.748200  0.072700  0.529900  1.0  0.6881
  C  C633  1  0.727600  0.111700  0.545700  1.0  -0.1312
  C  C634  1  0.689400  0.113220  0.504820  1.0  0.0339
  C  C635  1  0.667100  0.078150  0.448650  1.0  -0.1594
  C  C636  1  0.815840  0.913700  0.523940  1.0  0.662
  C  C637  1  0.818670  0.867690  0.525640  1.0  0.012
  C  C638  1  0.778200  0.828420  0.524000  1.0  -0.0199
  C  C639  1  0.731210  0.830300  0.523890  1.0  -0.1441
  C  C640  1  0.633700  0.353300  0.683800  1.0  -0.0215
  C  C641  1  0.542800  0.218300  0.470100  1.0  0.6879
  C  C642  1  0.566000  0.181900  0.454300  1.0  -0.1356
  C  C643  1  0.608400  0.184580  0.495180  1.0  0.033
  C  C644  1  0.629500  0.218450  0.551350  1.0  -0.1684
  C  C645  1  0.389760  0.291900  0.476060  1.0  0.6683
  C  C646  1  0.342050  0.293030  0.474360  1.0  0.0045
  C  C647  1  0.304420  0.254200  0.476000  1.0  -0.0104
  C  C648  1  0.306410  0.207320  0.476110  1.0  -0.1445
  C  C649  1  0.949900  0.316200  0.669500  1.0  -0.0345
  C  C650  1  0.072700  0.529900  0.748200  1.0  0.6923
  C  C651  1  0.111700  0.545700  0.727600  1.0  -0.1323
  C  C652  1  0.113220  0.504820  0.689400  1.0  0.0319
  C  C653  1  0.078150  0.448650  0.667100  1.0  -0.1609
  C  C654  1  0.913700  0.523940  0.815840  1.0  0.6648
  C  C655  1  0.867690  0.525640  0.818670  1.0  0.0143
  C  C656  1  0.828420  0.524000  0.778200  1.0  -0.0197
  C  C657  1  0.830300  0.523890  0.731210  1.0  -0.1452
  C  C658  1  0.353300  0.683800  0.633700  1.0  -0.0174
  C  C659  1  0.218300  0.470100  0.542800  1.0  0.6881
  C  C660  1  0.181900  0.454300  0.566000  1.0  -0.1376
  C  C661  1  0.184580  0.495180  0.608400  1.0  0.0318
  C  C662  1  0.218450  0.551350  0.629500  1.0  -0.1682
  C  C663  1  0.291900  0.476060  0.389760  1.0  0.6731
  C  C664  1  0.293030  0.474360  0.342050  1.0  0.0047
  C  C665  1  0.254200  0.476000  0.304420  1.0  -0.0103
  C  C666  1  0.207320  0.476110  0.306410  1.0  -0.1418
  C  C667  1  0.646700  0.280400  0.330500  1.0  0.0044
  C  C668  1  0.781700  0.324500  0.251800  1.0  0.6881
  C  C669  1  0.818100  0.384100  0.272400  1.0  -0.1365
  C  C670  1  0.815420  0.423820  0.310600  1.0  0.0326
  C  C671  1  0.781550  0.411050  0.332900  1.0  -0.1682
  C  C672  1  0.708100  0.097860  0.184160  1.0  0.667
  C  C673  1  0.706970  0.049020  0.181330  1.0  0.0062
  C  C674  1  0.745800  0.050220  0.221800  1.0  -0.0095
  C  C675  1  0.792680  0.099090  0.268790  1.0  -0.1466
  C  C676  1  0.050100  0.719600  0.366300  1.0  -0.0163
  C  C677  1  0.927300  0.675500  0.457200  1.0  0.686
  C  C678  1  0.888300  0.615900  0.434000  1.0  -0.1312
  C  C679  1  0.886780  0.576180  0.391600  1.0  0.0329
  C  C680  1  0.921850  0.588950  0.370500  1.0  -0.1639
  C  C681  1  0.086300  0.902140  0.610240  1.0  0.6651
  C  C682  1  0.132310  0.950980  0.657950  1.0  0.0148
  C  C683  1  0.171580  0.949780  0.695580  1.0  -0.0113
  C  C684  1  0.169700  0.900910  0.693590  1.0  -0.1477
  C  C685  1  0.719600  0.366300  0.050100  1.0  -0.0252
  C  C686  1  0.675500  0.457200  0.927300  1.0  0.6851
  C  C687  1  0.615900  0.434000  0.888300  1.0  -0.1314
  C  C688  1  0.576180  0.391600  0.886780  1.0  0.0329
  C  C689  1  0.588950  0.370500  0.921850  1.0  -0.1614
  C  C690  1  0.902140  0.610240  0.086300  1.0  0.6634
  C  C691  1  0.950980  0.657950  0.132310  1.0  0.0149
  C  C692  1  0.949780  0.695580  0.171580  1.0  -0.01
  C  C693  1  0.900910  0.693590  0.169700  1.0  -0.1466
  C  C694  1  0.280400  0.330500  0.646700  1.0  0.0135
  C  C695  1  0.324500  0.251800  0.781700  1.0  0.6876
  C  C696  1  0.384100  0.272400  0.818100  1.0  -0.1358
  C  C697  1  0.423820  0.310600  0.815420  1.0  0.0331
  C  C698  1  0.411050  0.332900  0.781550  1.0  -0.1689
  C  C699  1  0.097860  0.184160  0.708100  1.0  0.6653
  C  C700  1  0.049020  0.181330  0.706970  1.0  0.0016
  C  C701  1  0.050220  0.221800  0.745800  1.0  -0.0098
  C  C702  1  0.099090  0.268790  0.792680  1.0  -0.1426
  C  C703  1  0.683800  0.633700  0.353300  1.0  -0.0154
  C  C704  1  0.470100  0.542800  0.218300  1.0  0.6901
  C  C705  1  0.454300  0.566000  0.181900  1.0  -0.1366
  C  C706  1  0.495180  0.608400  0.184580  1.0  0.0322
  C  C707  1  0.551350  0.629500  0.218450  1.0  -0.1681
  C  C708  1  0.476060  0.389760  0.291900  1.0  0.6661
  C  C709  1  0.474360  0.342050  0.293030  1.0  0.0072
  C  C710  1  0.476000  0.304420  0.254200  1.0  -0.0117
  C  C711  1  0.476110  0.306410  0.207320  1.0  -0.1443
  C  C712  1  0.316200  0.669500  0.949900  1.0  -0.0379
  C  C713  1  0.529900  0.748200  0.072700  1.0  0.691
  C  C714  1  0.545700  0.727600  0.111700  1.0  -0.1311
  C  C715  1  0.504820  0.689400  0.113220  1.0  0.0331
  C  C716  1  0.448650  0.667100  0.078150  1.0  -0.1606
  C  C717  1  0.523940  0.815840  0.913700  1.0  0.6672
  C  C718  1  0.525640  0.818670  0.867690  1.0  0.0148
  C  C719  1  0.524000  0.778200  0.828420  1.0  -0.0172
  C  C720  1  0.523890  0.731210  0.830300  1.0  -0.1457
  C  C721  1  0.854400  0.254500  0.400100  1.0  -0.0157
  C  C722  1  0.851400  0.331600  0.480200  1.0  -0.0552
  C  C723  1  0.854400  0.454300  0.599900  1.0  -0.0146
  C  C724  1  0.851400  0.371200  0.519800  1.0  -0.0575
  C  C725  1  0.145600  0.745500  0.599900  1.0  -0.0168
  C  C726  1  0.148600  0.668400  0.519800  1.0  -0.0559
  C  C727  1  0.145600  0.545700  0.400100  1.0  -0.0141
  C  C728  1  0.148600  0.628800  0.480200  1.0  -0.0572
  C  C729  1  0.599900  0.145600  0.745500  1.0  -0.0156
  C  C730  1  0.519800  0.148600  0.668400  1.0  -0.0559
  C  C731  1  0.400100  0.145600  0.545700  1.0  -0.0152
  C  C732  1  0.480200  0.148600  0.628800  1.0  -0.057
  C  C733  1  0.400100  0.854400  0.254500  1.0  -0.0161
  C  C734  1  0.480200  0.851400  0.331600  1.0  -0.0555
  C  C735  1  0.599900  0.854400  0.454300  1.0  -0.0146
  C  C736  1  0.519800  0.851400  0.371200  1.0  -0.0576
  C  C737  1  0.454300  0.599900  0.854400  1.0  -0.0149
  C  C738  1  0.371200  0.519800  0.851400  1.0  -0.0571
  C  C739  1  0.254500  0.400100  0.854400  1.0  -0.0155
  C  C740  1  0.331600  0.480200  0.851400  1.0  -0.0561
  C  C741  1  0.545700  0.400100  0.145600  1.0  -0.0152
  C  C742  1  0.628800  0.480200  0.148600  1.0  -0.0573
  C  C743  1  0.745500  0.599900  0.145600  1.0  -0.015
  C  C744  1  0.668400  0.519800  0.148600  1.0  -0.0553
  C  C745  1  0.745500  0.145600  0.599900  1.0  -0.0153
  C  C746  1  0.668400  0.148600  0.519800  1.0  -0.056
  C  C747  1  0.545700  0.145600  0.400100  1.0  -0.0156
  C  C748  1  0.628800  0.148600  0.480200  1.0  -0.057
  C  C749  1  0.254500  0.854400  0.400100  1.0  -0.0154
  C  C750  1  0.331600  0.851400  0.480200  1.0  -0.0555
  C  C751  1  0.454300  0.854400  0.599900  1.0  -0.015
  C  C752  1  0.371200  0.851400  0.519800  1.0  -0.0575
  C  C753  1  0.854400  0.400100  0.254500  1.0  -0.0153
  C  C754  1  0.851400  0.480200  0.331600  1.0  -0.0555
  C  C755  1  0.854400  0.599900  0.454300  1.0  -0.0153
  C  C756  1  0.851400  0.519800  0.371200  1.0  -0.0576
  C  C757  1  0.145600  0.599900  0.745500  1.0  -0.0164
  C  C758  1  0.148600  0.519800  0.668400  1.0  -0.0558
  C  C759  1  0.145600  0.400100  0.545700  1.0  -0.0147
  C  C760  1  0.148600  0.480200  0.628800  1.0  -0.057
  C  C761  1  0.400100  0.545700  0.145600  1.0  -0.0143
  C  C762  1  0.480200  0.628800  0.148600  1.0  -0.0575
  C  C763  1  0.599900  0.745500  0.145600  1.0  -0.0159
  C  C764  1  0.519800  0.668400  0.148600  1.0  -0.0551
  C  C765  1  0.599900  0.454300  0.854400  1.0  -0.0143
  C  C766  1  0.519800  0.371200  0.851400  1.0  -0.0571
  C  C767  1  0.400100  0.254500  0.854400  1.0  -0.0164
  C  C768  1  0.480200  0.331600  0.851400  1.0  -0.056
  C  C769  1  0.742560  0.215660  0.000000  1.0  0.1124
  C  C770  1  0.661600  0.139000  0.000000  1.0  -0.0688
  C  C771  1  0.215660  0.742560  0.000000  1.0  0.11
  C  C772  1  0.139000  0.661600  0.000000  1.0  -0.0705
  C  C773  1  0.784340  0.784340  0.526900  1.0  0.1114
  C  C774  1  0.861000  0.861000  0.522600  1.0  -0.064
  C  C775  1  0.257440  0.257440  0.473100  1.0  0.1103
  C  C776  1  0.338400  0.338400  0.477400  1.0  -0.0721
  C  C777  1  0.526900  0.784340  0.784340  1.0  0.1122
  C  C778  1  0.522600  0.861000  0.861000  1.0  -0.0636
  C  C779  1  0.473100  0.257440  0.257440  1.0  0.112
  C  C780  1  0.477400  0.338400  0.338400  1.0  -0.0721
  C  C781  1  0.000000  0.742560  0.215660  1.0  0.1088
  C  C782  1  0.000000  0.661600  0.139000  1.0  -0.0712
  C  C783  1  0.000000  0.215660  0.742560  1.0  0.1115
  C  C784  1  0.000000  0.139000  0.661600  1.0  -0.0703
  C  C785  1  0.742560  0.000000  0.215660  1.0  0.1112
  C  C786  1  0.661600  0.000000  0.139000  1.0  -0.0704
  C  C787  1  0.215660  0.000000  0.742560  1.0  0.1096
  C  C788  1  0.139000  0.000000  0.661600  1.0  -0.0745
  C  C789  1  0.257440  0.473100  0.257440  1.0  0.113
  C  C790  1  0.338400  0.477400  0.338400  1.0  -0.0681
  C  C791  1  0.784340  0.526900  0.784340  1.0  0.1116
  C  C792  1  0.861000  0.522600  0.861000  1.0  -0.061
  C  C793  1  0.784340  0.257440  0.000000  1.0  0.1128
  C  C794  1  0.861000  0.338400  0.000000  1.0  -0.0688
  C  C795  1  0.257440  0.784340  0.000000  1.0  0.1103
  C  C796  1  0.338400  0.861000  0.000000  1.0  -0.069
  C  C797  1  0.215660  0.215660  0.473100  1.0  0.1102
  C  C798  1  0.139000  0.139000  0.477400  1.0  -0.0657
  C  C799  1  0.742560  0.742560  0.526900  1.0  0.1134
  C  C800  1  0.661600  0.661600  0.522600  1.0  -0.0712
  C  C801  1  0.215660  0.473100  0.215660  1.0  0.1104
  C  C802  1  0.139000  0.477400  0.139000  1.0  -0.0664
  C  C803  1  0.742560  0.526900  0.742560  1.0  0.1126
  C  C804  1  0.661600  0.522600  0.661600  1.0  -0.0733
  C  C805  1  0.257440  0.000000  0.784340  1.0  0.1109
  C  C806  1  0.338400  0.000000  0.861000  1.0  -0.0675
  C  C807  1  0.784340  0.000000  0.257440  1.0  0.1111
  C  C808  1  0.861000  0.000000  0.338400  1.0  -0.0709
  C  C809  1  0.000000  0.257440  0.784340  1.0  0.1125
  C  C810  1  0.000000  0.338400  0.861000  1.0  -0.071
  C  C811  1  0.000000  0.784340  0.257440  1.0  0.1087
  C  C812  1  0.000000  0.861000  0.338400  1.0  -0.0719
  C  C813  1  0.526900  0.742560  0.742560  1.0  0.1148
  C  C814  1  0.522600  0.661600  0.661600  1.0  -0.0706
  C  C815  1  0.473100  0.215660  0.215660  1.0  0.1103
  C  C816  1  0.477400  0.139000  0.139000  1.0  -0.0626
  O  O817  1  0.802430  0.238510  0.295640  1.0  -0.6103
  O  O818  1  0.734680  0.243020  0.308700  1.0  -0.6243
  O  O819  1  0.749600  0.196310  0.137350  1.0  -0.6133
  O  O820  1  0.660870  0.172040  0.097790  1.0  -0.5227
  O  O821  1  0.942870  0.506790  0.704360  1.0  -0.6126
  O  O822  1  0.934320  0.425980  0.691300  1.0  -0.6213
  O  O823  1  0.058960  0.612250  0.862650  1.0  -0.6219
  O  O824  1  0.074250  0.563080  0.902210  1.0  -0.5129
  O  O825  1  0.057130  0.761490  0.563920  1.0  -0.614
  O  O826  1  0.065680  0.756980  0.491660  1.0  -0.6197
  O  O827  1  0.941040  0.803690  0.553290  1.0  -0.6161
  O  O828  1  0.925750  0.827960  0.488830  1.0  -0.5242
  O  O829  1  0.197570  0.493210  0.436080  1.0  -0.6165
  O  O830  1  0.265320  0.574020  0.508340  1.0  -0.6264
  O  O831  1  0.250400  0.387750  0.446710  1.0  -0.6148
  O  O832  1  0.339130  0.436920  0.511170  1.0  -0.521
  O  O833  1  0.563920  0.057130  0.761490  1.0  -0.6128
  O  O834  1  0.491660  0.065680  0.756980  1.0  -0.6173
  O  O835  1  0.553290  0.941040  0.803690  1.0  -0.6186
  O  O836  1  0.488830  0.925750  0.827960  1.0  -0.5233
  O  O837  1  0.436080  0.197570  0.493210  1.0  -0.6161
  O  O838  1  0.508340  0.265320  0.574020  1.0  -0.6301
  O  O839  1  0.446710  0.250400  0.387750  1.0  -0.6153
  O  O840  1  0.511170  0.339130  0.436920  1.0  -0.5234
  O  O841  1  0.295640  0.802430  0.238510  1.0  -0.6112
  O  O842  1  0.308700  0.734680  0.243020  1.0  -0.6261
  O  O843  1  0.137350  0.749600  0.196310  1.0  -0.6168
  O  O844  1  0.097790  0.660870  0.172040  1.0  -0.5196
  O  O845  1  0.704360  0.942870  0.506790  1.0  -0.6087
  O  O846  1  0.691300  0.934320  0.425980  1.0  -0.6217
  O  O847  1  0.862650  0.058960  0.612250  1.0  -0.6231
  O  O848  1  0.902210  0.074250  0.563080  1.0  -0.5164
  O  O849  1  0.506790  0.704360  0.942870  1.0  -0.6103
  O  O850  1  0.425980  0.691300  0.934320  1.0  -0.6205
  O  O851  1  0.612250  0.862650  0.058960  1.0  -0.6242
  O  O852  1  0.563080  0.902210  0.074250  1.0  -0.5111
  O  O853  1  0.238510  0.295640  0.802430  1.0  -0.6109
  O  O854  1  0.243020  0.308700  0.734680  1.0  -0.6272
  O  O855  1  0.196310  0.137350  0.749600  1.0  -0.6151
  O  O856  1  0.172040  0.097790  0.660870  1.0  -0.5259
  O  O857  1  0.493210  0.436080  0.197570  1.0  -0.6152
  O  O858  1  0.574020  0.508340  0.265320  1.0  -0.6238
  O  O859  1  0.387750  0.446710  0.250400  1.0  -0.6149
  O  O860  1  0.436920  0.511170  0.339130  1.0  -0.523
  O  O861  1  0.761490  0.563920  0.057130  1.0  -0.6171
  O  O862  1  0.756980  0.491660  0.065680  1.0  -0.6199
  O  O863  1  0.803690  0.553290  0.941040  1.0  -0.6181
  O  O864  1  0.827960  0.488830  0.925750  1.0  -0.5235
  O  O865  1  0.761490  0.197570  0.704360  1.0  -0.6117
  O  O866  1  0.756980  0.265320  0.691300  1.0  -0.6281
  O  O867  1  0.803690  0.250400  0.862650  1.0  -0.615
  O  O868  1  0.827960  0.339130  0.902210  1.0  -0.5228
  O  O869  1  0.493210  0.057130  0.295640  1.0  -0.6101
  O  O870  1  0.574020  0.065680  0.308700  1.0  -0.6197
  O  O871  1  0.387750  0.941040  0.137350  1.0  -0.6235
  O  O872  1  0.436920  0.925750  0.097790  1.0  -0.5124
  O  O873  1  0.238510  0.942870  0.436080  1.0  -0.6134
  O  O874  1  0.243020  0.934320  0.508340  1.0  -0.6206
  O  O875  1  0.196310  0.058960  0.446710  1.0  -0.6184
  O  O876  1  0.172040  0.074250  0.511170  1.0  -0.5267
  O  O877  1  0.506790  0.802430  0.563920  1.0  -0.6152
  O  O878  1  0.425980  0.734680  0.491660  1.0  -0.6255
  O  O879  1  0.612250  0.749600  0.553290  1.0  -0.6147
  O  O880  1  0.563080  0.660870  0.488830  1.0  -0.5204
  O  O881  1  0.942870  0.436080  0.238510  1.0  -0.615
  O  O882  1  0.934320  0.508340  0.243020  1.0  -0.6191
  O  O883  1  0.058960  0.446710  0.196310  1.0  -0.6198
  O  O884  1  0.074250  0.511170  0.172040  1.0  -0.5234
  O  O885  1  0.802430  0.563920  0.506790  1.0  -0.6156
  O  O886  1  0.734680  0.491660  0.425980  1.0  -0.6261
  O  O887  1  0.749600  0.553290  0.612250  1.0  -0.6144
  O  O888  1  0.660870  0.488830  0.563080  1.0  -0.5234
  O  O889  1  0.197570  0.704360  0.761490  1.0  -0.6106
  O  O890  1  0.265320  0.691300  0.756980  1.0  -0.6245
  O  O891  1  0.250400  0.862650  0.803690  1.0  -0.6151
  O  O892  1  0.339130  0.902210  0.827960  1.0  -0.5199
  O  O893  1  0.057130  0.295640  0.493210  1.0  -0.6121
  O  O894  1  0.065680  0.308700  0.574020  1.0  -0.6223
  O  O895  1  0.941040  0.137350  0.387750  1.0  -0.6238
  O  O896  1  0.925750  0.097790  0.436920  1.0  -0.5153
  O  O897  1  0.295640  0.493210  0.057130  1.0  -0.6123
  O  O898  1  0.308700  0.574020  0.065680  1.0  -0.6211
  O  O899  1  0.137350  0.387750  0.941040  1.0  -0.622
  O  O900  1  0.097790  0.436920  0.925750  1.0  -0.5142
  O  O901  1  0.704360  0.761490  0.197570  1.0  -0.6106
  O  O902  1  0.691300  0.756980  0.265320  1.0  -0.6251
  O  O903  1  0.862650  0.803690  0.250400  1.0  -0.6128
  O  O904  1  0.902210  0.827960  0.339130  1.0  -0.5239
  O  O905  1  0.563920  0.506790  0.802430  1.0  -0.6162
  O  O906  1  0.491660  0.425980  0.734680  1.0  -0.6271
  O  O907  1  0.553290  0.612250  0.749600  1.0  -0.6145
  O  O908  1  0.488830  0.563080  0.660870  1.0  -0.5205
  O  O909  1  0.436080  0.238510  0.942870  1.0  -0.615
  O  O910  1  0.508340  0.243020  0.934320  1.0  -0.6198
  O  O911  1  0.446710  0.196310  0.058960  1.0  -0.617
  O  O912  1  0.511170  0.172040  0.074250  1.0  -0.5214
  O  O913  1  0.197570  0.761490  0.704360  1.0  -0.6105
  O  O914  1  0.265320  0.756980  0.691300  1.0  -0.6237
  O  O915  1  0.250400  0.803690  0.862650  1.0  -0.6119
  O  O916  1  0.339130  0.827960  0.902210  1.0  -0.5202
  O  O917  1  0.057130  0.493210  0.295640  1.0  -0.6129
  O  O918  1  0.065680  0.574020  0.308700  1.0  -0.6228
  O  O919  1  0.941040  0.387750  0.137350  1.0  -0.6228
  O  O920  1  0.925750  0.436920  0.097790  1.0  -0.5133
  O  O921  1  0.942870  0.238510  0.436080  1.0  -0.6137
  O  O922  1  0.934320  0.243020  0.508340  1.0  -0.6207
  O  O923  1  0.058960  0.196310  0.446710  1.0  -0.6165
  O  O924  1  0.074250  0.172040  0.511170  1.0  -0.5245
  O  O925  1  0.802430  0.506790  0.563920  1.0  -0.6153
  O  O926  1  0.734680  0.425980  0.491660  1.0  -0.6265
  O  O927  1  0.749600  0.612250  0.553290  1.0  -0.6145
  O  O928  1  0.660870  0.563080  0.488830  1.0  -0.5224
  O  O929  1  0.436080  0.942870  0.238510  1.0  -0.6147
  O  O930  1  0.508340  0.934320  0.243020  1.0  -0.6183
  O  O931  1  0.446710  0.058960  0.196310  1.0  -0.6192
  O  O932  1  0.511170  0.074250  0.172040  1.0  -0.5224
  O  O933  1  0.563920  0.802430  0.506790  1.0  -0.6158
  O  O934  1  0.491660  0.734680  0.425980  1.0  -0.6295
  O  O935  1  0.553290  0.749600  0.612250  1.0  -0.6146
  O  O936  1  0.488830  0.660870  0.563080  1.0  -0.5217
  O  O937  1  0.704360  0.197570  0.761490  1.0  -0.6108
  O  O938  1  0.691300  0.265320  0.756980  1.0  -0.6247
  O  O939  1  0.862650  0.250400  0.803690  1.0  -0.6157
  O  O940  1  0.902210  0.339130  0.827960  1.0  -0.5216
  O  O941  1  0.295640  0.057130  0.493210  1.0  -0.6097
  O  O942  1  0.308700  0.065680  0.574020  1.0  -0.621
  O  O943  1  0.137350  0.941040  0.387750  1.0  -0.6235
  O  O944  1  0.097790  0.925750  0.436920  1.0  -0.5166
  O  O945  1  0.493210  0.295640  0.057130  1.0  -0.6116
  O  O946  1  0.574020  0.308700  0.065680  1.0  -0.6202
  O  O947  1  0.387750  0.137350  0.941040  1.0  -0.6234
  O  O948  1  0.436920  0.097790  0.925750  1.0  -0.5123
  O  O949  1  0.761490  0.704360  0.197570  1.0  -0.6121
  O  O950  1  0.756980  0.691300  0.265320  1.0  -0.6268
  O  O951  1  0.803690  0.862650  0.250400  1.0  -0.6147
  O  O952  1  0.827960  0.902210  0.339130  1.0  -0.5244
  O  O953  1  0.506790  0.563920  0.802430  1.0  -0.6154
  O  O954  1  0.425980  0.491660  0.734680  1.0  -0.6251
  O  O955  1  0.612250  0.553290  0.749600  1.0  -0.6149
  O  O956  1  0.563080  0.488830  0.660870  1.0  -0.5237
  O  O957  1  0.238510  0.436080  0.942870  1.0  -0.6161
  O  O958  1  0.243020  0.508340  0.934320  1.0  -0.6204
  O  O959  1  0.196310  0.446710  0.058960  1.0  -0.619
  O  O960  1  0.172040  0.511170  0.074250  1.0  -0.5231
  O  O961  1  0.238510  0.802430  0.295640  1.0  -0.6123
  O  O962  1  0.243020  0.734680  0.308700  1.0  -0.6296
  O  O963  1  0.196310  0.749600  0.137350  1.0  -0.6147
  O  O964  1  0.172040  0.660870  0.097790  1.0  -0.5205
  O  O965  1  0.506790  0.942870  0.704360  1.0  -0.6099
  O  O966  1  0.425980  0.934320  0.691300  1.0  -0.6185
  O  O967  1  0.612250  0.058960  0.862650  1.0  -0.6232
  O  O968  1  0.563080  0.074250  0.902210  1.0  -0.5148
  O  O969  1  0.761490  0.057130  0.563920  1.0  -0.6122
  O  O970  1  0.756980  0.065680  0.491660  1.0  -0.62
  O  O971  1  0.803690  0.941040  0.553290  1.0  -0.6181
  O  O972  1  0.827960  0.925750  0.488830  1.0  -0.5257
  O  O973  1  0.493210  0.197570  0.436080  1.0  -0.615
  O  O974  1  0.574020  0.265320  0.508340  1.0  -0.6257
  O  O975  1  0.387750  0.250400  0.446710  1.0  -0.6165
  O  O976  1  0.436920  0.339130  0.511170  1.0  -0.5213
  O  O977  1  0.057130  0.563920  0.761490  1.0  -0.6157
  O  O978  1  0.065680  0.491660  0.756980  1.0  -0.6192
  O  O979  1  0.941040  0.553290  0.803690  1.0  -0.6188
  O  O980  1  0.925750  0.488830  0.827960  1.0  -0.524
  O  O981  1  0.197570  0.436080  0.493210  1.0  -0.6163
  O  O982  1  0.265320  0.508340  0.574020  1.0  -0.6256
  O  O983  1  0.250400  0.446710  0.387750  1.0  -0.615
  O  O984  1  0.339130  0.511170  0.436920  1.0  -0.5234
  O  O985  1  0.802430  0.295640  0.238510  1.0  -0.6108
  O  O986  1  0.734680  0.308700  0.243020  1.0  -0.6255
  O  O987  1  0.749600  0.137350  0.196310  1.0  -0.6159
  O  O988  1  0.660870  0.097790  0.172040  1.0  -0.5202
  O  O989  1  0.942870  0.704360  0.506790  1.0  -0.61
  O  O990  1  0.934320  0.691300  0.425980  1.0  -0.6225
  O  O991  1  0.058960  0.862650  0.612250  1.0  -0.6242
  O  O992  1  0.074250  0.902210  0.563080  1.0  -0.5168
  O  O993  1  0.704360  0.506790  0.942870  1.0  -0.6132
  O  O994  1  0.691300  0.425980  0.934320  1.0  -0.6218
  O  O995  1  0.862650  0.612250  0.058960  1.0  -0.6233
  O  O996  1  0.902210  0.563080  0.074250  1.0  -0.5131
  O  O997  1  0.295640  0.238510  0.802430  1.0  -0.61
  O  O998  1  0.308700  0.243020  0.734680  1.0  -0.6261
  O  O999  1  0.137350  0.196310  0.749600  1.0  -0.6129
  O  O1000  1  0.097790  0.172040  0.660870  1.0  -0.5239
  O  O1001  1  0.436080  0.493210  0.197570  1.0  -0.6162
  O  O1002  1  0.508340  0.574020  0.265320  1.0  -0.6257
  O  O1003  1  0.446710  0.387750  0.250400  1.0  -0.6137
  O  O1004  1  0.511170  0.436920  0.339130  1.0  -0.521
  O  O1005  1  0.563920  0.761490  0.057130  1.0  -0.6144
  O  O1006  1  0.491660  0.756980  0.065680  1.0  -0.6177
  O  O1007  1  0.553290  0.803690  0.941040  1.0  -0.6171
  O  O1008  1  0.488830  0.827960  0.925750  1.0  -0.523
  O  O1009  1  0.689000  0.192800  0.192800  1.0  -0.6348
  O  O1010  1  0.657020  0.289310  0.289310  1.0  -0.4293
  O  O1011  1  0.000000  0.496200  0.807200  1.0  -0.6335
  O  O1012  1  0.000000  0.367710  0.710690  1.0  -0.4284
  O  O1013  1  0.000000  0.807200  0.496200  1.0  -0.6338
  O  O1014  1  0.000000  0.710690  0.367710  1.0  -0.4302
  O  O1015  1  0.311000  0.503800  0.503800  1.0  -0.6372
  O  O1016  1  0.342980  0.632290  0.632290  1.0  -0.4295
  O  O1017  1  0.496200  0.000000  0.807200  1.0  -0.6341
  O  O1018  1  0.367710  0.000000  0.710690  1.0  -0.4285
  O  O1019  1  0.503800  0.311000  0.503800  1.0  -0.6344
  O  O1020  1  0.632290  0.342980  0.632290  1.0  -0.4281
  O  O1021  1  0.192800  0.689000  0.192800  1.0  -0.6348
  O  O1022  1  0.289310  0.657020  0.289310  1.0  -0.4284
  O  O1023  1  0.807200  0.000000  0.496200  1.0  -0.6333
  O  O1024  1  0.710690  0.000000  0.367710  1.0  -0.4315
  O  O1025  1  0.496200  0.807200  0.000000  1.0  -0.6345
  O  O1026  1  0.367710  0.710690  0.000000  1.0  -0.4291
  O  O1027  1  0.192800  0.192800  0.689000  1.0  -0.6342
  O  O1028  1  0.289310  0.289310  0.657020  1.0  -0.4299
  O  O1029  1  0.503800  0.503800  0.311000  1.0  -0.6354
  O  O1030  1  0.632290  0.632290  0.342980  1.0  -0.4289
  O  O1031  1  0.807200  0.496200  0.000000  1.0  -0.6343
  O  O1032  1  0.710690  0.367710  0.000000  1.0  -0.4292
  O  O1033  1  0.807200  0.311000  0.807200  1.0  -0.6344
  O  O1034  1  0.710690  0.342980  0.710690  1.0  -0.4289
  O  O1035  1  0.503800  0.000000  0.192800  1.0  -0.6342
  O  O1036  1  0.632290  0.000000  0.289310  1.0  -0.4286
  O  O1037  1  0.192800  0.000000  0.503800  1.0  -0.6339
  O  O1038  1  0.289310  0.000000  0.632290  1.0  -0.43
  O  O1039  1  0.496200  0.689000  0.496200  1.0  -0.6351
  O  O1040  1  0.367710  0.657020  0.367710  1.0  -0.4291
  O  O1041  1  0.000000  0.503800  0.192800  1.0  -0.6349
  O  O1042  1  0.000000  0.632290  0.289310  1.0  -0.4285
  O  O1043  1  0.689000  0.496200  0.496200  1.0  -0.6364
  O  O1044  1  0.657020  0.367710  0.367710  1.0  -0.4294
  O  O1045  1  0.311000  0.807200  0.807200  1.0  -0.6362
  O  O1046  1  0.342980  0.710690  0.710690  1.0  -0.4289
  O  O1047  1  0.000000  0.192800  0.503800  1.0  -0.6336
  O  O1048  1  0.000000  0.289310  0.632290  1.0  -0.4303
  O  O1049  1  0.192800  0.503800  0.000000  1.0  -0.6366
  O  O1050  1  0.289310  0.632290  0.000000  1.0  -0.4303
  O  O1051  1  0.807200  0.807200  0.311000  1.0  -0.6344
  O  O1052  1  0.710690  0.710690  0.342980  1.0  -0.4298
  O  O1053  1  0.496200  0.496200  0.689000  1.0  -0.6344
  O  O1054  1  0.367710  0.367710  0.657020  1.0  -0.4284
  O  O1055  1  0.503800  0.192800  0.000000  1.0  -0.6349
  O  O1056  1  0.632290  0.289310  0.000000  1.0  -0.4297
