# generated using pymatgen
data_Cu3(C8O3)4
_symmetry_space_group_name_H-M   'P 1'
_cell_length_a   33.61670000
_cell_length_b   33.61670000
_cell_length_c   33.61670000
_cell_angle_alpha   90.00000000
_cell_angle_beta   90.00000000
_cell_angle_gamma   90.00000000
_symmetry_Int_Tables_number   1
_chemical_formula_structural   Cu3(C8O3)4
_chemical_formula_sum   'Cu48 C512 O192'
_cell_volume   37989.64501277
_cell_formula_units_Z   16
loop_
 _symmetry_equiv_pos_site_id
 _symmetry_equiv_pos_as_xyz
  1  'x, y, z'
loop_
 _atom_site_type_symbol
 _atom_site_label
 _atom_site_symmetry_multiplicity
 _atom_site_fract_x
 _atom_site_fract_y
 _atom_site_fract_z
 _atom_site_occupancy
 _atom_site_charge
  Cu  Cu1  1  0.000000  0.276160  0.223840  1.0  0.8954
  Cu  Cu2  1  0.500000  0.276160  0.723840  1.0  0.8912
  Cu  Cu3  1  0.000000  0.723840  0.223840  1.0  0.8927
  Cu  Cu4  1  0.500000  0.723840  0.723840  1.0  0.8877
  Cu  Cu5  1  0.500000  0.223840  0.223840  1.0  0.8877
  Cu  Cu6  1  0.000000  0.276160  0.776160  1.0  0.8967
  Cu  Cu7  1  0.500000  0.276160  0.276160  1.0  0.8915
  Cu  Cu8  1  0.000000  0.723840  0.776160  1.0  0.8934
  Cu  Cu9  1  0.000000  0.223840  0.276160  1.0  0.8934
  Cu  Cu10  1  0.500000  0.723840  0.276160  1.0  0.8878
  Cu  Cu11  1  0.223840  0.000000  0.276160  1.0  0.8944
  Cu  Cu12  1  0.223840  0.500000  0.776160  1.0  0.8888
  Cu  Cu13  1  0.223840  0.000000  0.723840  1.0  0.8939
  Cu  Cu14  1  0.223840  0.500000  0.223840  1.0  0.8892
  Cu  Cu15  1  0.776160  0.000000  0.276160  1.0  0.8939
  Cu  Cu16  1  0.776160  0.500000  0.776160  1.0  0.8884
  Cu  Cu17  1  0.276160  0.500000  0.276160  1.0  0.8884
  Cu  Cu18  1  0.776160  0.000000  0.723840  1.0  0.8925
  Cu  Cu19  1  0.776160  0.500000  0.223840  1.0  0.8877
  Cu  Cu20  1  0.276160  0.000000  0.223840  1.0  0.8925
  Cu  Cu21  1  0.276160  0.223840  0.000000  1.0  0.8946
  Cu  Cu22  1  0.276160  0.723840  0.500000  1.0  0.8891
  Cu  Cu23  1  0.723840  0.223840  0.000000  1.0  0.8953
  Cu  Cu24  1  0.723840  0.723840  0.500000  1.0  0.8902
  Cu  Cu25  1  0.223840  0.223840  0.500000  1.0  0.8902
  Cu  Cu26  1  0.276160  0.776160  0.000000  1.0  0.8985
  Cu  Cu27  1  0.276160  0.276160  0.500000  1.0  0.8933
  Cu  Cu28  1  0.723840  0.776160  0.000000  1.0  0.8976
  Cu  Cu29  1  0.723840  0.276160  0.500000  1.0  0.8929
  Cu  Cu30  1  0.223840  0.276160  0.000000  1.0  0.8976
  Cu  Cu31  1  0.276160  0.000000  0.776160  1.0  0.8939
  Cu  Cu32  1  0.723840  0.000000  0.776160  1.0  0.8944
  Cu  Cu33  1  0.723840  0.500000  0.276160  1.0  0.8888
  Cu  Cu34  1  0.276160  0.500000  0.723840  1.0  0.8877
  Cu  Cu35  1  0.723840  0.000000  0.223840  1.0  0.8939
  Cu  Cu36  1  0.723840  0.500000  0.723840  1.0  0.8892
  Cu  Cu37  1  0.000000  0.223840  0.723840  1.0  0.8927
  Cu  Cu38  1  0.500000  0.223840  0.776160  1.0  0.8878
  Cu  Cu39  1  0.000000  0.776160  0.723840  1.0  0.8954
  Cu  Cu40  1  0.500000  0.776160  0.223840  1.0  0.8912
  Cu  Cu41  1  0.000000  0.776160  0.276160  1.0  0.8967
  Cu  Cu42  1  0.500000  0.776160  0.776160  1.0  0.8915
  Cu  Cu43  1  0.223840  0.776160  0.500000  1.0  0.8929
  Cu  Cu44  1  0.223840  0.723840  0.000000  1.0  0.8953
  Cu  Cu45  1  0.776160  0.276160  0.000000  1.0  0.8985
  Cu  Cu46  1  0.776160  0.776160  0.500000  1.0  0.8933
  Cu  Cu47  1  0.776160  0.723840  0.000000  1.0  0.8946
  Cu  Cu48  1  0.776160  0.223840  0.500000  1.0  0.8891
  C  C49  1  0.892700  0.157370  0.209800  1.0  -0.0032
  C  C50  1  0.892700  0.657370  0.709800  1.0  -0.0032
  C  C51  1  0.392700  0.157370  0.709800  1.0  -0.0032
  C  C52  1  0.392700  0.657370  0.209800  1.0  -0.0032
  C  C53  1  0.107300  0.842630  0.209800  1.0  -0.0052
  C  C54  1  0.107300  0.342630  0.709800  1.0  -0.0052
  C  C55  1  0.607300  0.842630  0.709800  1.0  -0.0052
  C  C56  1  0.607300  0.342630  0.209800  1.0  -0.0052
  C  C57  1  0.107300  0.157370  0.790200  1.0  -0.0087
  C  C58  1  0.107300  0.657370  0.290200  1.0  -0.0087
  C  C59  1  0.607300  0.157370  0.290200  1.0  -0.0087
  C  C60  1  0.607300  0.657370  0.790200  1.0  -0.0087
  C  C61  1  0.892700  0.842630  0.790200  1.0  -0.0096
  C  C62  1  0.892700  0.342630  0.290200  1.0  -0.0096
  C  C63  1  0.392700  0.842630  0.290200  1.0  -0.0096
  C  C64  1  0.392700  0.342630  0.790200  1.0  -0.0096
  C  C65  1  0.209800  0.892700  0.157370  1.0  -0.0042
  C  C66  1  0.209800  0.392700  0.657370  1.0  -0.0042
  C  C67  1  0.709800  0.892700  0.657370  1.0  -0.0042
  C  C68  1  0.709800  0.392700  0.157370  1.0  -0.0042
  C  C69  1  0.209800  0.107300  0.842630  1.0  -0.0014
  C  C70  1  0.209800  0.607300  0.342630  1.0  -0.0014
  C  C71  1  0.709800  0.107300  0.342630  1.0  -0.0014
  C  C72  1  0.709800  0.607300  0.842630  1.0  -0.0014
  C  C73  1  0.790200  0.107300  0.157370  1.0  -0.0051
  C  C74  1  0.790200  0.607300  0.657370  1.0  -0.0051
  C  C75  1  0.290200  0.107300  0.657370  1.0  -0.0051
  C  C76  1  0.290200  0.607300  0.157370  1.0  -0.0051
  C  C77  1  0.790200  0.892700  0.842630  1.0  -0.0029
  C  C78  1  0.790200  0.392700  0.342630  1.0  -0.0029
  C  C79  1  0.290200  0.892700  0.342630  1.0  -0.0029
  C  C80  1  0.290200  0.392700  0.842630  1.0  -0.0029
  C  C81  1  0.157370  0.209800  0.892700  1.0  -0.0036
  C  C82  1  0.157370  0.709800  0.392700  1.0  -0.0036
  C  C83  1  0.657370  0.209800  0.392700  1.0  -0.0036
  C  C84  1  0.657370  0.709800  0.892700  1.0  -0.0036
  C  C85  1  0.842630  0.209800  0.107300  1.0  -0.0042
  C  C86  1  0.842630  0.709800  0.607300  1.0  -0.0042
  C  C87  1  0.342630  0.209800  0.607300  1.0  -0.0042
  C  C88  1  0.342630  0.709800  0.107300  1.0  -0.0042
  C  C89  1  0.157370  0.790200  0.107300  1.0  -0.0047
  C  C90  1  0.157370  0.290200  0.607300  1.0  -0.0047
  C  C91  1  0.657370  0.790200  0.607300  1.0  -0.0047
  C  C92  1  0.657370  0.290200  0.107300  1.0  -0.0047
  C  C93  1  0.842630  0.790200  0.892700  1.0  -0.0042
  C  C94  1  0.842630  0.290200  0.392700  1.0  -0.0042
  C  C95  1  0.342630  0.790200  0.392700  1.0  -0.0042
  C  C96  1  0.342630  0.290200  0.892700  1.0  -0.0042
  C  C97  1  0.157370  0.892700  0.790200  1.0  -0.0099
  C  C98  1  0.157370  0.392700  0.290200  1.0  -0.0099
  C  C99  1  0.657370  0.892700  0.290200  1.0  -0.0099
  C  C100  1  0.657370  0.392700  0.790200  1.0  -0.0099
  C  C101  1  0.842630  0.107300  0.790200  1.0  -0.0095
  C  C102  1  0.842630  0.607300  0.290200  1.0  -0.0095
  C  C103  1  0.342630  0.107300  0.290200  1.0  -0.0095
  C  C104  1  0.342630  0.607300  0.790200  1.0  -0.0095
  C  C105  1  0.157370  0.107300  0.209800  1.0  -0.0052
  C  C106  1  0.157370  0.607300  0.709800  1.0  -0.0052
  C  C107  1  0.657370  0.107300  0.709800  1.0  -0.0052
  C  C108  1  0.657370  0.607300  0.209800  1.0  -0.0052
  C  C109  1  0.842630  0.892700  0.209800  1.0  -0.0044
  C  C110  1  0.842630  0.392700  0.709800  1.0  -0.0044
  C  C111  1  0.342630  0.892700  0.709800  1.0  -0.0044
  C  C112  1  0.342630  0.392700  0.209800  1.0  -0.0044
  C  C113  1  0.892700  0.209800  0.842630  1.0  -0.0011
  C  C114  1  0.892700  0.709800  0.342630  1.0  -0.0011
  C  C115  1  0.392700  0.209800  0.342630  1.0  -0.0011
  C  C116  1  0.392700  0.709800  0.842630  1.0  -0.0011
  C  C117  1  0.107300  0.209800  0.157370  1.0  -0.0029
  C  C118  1  0.107300  0.709800  0.657370  1.0  -0.0029
  C  C119  1  0.607300  0.209800  0.657370  1.0  -0.0029
  C  C120  1  0.607300  0.709800  0.157370  1.0  -0.0029
  C  C121  1  0.107300  0.790200  0.842630  1.0  -0.0023
  C  C122  1  0.107300  0.290200  0.342630  1.0  -0.0023
  C  C123  1  0.607300  0.790200  0.342630  1.0  -0.0023
  C  C124  1  0.607300  0.290200  0.842630  1.0  -0.0023
  C  C125  1  0.892700  0.790200  0.157370  1.0  -0.0037
  C  C126  1  0.892700  0.290200  0.657370  1.0  -0.0037
  C  C127  1  0.392700  0.790200  0.657370  1.0  -0.0037
  C  C128  1  0.392700  0.290200  0.157370  1.0  -0.0037
  C  C129  1  0.209800  0.157370  0.107300  1.0  -0.0047
  C  C130  1  0.209800  0.657370  0.607300  1.0  -0.0047
  C  C131  1  0.709800  0.157370  0.607300  1.0  -0.0047
  C  C132  1  0.709800  0.657370  0.107300  1.0  -0.0047
  C  C133  1  0.209800  0.842630  0.892700  1.0  -0.0034
  C  C134  1  0.209800  0.342630  0.392700  1.0  -0.0034
  C  C135  1  0.709800  0.842630  0.392700  1.0  -0.0034
  C  C136  1  0.709800  0.342630  0.892700  1.0  -0.0034
  C  C137  1  0.790200  0.157370  0.892700  1.0  -0.0036
  C  C138  1  0.790200  0.657370  0.392700  1.0  -0.0036
  C  C139  1  0.290200  0.157370  0.392700  1.0  -0.0036
  C  C140  1  0.290200  0.657370  0.892700  1.0  -0.0036
  C  C141  1  0.790200  0.842630  0.107300  1.0  -0.0051
  C  C142  1  0.790200  0.342630  0.607300  1.0  -0.0051
  C  C143  1  0.290200  0.842630  0.607300  1.0  -0.0051
  C  C144  1  0.290200  0.342630  0.107300  1.0  -0.0051
  C  C145  1  0.107300  0.842630  0.790200  1.0  -0.0094
  C  C146  1  0.107300  0.342630  0.290200  1.0  -0.0094
  C  C147  1  0.607300  0.842630  0.290200  1.0  -0.0094
  C  C148  1  0.607300  0.342630  0.790200  1.0  -0.0094
  C  C149  1  0.892700  0.157370  0.790200  1.0  -0.0087
  C  C150  1  0.892700  0.657370  0.290200  1.0  -0.0087
  C  C151  1  0.392700  0.157370  0.290200  1.0  -0.0087
  C  C152  1  0.392700  0.657370  0.790200  1.0  -0.0087
  C  C153  1  0.892700  0.842630  0.209800  1.0  -0.0034
  C  C154  1  0.892700  0.342630  0.709800  1.0  -0.0034
  C  C155  1  0.392700  0.842630  0.709800  1.0  -0.0034
  C  C156  1  0.392700  0.342630  0.209800  1.0  -0.0034
  C  C157  1  0.107300  0.157370  0.209800  1.0  -0.0047
  C  C158  1  0.107300  0.657370  0.709800  1.0  -0.0047
  C  C159  1  0.607300  0.157370  0.709800  1.0  -0.0047
  C  C160  1  0.607300  0.657370  0.209800  1.0  -0.0047
  C  C161  1  0.790200  0.107300  0.842630  1.0  -0.0025
  C  C162  1  0.790200  0.607300  0.342630  1.0  -0.0025
  C  C163  1  0.290200  0.107300  0.342630  1.0  -0.0025
  C  C164  1  0.290200  0.607300  0.842630  1.0  -0.0025
  C  C165  1  0.790200  0.892700  0.157370  1.0  -0.0046
  C  C166  1  0.790200  0.392700  0.657370  1.0  -0.0046
  C  C167  1  0.290200  0.892700  0.657370  1.0  -0.0046
  C  C168  1  0.290200  0.392700  0.157370  1.0  -0.0046
  C  C169  1  0.209800  0.892700  0.842630  1.0  -0.0019
  C  C170  1  0.209800  0.392700  0.342630  1.0  -0.0019
  C  C171  1  0.709800  0.892700  0.342630  1.0  -0.0019
  C  C172  1  0.709800  0.392700  0.842630  1.0  -0.0019
  C  C173  1  0.209800  0.107300  0.157370  1.0  -0.0043
  C  C174  1  0.209800  0.607300  0.657370  1.0  -0.0043
  C  C175  1  0.709800  0.107300  0.657370  1.0  -0.0043
  C  C176  1  0.709800  0.607300  0.157370  1.0  -0.0043
  C  C177  1  0.842630  0.790200  0.107300  1.0  -0.0056
  C  C178  1  0.842630  0.290200  0.607300  1.0  -0.0056
  C  C179  1  0.342630  0.790200  0.607300  1.0  -0.0056
  C  C180  1  0.342630  0.290200  0.107300  1.0  -0.0056
  C  C181  1  0.157370  0.790200  0.892700  1.0  -0.0042
  C  C182  1  0.157370  0.290200  0.392700  1.0  -0.0042
  C  C183  1  0.657370  0.790200  0.392700  1.0  -0.0042
  C  C184  1  0.657370  0.290200  0.892700  1.0  -0.0042
  C  C185  1  0.842630  0.209800  0.892700  1.0  -0.0031
  C  C186  1  0.842630  0.709800  0.392700  1.0  -0.0031
  C  C187  1  0.342630  0.209800  0.392700  1.0  -0.0031
  C  C188  1  0.342630  0.709800  0.892700  1.0  -0.0031
  C  C189  1  0.157370  0.209800  0.107300  1.0  -0.0043
  C  C190  1  0.157370  0.709800  0.607300  1.0  -0.0043
  C  C191  1  0.657370  0.209800  0.607300  1.0  -0.0043
  C  C192  1  0.657370  0.709800  0.107300  1.0  -0.0043
  C  C193  1  0.842630  0.107300  0.209800  1.0  -0.0039
  C  C194  1  0.842630  0.607300  0.709800  1.0  -0.0039
  C  C195  1  0.342630  0.107300  0.709800  1.0  -0.0039
  C  C196  1  0.342630  0.607300  0.209800  1.0  -0.0039
  C  C197  1  0.157370  0.892700  0.209800  1.0  -0.0055
  C  C198  1  0.157370  0.392700  0.709800  1.0  -0.0055
  C  C199  1  0.657370  0.892700  0.709800  1.0  -0.0055
  C  C200  1  0.657370  0.392700  0.209800  1.0  -0.0055
  C  C201  1  0.842630  0.892700  0.790200  1.0  -0.0105
  C  C202  1  0.842630  0.392700  0.290200  1.0  -0.0105
  C  C203  1  0.342630  0.892700  0.290200  1.0  -0.0105
  C  C204  1  0.342630  0.392700  0.790200  1.0  -0.0105
  C  C205  1  0.157370  0.107300  0.790200  1.0  -0.0093
  C  C206  1  0.157370  0.607300  0.290200  1.0  -0.0093
  C  C207  1  0.657370  0.107300  0.290200  1.0  -0.0093
  C  C208  1  0.657370  0.607300  0.790200  1.0  -0.0093
  C  C209  1  0.107300  0.790200  0.157370  1.0  -0.0037
  C  C210  1  0.107300  0.290200  0.657370  1.0  -0.0037
  C  C211  1  0.607300  0.790200  0.657370  1.0  -0.0037
  C  C212  1  0.607300  0.290200  0.157370  1.0  -0.0037
  C  C213  1  0.892700  0.790200  0.842630  1.0  -0.0022
  C  C214  1  0.892700  0.290200  0.342630  1.0  -0.0022
  C  C215  1  0.392700  0.790200  0.342630  1.0  -0.0022
  C  C216  1  0.392700  0.290200  0.842630  1.0  -0.0022
  C  C217  1  0.892700  0.209800  0.157370  1.0  -0.0032
  C  C218  1  0.892700  0.709800  0.657370  1.0  -0.0032
  C  C219  1  0.392700  0.209800  0.657370  1.0  -0.0032
  C  C220  1  0.392700  0.709800  0.157370  1.0  -0.0032
  C  C221  1  0.107300  0.209800  0.842630  1.0  -0.0012
  C  C222  1  0.107300  0.709800  0.342630  1.0  -0.0012
  C  C223  1  0.607300  0.209800  0.342630  1.0  -0.0012
  C  C224  1  0.607300  0.709800  0.842630  1.0  -0.0012
  C  C225  1  0.790200  0.842630  0.892700  1.0  -0.0047
  C  C226  1  0.790200  0.342630  0.392700  1.0  -0.0047
  C  C227  1  0.290200  0.842630  0.392700  1.0  -0.0047
  C  C228  1  0.290200  0.342630  0.892700  1.0  -0.0047
  C  C229  1  0.790200  0.157370  0.107300  1.0  -0.0058
  C  C230  1  0.790200  0.657370  0.607300  1.0  -0.0058
  C  C231  1  0.290200  0.157370  0.607300  1.0  -0.0058
  C  C232  1  0.290200  0.657370  0.107300  1.0  -0.0058
  C  C233  1  0.209800  0.842630  0.107300  1.0  -0.0046
  C  C234  1  0.209800  0.342630  0.607300  1.0  -0.0046
  C  C235  1  0.709800  0.842630  0.607300  1.0  -0.0046
  C  C236  1  0.709800  0.342630  0.107300  1.0  -0.0046
  C  C237  1  0.209800  0.157370  0.892700  1.0  -0.0026
  C  C238  1  0.209800  0.657370  0.392700  1.0  -0.0026
  C  C239  1  0.709800  0.157370  0.392700  1.0  -0.0026
  C  C240  1  0.709800  0.657370  0.892700  1.0  -0.0026
  C  C241  1  0.942400  0.213500  0.213500  1.0  0.6366
  C  C242  1  0.908000  0.193540  0.193540  1.0  -0.0251
  C  C243  1  0.942400  0.713500  0.713500  1.0  0.6366
  C  C244  1  0.908000  0.693540  0.693540  1.0  -0.0251
  C  C245  1  0.442400  0.213500  0.713500  1.0  0.6366
  C  C246  1  0.408000  0.193540  0.693540  1.0  -0.0251
  C  C247  1  0.442400  0.713500  0.213500  1.0  0.6366
  C  C248  1  0.408000  0.693540  0.193540  1.0  -0.0251
  C  C249  1  0.057600  0.786500  0.213500  1.0  0.6355
  C  C250  1  0.092000  0.806460  0.193540  1.0  -0.0249
  C  C251  1  0.057600  0.286500  0.713500  1.0  0.6355
  C  C252  1  0.092000  0.306460  0.693540  1.0  -0.0249
  C  C253  1  0.557600  0.786500  0.713500  1.0  0.6355
  C  C254  1  0.592000  0.806460  0.693540  1.0  -0.0249
  C  C255  1  0.557600  0.286500  0.213500  1.0  0.6355
  C  C256  1  0.592000  0.306460  0.193540  1.0  -0.0249
  C  C257  1  0.057600  0.213500  0.786500  1.0  0.6344
  C  C258  1  0.092000  0.193540  0.806460  1.0  -0.0249
  C  C259  1  0.057600  0.713500  0.286500  1.0  0.6344
  C  C260  1  0.092000  0.693540  0.306460  1.0  -0.0249
  C  C261  1  0.557600  0.213500  0.286500  1.0  0.6344
  C  C262  1  0.592000  0.193540  0.306460  1.0  -0.0249
  C  C263  1  0.557600  0.713500  0.786500  1.0  0.6344
  C  C264  1  0.592000  0.693540  0.806460  1.0  -0.0249
  C  C265  1  0.942400  0.786500  0.786500  1.0  0.6365
  C  C266  1  0.908000  0.806460  0.806460  1.0  -0.0252
  C  C267  1  0.942400  0.286500  0.286500  1.0  0.6365
  C  C268  1  0.908000  0.306460  0.306460  1.0  -0.0252
  C  C269  1  0.442400  0.786500  0.286500  1.0  0.6365
  C  C270  1  0.408000  0.806460  0.306460  1.0  -0.0252
  C  C271  1  0.442400  0.286500  0.786500  1.0  0.6365
  C  C272  1  0.408000  0.306460  0.806460  1.0  -0.0252
  C  C273  1  0.213500  0.942400  0.213500  1.0  0.6367
  C  C274  1  0.193540  0.908000  0.193540  1.0  -0.0253
  C  C275  1  0.213500  0.442400  0.713500  1.0  0.6367
  C  C276  1  0.193540  0.408000  0.693540  1.0  -0.0253
  C  C277  1  0.713500  0.942400  0.713500  1.0  0.6367
  C  C278  1  0.693540  0.908000  0.693540  1.0  -0.0253
  C  C279  1  0.713500  0.442400  0.213500  1.0  0.6367
  C  C280  1  0.693540  0.408000  0.193540  1.0  -0.0253
  C  C281  1  0.213500  0.057600  0.786500  1.0  0.6369
  C  C282  1  0.193540  0.092000  0.806460  1.0  -0.0257
  C  C283  1  0.213500  0.557600  0.286500  1.0  0.6369
  C  C284  1  0.193540  0.592000  0.306460  1.0  -0.0257
  C  C285  1  0.713500  0.057600  0.286500  1.0  0.6369
  C  C286  1  0.693540  0.092000  0.306460  1.0  -0.0257
  C  C287  1  0.713500  0.557600  0.786500  1.0  0.6369
  C  C288  1  0.693540  0.592000  0.806460  1.0  -0.0257
  C  C289  1  0.786500  0.057600  0.213500  1.0  0.6367
  C  C290  1  0.806460  0.092000  0.193540  1.0  -0.0256
  C  C291  1  0.786500  0.557600  0.713500  1.0  0.6367
  C  C292  1  0.806460  0.592000  0.693540  1.0  -0.0256
  C  C293  1  0.286500  0.057600  0.713500  1.0  0.6367
  C  C294  1  0.306460  0.092000  0.693540  1.0  -0.0256
  C  C295  1  0.286500  0.557600  0.213500  1.0  0.6367
  C  C296  1  0.306460  0.592000  0.193540  1.0  -0.0256
  C  C297  1  0.786500  0.942400  0.786500  1.0  0.6361
  C  C298  1  0.806460  0.908000  0.806460  1.0  -0.0255
  C  C299  1  0.786500  0.442400  0.286500  1.0  0.6361
  C  C300  1  0.806460  0.408000  0.306460  1.0  -0.0255
  C  C301  1  0.286500  0.942400  0.286500  1.0  0.6361
  C  C302  1  0.306460  0.908000  0.306460  1.0  -0.0255
  C  C303  1  0.286500  0.442400  0.786500  1.0  0.6361
  C  C304  1  0.306460  0.408000  0.806460  1.0  -0.0255
  C  C305  1  0.213500  0.213500  0.942400  1.0  0.637
  C  C306  1  0.193540  0.193540  0.908000  1.0  -0.0249
  C  C307  1  0.213500  0.713500  0.442400  1.0  0.637
  C  C308  1  0.193540  0.693540  0.408000  1.0  -0.0249
  C  C309  1  0.713500  0.213500  0.442400  1.0  0.637
  C  C310  1  0.693540  0.193540  0.408000  1.0  -0.0249
  C  C311  1  0.713500  0.713500  0.942400  1.0  0.637
  C  C312  1  0.693540  0.693540  0.908000  1.0  -0.0249
  C  C313  1  0.786500  0.213500  0.057600  1.0  0.6362
  C  C314  1  0.806460  0.193540  0.092000  1.0  -0.025
  C  C315  1  0.786500  0.713500  0.557600  1.0  0.6362
  C  C316  1  0.806460  0.693540  0.592000  1.0  -0.025
  C  C317  1  0.286500  0.213500  0.557600  1.0  0.6362
  C  C318  1  0.306460  0.193540  0.592000  1.0  -0.025
  C  C319  1  0.286500  0.713500  0.057600  1.0  0.6362
  C  C320  1  0.306460  0.693540  0.092000  1.0  -0.025
  C  C321  1  0.213500  0.786500  0.057600  1.0  0.6372
  C  C322  1  0.193540  0.806460  0.092000  1.0  -0.025
  C  C323  1  0.213500  0.286500  0.557600  1.0  0.6372
  C  C324  1  0.193540  0.306460  0.592000  1.0  -0.025
  C  C325  1  0.713500  0.786500  0.557600  1.0  0.6372
  C  C326  1  0.693540  0.806460  0.592000  1.0  -0.025
  C  C327  1  0.713500  0.286500  0.057600  1.0  0.6372
  C  C328  1  0.693540  0.306460  0.092000  1.0  -0.025
  C  C329  1  0.786500  0.786500  0.942400  1.0  0.6371
  C  C330  1  0.806460  0.806460  0.908000  1.0  -0.025
  C  C331  1  0.786500  0.286500  0.442400  1.0  0.6371
  C  C332  1  0.806460  0.306460  0.408000  1.0  -0.025
  C  C333  1  0.286500  0.786500  0.442400  1.0  0.6371
  C  C334  1  0.306460  0.806460  0.408000  1.0  -0.025
  C  C335  1  0.286500  0.286500  0.942400  1.0  0.6371
  C  C336  1  0.306460  0.306460  0.908000  1.0  -0.025
  C  C337  1  0.213500  0.942400  0.786500  1.0  0.6364
  C  C338  1  0.193540  0.908000  0.806460  1.0  -0.0254
  C  C339  1  0.213500  0.442400  0.286500  1.0  0.6364
  C  C340  1  0.193540  0.408000  0.306460  1.0  -0.0254
  C  C341  1  0.713500  0.942400  0.286500  1.0  0.6364
  C  C342  1  0.693540  0.908000  0.306460  1.0  -0.0254
  C  C343  1  0.713500  0.442400  0.786500  1.0  0.6364
  C  C344  1  0.693540  0.408000  0.806460  1.0  -0.0254
  C  C345  1  0.786500  0.057600  0.786500  1.0  0.6364
  C  C346  1  0.806460  0.092000  0.806460  1.0  -0.0258
  C  C347  1  0.786500  0.557600  0.286500  1.0  0.6364
  C  C348  1  0.806460  0.592000  0.306460  1.0  -0.0258
  C  C349  1  0.286500  0.057600  0.286500  1.0  0.6364
  C  C350  1  0.306460  0.092000  0.306460  1.0  -0.0258
  C  C351  1  0.286500  0.557600  0.786500  1.0  0.6364
  C  C352  1  0.306460  0.592000  0.806460  1.0  -0.0258
  C  C353  1  0.213500  0.057600  0.213500  1.0  0.6371
  C  C354  1  0.193540  0.092000  0.193540  1.0  -0.0255
  C  C355  1  0.213500  0.557600  0.713500  1.0  0.6371
  C  C356  1  0.193540  0.592000  0.693540  1.0  -0.0255
  C  C357  1  0.713500  0.057600  0.713500  1.0  0.6371
  C  C358  1  0.693540  0.092000  0.693540  1.0  -0.0255
  C  C359  1  0.713500  0.557600  0.213500  1.0  0.6371
  C  C360  1  0.693540  0.592000  0.193540  1.0  -0.0255
  C  C361  1  0.786500  0.942400  0.213500  1.0  0.6365
  C  C362  1  0.806460  0.908000  0.193540  1.0  -0.0254
  C  C363  1  0.786500  0.442400  0.713500  1.0  0.6365
  C  C364  1  0.806460  0.408000  0.693540  1.0  -0.0254
  C  C365  1  0.286500  0.942400  0.713500  1.0  0.6365
  C  C366  1  0.306460  0.908000  0.693540  1.0  -0.0254
  C  C367  1  0.286500  0.442400  0.213500  1.0  0.6365
  C  C368  1  0.306460  0.408000  0.193540  1.0  -0.0254
  C  C369  1  0.942400  0.213500  0.786500  1.0  0.6363
  C  C370  1  0.908000  0.193540  0.806460  1.0  -0.0252
  C  C371  1  0.942400  0.713500  0.286500  1.0  0.6363
  C  C372  1  0.908000  0.693540  0.306460  1.0  -0.0252
  C  C373  1  0.442400  0.213500  0.286500  1.0  0.6363
  C  C374  1  0.408000  0.193540  0.306460  1.0  -0.0252
  C  C375  1  0.442400  0.713500  0.786500  1.0  0.6363
  C  C376  1  0.408000  0.693540  0.806460  1.0  -0.0252
  C  C377  1  0.057600  0.213500  0.213500  1.0  0.635
  C  C378  1  0.092000  0.193540  0.193540  1.0  -0.0248
  C  C379  1  0.057600  0.713500  0.713500  1.0  0.635
  C  C380  1  0.092000  0.693540  0.693540  1.0  -0.0248
  C  C381  1  0.557600  0.213500  0.713500  1.0  0.635
  C  C382  1  0.592000  0.193540  0.693540  1.0  -0.0248
  C  C383  1  0.557600  0.713500  0.213500  1.0  0.635
  C  C384  1  0.592000  0.693540  0.193540  1.0  -0.0248
  C  C385  1  0.057600  0.786500  0.786500  1.0  0.635
  C  C386  1  0.092000  0.806460  0.806460  1.0  -0.025
  C  C387  1  0.057600  0.286500  0.286500  1.0  0.635
  C  C388  1  0.092000  0.306460  0.306460  1.0  -0.025
  C  C389  1  0.557600  0.786500  0.286500  1.0  0.635
  C  C390  1  0.592000  0.806460  0.306460  1.0  -0.025
  C  C391  1  0.557600  0.286500  0.786500  1.0  0.635
  C  C392  1  0.592000  0.306460  0.806460  1.0  -0.025
  C  C393  1  0.942400  0.786500  0.213500  1.0  0.6367
  C  C394  1  0.908000  0.806460  0.193540  1.0  -0.0251
  C  C395  1  0.942400  0.286500  0.713500  1.0  0.6367
  C  C396  1  0.908000  0.306460  0.693540  1.0  -0.0251
  C  C397  1  0.442400  0.786500  0.713500  1.0  0.6367
  C  C398  1  0.408000  0.806460  0.693540  1.0  -0.0251
  C  C399  1  0.442400  0.286500  0.213500  1.0  0.6367
  C  C400  1  0.408000  0.306460  0.193540  1.0  -0.0251
  C  C401  1  0.213500  0.213500  0.057600  1.0  0.6368
  C  C402  1  0.193540  0.193540  0.092000  1.0  -0.0249
  C  C403  1  0.213500  0.713500  0.557600  1.0  0.6368
  C  C404  1  0.193540  0.693540  0.592000  1.0  -0.0249
  C  C405  1  0.713500  0.213500  0.557600  1.0  0.6368
  C  C406  1  0.693540  0.193540  0.592000  1.0  -0.0249
  C  C407  1  0.713500  0.713500  0.057600  1.0  0.6368
  C  C408  1  0.693540  0.693540  0.092000  1.0  -0.0249
  C  C409  1  0.213500  0.786500  0.942400  1.0  0.6373
  C  C410  1  0.193540  0.806460  0.908000  1.0  -0.025
  C  C411  1  0.213500  0.286500  0.442400  1.0  0.6373
  C  C412  1  0.193540  0.306460  0.408000  1.0  -0.025
  C  C413  1  0.713500  0.786500  0.442400  1.0  0.6373
  C  C414  1  0.693540  0.806460  0.408000  1.0  -0.025
  C  C415  1  0.713500  0.286500  0.942400  1.0  0.6373
  C  C416  1  0.693540  0.306460  0.908000  1.0  -0.025
  C  C417  1  0.786500  0.213500  0.942400  1.0  0.6369
  C  C418  1  0.806460  0.193540  0.908000  1.0  -0.0249
  C  C419  1  0.786500  0.713500  0.442400  1.0  0.6369
  C  C420  1  0.806460  0.693540  0.408000  1.0  -0.0249
  C  C421  1  0.286500  0.213500  0.442400  1.0  0.6369
  C  C422  1  0.306460  0.193540  0.408000  1.0  -0.0249
  C  C423  1  0.286500  0.713500  0.942400  1.0  0.6369
  C  C424  1  0.306460  0.693540  0.908000  1.0  -0.0249
  C  C425  1  0.786500  0.786500  0.057600  1.0  0.6367
  C  C426  1  0.806460  0.806460  0.092000  1.0  -0.0251
  C  C427  1  0.786500  0.286500  0.557600  1.0  0.6367
  C  C428  1  0.806460  0.306460  0.592000  1.0  -0.0251
  C  C429  1  0.286500  0.786500  0.557600  1.0  0.6367
  C  C430  1  0.306460  0.806460  0.592000  1.0  -0.0251
  C  C431  1  0.286500  0.286500  0.057600  1.0  0.6367
  C  C432  1  0.306460  0.306460  0.092000  1.0  -0.0251
  C  C433  1  0.858800  0.141200  0.192200  1.0  0.0606
  C  C434  1  0.858800  0.641200  0.692200  1.0  0.0606
  C  C435  1  0.358800  0.141200  0.692200  1.0  0.0606
  C  C436  1  0.358800  0.641200  0.192200  1.0  0.0606
  C  C437  1  0.141200  0.858800  0.192200  1.0  0.0595
  C  C438  1  0.141200  0.358800  0.692200  1.0  0.0595
  C  C439  1  0.641200  0.858800  0.692200  1.0  0.0595
  C  C440  1  0.641200  0.358800  0.192200  1.0  0.0595
  C  C441  1  0.141200  0.141200  0.807800  1.0  0.0617
  C  C442  1  0.141200  0.641200  0.307800  1.0  0.0617
  C  C443  1  0.641200  0.141200  0.307800  1.0  0.0617
  C  C444  1  0.641200  0.641200  0.807800  1.0  0.0617
  C  C445  1  0.858800  0.858800  0.807800  1.0  0.0622
  C  C446  1  0.858800  0.358800  0.307800  1.0  0.0622
  C  C447  1  0.358800  0.858800  0.307800  1.0  0.0622
  C  C448  1  0.358800  0.358800  0.807800  1.0  0.0622
  C  C449  1  0.192200  0.858800  0.141200  1.0  0.0584
  C  C450  1  0.192200  0.358800  0.641200  1.0  0.0584
  C  C451  1  0.692200  0.858800  0.641200  1.0  0.0584
  C  C452  1  0.692200  0.358800  0.141200  1.0  0.0584
  C  C453  1  0.192200  0.141200  0.858800  1.0  0.0579
  C  C454  1  0.192200  0.641200  0.358800  1.0  0.0579
  C  C455  1  0.692200  0.141200  0.358800  1.0  0.0579
  C  C456  1  0.692200  0.641200  0.858800  1.0  0.0579
  C  C457  1  0.807800  0.141200  0.141200  1.0  0.0591
  C  C458  1  0.807800  0.641200  0.641200  1.0  0.0591
  C  C459  1  0.307800  0.141200  0.641200  1.0  0.0591
  C  C460  1  0.307800  0.641200  0.141200  1.0  0.0591
  C  C461  1  0.807800  0.858800  0.858800  1.0  0.0578
  C  C462  1  0.807800  0.358800  0.358800  1.0  0.0578
  C  C463  1  0.307800  0.858800  0.358800  1.0  0.0578
  C  C464  1  0.307800  0.358800  0.858800  1.0  0.0578
  C  C465  1  0.141200  0.192200  0.858800  1.0  0.0569
  C  C466  1  0.141200  0.692200  0.358800  1.0  0.0569
  C  C467  1  0.641200  0.192200  0.358800  1.0  0.0569
  C  C468  1  0.641200  0.692200  0.858800  1.0  0.0569
  C  C469  1  0.858800  0.192200  0.141200  1.0  0.0591
  C  C470  1  0.858800  0.692200  0.641200  1.0  0.0591
  C  C471  1  0.358800  0.192200  0.641200  1.0  0.0591
  C  C472  1  0.358800  0.692200  0.141200  1.0  0.0591
  C  C473  1  0.141200  0.807800  0.141200  1.0  0.059
  C  C474  1  0.141200  0.307800  0.641200  1.0  0.059
  C  C475  1  0.641200  0.807800  0.641200  1.0  0.059
  C  C476  1  0.641200  0.307800  0.141200  1.0  0.059
  C  C477  1  0.858800  0.807800  0.858800  1.0  0.0592
  C  C478  1  0.858800  0.307800  0.358800  1.0  0.0592
  C  C479  1  0.358800  0.807800  0.358800  1.0  0.0592
  C  C480  1  0.358800  0.307800  0.858800  1.0  0.0592
  C  C481  1  0.141200  0.858800  0.807800  1.0  0.0615
  C  C482  1  0.141200  0.358800  0.307800  1.0  0.0615
  C  C483  1  0.641200  0.858800  0.307800  1.0  0.0615
  C  C484  1  0.641200  0.358800  0.807800  1.0  0.0615
  C  C485  1  0.858800  0.141200  0.807800  1.0  0.0625
  C  C486  1  0.858800  0.641200  0.307800  1.0  0.0625
  C  C487  1  0.358800  0.141200  0.307800  1.0  0.0625
  C  C488  1  0.358800  0.641200  0.807800  1.0  0.0625
  C  C489  1  0.141200  0.141200  0.192200  1.0  0.0597
  C  C490  1  0.141200  0.641200  0.692200  1.0  0.0597
  C  C491  1  0.641200  0.141200  0.692200  1.0  0.0597
  C  C492  1  0.641200  0.641200  0.192200  1.0  0.0597
  C  C493  1  0.858800  0.858800  0.192200  1.0  0.0606
  C  C494  1  0.858800  0.358800  0.692200  1.0  0.0606
  C  C495  1  0.358800  0.858800  0.692200  1.0  0.0606
  C  C496  1  0.358800  0.358800  0.192200  1.0  0.0606
  C  C497  1  0.858800  0.192200  0.858800  1.0  0.0578
  C  C498  1  0.858800  0.692200  0.358800  1.0  0.0578
  C  C499  1  0.358800  0.192200  0.358800  1.0  0.0578
  C  C500  1  0.358800  0.692200  0.858800  1.0  0.0578
  C  C501  1  0.141200  0.192200  0.141200  1.0  0.0584
  C  C502  1  0.141200  0.692200  0.641200  1.0  0.0584
  C  C503  1  0.641200  0.192200  0.641200  1.0  0.0584
  C  C504  1  0.641200  0.692200  0.141200  1.0  0.0584
  C  C505  1  0.141200  0.807800  0.858800  1.0  0.0587
  C  C506  1  0.141200  0.307800  0.358800  1.0  0.0587
  C  C507  1  0.641200  0.807800  0.358800  1.0  0.0587
  C  C508  1  0.641200  0.307800  0.858800  1.0  0.0587
  C  C509  1  0.858800  0.807800  0.141200  1.0  0.0597
  C  C510  1  0.858800  0.307800  0.641200  1.0  0.0597
  C  C511  1  0.358800  0.807800  0.641200  1.0  0.0597
  C  C512  1  0.358800  0.307800  0.141200  1.0  0.0597
  C  C513  1  0.192200  0.141200  0.141200  1.0  0.0584
  C  C514  1  0.192200  0.641200  0.641200  1.0  0.0584
  C  C515  1  0.692200  0.141200  0.641200  1.0  0.0584
  C  C516  1  0.692200  0.641200  0.141200  1.0  0.0584
  C  C517  1  0.192200  0.858800  0.858800  1.0  0.0577
  C  C518  1  0.192200  0.358800  0.358800  1.0  0.0577
  C  C519  1  0.692200  0.858800  0.358800  1.0  0.0577
  C  C520  1  0.692200  0.358800  0.858800  1.0  0.0577
  C  C521  1  0.807800  0.141200  0.858800  1.0  0.0581
  C  C522  1  0.807800  0.641200  0.358800  1.0  0.0581
  C  C523  1  0.307800  0.141200  0.358800  1.0  0.0581
  C  C524  1  0.307800  0.641200  0.858800  1.0  0.0581
  C  C525  1  0.807800  0.858800  0.141200  1.0  0.0593
  C  C526  1  0.807800  0.358800  0.641200  1.0  0.0593
  C  C527  1  0.307800  0.858800  0.641200  1.0  0.0593
  C  C528  1  0.307800  0.358800  0.141200  1.0  0.0593
  C  C529  1  0.843400  0.156600  0.156600  1.0  0.0006
  C  C530  1  0.843400  0.656600  0.656600  1.0  0.0006
  C  C531  1  0.343400  0.156600  0.656600  1.0  0.0006
  C  C532  1  0.343400  0.656600  0.156600  1.0  0.0006
  C  C533  1  0.156600  0.843400  0.156600  1.0  0.0004
  C  C534  1  0.156600  0.343400  0.656600  1.0  0.0004
  C  C535  1  0.656600  0.843400  0.656600  1.0  0.0004
  C  C536  1  0.656600  0.343400  0.156600  1.0  0.0004
  C  C537  1  0.156600  0.156600  0.843400  1.0  0.0
  C  C538  1  0.156600  0.656600  0.343400  1.0  0.0
  C  C539  1  0.656600  0.156600  0.343400  1.0  0.0
  C  C540  1  0.656600  0.656600  0.843400  1.0  0.0
  C  C541  1  0.843400  0.843400  0.843400  1.0  -1e-04
  C  C542  1  0.843400  0.343400  0.343400  1.0  -1e-04
  C  C543  1  0.343400  0.843400  0.343400  1.0  -1e-04
  C  C544  1  0.343400  0.343400  0.843400  1.0  -1e-04
  C  C545  1  0.156600  0.843400  0.843400  1.0  -1e-04
  C  C546  1  0.156600  0.343400  0.343400  1.0  -1e-04
  C  C547  1  0.656600  0.843400  0.343400  1.0  -1e-04
  C  C548  1  0.656600  0.343400  0.843400  1.0  -1e-04
  C  C549  1  0.843400  0.156600  0.843400  1.0  1e-04
  C  C550  1  0.843400  0.656600  0.343400  1.0  1e-04
  C  C551  1  0.343400  0.156600  0.343400  1.0  1e-04
  C  C552  1  0.343400  0.656600  0.843400  1.0  1e-04
  C  C553  1  0.156600  0.156600  0.156600  1.0  0.0005
  C  C554  1  0.156600  0.656600  0.656600  1.0  0.0005
  C  C555  1  0.656600  0.156600  0.656600  1.0  0.0005
  C  C556  1  0.656600  0.656600  0.156600  1.0  0.0005
  C  C557  1  0.843400  0.843400  0.156600  1.0  0.0005
  C  C558  1  0.843400  0.343400  0.656600  1.0  0.0005
  C  C559  1  0.343400  0.843400  0.656600  1.0  0.0005
  C  C560  1  0.343400  0.343400  0.156600  1.0  0.0005
  O  O561  1  0.960600  0.244660  0.199900  1.0  -0.5557
  O  O562  1  0.960600  0.744660  0.699900  1.0  -0.5556
  O  O563  1  0.460600  0.244660  0.699900  1.0  -0.5557
  O  O564  1  0.460600  0.744660  0.199900  1.0  -0.5559
  O  O565  1  0.039400  0.755340  0.199900  1.0  -0.5526
  O  O566  1  0.039400  0.255340  0.699900  1.0  -0.5524
  O  O567  1  0.539400  0.755340  0.699900  1.0  -0.5525
  O  O568  1  0.539400  0.255340  0.199900  1.0  -0.5525
  O  O569  1  0.039400  0.244660  0.800100  1.0  -0.5568
  O  O570  1  0.039400  0.744660  0.300100  1.0  -0.5556
  O  O571  1  0.539400  0.244660  0.300100  1.0  -0.5557
  O  O572  1  0.539400  0.744660  0.800100  1.0  -0.5554
  O  O573  1  0.960600  0.755340  0.800100  1.0  -0.5549
  O  O574  1  0.960600  0.255340  0.300100  1.0  -0.5549
  O  O575  1  0.460600  0.755340  0.300100  1.0  -0.5549
  O  O576  1  0.460600  0.255340  0.800100  1.0  -0.5547
  O  O577  1  0.199900  0.960600  0.244660  1.0  -0.5515
  O  O578  1  0.199900  0.460600  0.744660  1.0  -0.5515
  O  O579  1  0.699900  0.960600  0.744660  1.0  -0.5514
  O  O580  1  0.699900  0.460600  0.244660  1.0  -0.5514
  O  O581  1  0.199900  0.039400  0.755340  1.0  -0.5529
  O  O582  1  0.199900  0.539400  0.255340  1.0  -0.5529
  O  O583  1  0.699900  0.039400  0.255340  1.0  -0.5525
  O  O584  1  0.699900  0.539400  0.755340  1.0  -0.5525
  O  O585  1  0.800100  0.039400  0.244660  1.0  -0.5507
  O  O586  1  0.800100  0.539400  0.744660  1.0  -0.5507
  O  O587  1  0.300100  0.039400  0.744660  1.0  -0.5508
  O  O588  1  0.300100  0.539400  0.244660  1.0  -0.5508
  O  O589  1  0.800100  0.960600  0.755340  1.0  -0.5526
  O  O590  1  0.800100  0.460600  0.255340  1.0  -0.5526
  O  O591  1  0.300100  0.960600  0.255340  1.0  -0.5514
  O  O592  1  0.300100  0.460600  0.755340  1.0  -0.5514
  O  O593  1  0.244660  0.199900  0.960600  1.0  -0.554
  O  O594  1  0.244660  0.699900  0.460600  1.0  -0.554
  O  O595  1  0.744660  0.199900  0.460600  1.0  -0.5542
  O  O596  1  0.744660  0.699900  0.960600  1.0  -0.554
  O  O597  1  0.755340  0.199900  0.039400  1.0  -0.5538
  O  O598  1  0.755340  0.699900  0.539400  1.0  -0.5537
  O  O599  1  0.255340  0.199900  0.539400  1.0  -0.5537
  O  O600  1  0.255340  0.699900  0.039400  1.0  -0.5536
  O  O601  1  0.244660  0.800100  0.039400  1.0  -0.5563
  O  O602  1  0.244660  0.300100  0.539400  1.0  -0.5563
  O  O603  1  0.744660  0.800100  0.539400  1.0  -0.5563
  O  O604  1  0.744660  0.300100  0.039400  1.0  -0.5563
  O  O605  1  0.755340  0.800100  0.960600  1.0  -0.5554
  O  O606  1  0.755340  0.300100  0.460600  1.0  -0.5554
  O  O607  1  0.255340  0.800100  0.460600  1.0  -0.5553
  O  O608  1  0.255340  0.300100  0.960600  1.0  -0.5554
  O  O609  1  0.244660  0.960600  0.800100  1.0  -0.5536
  O  O610  1  0.244660  0.460600  0.300100  1.0  -0.5536
  O  O611  1  0.744660  0.960600  0.300100  1.0  -0.5536
  O  O612  1  0.744660  0.460600  0.800100  1.0  -0.5538
  O  O613  1  0.755340  0.039400  0.800100  1.0  -0.5532
  O  O614  1  0.755340  0.539400  0.300100  1.0  -0.5531
  O  O615  1  0.255340  0.039400  0.300100  1.0  -0.5531
  O  O616  1  0.255340  0.539400  0.800100  1.0  -0.5531
  O  O617  1  0.244660  0.039400  0.199900  1.0  -0.5525
  O  O618  1  0.244660  0.539400  0.699900  1.0  -0.5536
  O  O619  1  0.744660  0.039400  0.699900  1.0  -0.5525
  O  O620  1  0.744660  0.539400  0.199900  1.0  -0.5522
  O  O621  1  0.755340  0.960600  0.199900  1.0  -0.5514
  O  O622  1  0.755340  0.460600  0.699900  1.0  -0.5514
  O  O623  1  0.255340  0.960600  0.699900  1.0  -0.5513
  O  O624  1  0.255340  0.460600  0.199900  1.0  -0.5524
  O  O625  1  0.960600  0.199900  0.755340  1.0  -0.5555
  O  O626  1  0.960600  0.699900  0.255340  1.0  -0.5555
  O  O627  1  0.460600  0.199900  0.255340  1.0  -0.5555
  O  O628  1  0.460600  0.699900  0.755340  1.0  -0.5555
  O  O629  1  0.039400  0.199900  0.244660  1.0  -0.5542
  O  O630  1  0.039400  0.699900  0.744660  1.0  -0.5542
  O  O631  1  0.539400  0.199900  0.744660  1.0  -0.5542
  O  O632  1  0.539400  0.699900  0.244660  1.0  -0.5541
  O  O633  1  0.039400  0.800100  0.755340  1.0  -0.5573
  O  O634  1  0.039400  0.300100  0.255340  1.0  -0.5572
  O  O635  1  0.539400  0.800100  0.255340  1.0  -0.5569
  O  O636  1  0.539400  0.300100  0.755340  1.0  -0.5572
  O  O637  1  0.960600  0.800100  0.244660  1.0  -0.5564
  O  O638  1  0.960600  0.300100  0.744660  1.0  -0.5563
  O  O639  1  0.460600  0.800100  0.744660  1.0  -0.5564
  O  O640  1  0.460600  0.300100  0.244660  1.0  -0.5564
  O  O641  1  0.199900  0.244660  0.039400  1.0  -0.5547
  O  O642  1  0.199900  0.744660  0.539400  1.0  -0.5535
  O  O643  1  0.699900  0.244660  0.539400  1.0  -0.5534
  O  O644  1  0.699900  0.744660  0.039400  1.0  -0.5547
  O  O645  1  0.199900  0.755340  0.960600  1.0  -0.5513
  O  O646  1  0.199900  0.255340  0.460600  1.0  -0.5514
  O  O647  1  0.699900  0.755340  0.460600  1.0  -0.5514
  O  O648  1  0.699900  0.255340  0.960600  1.0  -0.5514
  O  O649  1  0.800100  0.244660  0.960600  1.0  -0.5514
  O  O650  1  0.800100  0.744660  0.460600  1.0  -0.5514
  O  O651  1  0.300100  0.244660  0.460600  1.0  -0.5518
  O  O652  1  0.300100  0.744660  0.960600  1.0  -0.5516
  O  O653  1  0.800100  0.755340  0.039400  1.0  -0.5512
  O  O654  1  0.800100  0.255340  0.539400  1.0  -0.5512
  O  O655  1  0.300100  0.755340  0.539400  1.0  -0.5515
  O  O656  1  0.300100  0.255340  0.039400  1.0  -0.5515
  O  O657  1  0.039400  0.755340  0.800100  1.0  -0.5539
  O  O658  1  0.039400  0.255340  0.300100  1.0  -0.554
  O  O659  1  0.539400  0.755340  0.300100  1.0  -0.554
  O  O660  1  0.539400  0.255340  0.800100  1.0  -0.5536
  O  O661  1  0.960600  0.244660  0.800100  1.0  -0.5566
  O  O662  1  0.960600  0.744660  0.300100  1.0  -0.5566
  O  O663  1  0.460600  0.244660  0.300100  1.0  -0.5566
  O  O664  1  0.460600  0.744660  0.800100  1.0  -0.5564
  O  O665  1  0.960600  0.755340  0.199900  1.0  -0.5528
  O  O666  1  0.960600  0.255340  0.699900  1.0  -0.5524
  O  O667  1  0.460600  0.755340  0.699900  1.0  -0.5527
  O  O668  1  0.460600  0.255340  0.199900  1.0  -0.5527
  O  O669  1  0.039400  0.244660  0.199900  1.0  -0.5564
  O  O670  1  0.039400  0.744660  0.699900  1.0  -0.5563
  O  O671  1  0.539400  0.244660  0.699900  1.0  -0.5552
  O  O672  1  0.539400  0.744660  0.199900  1.0  -0.5555
  O  O673  1  0.800100  0.039400  0.755340  1.0  -0.5514
  O  O674  1  0.800100  0.539400  0.255340  1.0  -0.5514
  O  O675  1  0.300100  0.039400  0.255340  1.0  -0.5515
  O  O676  1  0.300100  0.539400  0.755340  1.0  -0.5515
  O  O677  1  0.800100  0.960600  0.244660  1.0  -0.5515
  O  O678  1  0.800100  0.460600  0.744660  1.0  -0.5501
  O  O679  1  0.300100  0.960600  0.744660  1.0  -0.5504
  O  O680  1  0.300100  0.460600  0.244660  1.0  -0.5502
  O  O681  1  0.199900  0.960600  0.755340  1.0  -0.5529
  O  O682  1  0.199900  0.460600  0.255340  1.0  -0.5529
  O  O683  1  0.699900  0.960600  0.255340  1.0  -0.5528
  O  O684  1  0.699900  0.460600  0.755340  1.0  -0.5528
  O  O685  1  0.199900  0.039400  0.244660  1.0  -0.5519
  O  O686  1  0.199900  0.539400  0.744660  1.0  -0.5519
  O  O687  1  0.699900  0.039400  0.744660  1.0  -0.5517
  O  O688  1  0.699900  0.539400  0.244660  1.0  -0.5517
  O  O689  1  0.755340  0.800100  0.039400  1.0  -0.5552
  O  O690  1  0.755340  0.300100  0.539400  1.0  -0.5553
  O  O691  1  0.255340  0.800100  0.539400  1.0  -0.5552
  O  O692  1  0.255340  0.300100  0.039400  1.0  -0.5553
  O  O693  1  0.244660  0.800100  0.960600  1.0  -0.5562
  O  O694  1  0.244660  0.300100  0.460600  1.0  -0.5561
  O  O695  1  0.744660  0.800100  0.460600  1.0  -0.5561
  O  O696  1  0.744660  0.300100  0.960600  1.0  -0.5561
  O  O697  1  0.755340  0.199900  0.960600  1.0  -0.5537
  O  O698  1  0.755340  0.699900  0.460600  1.0  -0.5535
  O  O699  1  0.255340  0.199900  0.460600  1.0  -0.5535
  O  O700  1  0.255340  0.699900  0.960600  1.0  -0.5533
  O  O701  1  0.244660  0.199900  0.039400  1.0  -0.5558
  O  O702  1  0.244660  0.699900  0.539400  1.0  -0.5545
  O  O703  1  0.744660  0.199900  0.539400  1.0  -0.5546
  O  O704  1  0.744660  0.699900  0.039400  1.0  -0.5558
  O  O705  1  0.755340  0.039400  0.199900  1.0  -0.5514
  O  O706  1  0.755340  0.539400  0.699900  1.0  -0.5513
  O  O707  1  0.255340  0.039400  0.699900  1.0  -0.5514
  O  O708  1  0.255340  0.539400  0.199900  1.0  -0.5513
  O  O709  1  0.244660  0.960600  0.199900  1.0  -0.5524
  O  O710  1  0.244660  0.460600  0.699900  1.0  -0.5521
  O  O711  1  0.744660  0.960600  0.699900  1.0  -0.5523
  O  O712  1  0.744660  0.460600  0.199900  1.0  -0.5524
  O  O713  1  0.755340  0.960600  0.800100  1.0  -0.5546
  O  O714  1  0.755340  0.460600  0.300100  1.0  -0.5534
  O  O715  1  0.255340  0.960600  0.300100  1.0  -0.5534
  O  O716  1  0.255340  0.460600  0.800100  1.0  -0.5545
  O  O717  1  0.244660  0.039400  0.800100  1.0  -0.5537
  O  O718  1  0.244660  0.539400  0.300100  1.0  -0.5538
  O  O719  1  0.744660  0.039400  0.300100  1.0  -0.5536
  O  O720  1  0.744660  0.539400  0.800100  1.0  -0.5537
  O  O721  1  0.039400  0.800100  0.244660  1.0  -0.5562
  O  O722  1  0.039400  0.300100  0.744660  1.0  -0.5562
  O  O723  1  0.539400  0.800100  0.744660  1.0  -0.5562
  O  O724  1  0.539400  0.300100  0.244660  1.0  -0.5562
  O  O725  1  0.960600  0.800100  0.755340  1.0  -0.5579
  O  O726  1  0.960600  0.300100  0.255340  1.0  -0.5581
  O  O727  1  0.460600  0.800100  0.255340  1.0  -0.5591
  O  O728  1  0.460600  0.300100  0.755340  1.0  -0.5576
  O  O729  1  0.960600  0.199900  0.244660  1.0  -0.5547
  O  O730  1  0.960600  0.699900  0.744660  1.0  -0.5548
  O  O731  1  0.460600  0.199900  0.744660  1.0  -0.5548
  O  O732  1  0.460600  0.699900  0.244660  1.0  -0.5548
  O  O733  1  0.039400  0.199900  0.755340  1.0  -0.5547
  O  O734  1  0.039400  0.699900  0.255340  1.0  -0.5548
  O  O735  1  0.539400  0.199900  0.255340  1.0  -0.5547
  O  O736  1  0.539400  0.699900  0.755340  1.0  -0.5547
  O  O737  1  0.800100  0.755340  0.960600  1.0  -0.5513
  O  O738  1  0.800100  0.255340  0.460600  1.0  -0.5513
  O  O739  1  0.300100  0.755340  0.460600  1.0  -0.5513
  O  O740  1  0.300100  0.255340  0.960600  1.0  -0.5513
  O  O741  1  0.800100  0.244660  0.039400  1.0  -0.5519
  O  O742  1  0.800100  0.744660  0.539400  1.0  -0.5519
  O  O743  1  0.300100  0.244660  0.539400  1.0  -0.5522
  O  O744  1  0.300100  0.744660  0.039400  1.0  -0.5522
  O  O745  1  0.199900  0.755340  0.039400  1.0  -0.5515
  O  O746  1  0.199900  0.255340  0.539400  1.0  -0.5516
  O  O747  1  0.699900  0.755340  0.539400  1.0  -0.5516
  O  O748  1  0.699900  0.255340  0.039400  1.0  -0.5514
  O  O749  1  0.199900  0.244660  0.960600  1.0  -0.5531
  O  O750  1  0.199900  0.744660  0.460600  1.0  -0.5533
  O  O751  1  0.699900  0.244660  0.460600  1.0  -0.5532
  O  O752  1  0.699900  0.744660  0.960600  1.0  -0.5532
