# generated using pymatgen
data_Cu9(C19O9)4
_symmetry_space_group_name_H-M   'P 1'
_cell_length_a   29.83070000
_cell_length_b   29.83070000
_cell_length_c   29.83070000
_cell_angle_alpha   90.00000000
_cell_angle_beta   90.00000000
_cell_angle_gamma   90.00000000
_symmetry_Int_Tables_number   1
_chemical_formula_structural   Cu9(C19O9)4
_chemical_formula_sum   'Cu72 C608 O288'
_cell_volume   26545.46477154
_cell_formula_units_Z   8
loop_
 _symmetry_equiv_pos_site_id
 _symmetry_equiv_pos_as_xyz
  1  'x, y, z'
loop_
 _atom_site_type_symbol
 _atom_site_label
 _atom_site_symmetry_multiplicity
 _atom_site_fract_x
 _atom_site_fract_y
 _atom_site_fract_z
 _atom_site_occupancy
 _atom_site_charge
  Cu  Cu1  1  0.250000  0.250000  0.500000  1.0  0.775
  Cu  Cu2  1  0.250000  0.750000  0.000000  1.0  0.775
  Cu  Cu3  1  0.750000  0.750000  0.500000  1.0  0.775
  Cu  Cu4  1  0.750000  0.250000  0.000000  1.0  0.775
  Cu  Cu5  1  0.750000  0.250000  0.500000  1.0  0.775
  Cu  Cu6  1  0.750000  0.750000  0.000000  1.0  0.775
  Cu  Cu7  1  0.250000  0.250000  0.000000  1.0  0.775
  Cu  Cu8  1  0.250000  0.750000  0.500000  1.0  0.775
  Cu  Cu9  1  0.500000  0.250000  0.250000  1.0  0.775
  Cu  Cu10  1  0.000000  0.250000  0.750000  1.0  0.775
  Cu  Cu11  1  0.500000  0.750000  0.750000  1.0  0.775
  Cu  Cu12  1  0.000000  0.750000  0.250000  1.0  0.775
  Cu  Cu13  1  0.500000  0.750000  0.250000  1.0  0.775
  Cu  Cu14  1  0.000000  0.750000  0.750000  1.0  0.775
  Cu  Cu15  1  0.000000  0.250000  0.250000  1.0  0.775
  Cu  Cu16  1  0.500000  0.250000  0.750000  1.0  0.775
  Cu  Cu17  1  0.250000  0.500000  0.250000  1.0  0.775
  Cu  Cu18  1  0.250000  0.000000  0.750000  1.0  0.775
  Cu  Cu19  1  0.750000  0.500000  0.750000  1.0  0.775
  Cu  Cu20  1  0.750000  0.000000  0.250000  1.0  0.775
  Cu  Cu21  1  0.250000  0.500000  0.750000  1.0  0.775
  Cu  Cu22  1  0.250000  0.000000  0.250000  1.0  0.775
  Cu  Cu23  1  0.750000  0.500000  0.250000  1.0  0.775
  Cu  Cu24  1  0.750000  0.000000  0.750000  1.0  0.775
  Cu  Cu25  1  0.193850  0.306150  0.500000  1.0  0.9341
  Cu  Cu26  1  0.193850  0.806150  0.000000  1.0  0.9341
  Cu  Cu27  1  0.806150  0.693850  0.500000  1.0  0.9319
  Cu  Cu28  1  0.806150  0.193850  0.000000  1.0  0.9319
  Cu  Cu29  1  0.806150  0.306150  0.500000  1.0  0.933
  Cu  Cu30  1  0.806150  0.806150  0.000000  1.0  0.933
  Cu  Cu31  1  0.193850  0.693850  0.500000  1.0  0.9334
  Cu  Cu32  1  0.193850  0.193850  0.000000  1.0  0.9334
  Cu  Cu33  1  0.500000  0.193850  0.306150  1.0  0.9279
  Cu  Cu34  1  0.000000  0.193850  0.806150  1.0  0.9279
  Cu  Cu35  1  0.500000  0.806150  0.693850  1.0  0.9328
  Cu  Cu36  1  0.000000  0.806150  0.193850  1.0  0.9328
  Cu  Cu37  1  0.500000  0.806150  0.306150  1.0  0.9311
  Cu  Cu38  1  0.000000  0.806150  0.806150  1.0  0.9311
  Cu  Cu39  1  0.500000  0.193850  0.693850  1.0  0.9328
  Cu  Cu40  1  0.000000  0.193850  0.193850  1.0  0.9328
  Cu  Cu41  1  0.306150  0.500000  0.193850  1.0  0.9356
  Cu  Cu42  1  0.306150  0.000000  0.693850  1.0  0.9356
  Cu  Cu43  1  0.693850  0.500000  0.806150  1.0  0.9341
  Cu  Cu44  1  0.693850  0.000000  0.306150  1.0  0.9341
  Cu  Cu45  1  0.306150  0.500000  0.806150  1.0  0.9323
  Cu  Cu46  1  0.306150  0.000000  0.306150  1.0  0.9323
  Cu  Cu47  1  0.693850  0.500000  0.193850  1.0  0.9376
  Cu  Cu48  1  0.693850  0.000000  0.693850  1.0  0.9376
  Cu  Cu49  1  0.306150  0.193850  0.500000  1.0  0.9319
  Cu  Cu50  1  0.306150  0.693850  0.000000  1.0  0.9319
  Cu  Cu51  1  0.693850  0.806150  0.500000  1.0  0.9341
  Cu  Cu52  1  0.693850  0.306150  0.000000  1.0  0.9341
  Cu  Cu53  1  0.306150  0.806150  0.500000  1.0  0.933
  Cu  Cu54  1  0.306150  0.306150  0.000000  1.0  0.933
  Cu  Cu55  1  0.693850  0.193850  0.500000  1.0  0.9334
  Cu  Cu56  1  0.693850  0.693850  0.000000  1.0  0.9334
  Cu  Cu57  1  0.193850  0.500000  0.693850  1.0  0.9376
  Cu  Cu58  1  0.193850  0.000000  0.193850  1.0  0.9376
  Cu  Cu59  1  0.806150  0.500000  0.306150  1.0  0.9323
  Cu  Cu60  1  0.806150  0.000000  0.806150  1.0  0.9323
  Cu  Cu61  1  0.806150  0.500000  0.693850  1.0  0.9356
  Cu  Cu62  1  0.806150  0.000000  0.193850  1.0  0.9356
  Cu  Cu63  1  0.193850  0.500000  0.306150  1.0  0.9341
  Cu  Cu64  1  0.193850  0.000000  0.806150  1.0  0.9341
  Cu  Cu65  1  0.500000  0.306150  0.806150  1.0  0.9311
  Cu  Cu66  1  0.000000  0.306150  0.306150  1.0  0.9311
  Cu  Cu67  1  0.500000  0.693850  0.193850  1.0  0.9328
  Cu  Cu68  1  0.000000  0.693850  0.693850  1.0  0.9328
  Cu  Cu69  1  0.500000  0.306150  0.193850  1.0  0.9328
  Cu  Cu70  1  0.000000  0.306150  0.693850  1.0  0.9328
  Cu  Cu71  1  0.500000  0.693850  0.806150  1.0  0.9279
  Cu  Cu72  1  0.000000  0.693850  0.306150  1.0  0.9279
  C  C73  1  0.181300  0.231500  0.437400  1.0  0.3791
  C  C74  1  0.158400  0.212100  0.398700  1.0  0.0932
  C  C75  1  0.181300  0.731500  0.937400  1.0  0.3791
  C  C76  1  0.158400  0.712100  0.898700  1.0  0.0932
  C  C77  1  0.681300  0.231500  0.937400  1.0  0.3791
  C  C78  1  0.658400  0.212100  0.898700  1.0  0.0932
  C  C79  1  0.681300  0.731500  0.437400  1.0  0.3791
  C  C80  1  0.658400  0.712100  0.398700  1.0  0.0932
  C  C81  1  0.818700  0.768500  0.437400  1.0  0.3801
  C  C82  1  0.841600  0.787900  0.398700  1.0  0.0936
  C  C83  1  0.818700  0.268500  0.937400  1.0  0.3801
  C  C84  1  0.841600  0.287900  0.898700  1.0  0.0936
  C  C85  1  0.318700  0.768500  0.937400  1.0  0.3801
  C  C86  1  0.341600  0.787900  0.898700  1.0  0.0936
  C  C87  1  0.318700  0.268500  0.437400  1.0  0.3801
  C  C88  1  0.341600  0.287900  0.398700  1.0  0.0936
  C  C89  1  0.818700  0.231500  0.562600  1.0  0.3796
  C  C90  1  0.841600  0.212100  0.601300  1.0  0.0935
  C  C91  1  0.818700  0.731500  0.062600  1.0  0.3796
  C  C92  1  0.841600  0.712100  0.101300  1.0  0.0935
  C  C93  1  0.318700  0.231500  0.062600  1.0  0.3796
  C  C94  1  0.341600  0.212100  0.101300  1.0  0.0935
  C  C95  1  0.318700  0.731500  0.562600  1.0  0.3796
  C  C96  1  0.341600  0.712100  0.601300  1.0  0.0935
  C  C97  1  0.181300  0.768500  0.562600  1.0  0.379
  C  C98  1  0.158400  0.787900  0.601300  1.0  0.0915
  C  C99  1  0.181300  0.268500  0.062600  1.0  0.379
  C  C100  1  0.158400  0.287900  0.101300  1.0  0.0915
  C  C101  1  0.681300  0.768500  0.062600  1.0  0.379
  C  C102  1  0.658400  0.787900  0.101300  1.0  0.0915
  C  C103  1  0.681300  0.268500  0.562600  1.0  0.379
  C  C104  1  0.658400  0.287900  0.601300  1.0  0.0915
  C  C105  1  0.437400  0.181300  0.231500  1.0  0.3819
  C  C106  1  0.398700  0.158400  0.212100  1.0  0.0916
  C  C107  1  0.437400  0.681300  0.731500  1.0  0.3819
  C  C108  1  0.398700  0.658400  0.712100  1.0  0.0916
  C  C109  1  0.937400  0.181300  0.731500  1.0  0.3819
  C  C110  1  0.898700  0.158400  0.712100  1.0  0.0916
  C  C111  1  0.937400  0.681300  0.231500  1.0  0.3819
  C  C112  1  0.898700  0.658400  0.212100  1.0  0.0916
  C  C113  1  0.437400  0.818700  0.768500  1.0  0.3823
  C  C114  1  0.398700  0.841600  0.787900  1.0  0.0913
  C  C115  1  0.437400  0.318700  0.268500  1.0  0.3823
  C  C116  1  0.398700  0.341600  0.287900  1.0  0.0913
  C  C117  1  0.937400  0.818700  0.268500  1.0  0.3823
  C  C118  1  0.898700  0.841600  0.287900  1.0  0.0913
  C  C119  1  0.937400  0.318700  0.768500  1.0  0.3823
  C  C120  1  0.898700  0.341600  0.787900  1.0  0.0913
  C  C121  1  0.562600  0.818700  0.231500  1.0  0.3811
  C  C122  1  0.601300  0.841600  0.212100  1.0  0.0927
  C  C123  1  0.562600  0.318700  0.731500  1.0  0.3811
  C  C124  1  0.601300  0.341600  0.712100  1.0  0.0927
  C  C125  1  0.062600  0.818700  0.731500  1.0  0.3811
  C  C126  1  0.101300  0.841600  0.712100  1.0  0.0927
  C  C127  1  0.062600  0.318700  0.231500  1.0  0.3811
  C  C128  1  0.101300  0.341600  0.212100  1.0  0.0927
  C  C129  1  0.562600  0.181300  0.768500  1.0  0.3817
  C  C130  1  0.601300  0.158400  0.787900  1.0  0.0902
  C  C131  1  0.562600  0.681300  0.268500  1.0  0.3817
  C  C132  1  0.601300  0.658400  0.287900  1.0  0.0902
  C  C133  1  0.062600  0.181300  0.268500  1.0  0.3817
  C  C134  1  0.101300  0.158400  0.287900  1.0  0.0902
  C  C135  1  0.062600  0.681300  0.768500  1.0  0.3817
  C  C136  1  0.101300  0.658400  0.787900  1.0  0.0902
  C  C137  1  0.231500  0.437400  0.181300  1.0  0.3836
  C  C138  1  0.212100  0.398700  0.158400  1.0  0.0932
  C  C139  1  0.231500  0.937400  0.681300  1.0  0.3836
  C  C140  1  0.212100  0.898700  0.658400  1.0  0.0932
  C  C141  1  0.731500  0.437400  0.681300  1.0  0.3836
  C  C142  1  0.712100  0.398700  0.658400  1.0  0.0932
  C  C143  1  0.731500  0.937400  0.181300  1.0  0.3836
  C  C144  1  0.712100  0.898700  0.158400  1.0  0.0932
  C  C145  1  0.768500  0.437400  0.818700  1.0  0.3838
  C  C146  1  0.787900  0.398700  0.841600  1.0  0.0935
  C  C147  1  0.768500  0.937400  0.318700  1.0  0.3838
  C  C148  1  0.787900  0.898700  0.341600  1.0  0.0935
  C  C149  1  0.268500  0.437400  0.318700  1.0  0.3838
  C  C150  1  0.287900  0.398700  0.341600  1.0  0.0935
  C  C151  1  0.268500  0.937400  0.818700  1.0  0.3838
  C  C152  1  0.287900  0.898700  0.841600  1.0  0.0935
  C  C153  1  0.231500  0.562600  0.818700  1.0  0.3832
  C  C154  1  0.212100  0.601300  0.841600  1.0  0.094
  C  C155  1  0.231500  0.062600  0.318700  1.0  0.3832
  C  C156  1  0.212100  0.101300  0.341600  1.0  0.094
  C  C157  1  0.731500  0.562600  0.318700  1.0  0.3832
  C  C158  1  0.712100  0.601300  0.341600  1.0  0.094
  C  C159  1  0.731500  0.062600  0.818700  1.0  0.3832
  C  C160  1  0.712100  0.101300  0.841600  1.0  0.094
  C  C161  1  0.768500  0.562600  0.181300  1.0  0.3846
  C  C162  1  0.787900  0.601300  0.158400  1.0  0.0917
  C  C163  1  0.768500  0.062600  0.681300  1.0  0.3846
  C  C164  1  0.787900  0.101300  0.658400  1.0  0.0917
  C  C165  1  0.268500  0.562600  0.681300  1.0  0.3846
  C  C166  1  0.287900  0.601300  0.658400  1.0  0.0917
  C  C167  1  0.268500  0.062600  0.181300  1.0  0.3846
  C  C168  1  0.287900  0.101300  0.158400  1.0  0.0917
  C  C169  1  0.231500  0.181300  0.562600  1.0  0.3809
  C  C170  1  0.212100  0.158400  0.601300  1.0  0.0929
  C  C171  1  0.231500  0.681300  0.062600  1.0  0.3809
  C  C172  1  0.212100  0.658400  0.101300  1.0  0.0929
  C  C173  1  0.731500  0.181300  0.062600  1.0  0.3809
  C  C174  1  0.712100  0.158400  0.101300  1.0  0.0929
  C  C175  1  0.731500  0.681300  0.562600  1.0  0.3809
  C  C176  1  0.712100  0.658400  0.601300  1.0  0.0929
  C  C177  1  0.768500  0.818700  0.562600  1.0  0.3806
  C  C178  1  0.787900  0.841600  0.601300  1.0  0.0928
  C  C179  1  0.768500  0.318700  0.062600  1.0  0.3806
  C  C180  1  0.787900  0.341600  0.101300  1.0  0.0928
  C  C181  1  0.268500  0.818700  0.062600  1.0  0.3806
  C  C182  1  0.287900  0.841600  0.101300  1.0  0.0928
  C  C183  1  0.268500  0.318700  0.562600  1.0  0.3806
  C  C184  1  0.287900  0.341600  0.601300  1.0  0.0928
  C  C185  1  0.231500  0.818700  0.437400  1.0  0.3807
  C  C186  1  0.212100  0.841600  0.398700  1.0  0.0937
  C  C187  1  0.231500  0.318700  0.937400  1.0  0.3807
  C  C188  1  0.212100  0.341600  0.898700  1.0  0.0937
  C  C189  1  0.731500  0.818700  0.937400  1.0  0.3807
  C  C190  1  0.712100  0.841600  0.898700  1.0  0.0937
  C  C191  1  0.731500  0.318700  0.437400  1.0  0.3807
  C  C192  1  0.712100  0.341600  0.398700  1.0  0.0937
  C  C193  1  0.768500  0.181300  0.437400  1.0  0.3818
  C  C194  1  0.787900  0.158400  0.398700  1.0  0.0923
  C  C195  1  0.768500  0.681300  0.937400  1.0  0.3818
  C  C196  1  0.787900  0.658400  0.898700  1.0  0.0923
  C  C197  1  0.268500  0.181300  0.937400  1.0  0.3818
  C  C198  1  0.287900  0.158400  0.898700  1.0  0.0923
  C  C199  1  0.268500  0.681300  0.437400  1.0  0.3818
  C  C200  1  0.287900  0.658400  0.398700  1.0  0.0923
  C  C201  1  0.181300  0.437400  0.768500  1.0  0.3813
  C  C202  1  0.158400  0.398700  0.787900  1.0  0.092
  C  C203  1  0.181300  0.937400  0.268500  1.0  0.3813
  C  C204  1  0.158400  0.898700  0.287900  1.0  0.092
  C  C205  1  0.681300  0.437400  0.268500  1.0  0.3813
  C  C206  1  0.658400  0.398700  0.287900  1.0  0.092
  C  C207  1  0.681300  0.937400  0.768500  1.0  0.3813
  C  C208  1  0.658400  0.898700  0.787900  1.0  0.092
  C  C209  1  0.818700  0.437400  0.231500  1.0  0.3822
  C  C210  1  0.841600  0.398700  0.212100  1.0  0.0931
  C  C211  1  0.818700  0.937400  0.731500  1.0  0.3822
  C  C212  1  0.841600  0.898700  0.712100  1.0  0.0931
  C  C213  1  0.318700  0.437400  0.731500  1.0  0.3822
  C  C214  1  0.341600  0.398700  0.712100  1.0  0.0931
  C  C215  1  0.318700  0.937400  0.231500  1.0  0.3822
  C  C216  1  0.341600  0.898700  0.212100  1.0  0.0931
  C  C217  1  0.818700  0.562600  0.768500  1.0  0.3821
  C  C218  1  0.841600  0.601300  0.787900  1.0  0.0925
  C  C219  1  0.818700  0.062600  0.268500  1.0  0.3821
  C  C220  1  0.841600  0.101300  0.287900  1.0  0.0925
  C  C221  1  0.318700  0.562600  0.268500  1.0  0.3821
  C  C222  1  0.341600  0.601300  0.287900  1.0  0.0925
  C  C223  1  0.318700  0.062600  0.768500  1.0  0.3821
  C  C224  1  0.341600  0.101300  0.787900  1.0  0.0925
  C  C225  1  0.181300  0.562600  0.231500  1.0  0.381
  C  C226  1  0.158400  0.601300  0.212100  1.0  0.0926
  C  C227  1  0.181300  0.062600  0.731500  1.0  0.381
  C  C228  1  0.158400  0.101300  0.712100  1.0  0.0926
  C  C229  1  0.681300  0.562600  0.731500  1.0  0.381
  C  C230  1  0.658400  0.601300  0.712100  1.0  0.0926
  C  C231  1  0.681300  0.062600  0.231500  1.0  0.381
  C  C232  1  0.658400  0.101300  0.212100  1.0  0.0926
  C  C233  1  0.437400  0.231500  0.818700  1.0  0.3815
  C  C234  1  0.398700  0.212100  0.841600  1.0  0.0932
  C  C235  1  0.437400  0.731500  0.318700  1.0  0.3815
  C  C236  1  0.398700  0.712100  0.341600  1.0  0.0932
  C  C237  1  0.937400  0.231500  0.318700  1.0  0.3815
  C  C238  1  0.898700  0.212100  0.341600  1.0  0.0932
  C  C239  1  0.937400  0.731500  0.818700  1.0  0.3815
  C  C240  1  0.898700  0.712100  0.841600  1.0  0.0932
  C  C241  1  0.437400  0.768500  0.181300  1.0  0.3819
  C  C242  1  0.398700  0.787900  0.158400  1.0  0.0906
  C  C243  1  0.437400  0.268500  0.681300  1.0  0.3819
  C  C244  1  0.398700  0.287900  0.658400  1.0  0.0906
  C  C245  1  0.937400  0.768500  0.681300  1.0  0.3819
  C  C246  1  0.898700  0.787900  0.658400  1.0  0.0906
  C  C247  1  0.937400  0.268500  0.181300  1.0  0.3819
  C  C248  1  0.898700  0.287900  0.158400  1.0  0.0906
  C  C249  1  0.562600  0.231500  0.181300  1.0  0.3822
  C  C250  1  0.601300  0.212100  0.158400  1.0  0.0922
  C  C251  1  0.562600  0.731500  0.681300  1.0  0.3822
  C  C252  1  0.601300  0.712100  0.658400  1.0  0.0922
  C  C253  1  0.062600  0.231500  0.681300  1.0  0.3822
  C  C254  1  0.101300  0.212100  0.658400  1.0  0.0922
  C  C255  1  0.062600  0.731500  0.181300  1.0  0.3822
  C  C256  1  0.101300  0.712100  0.158400  1.0  0.0922
  C  C257  1  0.562600  0.768500  0.818700  1.0  0.3822
  C  C258  1  0.601300  0.787900  0.841600  1.0  0.0925
  C  C259  1  0.562600  0.268500  0.318700  1.0  0.3822
  C  C260  1  0.601300  0.287900  0.341600  1.0  0.0925
  C  C261  1  0.062600  0.768500  0.318700  1.0  0.3822
  C  C262  1  0.101300  0.787900  0.341600  1.0  0.0925
  C  C263  1  0.062600  0.268500  0.818700  1.0  0.3822
  C  C264  1  0.101300  0.287900  0.841600  1.0  0.0925
  C  C265  1  0.818700  0.768500  0.562600  1.0  0.3809
  C  C266  1  0.841600  0.787900  0.601300  1.0  0.0934
  C  C267  1  0.818700  0.268500  0.062600  1.0  0.3809
  C  C268  1  0.841600  0.287900  0.101300  1.0  0.0934
  C  C269  1  0.318700  0.768500  0.062600  1.0  0.3809
  C  C270  1  0.341600  0.787900  0.101300  1.0  0.0934
  C  C271  1  0.318700  0.268500  0.562600  1.0  0.3809
  C  C272  1  0.341600  0.287900  0.601300  1.0  0.0934
  C  C273  1  0.181300  0.231500  0.562600  1.0  0.3798
  C  C274  1  0.158400  0.212100  0.601300  1.0  0.0932
  C  C275  1  0.181300  0.731500  0.062600  1.0  0.3798
  C  C276  1  0.158400  0.712100  0.101300  1.0  0.0932
  C  C277  1  0.681300  0.231500  0.062600  1.0  0.3798
  C  C278  1  0.658400  0.212100  0.101300  1.0  0.0932
  C  C279  1  0.681300  0.731500  0.562600  1.0  0.3798
  C  C280  1  0.658400  0.712100  0.601300  1.0  0.0932
  C  C281  1  0.181300  0.768500  0.437400  1.0  0.3803
  C  C282  1  0.158400  0.787900  0.398700  1.0  0.092
  C  C283  1  0.181300  0.268500  0.937400  1.0  0.3803
  C  C284  1  0.158400  0.287900  0.898700  1.0  0.092
  C  C285  1  0.681300  0.768500  0.937400  1.0  0.3803
  C  C286  1  0.658400  0.787900  0.898700  1.0  0.092
  C  C287  1  0.681300  0.268500  0.437400  1.0  0.3803
  C  C288  1  0.658400  0.287900  0.398700  1.0  0.092
  C  C289  1  0.818700  0.231500  0.437400  1.0  0.381
  C  C290  1  0.841600  0.212100  0.398700  1.0  0.0935
  C  C291  1  0.818700  0.731500  0.937400  1.0  0.381
  C  C292  1  0.841600  0.712100  0.898700  1.0  0.0935
  C  C293  1  0.318700  0.231500  0.937400  1.0  0.381
  C  C294  1  0.341600  0.212100  0.898700  1.0  0.0935
  C  C295  1  0.318700  0.731500  0.437400  1.0  0.381
  C  C296  1  0.341600  0.712100  0.398700  1.0  0.0935
  C  C297  1  0.562600  0.818700  0.768500  1.0  0.383
  C  C298  1  0.601300  0.841600  0.787900  1.0  0.0914
  C  C299  1  0.562600  0.318700  0.268500  1.0  0.383
  C  C300  1  0.601300  0.341600  0.287900  1.0  0.0914
  C  C301  1  0.062600  0.818700  0.268500  1.0  0.383
  C  C302  1  0.101300  0.841600  0.287900  1.0  0.0914
  C  C303  1  0.062600  0.318700  0.768500  1.0  0.383
  C  C304  1  0.101300  0.341600  0.787900  1.0  0.0914
  C  C305  1  0.562600  0.181300  0.231500  1.0  0.3831
  C  C306  1  0.601300  0.158400  0.212100  1.0  0.0915
  C  C307  1  0.562600  0.681300  0.731500  1.0  0.3831
  C  C308  1  0.601300  0.658400  0.712100  1.0  0.0915
  C  C309  1  0.062600  0.181300  0.731500  1.0  0.3831
  C  C310  1  0.101300  0.158400  0.712100  1.0  0.0915
  C  C311  1  0.062600  0.681300  0.231500  1.0  0.3831
  C  C312  1  0.101300  0.658400  0.212100  1.0  0.0915
  C  C313  1  0.437400  0.181300  0.768500  1.0  0.3829
  C  C314  1  0.398700  0.158400  0.787900  1.0  0.0905
  C  C315  1  0.437400  0.681300  0.268500  1.0  0.3829
  C  C316  1  0.398700  0.658400  0.287900  1.0  0.0905
  C  C317  1  0.937400  0.181300  0.268500  1.0  0.3829
  C  C318  1  0.898700  0.158400  0.287900  1.0  0.0905
  C  C319  1  0.937400  0.681300  0.768500  1.0  0.3829
  C  C320  1  0.898700  0.658400  0.787900  1.0  0.0905
  C  C321  1  0.437400  0.818700  0.231500  1.0  0.3822
  C  C322  1  0.398700  0.841600  0.212100  1.0  0.0924
  C  C323  1  0.437400  0.318700  0.731500  1.0  0.3822
  C  C324  1  0.398700  0.341600  0.712100  1.0  0.0924
  C  C325  1  0.937400  0.818700  0.731500  1.0  0.3822
  C  C326  1  0.898700  0.841600  0.712100  1.0  0.0924
  C  C327  1  0.937400  0.318700  0.231500  1.0  0.3822
  C  C328  1  0.898700  0.341600  0.212100  1.0  0.0924
  C  C329  1  0.768500  0.562600  0.818700  1.0  0.3844
  C  C330  1  0.787900  0.601300  0.841600  1.0  0.0936
  C  C331  1  0.768500  0.062600  0.318700  1.0  0.3844
  C  C332  1  0.787900  0.101300  0.341600  1.0  0.0936
  C  C333  1  0.268500  0.562600  0.318700  1.0  0.3844
  C  C334  1  0.287900  0.601300  0.341600  1.0  0.0936
  C  C335  1  0.268500  0.062600  0.818700  1.0  0.3844
  C  C336  1  0.287900  0.101300  0.841600  1.0  0.0936
  C  C337  1  0.231500  0.562600  0.181300  1.0  0.3844
  C  C338  1  0.212100  0.601300  0.158400  1.0  0.0926
  C  C339  1  0.231500  0.062600  0.681300  1.0  0.3844
  C  C340  1  0.212100  0.101300  0.658400  1.0  0.0926
  C  C341  1  0.731500  0.562600  0.681300  1.0  0.3844
  C  C342  1  0.712100  0.601300  0.658400  1.0  0.0926
  C  C343  1  0.731500  0.062600  0.181300  1.0  0.3844
  C  C344  1  0.712100  0.101300  0.158400  1.0  0.0926
  C  C345  1  0.768500  0.437400  0.181300  1.0  0.3854
  C  C346  1  0.787900  0.398700  0.158400  1.0  0.0924
  C  C347  1  0.768500  0.937400  0.681300  1.0  0.3854
  C  C348  1  0.787900  0.898700  0.658400  1.0  0.0924
  C  C349  1  0.268500  0.437400  0.681300  1.0  0.3854
  C  C350  1  0.287900  0.398700  0.658400  1.0  0.0924
  C  C351  1  0.268500  0.937400  0.181300  1.0  0.3854
  C  C352  1  0.287900  0.898700  0.158400  1.0  0.0924
  C  C353  1  0.231500  0.437400  0.818700  1.0  0.3847
  C  C354  1  0.212100  0.398700  0.841600  1.0  0.0939
  C  C355  1  0.231500  0.937400  0.318700  1.0  0.3847
  C  C356  1  0.212100  0.898700  0.341600  1.0  0.0939
  C  C357  1  0.731500  0.437400  0.318700  1.0  0.3847
  C  C358  1  0.712100  0.398700  0.341600  1.0  0.0939
  C  C359  1  0.731500  0.937400  0.818700  1.0  0.3847
  C  C360  1  0.712100  0.898700  0.841600  1.0  0.0939
  C  C361  1  0.768500  0.818700  0.437400  1.0  0.3817
  C  C362  1  0.787900  0.841600  0.398700  1.0  0.0931
  C  C363  1  0.768500  0.318700  0.937400  1.0  0.3817
  C  C364  1  0.787900  0.341600  0.898700  1.0  0.0931
  C  C365  1  0.268500  0.818700  0.937400  1.0  0.3817
  C  C366  1  0.287900  0.841600  0.898700  1.0  0.0931
  C  C367  1  0.268500  0.318700  0.437400  1.0  0.3817
  C  C368  1  0.287900  0.341600  0.398700  1.0  0.0931
  C  C369  1  0.231500  0.181300  0.437400  1.0  0.3822
  C  C370  1  0.212100  0.158400  0.398700  1.0  0.0931
  C  C371  1  0.231500  0.681300  0.937400  1.0  0.3822
  C  C372  1  0.212100  0.658400  0.898700  1.0  0.0931
  C  C373  1  0.731500  0.181300  0.937400  1.0  0.3822
  C  C374  1  0.712100  0.158400  0.898700  1.0  0.0931
  C  C375  1  0.731500  0.681300  0.437400  1.0  0.3822
  C  C376  1  0.712100  0.658400  0.398700  1.0  0.0931
  C  C377  1  0.768500  0.181300  0.562600  1.0  0.3827
  C  C378  1  0.787900  0.158400  0.601300  1.0  0.0919
  C  C379  1  0.768500  0.681300  0.062600  1.0  0.3827
  C  C380  1  0.787900  0.658400  0.101300  1.0  0.0919
  C  C381  1  0.268500  0.181300  0.062600  1.0  0.3827
  C  C382  1  0.287900  0.158400  0.101300  1.0  0.0919
  C  C383  1  0.268500  0.681300  0.562600  1.0  0.3827
  C  C384  1  0.287900  0.658400  0.601300  1.0  0.0919
  C  C385  1  0.231500  0.818700  0.562600  1.0  0.3815
  C  C386  1  0.212100  0.841600  0.601300  1.0  0.0936
  C  C387  1  0.231500  0.318700  0.062600  1.0  0.3815
  C  C388  1  0.212100  0.341600  0.101300  1.0  0.0936
  C  C389  1  0.731500  0.818700  0.062600  1.0  0.3815
  C  C390  1  0.712100  0.841600  0.101300  1.0  0.0936
  C  C391  1  0.731500  0.318700  0.562600  1.0  0.3815
  C  C392  1  0.712100  0.341600  0.601300  1.0  0.0936
  C  C393  1  0.818700  0.562600  0.231500  1.0  0.3831
  C  C394  1  0.841600  0.601300  0.212100  1.0  0.0933
  C  C395  1  0.818700  0.062600  0.731500  1.0  0.3831
  C  C396  1  0.841600  0.101300  0.712100  1.0  0.0933
  C  C397  1  0.318700  0.562600  0.731500  1.0  0.3831
  C  C398  1  0.341600  0.601300  0.712100  1.0  0.0933
  C  C399  1  0.318700  0.062600  0.231500  1.0  0.3831
  C  C400  1  0.341600  0.101300  0.212100  1.0  0.0933
  C  C401  1  0.181300  0.562600  0.768500  1.0  0.3825
  C  C402  1  0.158400  0.601300  0.787900  1.0  0.0913
  C  C403  1  0.181300  0.062600  0.268500  1.0  0.3825
  C  C404  1  0.158400  0.101300  0.287900  1.0  0.0913
  C  C405  1  0.681300  0.562600  0.268500  1.0  0.3825
  C  C406  1  0.658400  0.601300  0.287900  1.0  0.0913
  C  C407  1  0.681300  0.062600  0.768500  1.0  0.3825
  C  C408  1  0.658400  0.101300  0.787900  1.0  0.0913
  C  C409  1  0.181300  0.437400  0.231500  1.0  0.3823
  C  C410  1  0.158400  0.398700  0.212100  1.0  0.0929
  C  C411  1  0.181300  0.937400  0.731500  1.0  0.3823
  C  C412  1  0.158400  0.898700  0.712100  1.0  0.0929
  C  C413  1  0.681300  0.437400  0.731500  1.0  0.3823
  C  C414  1  0.658400  0.398700  0.712100  1.0  0.0929
  C  C415  1  0.681300  0.937400  0.231500  1.0  0.3823
  C  C416  1  0.658400  0.898700  0.212100  1.0  0.0929
  C  C417  1  0.818700  0.437400  0.768500  1.0  0.3832
  C  C418  1  0.841600  0.398700  0.787900  1.0  0.0928
  C  C419  1  0.818700  0.937400  0.268500  1.0  0.3832
  C  C420  1  0.841600  0.898700  0.287900  1.0  0.0928
  C  C421  1  0.318700  0.437400  0.268500  1.0  0.3832
  C  C422  1  0.341600  0.398700  0.287900  1.0  0.0928
  C  C423  1  0.318700  0.937400  0.768500  1.0  0.3832
  C  C424  1  0.341600  0.898700  0.787900  1.0  0.0928
  C  C425  1  0.562600  0.768500  0.181300  1.0  0.3827
  C  C426  1  0.601300  0.787900  0.158400  1.0  0.0908
  C  C427  1  0.562600  0.268500  0.681300  1.0  0.3827
  C  C428  1  0.601300  0.287900  0.658400  1.0  0.0908
  C  C429  1  0.062600  0.768500  0.681300  1.0  0.3827
  C  C430  1  0.101300  0.787900  0.658400  1.0  0.0908
  C  C431  1  0.062600  0.268500  0.181300  1.0  0.3827
  C  C432  1  0.101300  0.287900  0.158400  1.0  0.0908
  C  C433  1  0.562600  0.231500  0.818700  1.0  0.3824
  C  C434  1  0.601300  0.212100  0.841600  1.0  0.0932
  C  C435  1  0.562600  0.731500  0.318700  1.0  0.3824
  C  C436  1  0.601300  0.712100  0.341600  1.0  0.0932
  C  C437  1  0.062600  0.231500  0.318700  1.0  0.3824
  C  C438  1  0.101300  0.212100  0.341600  1.0  0.0932
  C  C439  1  0.062600  0.731500  0.818700  1.0  0.3824
  C  C440  1  0.101300  0.712100  0.841600  1.0  0.0932
  C  C441  1  0.437400  0.768500  0.818700  1.0  0.3831
  C  C442  1  0.398700  0.787900  0.841600  1.0  0.0922
  C  C443  1  0.437400  0.268500  0.318700  1.0  0.3831
  C  C444  1  0.398700  0.287900  0.341600  1.0  0.0922
  C  C445  1  0.937400  0.768500  0.318700  1.0  0.3831
  C  C446  1  0.898700  0.787900  0.341600  1.0  0.0922
  C  C447  1  0.937400  0.268500  0.818700  1.0  0.3831
  C  C448  1  0.898700  0.287900  0.841600  1.0  0.0922
  C  C449  1  0.437400  0.231500  0.181300  1.0  0.3832
  C  C450  1  0.398700  0.212100  0.158400  1.0  0.0922
  C  C451  1  0.437400  0.731500  0.681300  1.0  0.3832
  C  C452  1  0.398700  0.712100  0.658400  1.0  0.0922
  C  C453  1  0.937400  0.231500  0.681300  1.0  0.3832
  C  C454  1  0.898700  0.212100  0.658400  1.0  0.0922
  C  C455  1  0.937400  0.731500  0.181300  1.0  0.3832
  C  C456  1  0.898700  0.712100  0.158400  1.0  0.0922
  C  C457  1  0.175200  0.175200  0.383200  1.0  0.288
  C  C458  1  0.175200  0.675200  0.883200  1.0  0.288
  C  C459  1  0.675200  0.175200  0.883200  1.0  0.288
  C  C460  1  0.675200  0.675200  0.383200  1.0  0.288
  C  C461  1  0.824800  0.824800  0.383200  1.0  0.2889
  C  C462  1  0.824800  0.324800  0.883200  1.0  0.2889
  C  C463  1  0.324800  0.824800  0.883200  1.0  0.2889
  C  C464  1  0.324800  0.324800  0.383200  1.0  0.2889
  C  C465  1  0.824800  0.175200  0.616800  1.0  0.2871
  C  C466  1  0.824800  0.675200  0.116800  1.0  0.2871
  C  C467  1  0.324800  0.175200  0.116800  1.0  0.2871
  C  C468  1  0.324800  0.675200  0.616800  1.0  0.2871
  C  C469  1  0.175200  0.824800  0.616800  1.0  0.2898
  C  C470  1  0.175200  0.324800  0.116800  1.0  0.2898
  C  C471  1  0.675200  0.824800  0.116800  1.0  0.2898
  C  C472  1  0.675200  0.324800  0.616800  1.0  0.2898
  C  C473  1  0.383200  0.175200  0.175200  1.0  0.2876
  C  C474  1  0.383200  0.675200  0.675200  1.0  0.2876
  C  C475  1  0.883200  0.175200  0.675200  1.0  0.2876
  C  C476  1  0.883200  0.675200  0.175200  1.0  0.2876
  C  C477  1  0.383200  0.824800  0.824800  1.0  0.2888
  C  C478  1  0.383200  0.324800  0.324800  1.0  0.2888
  C  C479  1  0.883200  0.824800  0.324800  1.0  0.2888
  C  C480  1  0.883200  0.324800  0.824800  1.0  0.2888
  C  C481  1  0.616800  0.824800  0.175200  1.0  0.2893
  C  C482  1  0.616800  0.324800  0.675200  1.0  0.2893
  C  C483  1  0.116800  0.824800  0.675200  1.0  0.2893
  C  C484  1  0.116800  0.324800  0.175200  1.0  0.2893
  C  C485  1  0.616800  0.175200  0.824800  1.0  0.2871
  C  C486  1  0.616800  0.675200  0.324800  1.0  0.2871
  C  C487  1  0.116800  0.175200  0.324800  1.0  0.2871
  C  C488  1  0.116800  0.675200  0.824800  1.0  0.2871
  C  C489  1  0.175200  0.383200  0.175200  1.0  0.2891
  C  C490  1  0.175200  0.883200  0.675200  1.0  0.2891
  C  C491  1  0.675200  0.383200  0.675200  1.0  0.2891
  C  C492  1  0.675200  0.883200  0.175200  1.0  0.2891
  C  C493  1  0.824800  0.383200  0.824800  1.0  0.2882
  C  C494  1  0.824800  0.883200  0.324800  1.0  0.2882
  C  C495  1  0.324800  0.383200  0.324800  1.0  0.2882
  C  C496  1  0.324800  0.883200  0.824800  1.0  0.2882
  C  C497  1  0.175200  0.616800  0.824800  1.0  0.2886
  C  C498  1  0.175200  0.116800  0.324800  1.0  0.2886
  C  C499  1  0.675200  0.616800  0.324800  1.0  0.2886
  C  C500  1  0.675200  0.116800  0.824800  1.0  0.2886
  C  C501  1  0.824800  0.616800  0.175200  1.0  0.2876
  C  C502  1  0.824800  0.116800  0.675200  1.0  0.2876
  C  C503  1  0.324800  0.616800  0.675200  1.0  0.2876
  C  C504  1  0.324800  0.116800  0.175200  1.0  0.2876
  C  C505  1  0.175200  0.175200  0.616800  1.0  0.2879
  C  C506  1  0.175200  0.675200  0.116800  1.0  0.2879
  C  C507  1  0.675200  0.175200  0.116800  1.0  0.2879
  C  C508  1  0.675200  0.675200  0.616800  1.0  0.2879
  C  C509  1  0.824800  0.824800  0.616800  1.0  0.289
  C  C510  1  0.824800  0.324800  0.116800  1.0  0.289
  C  C511  1  0.324800  0.824800  0.116800  1.0  0.289
  C  C512  1  0.324800  0.324800  0.616800  1.0  0.289
  C  C513  1  0.175200  0.824800  0.383200  1.0  0.2898
  C  C514  1  0.175200  0.324800  0.883200  1.0  0.2898
  C  C515  1  0.675200  0.824800  0.883200  1.0  0.2898
  C  C516  1  0.675200  0.324800  0.383200  1.0  0.2898
  C  C517  1  0.824800  0.175200  0.383200  1.0  0.287
  C  C518  1  0.824800  0.675200  0.883200  1.0  0.287
  C  C519  1  0.324800  0.175200  0.883200  1.0  0.287
  C  C520  1  0.324800  0.675200  0.383200  1.0  0.287
  C  C521  1  0.175200  0.383200  0.824800  1.0  0.2892
  C  C522  1  0.175200  0.883200  0.324800  1.0  0.2892
  C  C523  1  0.675200  0.383200  0.324800  1.0  0.2892
  C  C524  1  0.675200  0.883200  0.824800  1.0  0.2892
  C  C525  1  0.824800  0.383200  0.175200  1.0  0.288
  C  C526  1  0.824800  0.883200  0.675200  1.0  0.288
  C  C527  1  0.324800  0.383200  0.675200  1.0  0.288
  C  C528  1  0.324800  0.883200  0.175200  1.0  0.288
  C  C529  1  0.824800  0.616800  0.824800  1.0  0.2878
  C  C530  1  0.824800  0.116800  0.324800  1.0  0.2878
  C  C531  1  0.324800  0.616800  0.324800  1.0  0.2878
  C  C532  1  0.324800  0.116800  0.824800  1.0  0.2878
  C  C533  1  0.175200  0.616800  0.175200  1.0  0.2885
  C  C534  1  0.175200  0.116800  0.675200  1.0  0.2885
  C  C535  1  0.675200  0.616800  0.675200  1.0  0.2885
  C  C536  1  0.675200  0.116800  0.175200  1.0  0.2885
  C  C537  1  0.383200  0.175200  0.824800  1.0  0.287
  C  C538  1  0.383200  0.675200  0.324800  1.0  0.287
  C  C539  1  0.883200  0.175200  0.324800  1.0  0.287
  C  C540  1  0.883200  0.675200  0.824800  1.0  0.287
  C  C541  1  0.383200  0.824800  0.175200  1.0  0.2888
  C  C542  1  0.383200  0.324800  0.675200  1.0  0.2888
  C  C543  1  0.883200  0.824800  0.675200  1.0  0.2888
  C  C544  1  0.883200  0.324800  0.175200  1.0  0.2888
  C  C545  1  0.616800  0.175200  0.175200  1.0  0.2876
  C  C546  1  0.616800  0.675200  0.675200  1.0  0.2876
  C  C547  1  0.116800  0.175200  0.675200  1.0  0.2876
  C  C548  1  0.116800  0.675200  0.175200  1.0  0.2876
  C  C549  1  0.616800  0.824800  0.824800  1.0  0.2893
  C  C550  1  0.616800  0.324800  0.324800  1.0  0.2893
  C  C551  1  0.116800  0.824800  0.324800  1.0  0.2893
  C  C552  1  0.116800  0.324800  0.824800  1.0  0.2893
  C  C553  1  0.123500  0.236000  0.376500  1.0  -0.0468
  C  C554  1  0.123500  0.736000  0.876500  1.0  -0.0468
  C  C555  1  0.876500  0.764000  0.376500  1.0  -0.0468
  C  C556  1  0.876500  0.264000  0.876500  1.0  -0.0468
  C  C557  1  0.376500  0.264000  0.376500  1.0  -0.0468
  C  C558  1  0.876500  0.236000  0.623500  1.0  -0.048
  C  C559  1  0.876500  0.736000  0.123500  1.0  -0.048
  C  C560  1  0.376500  0.236000  0.123500  1.0  -0.048
  C  C561  1  0.123500  0.764000  0.623500  1.0  -0.0463
  C  C562  1  0.123500  0.264000  0.123500  1.0  -0.0463
  C  C563  1  0.376500  0.123500  0.236000  1.0  -0.047
  C  C564  1  0.376500  0.623500  0.736000  1.0  -0.047
  C  C565  1  0.376500  0.876500  0.764000  1.0  -0.0475
  C  C566  1  0.376500  0.376500  0.264000  1.0  -0.0475
  C  C567  1  0.623500  0.876500  0.236000  1.0  -0.048
  C  C568  1  0.623500  0.376500  0.736000  1.0  -0.048
  C  C569  1  0.123500  0.376500  0.236000  1.0  -0.048
  C  C570  1  0.623500  0.123500  0.764000  1.0  -0.0479
  C  C571  1  0.623500  0.623500  0.264000  1.0  -0.0479
  C  C572  1  0.123500  0.123500  0.264000  1.0  -0.0479
  C  C573  1  0.236000  0.376500  0.123500  1.0  -0.0468
  C  C574  1  0.736000  0.376500  0.623500  1.0  -0.0468
  C  C575  1  0.764000  0.376500  0.876500  1.0  -0.0446
  C  C576  1  0.264000  0.376500  0.376500  1.0  -0.0446
  C  C577  1  0.236000  0.623500  0.876500  1.0  -0.0462
  C  C578  1  0.236000  0.123500  0.376500  1.0  -0.0462
  C  C579  1  0.736000  0.623500  0.376500  1.0  -0.0462
  C  C580  1  0.764000  0.623500  0.123500  1.0  -0.0466
  C  C581  1  0.264000  0.623500  0.623500  1.0  -0.0466
  C  C582  1  0.264000  0.123500  0.123500  1.0  -0.0466
  C  C583  1  0.236000  0.123500  0.623500  1.0  -0.0481
  C  C584  1  0.736000  0.123500  0.123500  1.0  -0.0481
  C  C585  1  0.764000  0.876500  0.623500  1.0  -0.0454
  C  C586  1  0.764000  0.376500  0.123500  1.0  -0.0454
  C  C587  1  0.264000  0.876500  0.123500  1.0  -0.0454
  C  C588  1  0.236000  0.876500  0.376500  1.0  -0.0454
  C  C589  1  0.736000  0.876500  0.876500  1.0  -0.0454
  C  C590  1  0.736000  0.376500  0.376500  1.0  -0.0454
  C  C591  1  0.764000  0.123500  0.376500  1.0  -0.0454
  C  C592  1  0.264000  0.123500  0.876500  1.0  -0.0454
  C  C593  1  0.123500  0.376500  0.764000  1.0  -0.0465
  C  C594  1  0.123500  0.876500  0.264000  1.0  -0.0465
  C  C595  1  0.876500  0.376500  0.236000  1.0  -0.0464
  C  C596  1  0.876500  0.876500  0.736000  1.0  -0.0464
  C  C597  1  0.376500  0.376500  0.736000  1.0  -0.0464
  C  C598  1  0.876500  0.623500  0.764000  1.0  -0.0485
  C  C599  1  0.876500  0.123500  0.264000  1.0  -0.0485
  C  C600  1  0.376500  0.123500  0.764000  1.0  -0.0485
  C  C601  1  0.123500  0.623500  0.236000  1.0  -0.0481
  C  C602  1  0.123500  0.123500  0.736000  1.0  -0.0481
  C  C603  1  0.376500  0.236000  0.876500  1.0  -0.0457
  C  C604  1  0.376500  0.736000  0.376500  1.0  -0.0457
  C  C605  1  0.376500  0.764000  0.123500  1.0  -0.0463
  C  C606  1  0.376500  0.264000  0.623500  1.0  -0.0463
  C  C607  1  0.623500  0.236000  0.123500  1.0  -0.0479
  C  C608  1  0.623500  0.736000  0.623500  1.0  -0.0479
  C  C609  1  0.123500  0.736000  0.123500  1.0  -0.0479
  C  C610  1  0.623500  0.764000  0.876500  1.0  -0.0467
  C  C611  1  0.623500  0.264000  0.376500  1.0  -0.0467
  C  C612  1  0.123500  0.764000  0.376500  1.0  -0.0467
  C  C613  1  0.876500  0.764000  0.623500  1.0  -0.0463
  C  C614  1  0.876500  0.264000  0.123500  1.0  -0.0463
  C  C615  1  0.123500  0.236000  0.623500  1.0  -0.0479
  C  C616  1  0.123500  0.264000  0.876500  1.0  -0.0467
  C  C617  1  0.876500  0.236000  0.376500  1.0  -0.0457
  C  C618  1  0.876500  0.736000  0.876500  1.0  -0.0457
  C  C619  1  0.623500  0.876500  0.764000  1.0  -0.0465
  C  C620  1  0.623500  0.376500  0.264000  1.0  -0.0465
  C  C621  1  0.623500  0.123500  0.236000  1.0  -0.0481
  C  C622  1  0.623500  0.623500  0.736000  1.0  -0.0481
  C  C623  1  0.376500  0.623500  0.264000  1.0  -0.0485
  C  C624  1  0.376500  0.876500  0.236000  1.0  -0.0464
  C  C625  1  0.764000  0.623500  0.876500  1.0  -0.0454
  C  C626  1  0.264000  0.623500  0.376500  1.0  -0.0454
  C  C627  1  0.236000  0.623500  0.123500  1.0  -0.0481
  C  C628  1  0.736000  0.623500  0.623500  1.0  -0.0481
  C  C629  1  0.264000  0.376500  0.623500  1.0  -0.0454
  C  C630  1  0.236000  0.376500  0.876500  1.0  -0.0454
  C  C631  1  0.764000  0.876500  0.376500  1.0  -0.0446
  C  C632  1  0.264000  0.876500  0.876500  1.0  -0.0446
  C  C633  1  0.736000  0.123500  0.876500  1.0  -0.0462
  C  C634  1  0.764000  0.123500  0.623500  1.0  -0.0466
  C  C635  1  0.236000  0.876500  0.623500  1.0  -0.0468
  C  C636  1  0.736000  0.876500  0.123500  1.0  -0.0468
  C  C637  1  0.876500  0.623500  0.236000  1.0  -0.047
  C  C638  1  0.876500  0.123500  0.736000  1.0  -0.047
  C  C639  1  0.123500  0.623500  0.764000  1.0  -0.0479
  C  C640  1  0.123500  0.876500  0.736000  1.0  -0.048
  C  C641  1  0.876500  0.376500  0.764000  1.0  -0.0475
  C  C642  1  0.876500  0.876500  0.264000  1.0  -0.0475
  C  C643  1  0.623500  0.764000  0.123500  1.0  -0.0463
  C  C644  1  0.623500  0.264000  0.623500  1.0  -0.0463
  C  C645  1  0.623500  0.236000  0.876500  1.0  -0.0468
  C  C646  1  0.623500  0.736000  0.376500  1.0  -0.0468
  C  C647  1  0.376500  0.764000  0.876500  1.0  -0.0468
  C  C648  1  0.376500  0.736000  0.623500  1.0  -0.048
  C  C649  1  0.157800  0.157800  0.342200  1.0  -0.0501
  C  C650  1  0.842200  0.842200  0.342200  1.0  -0.0515
  C  C651  1  0.342200  0.342200  0.342200  1.0  -0.0515
  C  C652  1  0.842200  0.157800  0.657800  1.0  -0.0511
  C  C653  1  0.342200  0.157800  0.157800  1.0  -0.0511
  C  C654  1  0.157800  0.842200  0.657800  1.0  -0.0507
  C  C655  1  0.157800  0.342200  0.157800  1.0  -0.0507
  C  C656  1  0.342200  0.657800  0.657800  1.0  -0.0511
  C  C657  1  0.342200  0.842200  0.842200  1.0  -0.0515
  C  C658  1  0.657800  0.842200  0.157800  1.0  -0.0507
  C  C659  1  0.657800  0.342200  0.657800  1.0  -0.0507
  C  C660  1  0.657800  0.157800  0.842200  1.0  -0.0501
  C  C661  1  0.657800  0.657800  0.342200  1.0  -0.0501
  C  C662  1  0.842200  0.342200  0.842200  1.0  -0.0515
  C  C663  1  0.157800  0.657800  0.842200  1.0  -0.0501
  C  C664  1  0.842200  0.657800  0.157800  1.0  -0.0511
  C  C665  1  0.157800  0.157800  0.657800  1.0  -0.0502
  C  C666  1  0.842200  0.842200  0.657800  1.0  -0.0516
  C  C667  1  0.842200  0.342200  0.157800  1.0  -0.0516
  C  C668  1  0.342200  0.842200  0.157800  1.0  -0.0516
  C  C669  1  0.157800  0.842200  0.342200  1.0  -0.0506
  C  C670  1  0.842200  0.157800  0.342200  1.0  -0.051
  C  C671  1  0.342200  0.657800  0.342200  1.0  -0.051
  C  C672  1  0.157800  0.342200  0.842200  1.0  -0.0506
  C  C673  1  0.342200  0.342200  0.657800  1.0  -0.0516
  C  C674  1  0.842200  0.657800  0.842200  1.0  -0.051
  C  C675  1  0.342200  0.157800  0.842200  1.0  -0.051
  C  C676  1  0.157800  0.657800  0.157800  1.0  -0.0502
  C  C677  1  0.657800  0.157800  0.157800  1.0  -0.0502
  C  C678  1  0.657800  0.657800  0.657800  1.0  -0.0502
  C  C679  1  0.657800  0.842200  0.842200  1.0  -0.0506
  C  C680  1  0.657800  0.342200  0.342200  1.0  -0.0506
  O  O681  1  0.168800  0.272000  0.459600  1.0  -0.6737
  O  O682  1  0.168800  0.772000  0.959600  1.0  -0.6737
  O  O683  1  0.668800  0.272000  0.959600  1.0  -0.6737
  O  O684  1  0.668800  0.772000  0.459600  1.0  -0.6737
  O  O685  1  0.831200  0.728000  0.459600  1.0  -0.6745
  O  O686  1  0.831200  0.228000  0.959600  1.0  -0.6745
  O  O687  1  0.331200  0.728000  0.959600  1.0  -0.6745
  O  O688  1  0.331200  0.228000  0.459600  1.0  -0.6745
  O  O689  1  0.831200  0.272000  0.540400  1.0  -0.6718
  O  O690  1  0.831200  0.772000  0.040400  1.0  -0.6718
  O  O691  1  0.331200  0.272000  0.040400  1.0  -0.6718
  O  O692  1  0.331200  0.772000  0.540400  1.0  -0.6718
  O  O693  1  0.168800  0.728000  0.540400  1.0  -0.6748
  O  O694  1  0.168800  0.228000  0.040400  1.0  -0.6748
  O  O695  1  0.668800  0.728000  0.040400  1.0  -0.6748
  O  O696  1  0.668800  0.228000  0.540400  1.0  -0.6748
  O  O697  1  0.459600  0.168800  0.272000  1.0  -0.6816
  O  O698  1  0.459600  0.668800  0.772000  1.0  -0.6816
  O  O699  1  0.959600  0.168800  0.772000  1.0  -0.6816
  O  O700  1  0.959600  0.668800  0.272000  1.0  -0.6816
  O  O701  1  0.459600  0.831200  0.728000  1.0  -0.6782
  O  O702  1  0.459600  0.331200  0.228000  1.0  -0.6782
  O  O703  1  0.959600  0.831200  0.228000  1.0  -0.6782
  O  O704  1  0.959600  0.331200  0.728000  1.0  -0.6782
  O  O705  1  0.540400  0.831200  0.272000  1.0  -0.6768
  O  O706  1  0.540400  0.331200  0.772000  1.0  -0.6768
  O  O707  1  0.040400  0.831200  0.772000  1.0  -0.6768
  O  O708  1  0.040400  0.331200  0.272000  1.0  -0.6768
  O  O709  1  0.540400  0.168800  0.728000  1.0  -0.6773
  O  O710  1  0.540400  0.668800  0.228000  1.0  -0.6773
  O  O711  1  0.040400  0.168800  0.228000  1.0  -0.6789
  O  O712  1  0.040400  0.668800  0.728000  1.0  -0.6789
  O  O713  1  0.272000  0.459600  0.168800  1.0  -0.6761
  O  O714  1  0.272000  0.959600  0.668800  1.0  -0.6761
  O  O715  1  0.772000  0.459600  0.668800  1.0  -0.6761
  O  O716  1  0.772000  0.959600  0.168800  1.0  -0.6761
  O  O717  1  0.728000  0.459600  0.831200  1.0  -0.6817
  O  O718  1  0.728000  0.959600  0.331200  1.0  -0.6817
  O  O719  1  0.228000  0.459600  0.331200  1.0  -0.6834
  O  O720  1  0.228000  0.959600  0.831200  1.0  -0.6834
  O  O721  1  0.272000  0.540400  0.831200  1.0  -0.6798
  O  O722  1  0.272000  0.040400  0.331200  1.0  -0.6798
  O  O723  1  0.772000  0.540400  0.331200  1.0  -0.6798
  O  O724  1  0.772000  0.040400  0.831200  1.0  -0.6798
  O  O725  1  0.728000  0.540400  0.168800  1.0  -0.6815
  O  O726  1  0.728000  0.040400  0.668800  1.0  -0.6802
  O  O727  1  0.228000  0.540400  0.668800  1.0  -0.6802
  O  O728  1  0.228000  0.040400  0.168800  1.0  -0.6815
  O  O729  1  0.272000  0.168800  0.540400  1.0  -0.6759
  O  O730  1  0.272000  0.668800  0.040400  1.0  -0.6758
  O  O731  1  0.772000  0.168800  0.040400  1.0  -0.6758
  O  O732  1  0.772000  0.668800  0.540400  1.0  -0.6759
  O  O733  1  0.728000  0.831200  0.540400  1.0  -0.6779
  O  O734  1  0.728000  0.331200  0.040400  1.0  -0.6779
  O  O735  1  0.228000  0.831200  0.040400  1.0  -0.6779
  O  O736  1  0.228000  0.331200  0.540400  1.0  -0.6779
  O  O737  1  0.272000  0.831200  0.459600  1.0  -0.6747
  O  O738  1  0.272000  0.331200  0.959600  1.0  -0.6747
  O  O739  1  0.772000  0.831200  0.959600  1.0  -0.6747
  O  O740  1  0.772000  0.331200  0.459600  1.0  -0.6747
  O  O741  1  0.728000  0.168800  0.459600  1.0  -0.6788
  O  O742  1  0.728000  0.668800  0.959600  1.0  -0.6788
  O  O743  1  0.228000  0.168800  0.959600  1.0  -0.6788
  O  O744  1  0.228000  0.668800  0.459600  1.0  -0.6788
  O  O745  1  0.168800  0.459600  0.728000  1.0  -0.677
  O  O746  1  0.168800  0.959600  0.228000  1.0  -0.677
  O  O747  1  0.668800  0.459600  0.228000  1.0  -0.677
  O  O748  1  0.668800  0.959600  0.728000  1.0  -0.677
  O  O749  1  0.831200  0.459600  0.272000  1.0  -0.6748
  O  O750  1  0.831200  0.959600  0.772000  1.0  -0.6748
  O  O751  1  0.331200  0.459600  0.772000  1.0  -0.6748
  O  O752  1  0.331200  0.959600  0.272000  1.0  -0.6748
  O  O753  1  0.831200  0.540400  0.728000  1.0  -0.6739
  O  O754  1  0.831200  0.040400  0.228000  1.0  -0.6739
  O  O755  1  0.331200  0.540400  0.228000  1.0  -0.6739
  O  O756  1  0.331200  0.040400  0.728000  1.0  -0.6739
  O  O757  1  0.168800  0.540400  0.272000  1.0  -0.6775
  O  O758  1  0.168800  0.040400  0.772000  1.0  -0.6778
  O  O759  1  0.668800  0.540400  0.772000  1.0  -0.6778
  O  O760  1  0.668800  0.040400  0.272000  1.0  -0.6778
  O  O761  1  0.459600  0.272000  0.831200  1.0  -0.6789
  O  O762  1  0.459600  0.772000  0.331200  1.0  -0.6789
  O  O763  1  0.959600  0.272000  0.331200  1.0  -0.6789
  O  O764  1  0.959600  0.772000  0.831200  1.0  -0.6789
  O  O765  1  0.459600  0.728000  0.168800  1.0  -0.6769
  O  O766  1  0.459600  0.228000  0.668800  1.0  -0.6769
  O  O767  1  0.959600  0.728000  0.668800  1.0  -0.6769
  O  O768  1  0.959600  0.228000  0.168800  1.0  -0.6769
  O  O769  1  0.540400  0.272000  0.168800  1.0  -0.6772
  O  O770  1  0.540400  0.772000  0.668800  1.0  -0.6772
  O  O771  1  0.040400  0.272000  0.668800  1.0  -0.6771
  O  O772  1  0.040400  0.772000  0.168800  1.0  -0.6771
  O  O773  1  0.540400  0.728000  0.831200  1.0  -0.6801
  O  O774  1  0.540400  0.228000  0.331200  1.0  -0.6801
  O  O775  1  0.040400  0.728000  0.331200  1.0  -0.6801
  O  O776  1  0.040400  0.228000  0.831200  1.0  -0.6801
  O  O777  1  0.831200  0.728000  0.540400  1.0  -0.6724
  O  O778  1  0.831200  0.228000  0.040400  1.0  -0.6724
  O  O779  1  0.331200  0.728000  0.040400  1.0  -0.6724
  O  O780  1  0.331200  0.228000  0.540400  1.0  -0.6724
  O  O781  1  0.168800  0.272000  0.540400  1.0  -0.6738
  O  O782  1  0.168800  0.772000  0.040400  1.0  -0.6754
  O  O783  1  0.668800  0.272000  0.040400  1.0  -0.6754
  O  O784  1  0.668800  0.772000  0.540400  1.0  -0.6738
  O  O785  1  0.168800  0.728000  0.459600  1.0  -0.6751
  O  O786  1  0.168800  0.228000  0.959600  1.0  -0.6751
  O  O787  1  0.668800  0.728000  0.959600  1.0  -0.6751
  O  O788  1  0.668800  0.228000  0.459600  1.0  -0.6751
  O  O789  1  0.831200  0.272000  0.459600  1.0  -0.6721
  O  O790  1  0.831200  0.772000  0.959600  1.0  -0.6721
  O  O791  1  0.331200  0.272000  0.959600  1.0  -0.6721
  O  O792  1  0.331200  0.772000  0.459600  1.0  -0.6721
  O  O793  1  0.540400  0.831200  0.728000  1.0  -0.6775
  O  O794  1  0.540400  0.331200  0.228000  1.0  -0.6775
  O  O795  1  0.040400  0.831200  0.228000  1.0  -0.6775
  O  O796  1  0.040400  0.331200  0.728000  1.0  -0.6775
  O  O797  1  0.540400  0.168800  0.272000  1.0  -0.68
  O  O798  1  0.540400  0.668800  0.772000  1.0  -0.68
  O  O799  1  0.040400  0.168800  0.772000  1.0  -0.6816
  O  O800  1  0.040400  0.668800  0.272000  1.0  -0.6816
  O  O801  1  0.459600  0.168800  0.728000  1.0  -0.6779
  O  O802  1  0.459600  0.668800  0.228000  1.0  -0.6779
  O  O803  1  0.959600  0.168800  0.228000  1.0  -0.6779
  O  O804  1  0.959600  0.668800  0.728000  1.0  -0.6779
  O  O805  1  0.459600  0.831200  0.272000  1.0  -0.6782
  O  O806  1  0.459600  0.331200  0.772000  1.0  -0.6782
  O  O807  1  0.959600  0.831200  0.772000  1.0  -0.6782
  O  O808  1  0.959600  0.331200  0.272000  1.0  -0.6782
  O  O809  1  0.728000  0.540400  0.831200  1.0  -0.6817
  O  O810  1  0.728000  0.040400  0.331200  1.0  -0.6817
  O  O811  1  0.228000  0.540400  0.331200  1.0  -0.6817
  O  O812  1  0.228000  0.040400  0.831200  1.0  -0.6817
  O  O813  1  0.272000  0.540400  0.168800  1.0  -0.6769
  O  O814  1  0.272000  0.040400  0.668800  1.0  -0.6769
  O  O815  1  0.772000  0.540400  0.668800  1.0  -0.6769
  O  O816  1  0.772000  0.040400  0.168800  1.0  -0.6769
  O  O817  1  0.728000  0.459600  0.168800  1.0  -0.6802
  O  O818  1  0.728000  0.959600  0.668800  1.0  -0.6802
  O  O819  1  0.228000  0.459600  0.668800  1.0  -0.6815
  O  O820  1  0.228000  0.959600  0.168800  1.0  -0.6802
  O  O821  1  0.272000  0.459600  0.831200  1.0  -0.679
  O  O822  1  0.272000  0.959600  0.331200  1.0  -0.679
  O  O823  1  0.772000  0.459600  0.331200  1.0  -0.679
  O  O824  1  0.772000  0.959600  0.831200  1.0  -0.679
  O  O825  1  0.728000  0.831200  0.459600  1.0  -0.6776
  O  O826  1  0.728000  0.331200  0.959600  1.0  -0.6776
  O  O827  1  0.228000  0.831200  0.959600  1.0  -0.6776
  O  O828  1  0.228000  0.331200  0.459600  1.0  -0.6776
  O  O829  1  0.272000  0.168800  0.459600  1.0  -0.6759
  O  O830  1  0.272000  0.668800  0.959600  1.0  -0.6759
  O  O831  1  0.772000  0.168800  0.959600  1.0  -0.6759
  O  O832  1  0.772000  0.668800  0.459600  1.0  -0.6759
  O  O833  1  0.728000  0.168800  0.540400  1.0  -0.6793
  O  O834  1  0.728000  0.668800  0.040400  1.0  -0.6793
  O  O835  1  0.228000  0.168800  0.040400  1.0  -0.6793
  O  O836  1  0.228000  0.668800  0.540400  1.0  -0.6793
  O  O837  1  0.272000  0.831200  0.540400  1.0  -0.6744
  O  O838  1  0.272000  0.331200  0.040400  1.0  -0.6744
  O  O839  1  0.772000  0.831200  0.040400  1.0  -0.6744
  O  O840  1  0.772000  0.331200  0.540400  1.0  -0.6744
  O  O841  1  0.831200  0.540400  0.272000  1.0  -0.676
  O  O842  1  0.831200  0.040400  0.772000  1.0  -0.676
  O  O843  1  0.331200  0.540400  0.772000  1.0  -0.676
  O  O844  1  0.331200  0.040400  0.272000  1.0  -0.676
  O  O845  1  0.168800  0.540400  0.728000  1.0  -0.6767
  O  O846  1  0.168800  0.040400  0.228000  1.0  -0.6768
  O  O847  1  0.668800  0.540400  0.228000  1.0  -0.6768
  O  O848  1  0.668800  0.040400  0.728000  1.0  -0.6768
  O  O849  1  0.168800  0.459600  0.272000  1.0  -0.6771
  O  O850  1  0.168800  0.959600  0.772000  1.0  -0.6771
  O  O851  1  0.668800  0.459600  0.772000  1.0  -0.6771
  O  O852  1  0.668800  0.959600  0.272000  1.0  -0.6771
  O  O853  1  0.831200  0.459600  0.728000  1.0  -0.6735
  O  O854  1  0.831200  0.959600  0.228000  1.0  -0.6735
  O  O855  1  0.331200  0.459600  0.228000  1.0  -0.6735
  O  O856  1  0.331200  0.959600  0.728000  1.0  -0.6735
  O  O857  1  0.540400  0.728000  0.168800  1.0  -0.6756
  O  O858  1  0.540400  0.228000  0.668800  1.0  -0.6757
  O  O859  1  0.040400  0.728000  0.668800  1.0  -0.6757
  O  O860  1  0.040400  0.228000  0.168800  1.0  -0.6756
  O  O861  1  0.540400  0.272000  0.831200  1.0  -0.6769
  O  O862  1  0.540400  0.772000  0.331200  1.0  -0.6769
  O  O863  1  0.040400  0.272000  0.331200  1.0  -0.6768
  O  O864  1  0.040400  0.772000  0.831200  1.0  -0.6768
  O  O865  1  0.459600  0.728000  0.831200  1.0  -0.6818
  O  O866  1  0.459600  0.228000  0.331200  1.0  -0.6819
  O  O867  1  0.959600  0.728000  0.331200  1.0  -0.6818
  O  O868  1  0.959600  0.228000  0.831200  1.0  -0.6818
  O  O869  1  0.459600  0.272000  0.168800  1.0  -0.6781
  O  O870  1  0.459600  0.772000  0.668800  1.0  -0.6781
  O  O871  1  0.959600  0.272000  0.668800  1.0  -0.6781
  O  O872  1  0.959600  0.772000  0.168800  1.0  -0.6781
  O  O873  1  0.219300  0.219300  0.456300  1.0  -0.4801
  O  O874  1  0.219300  0.719300  0.956300  1.0  -0.4801
  O  O875  1  0.719300  0.219300  0.956300  1.0  -0.4801
  O  O876  1  0.719300  0.719300  0.456300  1.0  -0.4801
  O  O877  1  0.780700  0.780700  0.456300  1.0  -0.4791
  O  O878  1  0.780700  0.280700  0.956300  1.0  -0.4791
  O  O879  1  0.280700  0.780700  0.956300  1.0  -0.4791
  O  O880  1  0.280700  0.280700  0.456300  1.0  -0.4791
  O  O881  1  0.780700  0.219300  0.543700  1.0  -0.479
  O  O882  1  0.780700  0.719300  0.043700  1.0  -0.479
  O  O883  1  0.280700  0.219300  0.043700  1.0  -0.479
  O  O884  1  0.280700  0.719300  0.543700  1.0  -0.479
  O  O885  1  0.219300  0.780700  0.543700  1.0  -0.4809
  O  O886  1  0.219300  0.280700  0.043700  1.0  -0.4809
  O  O887  1  0.719300  0.780700  0.043700  1.0  -0.4809
  O  O888  1  0.719300  0.280700  0.543700  1.0  -0.4809
  O  O889  1  0.456300  0.219300  0.219300  1.0  -0.4809
  O  O890  1  0.456300  0.719300  0.719300  1.0  -0.4809
  O  O891  1  0.956300  0.219300  0.719300  1.0  -0.4809
  O  O892  1  0.956300  0.719300  0.219300  1.0  -0.4809
  O  O893  1  0.456300  0.780700  0.780700  1.0  -0.4801
  O  O894  1  0.456300  0.280700  0.280700  1.0  -0.4801
  O  O895  1  0.956300  0.780700  0.280700  1.0  -0.4801
  O  O896  1  0.956300  0.280700  0.780700  1.0  -0.4801
  O  O897  1  0.543700  0.780700  0.219300  1.0  -0.4793
  O  O898  1  0.543700  0.280700  0.719300  1.0  -0.4793
  O  O899  1  0.043700  0.780700  0.719300  1.0  -0.4793
  O  O900  1  0.043700  0.280700  0.219300  1.0  -0.4793
  O  O901  1  0.543700  0.219300  0.780700  1.0  -0.4789
  O  O902  1  0.543700  0.719300  0.280700  1.0  -0.4789
  O  O903  1  0.043700  0.219300  0.280700  1.0  -0.4789
  O  O904  1  0.043700  0.719300  0.780700  1.0  -0.4789
  O  O905  1  0.219300  0.456300  0.219300  1.0  -0.4811
  O  O906  1  0.219300  0.956300  0.719300  1.0  -0.4811
  O  O907  1  0.719300  0.456300  0.719300  1.0  -0.4811
  O  O908  1  0.719300  0.956300  0.219300  1.0  -0.4811
  O  O909  1  0.780700  0.456300  0.780700  1.0  -0.4794
  O  O910  1  0.780700  0.956300  0.280700  1.0  -0.4794
  O  O911  1  0.280700  0.456300  0.280700  1.0  -0.4794
  O  O912  1  0.280700  0.956300  0.780700  1.0  -0.4794
  O  O913  1  0.219300  0.543700  0.780700  1.0  -0.4803
  O  O914  1  0.219300  0.043700  0.280700  1.0  -0.4803
  O  O915  1  0.719300  0.543700  0.280700  1.0  -0.4803
  O  O916  1  0.719300  0.043700  0.780700  1.0  -0.4803
  O  O917  1  0.780700  0.543700  0.219300  1.0  -0.4795
  O  O918  1  0.780700  0.043700  0.719300  1.0  -0.4795
  O  O919  1  0.280700  0.543700  0.719300  1.0  -0.4795
  O  O920  1  0.280700  0.043700  0.219300  1.0  -0.4795
  O  O921  1  0.219300  0.219300  0.543700  1.0  -0.4806
  O  O922  1  0.219300  0.719300  0.043700  1.0  -0.4806
  O  O923  1  0.719300  0.219300  0.043700  1.0  -0.4806
  O  O924  1  0.719300  0.719300  0.543700  1.0  -0.4806
  O  O925  1  0.780700  0.780700  0.543700  1.0  -0.4785
  O  O926  1  0.780700  0.280700  0.043700  1.0  -0.4785
  O  O927  1  0.280700  0.780700  0.043700  1.0  -0.4785
  O  O928  1  0.280700  0.280700  0.543700  1.0  -0.4785
  O  O929  1  0.219300  0.780700  0.456300  1.0  -0.4808
  O  O930  1  0.219300  0.280700  0.956300  1.0  -0.4808
  O  O931  1  0.719300  0.780700  0.956300  1.0  -0.4808
  O  O932  1  0.719300  0.280700  0.456300  1.0  -0.4808
  O  O933  1  0.780700  0.219300  0.456300  1.0  -0.4792
  O  O934  1  0.780700  0.719300  0.956300  1.0  -0.4792
  O  O935  1  0.280700  0.219300  0.956300  1.0  -0.4792
  O  O936  1  0.280700  0.719300  0.456300  1.0  -0.4792
  O  O937  1  0.219300  0.456300  0.780700  1.0  -0.4807
  O  O938  1  0.219300  0.956300  0.280700  1.0  -0.4807
  O  O939  1  0.719300  0.456300  0.280700  1.0  -0.4807
  O  O940  1  0.719300  0.956300  0.780700  1.0  -0.4807
  O  O941  1  0.780700  0.456300  0.219300  1.0  -0.4802
  O  O942  1  0.780700  0.956300  0.719300  1.0  -0.4802
  O  O943  1  0.280700  0.456300  0.719300  1.0  -0.4802
  O  O944  1  0.280700  0.956300  0.219300  1.0  -0.4802
  O  O945  1  0.780700  0.543700  0.780700  1.0  -0.4786
  O  O946  1  0.780700  0.043700  0.280700  1.0  -0.4786
  O  O947  1  0.280700  0.543700  0.280700  1.0  -0.4786
  O  O948  1  0.280700  0.043700  0.780700  1.0  -0.4786
  O  O949  1  0.219300  0.543700  0.219300  1.0  -0.4807
  O  O950  1  0.219300  0.043700  0.719300  1.0  -0.4807
  O  O951  1  0.719300  0.543700  0.719300  1.0  -0.4807
  O  O952  1  0.719300  0.043700  0.219300  1.0  -0.4807
  O  O953  1  0.456300  0.219300  0.780700  1.0  -0.4802
  O  O954  1  0.456300  0.719300  0.280700  1.0  -0.4802
  O  O955  1  0.956300  0.219300  0.280700  1.0  -0.4802
  O  O956  1  0.956300  0.719300  0.780700  1.0  -0.4802
  O  O957  1  0.456300  0.780700  0.219300  1.0  -0.4805
  O  O958  1  0.456300  0.280700  0.719300  1.0  -0.4805
  O  O959  1  0.956300  0.780700  0.719300  1.0  -0.4805
  O  O960  1  0.956300  0.280700  0.219300  1.0  -0.4805
  O  O961  1  0.543700  0.219300  0.219300  1.0  -0.48
  O  O962  1  0.543700  0.719300  0.719300  1.0  -0.48
  O  O963  1  0.043700  0.219300  0.719300  1.0  -0.48
  O  O964  1  0.043700  0.719300  0.219300  1.0  -0.48
  O  O965  1  0.543700  0.780700  0.780700  1.0  -0.4783
  O  O966  1  0.543700  0.280700  0.280700  1.0  -0.4783
  O  O967  1  0.043700  0.780700  0.280700  1.0  -0.4783
  O  O968  1  0.043700  0.280700  0.780700  1.0  -0.4783
