# generated using pymatgen
data_Zn2H26C33(N3O4)2
_symmetry_space_group_name_H-M   'P 1'
_cell_length_a   24.05950000
_cell_length_b   24.05950000
_cell_length_c   30.98600000
_cell_angle_alpha   90.00000000
_cell_angle_beta   90.00000000
_cell_angle_gamma   90.00000000
_symmetry_Int_Tables_number   1
_chemical_formula_structural   Zn2H26C33(N3O4)2
_chemical_formula_sum   'Zn32 H416 C528 N96 O128'
_cell_volume   17936.54171419
_cell_formula_units_Z   16
loop_
 _symmetry_equiv_pos_site_id
 _symmetry_equiv_pos_as_xyz
  1  'x, y, z'
loop_
 _atom_site_type_symbol
 _atom_site_label
 _atom_site_symmetry_multiplicity
 _atom_site_fract_x
 _atom_site_fract_y
 _atom_site_fract_z
 _atom_site_occupancy
 _atom_site_charge
  Zn  Zn1  1  0.572450  0.125890  0.122170  1.0  0.821
  Zn  Zn2  1  0.072450  0.625890  0.622160  1.0  0.8209
  Zn  Zn3  1  0.927550  0.874110  0.622160  1.0  0.8213
  Zn  Zn4  1  0.427550  0.374110  0.122170  1.0  0.8213
  Zn  Zn5  1  0.124110  0.322450  0.372160  1.0  0.8189
  Zn  Zn6  1  0.624110  0.822450  0.872160  1.0  0.8189
  Zn  Zn7  1  0.375890  0.677550  0.872160  1.0  0.8185
  Zn  Zn8  1  0.875890  0.177550  0.372160  1.0  0.8185
  Zn  Zn9  1  0.927550  0.125890  0.877830  1.0  0.8218
  Zn  Zn10  1  0.427550  0.625890  0.377830  1.0  0.8218
  Zn  Zn11  1  0.572450  0.874110  0.377830  1.0  0.8204
  Zn  Zn12  1  0.072450  0.374110  0.877830  1.0  0.8204
  Zn  Zn13  1  0.375890  0.322450  0.627830  1.0  0.8195
  Zn  Zn14  1  0.875890  0.822450  0.127830  1.0  0.8195
  Zn  Zn15  1  0.124110  0.677550  0.127830  1.0  0.8194
  Zn  Zn16  1  0.624110  0.177550  0.627830  1.0  0.8194
  Zn  Zn17  1  0.427550  0.874110  0.877830  1.0  0.821
  Zn  Zn18  1  0.927550  0.374110  0.377830  1.0  0.821
  Zn  Zn19  1  0.072450  0.125890  0.377830  1.0  0.8212
  Zn  Zn20  1  0.572450  0.625890  0.877830  1.0  0.8212
  Zn  Zn21  1  0.875890  0.677550  0.627830  1.0  0.8198
  Zn  Zn22  1  0.375890  0.177550  0.127830  1.0  0.8198
  Zn  Zn23  1  0.624110  0.322450  0.127830  1.0  0.819
  Zn  Zn24  1  0.124110  0.822450  0.627830  1.0  0.819
  Zn  Zn25  1  0.072450  0.874110  0.122170  1.0  0.8209
  Zn  Zn26  1  0.572450  0.374110  0.622160  1.0  0.8207
  Zn  Zn27  1  0.427550  0.125890  0.622160  1.0  0.8213
  Zn  Zn28  1  0.927550  0.625890  0.122170  1.0  0.8214
  Zn  Zn29  1  0.624110  0.677550  0.372160  1.0  0.8189
  Zn  Zn30  1  0.124110  0.177550  0.872160  1.0  0.8189
  Zn  Zn31  1  0.875890  0.322450  0.872160  1.0  0.8187
  Zn  Zn32  1  0.375890  0.822450  0.372160  1.0  0.8187
  H  H33  1  0.336200  0.234400  0.018800  1.0  0.0641
  H  H34  1  0.370000  0.269700  0.052300  1.0  0.0861
  H  H35  1  0.451100  0.233900  0.049400  1.0  0.0739
  H  H36  1  0.450100  0.180600  0.020200  1.0  0.0611
  H  H37  1  0.322100  0.132100  0.047100  1.0  0.1006
  H  H38  1  0.380500  0.104100  0.050900  1.0  0.1046
  H  H39  1  0.435300  0.087500  0.986600  1.0  0.0856
  H  H40  1  0.441600  0.083000  0.912700  1.0  0.0847
  H  H41  1  0.298900  0.167700  0.902300  1.0  0.0826
  H  H42  1  0.293700  0.173300  0.976100  1.0  0.0751
  H  H43  1  0.703700  0.154000  0.119400  1.0  0.0767
  H  H44  1  0.775500  0.090500  0.094400  1.0  0.0931
  H  H45  1  0.628200  0.020600  0.080700  1.0  0.0723
  H  H46  1  0.836200  0.734400  0.518800  1.0  0.0641
  H  H47  1  0.870000  0.769700  0.552300  1.0  0.0861
  H  H48  1  0.951100  0.733900  0.549400  1.0  0.0739
  H  H49  1  0.950100  0.680600  0.520200  1.0  0.0611
  H  H50  1  0.822100  0.632100  0.547100  1.0  0.1006
  H  H51  1  0.880500  0.604100  0.550900  1.0  0.1046
  H  H52  1  0.935300  0.587500  0.486600  1.0  0.0856
  H  H53  1  0.941600  0.583000  0.412700  1.0  0.0847
  H  H54  1  0.798900  0.667700  0.402300  1.0  0.0826
  H  H55  1  0.793700  0.673300  0.476100  1.0  0.0751
  H  H56  1  0.203700  0.654000  0.619400  1.0  0.0767
  H  H57  1  0.275500  0.590500  0.594400  1.0  0.0931
  H  H58  1  0.128200  0.520600  0.580700  1.0  0.0723
  H  H59  1  0.163800  0.765600  0.518800  1.0  0.0634
  H  H60  1  0.130000  0.730300  0.552300  1.0  0.0855
  H  H61  1  0.048900  0.766100  0.549400  1.0  0.0745
  H  H62  1  0.049900  0.819400  0.520200  1.0  0.061
  H  H63  1  0.177900  0.867900  0.547100  1.0  0.1044
  H  H64  1  0.119500  0.895900  0.550900  1.0  0.1047
  H  H65  1  0.064700  0.912500  0.486600  1.0  0.0857
  H  H66  1  0.058400  0.917000  0.412700  1.0  0.085
  H  H67  1  0.201100  0.832300  0.402300  1.0  0.083
  H  H68  1  0.206300  0.826700  0.476100  1.0  0.075
  H  H69  1  0.796300  0.846000  0.619400  1.0  0.0771
  H  H70  1  0.724500  0.909500  0.594400  1.0  0.0935
  H  H71  1  0.871800  0.979400  0.580700  1.0  0.0724
  H  H72  1  0.663800  0.265600  0.018800  1.0  0.0634
  H  H73  1  0.630000  0.230300  0.052300  1.0  0.0855
  H  H74  1  0.548900  0.266100  0.049400  1.0  0.0745
  H  H75  1  0.549900  0.319400  0.020200  1.0  0.061
  H  H76  1  0.677900  0.367900  0.047100  1.0  0.1044
  H  H77  1  0.619500  0.395900  0.050900  1.0  0.1047
  H  H78  1  0.564700  0.412500  0.986600  1.0  0.0857
  H  H79  1  0.558400  0.417000  0.912700  1.0  0.085
  H  H80  1  0.701100  0.332300  0.902300  1.0  0.083
  H  H81  1  0.706300  0.326700  0.976100  1.0  0.075
  H  H82  1  0.296300  0.346000  0.119400  1.0  0.0771
  H  H83  1  0.224500  0.409500  0.094400  1.0  0.0935
  H  H84  1  0.371800  0.479400  0.080700  1.0  0.0724
  H  H85  1  0.015600  0.086200  0.268800  1.0  0.0645
  H  H86  1  0.980300  0.120000  0.302300  1.0  0.0793
  H  H87  1  0.016100  0.201100  0.299400  1.0  0.0735
  H  H88  1  0.069400  0.200100  0.270200  1.0  0.0595
  H  H89  1  0.117900  0.072100  0.297100  1.0  0.1007
  H  H90  1  0.145900  0.130500  0.300900  1.0  0.1039
  H  H91  1  0.162500  0.185300  0.236600  1.0  0.0858
  H  H92  1  0.167000  0.191600  0.162700  1.0  0.0854
  H  H93  1  0.082300  0.048900  0.152300  1.0  0.0834
  H  H94  1  0.076700  0.043700  0.226100  1.0  0.0751
  H  H95  1  0.096000  0.453700  0.369400  1.0  0.0775
  H  H96  1  0.159500  0.525500  0.344400  1.0  0.0937
  H  H97  1  0.229400  0.378200  0.330700  1.0  0.0728
  H  H98  1  0.515600  0.586200  0.768800  1.0  0.0645
  H  H99  1  0.480300  0.620000  0.802300  1.0  0.0793
  H  H100  1  0.516100  0.701100  0.799400  1.0  0.0735
  H  H101  1  0.569400  0.700100  0.770200  1.0  0.0595
  H  H102  1  0.617900  0.572100  0.797100  1.0  0.1007
  H  H103  1  0.645900  0.630500  0.800900  1.0  0.1039
  H  H104  1  0.662500  0.685300  0.736600  1.0  0.0858
  H  H105  1  0.667000  0.691600  0.662700  1.0  0.0854
  H  H106  1  0.582300  0.548900  0.652300  1.0  0.0834
  H  H107  1  0.576700  0.543700  0.726100  1.0  0.0751
  H  H108  1  0.596000  0.953700  0.869400  1.0  0.0775
  H  H109  1  0.659500  0.025500  0.844400  1.0  0.0937
  H  H110  1  0.729400  0.878200  0.830700  1.0  0.0728
  H  H111  1  0.484400  0.913800  0.768800  1.0  0.065
  H  H112  1  0.519700  0.880000  0.802300  1.0  0.0814
  H  H113  1  0.483900  0.798900  0.799400  1.0  0.0744
  H  H114  1  0.430600  0.799900  0.770200  1.0  0.0593
  H  H115  1  0.382100  0.927900  0.797100  1.0  0.1028
  H  H116  1  0.354100  0.869500  0.800900  1.0  0.1048
  H  H117  1  0.337500  0.814700  0.736600  1.0  0.085
  H  H118  1  0.333000  0.808400  0.662700  1.0  0.0851
  H  H119  1  0.417700  0.951100  0.652300  1.0  0.0832
  H  H120  1  0.423300  0.956300  0.726100  1.0  0.0749
  H  H121  1  0.404000  0.546300  0.869400  1.0  0.0776
  H  H122  1  0.340500  0.474500  0.844400  1.0  0.0942
  H  H123  1  0.270600  0.621800  0.830700  1.0  0.0725
  H  H124  1  0.984400  0.413800  0.268800  1.0  0.065
  H  H125  1  0.019700  0.380000  0.302300  1.0  0.0814
  H  H126  1  0.983900  0.298900  0.299400  1.0  0.0744
  H  H127  1  0.930600  0.299900  0.270200  1.0  0.0593
  H  H128  1  0.882100  0.427900  0.297100  1.0  0.1028
  H  H129  1  0.854100  0.369500  0.300900  1.0  0.1048
  H  H130  1  0.837500  0.314700  0.236600  1.0  0.085
  H  H131  1  0.833000  0.308400  0.162700  1.0  0.0851
  H  H132  1  0.917700  0.451100  0.152300  1.0  0.0832
  H  H133  1  0.923300  0.456300  0.226100  1.0  0.0749
  H  H134  1  0.904000  0.046300  0.369400  1.0  0.0776
  H  H135  1  0.840500  0.974500  0.344400  1.0  0.0942
  H  H136  1  0.770600  0.121800  0.330700  1.0  0.0725
  H  H137  1  0.163800  0.234400  0.981200  1.0  0.0633
  H  H138  1  0.130000  0.269700  0.947700  1.0  0.0863
  H  H139  1  0.048900  0.233900  0.950600  1.0  0.0745
  H  H140  1  0.049900  0.180600  0.979800  1.0  0.0612
  H  H141  1  0.177900  0.132100  0.952900  1.0  0.1034
  H  H142  1  0.119500  0.104100  0.949100  1.0  0.1051
  H  H143  1  0.064700  0.087500  0.013400  1.0  0.0853
  H  H144  1  0.058400  0.083000  0.087300  1.0  0.0848
  H  H145  1  0.201100  0.167700  0.097700  1.0  0.0839
  H  H146  1  0.206300  0.173300  0.023900  1.0  0.0752
  H  H147  1  0.796300  0.154000  0.880600  1.0  0.0774
  H  H148  1  0.724500  0.090500  0.905600  1.0  0.0935
  H  H149  1  0.871800  0.020600  0.919300  1.0  0.0731
  H  H150  1  0.663800  0.734400  0.481200  1.0  0.0633
  H  H151  1  0.630000  0.769700  0.447700  1.0  0.0863
  H  H152  1  0.548900  0.733900  0.450600  1.0  0.0745
  H  H153  1  0.549900  0.680600  0.479800  1.0  0.0612
  H  H154  1  0.677900  0.632100  0.452900  1.0  0.1034
  H  H155  1  0.619500  0.604100  0.449100  1.0  0.1051
  H  H156  1  0.564700  0.587500  0.513400  1.0  0.0853
  H  H157  1  0.558400  0.583000  0.587300  1.0  0.0848
  H  H158  1  0.701100  0.667700  0.597700  1.0  0.0839
  H  H159  1  0.706300  0.673300  0.523900  1.0  0.0752
  H  H160  1  0.296300  0.654000  0.380600  1.0  0.0774
  H  H161  1  0.224500  0.590500  0.405600  1.0  0.0935
  H  H162  1  0.371800  0.520600  0.419300  1.0  0.0731
  H  H163  1  0.336200  0.765600  0.481200  1.0  0.0636
  H  H164  1  0.370000  0.730300  0.447700  1.0  0.0864
  H  H165  1  0.451100  0.766100  0.450600  1.0  0.075
  H  H166  1  0.450100  0.819400  0.479800  1.0  0.0604
  H  H167  1  0.322100  0.867900  0.452900  1.0  0.1018
  H  H168  1  0.380500  0.895900  0.449100  1.0  0.1034
  H  H169  1  0.435300  0.912500  0.513400  1.0  0.0863
  H  H170  1  0.441600  0.917000  0.587300  1.0  0.0849
  H  H171  1  0.298900  0.832300  0.597700  1.0  0.0836
  H  H172  1  0.293700  0.826700  0.523900  1.0  0.0753
  H  H173  1  0.703700  0.846000  0.380600  1.0  0.0768
  H  H174  1  0.775500  0.909500  0.405600  1.0  0.0925
  H  H175  1  0.628200  0.979400  0.419300  1.0  0.0726
  H  H176  1  0.836200  0.265600  0.981200  1.0  0.0636
  H  H177  1  0.870000  0.230300  0.947700  1.0  0.0864
  H  H178  1  0.951100  0.266100  0.950600  1.0  0.075
  H  H179  1  0.950100  0.319400  0.979800  1.0  0.0604
  H  H180  1  0.822100  0.367900  0.952900  1.0  0.1018
  H  H181  1  0.880500  0.395900  0.949100  1.0  0.1034
  H  H182  1  0.935300  0.412500  0.013400  1.0  0.0863
  H  H183  1  0.941600  0.417000  0.087300  1.0  0.0849
  H  H184  1  0.798900  0.332300  0.097700  1.0  0.0836
  H  H185  1  0.793700  0.326700  0.023900  1.0  0.0753
  H  H186  1  0.203700  0.346000  0.880600  1.0  0.0768
  H  H187  1  0.275500  0.409500  0.905600  1.0  0.0925
  H  H188  1  0.128200  0.479400  0.919300  1.0  0.0726
  H  H189  1  0.484400  0.086200  0.731200  1.0  0.0644
  H  H190  1  0.519700  0.120000  0.697700  1.0  0.0804
  H  H191  1  0.483900  0.201100  0.700600  1.0  0.0739
  H  H192  1  0.430600  0.200100  0.729800  1.0  0.0591
  H  H193  1  0.382100  0.072100  0.702900  1.0  0.101
  H  H194  1  0.354100  0.130500  0.699100  1.0  0.1054
  H  H195  1  0.337500  0.185300  0.763400  1.0  0.0864
  H  H196  1  0.333000  0.191600  0.837300  1.0  0.0859
  H  H197  1  0.417700  0.048900  0.847700  1.0  0.0843
  H  H198  1  0.423300  0.043700  0.773900  1.0  0.075
  H  H199  1  0.404000  0.453700  0.630600  1.0  0.0777
  H  H200  1  0.340500  0.525500  0.655600  1.0  0.0937
  H  H201  1  0.270600  0.378200  0.669300  1.0  0.0726
  H  H202  1  0.984400  0.586200  0.231200  1.0  0.0644
  H  H203  1  0.019700  0.620000  0.197700  1.0  0.0804
  H  H204  1  0.983900  0.701100  0.200600  1.0  0.0739
  H  H205  1  0.930600  0.700100  0.229800  1.0  0.0591
  H  H206  1  0.882100  0.572100  0.202900  1.0  0.101
  H  H207  1  0.854100  0.630500  0.199100  1.0  0.1054
  H  H208  1  0.837500  0.685300  0.263400  1.0  0.0864
  H  H209  1  0.833000  0.691600  0.337300  1.0  0.0859
  H  H210  1  0.917700  0.548900  0.347700  1.0  0.0843
  H  H211  1  0.923300  0.543700  0.273900  1.0  0.075
  H  H212  1  0.904000  0.953700  0.130600  1.0  0.0777
  H  H213  1  0.840500  0.025500  0.155600  1.0  0.0937
  H  H214  1  0.770600  0.878200  0.169300  1.0  0.0726
  H  H215  1  0.015600  0.913800  0.231200  1.0  0.0648
  H  H216  1  0.980300  0.880000  0.197700  1.0  0.0809
  H  H217  1  0.016100  0.798900  0.200600  1.0  0.0746
  H  H218  1  0.069400  0.799900  0.229800  1.0  0.0597
  H  H219  1  0.117900  0.927900  0.202900  1.0  0.1009
  H  H220  1  0.145900  0.869500  0.199100  1.0  0.1037
  H  H221  1  0.162500  0.814700  0.263400  1.0  0.0852
  H  H222  1  0.167000  0.808400  0.337300  1.0  0.0858
  H  H223  1  0.082300  0.951100  0.347700  1.0  0.0841
  H  H224  1  0.076700  0.956300  0.273900  1.0  0.0759
  H  H225  1  0.096000  0.546300  0.130600  1.0  0.0777
  H  H226  1  0.159500  0.474500  0.155600  1.0  0.0942
  H  H227  1  0.229400  0.621800  0.169300  1.0  0.0732
  H  H228  1  0.515600  0.413800  0.731200  1.0  0.0648
  H  H229  1  0.480300  0.380000  0.697700  1.0  0.0809
  H  H230  1  0.516100  0.298900  0.700600  1.0  0.0746
  H  H231  1  0.569400  0.299900  0.729800  1.0  0.0597
  H  H232  1  0.617900  0.427900  0.702900  1.0  0.1009
  H  H233  1  0.645900  0.369500  0.699100  1.0  0.1037
  H  H234  1  0.662500  0.314700  0.763400  1.0  0.0852
  H  H235  1  0.667000  0.308400  0.837300  1.0  0.0858
  H  H236  1  0.582300  0.451100  0.847700  1.0  0.0841
  H  H237  1  0.576700  0.456300  0.773900  1.0  0.0759
  H  H238  1  0.596000  0.046300  0.630600  1.0  0.0777
  H  H239  1  0.659500  0.974500  0.655600  1.0  0.0942
  H  H240  1  0.729400  0.121800  0.669300  1.0  0.0732
  H  H241  1  0.663800  0.765600  0.981200  1.0  0.0636
  H  H242  1  0.630000  0.730300  0.947700  1.0  0.0861
  H  H243  1  0.548900  0.766100  0.950600  1.0  0.0752
  H  H244  1  0.549900  0.819400  0.979800  1.0  0.0608
  H  H245  1  0.677900  0.867900  0.952900  1.0  0.1039
  H  H246  1  0.619500  0.895900  0.949100  1.0  0.1047
  H  H247  1  0.564700  0.912500  0.013400  1.0  0.0861
  H  H248  1  0.558400  0.917000  0.087300  1.0  0.0852
  H  H249  1  0.701100  0.832300  0.097700  1.0  0.0837
  H  H250  1  0.706300  0.826700  0.023900  1.0  0.0755
  H  H251  1  0.296300  0.846000  0.880600  1.0  0.0769
  H  H252  1  0.224500  0.909500  0.905600  1.0  0.0935
  H  H253  1  0.371800  0.979400  0.919300  1.0  0.0729
  H  H254  1  0.163800  0.265600  0.481200  1.0  0.0636
  H  H255  1  0.130000  0.230300  0.447700  1.0  0.0861
  H  H256  1  0.048900  0.266100  0.450600  1.0  0.0752
  H  H257  1  0.049900  0.319400  0.479800  1.0  0.0608
  H  H258  1  0.177900  0.367900  0.452900  1.0  0.1039
  H  H259  1  0.119500  0.395900  0.449100  1.0  0.1047
  H  H260  1  0.064700  0.412500  0.513400  1.0  0.0861
  H  H261  1  0.058400  0.417000  0.587300  1.0  0.0852
  H  H262  1  0.201100  0.332300  0.597700  1.0  0.0837
  H  H263  1  0.206300  0.326700  0.523900  1.0  0.0755
  H  H264  1  0.796300  0.346000  0.380600  1.0  0.0769
  H  H265  1  0.724500  0.409500  0.405600  1.0  0.0935
  H  H266  1  0.871800  0.479400  0.419300  1.0  0.0729
  H  H267  1  0.836200  0.234400  0.481200  1.0  0.0631
  H  H268  1  0.870000  0.269700  0.447700  1.0  0.0853
  H  H269  1  0.951100  0.233900  0.450600  1.0  0.0736
  H  H270  1  0.950100  0.180600  0.479800  1.0  0.0603
  H  H271  1  0.822100  0.132100  0.452900  1.0  0.1001
  H  H272  1  0.880500  0.104100  0.449100  1.0  0.1042
  H  H273  1  0.935300  0.087500  0.513400  1.0  0.0855
  H  H274  1  0.941600  0.083000  0.587300  1.0  0.085
  H  H275  1  0.798900  0.167700  0.597700  1.0  0.0824
  H  H276  1  0.793700  0.173300  0.523900  1.0  0.0756
  H  H277  1  0.203700  0.154000  0.380600  1.0  0.0773
  H  H278  1  0.275500  0.090500  0.405600  1.0  0.093
  H  H279  1  0.128200  0.020600  0.419300  1.0  0.0729
  H  H280  1  0.336200  0.734400  0.981200  1.0  0.0631
  H  H281  1  0.370000  0.769700  0.947700  1.0  0.0853
  H  H282  1  0.451100  0.733900  0.950600  1.0  0.0736
  H  H283  1  0.450100  0.680600  0.979800  1.0  0.0603
  H  H284  1  0.322100  0.632100  0.952900  1.0  0.1001
  H  H285  1  0.380500  0.604100  0.949100  1.0  0.1042
  H  H286  1  0.435300  0.587500  0.013400  1.0  0.0855
  H  H287  1  0.441600  0.583000  0.087300  1.0  0.085
  H  H288  1  0.298900  0.667700  0.097700  1.0  0.0824
  H  H289  1  0.293700  0.673300  0.023900  1.0  0.0756
  H  H290  1  0.703700  0.654000  0.880600  1.0  0.0773
  H  H291  1  0.775500  0.590500  0.905600  1.0  0.093
  H  H292  1  0.628200  0.520600  0.919300  1.0  0.0729
  H  H293  1  0.984400  0.913800  0.731200  1.0  0.0648
  H  H294  1  0.019700  0.880000  0.697700  1.0  0.0799
  H  H295  1  0.983900  0.798900  0.700600  1.0  0.0741
  H  H296  1  0.930600  0.799900  0.729800  1.0  0.0595
  H  H297  1  0.882100  0.927900  0.702900  1.0  0.1029
  H  H298  1  0.854100  0.869500  0.699100  1.0  0.1047
  H  H299  1  0.837500  0.814700  0.763400  1.0  0.0849
  H  H300  1  0.833000  0.808400  0.837300  1.0  0.0855
  H  H301  1  0.917700  0.951100  0.847700  1.0  0.0831
  H  H302  1  0.923300  0.956300  0.773900  1.0  0.0752
  H  H303  1  0.904000  0.546300  0.630600  1.0  0.0777
  H  H304  1  0.840500  0.474500  0.655600  1.0  0.0943
  H  H305  1  0.770600  0.621800  0.669300  1.0  0.0729
  H  H306  1  0.484400  0.413800  0.231200  1.0  0.0648
  H  H307  1  0.519700  0.380000  0.197700  1.0  0.0799
  H  H308  1  0.483900  0.298900  0.200600  1.0  0.0741
  H  H309  1  0.430600  0.299900  0.229800  1.0  0.0595
  H  H310  1  0.382100  0.427900  0.202900  1.0  0.1029
  H  H311  1  0.354100  0.369500  0.199100  1.0  0.1047
  H  H312  1  0.337500  0.314700  0.263400  1.0  0.0849
  H  H313  1  0.333000  0.308400  0.337300  1.0  0.0855
  H  H314  1  0.417700  0.451100  0.347700  1.0  0.0831
  H  H315  1  0.423300  0.456300  0.273900  1.0  0.0752
  H  H316  1  0.404000  0.046300  0.130600  1.0  0.0777
  H  H317  1  0.340500  0.974500  0.155600  1.0  0.0943
  H  H318  1  0.270600  0.121800  0.169300  1.0  0.0729
  H  H319  1  0.515600  0.086200  0.231200  1.0  0.0649
  H  H320  1  0.480300  0.120000  0.197700  1.0  0.0809
  H  H321  1  0.516100  0.201100  0.200600  1.0  0.074
  H  H322  1  0.569400  0.200100  0.229800  1.0  0.0593
  H  H323  1  0.617900  0.072100  0.202900  1.0  0.1006
  H  H324  1  0.645900  0.130500  0.199100  1.0  0.1039
  H  H325  1  0.662500  0.185300  0.263400  1.0  0.086
  H  H326  1  0.667000  0.191600  0.337300  1.0  0.0855
  H  H327  1  0.582300  0.048900  0.347700  1.0  0.0837
  H  H328  1  0.576700  0.043700  0.273900  1.0  0.0758
  H  H329  1  0.596000  0.453700  0.130600  1.0  0.0777
  H  H330  1  0.659500  0.525500  0.155600  1.0  0.0937
  H  H331  1  0.729400  0.378200  0.169300  1.0  0.0735
  H  H332  1  0.015600  0.586200  0.731200  1.0  0.0649
  H  H333  1  0.980300  0.620000  0.697700  1.0  0.0809
  H  H334  1  0.016100  0.701100  0.700600  1.0  0.074
  H  H335  1  0.069400  0.700100  0.729800  1.0  0.0593
  H  H336  1  0.117900  0.572100  0.702900  1.0  0.1006
  H  H337  1  0.145900  0.630500  0.699100  1.0  0.1039
  H  H338  1  0.162500  0.685300  0.763400  1.0  0.086
  H  H339  1  0.167000  0.691600  0.837300  1.0  0.0855
  H  H340  1  0.082300  0.548900  0.847700  1.0  0.0837
  H  H341  1  0.076700  0.543700  0.773900  1.0  0.0758
  H  H342  1  0.096000  0.953700  0.630600  1.0  0.0777
  H  H343  1  0.159500  0.025500  0.655600  1.0  0.0937
  H  H344  1  0.229400  0.878200  0.669300  1.0  0.0735
  H  H345  1  0.836200  0.765600  0.018800  1.0  0.0634
  H  H346  1  0.870000  0.730300  0.052300  1.0  0.0847
  H  H347  1  0.951100  0.766100  0.049400  1.0  0.0744
  H  H348  1  0.950100  0.819400  0.020200  1.0  0.0613
  H  H349  1  0.822100  0.867900  0.047100  1.0  0.1018
  H  H350  1  0.880500  0.895900  0.050900  1.0  0.1035
  H  H351  1  0.935300  0.912500  0.986600  1.0  0.0862
  H  H352  1  0.941600  0.917000  0.912700  1.0  0.0863
  H  H353  1  0.798900  0.832300  0.902300  1.0  0.0833
  H  H354  1  0.793700  0.826700  0.976100  1.0  0.0748
  H  H355  1  0.203700  0.846000  0.119400  1.0  0.0766
  H  H356  1  0.275500  0.909500  0.094400  1.0  0.0926
  H  H357  1  0.128200  0.979400  0.080700  1.0  0.0721
  H  H358  1  0.336200  0.265600  0.518800  1.0  0.0634
  H  H359  1  0.370000  0.230300  0.552300  1.0  0.0847
  H  H360  1  0.451100  0.266100  0.549400  1.0  0.0744
  H  H361  1  0.450100  0.319400  0.520200  1.0  0.0613
  H  H362  1  0.322100  0.367900  0.547100  1.0  0.1018
  H  H363  1  0.380500  0.395900  0.550900  1.0  0.1035
  H  H364  1  0.435300  0.412500  0.486600  1.0  0.0862
  H  H365  1  0.441600  0.417000  0.412700  1.0  0.0863
  H  H366  1  0.298900  0.332300  0.402300  1.0  0.0833
  H  H367  1  0.293700  0.326700  0.476100  1.0  0.0748
  H  H368  1  0.703700  0.346000  0.619400  1.0  0.0766
  H  H369  1  0.775500  0.409500  0.594400  1.0  0.0926
  H  H370  1  0.628200  0.479400  0.580700  1.0  0.0721
  H  H371  1  0.663800  0.234400  0.518800  1.0  0.0641
  H  H372  1  0.630000  0.269700  0.552300  1.0  0.0865
  H  H373  1  0.548900  0.233900  0.549400  1.0  0.0745
  H  H374  1  0.549900  0.180600  0.520200  1.0  0.0611
  H  H375  1  0.677900  0.132100  0.547100  1.0  0.1044
  H  H376  1  0.619500  0.104100  0.550900  1.0  0.1056
  H  H377  1  0.564700  0.087500  0.486600  1.0  0.0852
  H  H378  1  0.558400  0.083000  0.412700  1.0  0.0865
  H  H379  1  0.701100  0.167700  0.402300  1.0  0.0837
  H  H380  1  0.706300  0.173300  0.476100  1.0  0.0748
  H  H381  1  0.296300  0.154000  0.619400  1.0  0.077
  H  H382  1  0.224500  0.090500  0.594400  1.0  0.0935
  H  H383  1  0.371800  0.020600  0.580700  1.0  0.0724
  H  H384  1  0.163800  0.734400  0.018800  1.0  0.0641
  H  H385  1  0.130000  0.769700  0.052300  1.0  0.0865
  H  H386  1  0.048900  0.733900  0.049400  1.0  0.0745
  H  H387  1  0.049900  0.680600  0.020200  1.0  0.0611
  H  H388  1  0.177900  0.632100  0.047100  1.0  0.1044
  H  H389  1  0.119500  0.604100  0.050900  1.0  0.1056
  H  H390  1  0.064700  0.587500  0.986600  1.0  0.0852
  H  H391  1  0.058400  0.583000  0.912700  1.0  0.0865
  H  H392  1  0.201100  0.667700  0.902300  1.0  0.0837
  H  H393  1  0.206300  0.673300  0.976100  1.0  0.0748
  H  H394  1  0.796300  0.654000  0.119400  1.0  0.077
  H  H395  1  0.724500  0.590500  0.094400  1.0  0.0935
  H  H396  1  0.871800  0.520600  0.080700  1.0  0.0724
  H  H397  1  0.515600  0.913800  0.268800  1.0  0.065
  H  H398  1  0.480300  0.880000  0.302300  1.0  0.0794
  H  H399  1  0.516100  0.798900  0.299400  1.0  0.0733
  H  H400  1  0.569400  0.799900  0.270200  1.0  0.0595
  H  H401  1  0.617900  0.927900  0.297100  1.0  0.1008
  H  H402  1  0.645900  0.869500  0.300900  1.0  0.1038
  H  H403  1  0.662500  0.814700  0.236600  1.0  0.0853
  H  H404  1  0.667000  0.808400  0.162700  1.0  0.0868
  H  H405  1  0.582300  0.951100  0.152300  1.0  0.0841
  H  H406  1  0.576700  0.956300  0.226100  1.0  0.0753
  H  H407  1  0.596000  0.546300  0.369400  1.0  0.0778
  H  H408  1  0.659500  0.474500  0.344400  1.0  0.0939
  H  H409  1  0.729400  0.621800  0.330700  1.0  0.0728
  H  H410  1  0.015600  0.413800  0.768800  1.0  0.065
  H  H411  1  0.980300  0.380000  0.802300  1.0  0.0794
  H  H412  1  0.016100  0.298900  0.799400  1.0  0.0733
  H  H413  1  0.069400  0.299900  0.770200  1.0  0.0595
  H  H414  1  0.117900  0.427900  0.797100  1.0  0.1008
  H  H415  1  0.145900  0.369500  0.800900  1.0  0.1038
  H  H416  1  0.162500  0.314700  0.736600  1.0  0.0853
  H  H417  1  0.167000  0.308400  0.662700  1.0  0.0868
  H  H418  1  0.082300  0.451100  0.652300  1.0  0.0841
  H  H419  1  0.076700  0.456300  0.726100  1.0  0.0753
  H  H420  1  0.096000  0.046300  0.869400  1.0  0.0778
  H  H421  1  0.159500  0.974500  0.844400  1.0  0.0939
  H  H422  1  0.229400  0.121800  0.830700  1.0  0.0728
  H  H423  1  0.984400  0.086200  0.768800  1.0  0.0645
  H  H424  1  0.019700  0.120000  0.802300  1.0  0.0815
  H  H425  1  0.983900  0.201100  0.799400  1.0  0.0752
  H  H426  1  0.930600  0.200100  0.770200  1.0  0.0592
  H  H427  1  0.882100  0.072100  0.797100  1.0  0.1012
  H  H428  1  0.854100  0.130500  0.800900  1.0  0.105
  H  H429  1  0.837500  0.185300  0.736600  1.0  0.0859
  H  H430  1  0.833000  0.191600  0.662700  1.0  0.0872
  H  H431  1  0.917700  0.048900  0.652300  1.0  0.0842
  H  H432  1  0.923300  0.043700  0.726100  1.0  0.0746
  H  H433  1  0.904000  0.453700  0.869400  1.0  0.0775
  H  H434  1  0.840500  0.525500  0.844400  1.0  0.0938
  H  H435  1  0.770600  0.378200  0.830700  1.0  0.0719
  H  H436  1  0.484400  0.586200  0.268800  1.0  0.0645
  H  H437  1  0.519700  0.620000  0.302300  1.0  0.0815
  H  H438  1  0.483900  0.701100  0.299400  1.0  0.0752
  H  H439  1  0.430600  0.700100  0.270200  1.0  0.0592
  H  H440  1  0.382100  0.572100  0.297100  1.0  0.1012
  H  H441  1  0.354100  0.630500  0.300900  1.0  0.105
  H  H442  1  0.337500  0.685300  0.236600  1.0  0.0859
  H  H443  1  0.333000  0.691600  0.162700  1.0  0.0872
  H  H444  1  0.417700  0.548900  0.152300  1.0  0.0842
  H  H445  1  0.423300  0.543700  0.226100  1.0  0.0746
  H  H446  1  0.404000  0.953700  0.369400  1.0  0.0775
  H  H447  1  0.340500  0.025500  0.344400  1.0  0.0938
  H  H448  1  0.270600  0.878200  0.330700  1.0  0.0719
  C  C449  1  0.298160  0.238130  0.077800  1.0  0.7182
  C  C450  1  0.348300  0.236100  0.048590  1.0  -0.2159
  C  C451  1  0.478370  0.164680  0.081120  1.0  0.7212
  C  C452  1  0.442250  0.194500  0.048970  1.0  -0.2218
  C  C453  1  0.360780  0.135560  0.038700  1.0  -0.0911
  C  C454  1  0.363940  0.131260  0.989750  1.0  0.0611
  C  C455  1  0.407900  0.104000  0.969750  1.0  -0.1462
  C  C456  1  0.411400  0.100900  0.925290  1.0  -0.1489
  C  C457  1  0.370770  0.123900  0.899200  1.0  0.0368
  C  C458  1  0.326500  0.151460  0.919080  1.0  -0.1648
  C  C459  1  0.323490  0.154800  0.963500  1.0  -0.1544
  C  C460  1  0.697400  0.118700  0.108200  1.0  0.0071
  C  C461  1  0.737400  0.084300  0.094270  1.0  -0.1051
  C  C462  1  0.655600  0.046500  0.086980  1.0  0.1486
  C  C463  1  0.735800  0.988600  0.060500  1.0  0.0959
  C  C464  1  0.730100  0.973000  0.016300  1.0  0.3329
  C  C465  1  0.798160  0.738130  0.577800  1.0  0.7182
  C  C466  1  0.848300  0.736100  0.548590  1.0  -0.2159
  C  C467  1  0.978370  0.664680  0.581120  1.0  0.7212
  C  C468  1  0.942250  0.694500  0.548970  1.0  -0.2218
  C  C469  1  0.860780  0.635560  0.538700  1.0  -0.0911
  C  C470  1  0.863940  0.631260  0.489750  1.0  0.0611
  C  C471  1  0.907900  0.604000  0.469750  1.0  -0.1462
  C  C472  1  0.911400  0.600900  0.425290  1.0  -0.1489
  C  C473  1  0.870770  0.623900  0.399200  1.0  0.0368
  C  C474  1  0.826500  0.651460  0.419080  1.0  -0.1648
  C  C475  1  0.823490  0.654800  0.463500  1.0  -0.1544
  C  C476  1  0.197400  0.618700  0.608200  1.0  0.0071
  C  C477  1  0.237400  0.584300  0.594270  1.0  -0.1051
  C  C478  1  0.155600  0.546500  0.586980  1.0  0.1486
  C  C479  1  0.235800  0.488600  0.560500  1.0  0.0959
  C  C480  1  0.230100  0.473000  0.516300  1.0  0.3329
  C  C481  1  0.201840  0.761870  0.577800  1.0  0.7188
  C  C482  1  0.151700  0.763900  0.548590  1.0  -0.2154
  C  C483  1  0.021630  0.835320  0.581120  1.0  0.7222
  C  C484  1  0.057750  0.805500  0.548970  1.0  -0.221
  C  C485  1  0.139220  0.864440  0.538700  1.0  -0.0896
  C  C486  1  0.136060  0.868740  0.489750  1.0  0.0622
  C  C487  1  0.092100  0.896000  0.469750  1.0  -0.1483
  C  C488  1  0.088600  0.899100  0.425290  1.0  -0.1501
  C  C489  1  0.129230  0.876100  0.399200  1.0  0.0363
  C  C490  1  0.173500  0.848540  0.419080  1.0  -0.1662
  C  C491  1  0.176510  0.845200  0.463500  1.0  -0.156
  C  C492  1  0.802600  0.881300  0.608200  1.0  0.0083
  C  C493  1  0.762600  0.915700  0.594270  1.0  -0.107
  C  C494  1  0.844400  0.953500  0.586980  1.0  0.1488
  C  C495  1  0.764200  0.011400  0.560500  1.0  0.0965
  C  C496  1  0.769900  0.027000  0.516300  1.0  0.3329
  C  C497  1  0.701840  0.261870  0.077800  1.0  0.7188
  C  C498  1  0.651700  0.263900  0.048590  1.0  -0.2154
  C  C499  1  0.521630  0.335320  0.081120  1.0  0.7222
  C  C500  1  0.557750  0.305500  0.048970  1.0  -0.221
  C  C501  1  0.639220  0.364440  0.038700  1.0  -0.0896
  C  C502  1  0.636060  0.368740  0.989750  1.0  0.0622
  C  C503  1  0.592100  0.396000  0.969750  1.0  -0.1483
  C  C504  1  0.588600  0.399100  0.925290  1.0  -0.1501
  C  C505  1  0.629230  0.376100  0.899200  1.0  0.0363
  C  C506  1  0.673500  0.348540  0.919080  1.0  -0.1662
  C  C507  1  0.676510  0.345200  0.963500  1.0  -0.156
  C  C508  1  0.302600  0.381300  0.108200  1.0  0.0083
  C  C509  1  0.262600  0.415700  0.094270  1.0  -0.107
  C  C510  1  0.344400  0.453500  0.086980  1.0  0.1488
  C  C511  1  0.264200  0.511400  0.060500  1.0  0.0965
  C  C512  1  0.269900  0.527000  0.016300  1.0  0.3329
  C  C513  1  0.011870  0.048160  0.327800  1.0  0.7174
  C  C514  1  0.013900  0.098300  0.298590  1.0  -0.216
  C  C515  1  0.085320  0.228370  0.331120  1.0  0.7231
  C  C516  1  0.055500  0.192250  0.298970  1.0  -0.2175
  C  C517  1  0.114440  0.110780  0.288700  1.0  -0.091
  C  C518  1  0.118740  0.113940  0.239750  1.0  0.0627
  C  C519  1  0.146000  0.157900  0.219750  1.0  -0.1524
  C  C520  1  0.149100  0.161400  0.175290  1.0  -0.1533
  C  C521  1  0.126100  0.120770  0.149200  1.0  0.036
  C  C522  1  0.098540  0.076500  0.169080  1.0  -0.1653
  C  C523  1  0.095200  0.073490  0.213500  1.0  -0.154
  C  C524  1  0.131300  0.447400  0.358200  1.0  0.0073
  C  C525  1  0.165700  0.487400  0.344270  1.0  -0.1052
  C  C526  1  0.203500  0.405600  0.336980  1.0  0.1464
  C  C527  1  0.261400  0.485800  0.310500  1.0  0.0918
  C  C528  1  0.277000  0.480100  0.266300  1.0  0.3319
  C  C529  1  0.511870  0.548160  0.827800  1.0  0.7174
  C  C530  1  0.513900  0.598300  0.798590  1.0  -0.216
  C  C531  1  0.585320  0.728370  0.831120  1.0  0.7231
  C  C532  1  0.555500  0.692250  0.798970  1.0  -0.2175
  C  C533  1  0.614440  0.610780  0.788700  1.0  -0.091
  C  C534  1  0.618740  0.613940  0.739750  1.0  0.0627
  C  C535  1  0.646000  0.657900  0.719750  1.0  -0.1524
  C  C536  1  0.649100  0.661400  0.675290  1.0  -0.1533
  C  C537  1  0.626100  0.620770  0.649200  1.0  0.036
  C  C538  1  0.598540  0.576500  0.669080  1.0  -0.1653
  C  C539  1  0.595200  0.573490  0.713500  1.0  -0.154
  C  C540  1  0.631300  0.947400  0.858200  1.0  0.0073
  C  C541  1  0.665700  0.987400  0.844270  1.0  -0.1052
  C  C542  1  0.703500  0.905600  0.836980  1.0  0.1464
  C  C543  1  0.761400  0.985800  0.810500  1.0  0.0918
  C  C544  1  0.777000  0.980100  0.766300  1.0  0.3319
  C  C545  1  0.488130  0.951840  0.827800  1.0  0.7175
  C  C546  1  0.486100  0.901700  0.798590  1.0  -0.2147
  C  C547  1  0.414680  0.771630  0.831120  1.0  0.722
  C  C548  1  0.444500  0.807750  0.798970  1.0  -0.2178
  C  C549  1  0.385560  0.889220  0.788700  1.0  -0.0904
  C  C550  1  0.381260  0.886060  0.739750  1.0  0.0614
  C  C551  1  0.354000  0.842100  0.719750  1.0  -0.1503
  C  C552  1  0.350900  0.838600  0.675290  1.0  -0.1546
  C  C553  1  0.373900  0.879230  0.649200  1.0  0.0361
  C  C554  1  0.401460  0.923500  0.669080  1.0  -0.167
  C  C555  1  0.404800  0.926510  0.713500  1.0  -0.1552
  C  C556  1  0.368700  0.552600  0.858200  1.0  0.0081
  C  C557  1  0.334300  0.512600  0.844270  1.0  -0.1073
  C  C558  1  0.296500  0.594400  0.836980  1.0  0.1468
  C  C559  1  0.238600  0.514200  0.810500  1.0  0.0952
  C  C560  1  0.223000  0.519900  0.766300  1.0  0.3333
  C  C561  1  0.988130  0.451840  0.327800  1.0  0.7175
  C  C562  1  0.986100  0.401700  0.298590  1.0  -0.2147
  C  C563  1  0.914680  0.271630  0.331120  1.0  0.722
  C  C564  1  0.944500  0.307750  0.298970  1.0  -0.2178
  C  C565  1  0.885560  0.389220  0.288700  1.0  -0.0904
  C  C566  1  0.881260  0.386060  0.239750  1.0  0.0614
  C  C567  1  0.854000  0.342100  0.219750  1.0  -0.1503
  C  C568  1  0.850900  0.338600  0.175290  1.0  -0.1546
  C  C569  1  0.873900  0.379230  0.149200  1.0  0.0361
  C  C570  1  0.901460  0.423500  0.169080  1.0  -0.167
  C  C571  1  0.904800  0.426510  0.213500  1.0  -0.1552
  C  C572  1  0.868700  0.052600  0.358200  1.0  0.0081
  C  C573  1  0.834300  0.012600  0.344270  1.0  -0.1073
  C  C574  1  0.796500  0.094400  0.336980  1.0  0.1468
  C  C575  1  0.738600  0.014200  0.310500  1.0  0.0952
  C  C576  1  0.723000  0.019900  0.266300  1.0  0.3333
  C  C577  1  0.201840  0.238130  0.922200  1.0  0.7178
  C  C578  1  0.151700  0.236100  0.951410  1.0  -0.2136
  C  C579  1  0.021630  0.164680  0.918880  1.0  0.7215
  C  C580  1  0.057750  0.194500  0.951030  1.0  -0.2247
  C  C581  1  0.139220  0.135560  0.961300  1.0  -0.0912
  C  C582  1  0.136060  0.131260  0.010250  1.0  0.0608
  C  C583  1  0.092100  0.104000  0.030250  1.0  -0.1473
  C  C584  1  0.088600  0.100900  0.074710  1.0  -0.1505
  C  C585  1  0.129230  0.123900  0.100800  1.0  0.0367
  C  C586  1  0.173500  0.151460  0.080920  1.0  -0.167
  C  C587  1  0.176510  0.154800  0.036500  1.0  -0.156
  C  C588  1  0.802600  0.118700  0.891800  1.0  0.0078
  C  C589  1  0.762600  0.084300  0.905730  1.0  -0.1066
  C  C590  1  0.844400  0.046500  0.913020  1.0  0.1479
  C  C591  1  0.764200  0.988600  0.939500  1.0  0.0965
  C  C592  1  0.769900  0.973000  0.983700  1.0  0.334
  C  C593  1  0.701840  0.738130  0.422200  1.0  0.7178
  C  C594  1  0.651700  0.736100  0.451410  1.0  -0.2136
  C  C595  1  0.521630  0.664680  0.418880  1.0  0.7215
  C  C596  1  0.557750  0.694500  0.451030  1.0  -0.2247
  C  C597  1  0.639220  0.635560  0.461300  1.0  -0.0912
  C  C598  1  0.636060  0.631260  0.510250  1.0  0.0608
  C  C599  1  0.592100  0.604000  0.530250  1.0  -0.1473
  C  C600  1  0.588600  0.600900  0.574710  1.0  -0.1505
  C  C601  1  0.629230  0.623900  0.600800  1.0  0.0367
  C  C602  1  0.673500  0.651460  0.580920  1.0  -0.167
  C  C603  1  0.676510  0.654800  0.536500  1.0  -0.156
  C  C604  1  0.302600  0.618700  0.391800  1.0  0.0078
  C  C605  1  0.262600  0.584300  0.405730  1.0  -0.1066
  C  C606  1  0.344400  0.546500  0.413020  1.0  0.1479
  C  C607  1  0.264200  0.488600  0.439500  1.0  0.0965
  C  C608  1  0.269900  0.473000  0.483700  1.0  0.334
  C  C609  1  0.298160  0.761870  0.422200  1.0  0.7186
  C  C610  1  0.348300  0.763900  0.451410  1.0  -0.2146
  C  C611  1  0.478370  0.835320  0.418880  1.0  0.7209
  C  C612  1  0.442250  0.805500  0.451030  1.0  -0.2241
  C  C613  1  0.360780  0.864440  0.461300  1.0  -0.0908
  C  C614  1  0.363940  0.868740  0.510250  1.0  0.0614
  C  C615  1  0.407900  0.896000  0.530250  1.0  -0.1483
  C  C616  1  0.411400  0.899100  0.574710  1.0  -0.1484
  C  C617  1  0.370770  0.876100  0.600800  1.0  0.037
  C  C618  1  0.326500  0.848540  0.580920  1.0  -0.1647
  C  C619  1  0.323490  0.845200  0.536500  1.0  -0.1542
  C  C620  1  0.697400  0.881300  0.391800  1.0  0.0075
  C  C621  1  0.737400  0.915700  0.405730  1.0  -0.1051
  C  C622  1  0.655600  0.953500  0.413020  1.0  0.1472
  C  C623  1  0.735800  0.011400  0.439500  1.0  0.0968
  C  C624  1  0.730100  0.027000  0.483700  1.0  0.3326
  C  C625  1  0.798160  0.261870  0.922200  1.0  0.7186
  C  C626  1  0.848300  0.263900  0.951410  1.0  -0.2146
  C  C627  1  0.978370  0.335320  0.918880  1.0  0.7209
  C  C628  1  0.942250  0.305500  0.951030  1.0  -0.2241
  C  C629  1  0.860780  0.364440  0.961300  1.0  -0.0908
  C  C630  1  0.863940  0.368740  0.010250  1.0  0.0614
  C  C631  1  0.907900  0.396000  0.030250  1.0  -0.1483
  C  C632  1  0.911400  0.399100  0.074710  1.0  -0.1484
  C  C633  1  0.870770  0.376100  0.100800  1.0  0.037
  C  C634  1  0.826500  0.348540  0.080920  1.0  -0.1647
  C  C635  1  0.823490  0.345200  0.036500  1.0  -0.1542
  C  C636  1  0.197400  0.381300  0.891800  1.0  0.0075
  C  C637  1  0.237400  0.415700  0.905730  1.0  -0.1051
  C  C638  1  0.155600  0.453500  0.913020  1.0  0.1472
  C  C639  1  0.235800  0.511400  0.939500  1.0  0.0968
  C  C640  1  0.230100  0.527000  0.983700  1.0  0.3326
  C  C641  1  0.488130  0.048160  0.672200  1.0  0.7195
  C  C642  1  0.486100  0.098300  0.701410  1.0  -0.2143
  C  C643  1  0.414680  0.228370  0.668880  1.0  0.7238
  C  C644  1  0.444500  0.192250  0.701030  1.0  -0.2201
  C  C645  1  0.385560  0.110780  0.711300  1.0  -0.0895
  C  C646  1  0.381260  0.113940  0.760250  1.0  0.0611
  C  C647  1  0.354000  0.157900  0.780250  1.0  -0.1516
  C  C648  1  0.350900  0.161400  0.824710  1.0  -0.1545
  C  C649  1  0.373900  0.120770  0.850800  1.0  0.0365
  C  C650  1  0.401460  0.076500  0.830920  1.0  -0.167
  C  C651  1  0.404800  0.073490  0.786500  1.0  -0.1551
  C  C652  1  0.368700  0.447400  0.641800  1.0  0.0076
  C  C653  1  0.334300  0.487400  0.655730  1.0  -0.1052
  C  C654  1  0.296500  0.405600  0.663020  1.0  0.1458
  C  C655  1  0.238600  0.485800  0.689500  1.0  0.0959
  C  C656  1  0.223000  0.480100  0.733700  1.0  0.334
  C  C657  1  0.988130  0.548160  0.172200  1.0  0.7195
  C  C658  1  0.986100  0.598300  0.201410  1.0  -0.2143
  C  C659  1  0.914680  0.728370  0.168880  1.0  0.7238
  C  C660  1  0.944500  0.692250  0.201030  1.0  -0.2201
  C  C661  1  0.885560  0.610780  0.211300  1.0  -0.0895
  C  C662  1  0.881260  0.613940  0.260250  1.0  0.0611
  C  C663  1  0.854000  0.657900  0.280250  1.0  -0.1516
  C  C664  1  0.850900  0.661400  0.324710  1.0  -0.1545
  C  C665  1  0.873900  0.620770  0.350800  1.0  0.0365
  C  C666  1  0.901460  0.576500  0.330920  1.0  -0.167
  C  C667  1  0.904800  0.573490  0.286500  1.0  -0.1551
  C  C668  1  0.868700  0.947400  0.141800  1.0  0.0076
  C  C669  1  0.834300  0.987400  0.155730  1.0  -0.1052
  C  C670  1  0.796500  0.905600  0.163020  1.0  0.1458
  C  C671  1  0.738600  0.985800  0.189500  1.0  0.0959
  C  C672  1  0.723000  0.980100  0.233700  1.0  0.334
  C  C673  1  0.011870  0.951840  0.172200  1.0  0.7206
  C  C674  1  0.013900  0.901700  0.201410  1.0  -0.2155
  C  C675  1  0.085320  0.771630  0.168880  1.0  0.7221
  C  C676  1  0.055500  0.807750  0.201030  1.0  -0.2194
  C  C677  1  0.114440  0.889220  0.211300  1.0  -0.0912
  C  C678  1  0.118740  0.886060  0.260250  1.0  0.0614
  C  C679  1  0.146000  0.842100  0.280250  1.0  -0.152
  C  C680  1  0.149100  0.838600  0.324710  1.0  -0.1545
  C  C681  1  0.126100  0.879230  0.350800  1.0  0.0365
  C  C682  1  0.098540  0.923500  0.330920  1.0  -0.166
  C  C683  1  0.095200  0.926510  0.286500  1.0  -0.1541
  C  C684  1  0.131300  0.552600  0.141800  1.0  0.0074
  C  C685  1  0.165700  0.512600  0.155730  1.0  -0.1073
  C  C686  1  0.203500  0.594400  0.163020  1.0  0.1451
  C  C687  1  0.261400  0.514200  0.189500  1.0  0.0929
  C  C688  1  0.277000  0.519900  0.233700  1.0  0.3306
  C  C689  1  0.511870  0.451840  0.672200  1.0  0.7206
  C  C690  1  0.513900  0.401700  0.701410  1.0  -0.2156
  C  C691  1  0.585320  0.271630  0.668880  1.0  0.7221
  C  C692  1  0.555500  0.307750  0.701030  1.0  -0.2194
  C  C693  1  0.614440  0.389220  0.711300  1.0  -0.0912
  C  C694  1  0.618740  0.386060  0.760250  1.0  0.0614
  C  C695  1  0.646000  0.342100  0.780250  1.0  -0.152
  C  C696  1  0.649100  0.338600  0.824710  1.0  -0.1545
  C  C697  1  0.626100  0.379230  0.850800  1.0  0.0365
  C  C698  1  0.598540  0.423500  0.830920  1.0  -0.166
  C  C699  1  0.595200  0.426510  0.786500  1.0  -0.1541
  C  C700  1  0.631300  0.052600  0.641800  1.0  0.0074
  C  C701  1  0.665700  0.012600  0.655730  1.0  -0.1073
  C  C702  1  0.703500  0.094400  0.663020  1.0  0.1451
  C  C703  1  0.761400  0.014200  0.689500  1.0  0.0929
  C  C704  1  0.777000  0.019900  0.733700  1.0  0.3306
  C  C705  1  0.701840  0.761870  0.922200  1.0  0.7197
  C  C706  1  0.651700  0.763900  0.951410  1.0  -0.2143
  C  C707  1  0.521630  0.835320  0.918880  1.0  0.7225
  C  C708  1  0.557750  0.805500  0.951030  1.0  -0.225
  C  C709  1  0.639220  0.864440  0.961300  1.0  -0.0898
  C  C710  1  0.636060  0.868740  0.010250  1.0  0.0612
  C  C711  1  0.592100  0.896000  0.030250  1.0  -0.1485
  C  C712  1  0.588600  0.899100  0.074710  1.0  -0.1507
  C  C713  1  0.629230  0.876100  0.100800  1.0  0.0371
  C  C714  1  0.673500  0.848540  0.080920  1.0  -0.1668
  C  C715  1  0.676510  0.845200  0.036500  1.0  -0.1561
  C  C716  1  0.302600  0.881300  0.891800  1.0  0.0078
  C  C717  1  0.262600  0.915700  0.905730  1.0  -0.1064
  C  C718  1  0.344400  0.953500  0.913020  1.0  0.1475
  C  C719  1  0.264200  0.011400  0.939500  1.0  0.0972
  C  C720  1  0.269900  0.027000  0.983700  1.0  0.3333
  C  C721  1  0.201840  0.261870  0.422200  1.0  0.7197
  C  C722  1  0.151700  0.263900  0.451410  1.0  -0.2143
  C  C723  1  0.021630  0.335320  0.418880  1.0  0.7225
  C  C724  1  0.057750  0.305500  0.451030  1.0  -0.225
  C  C725  1  0.139220  0.364440  0.461300  1.0  -0.0898
  C  C726  1  0.136060  0.368740  0.510250  1.0  0.0612
  C  C727  1  0.092100  0.396000  0.530250  1.0  -0.1485
  C  C728  1  0.088600  0.399100  0.574710  1.0  -0.1507
  C  C729  1  0.129230  0.376100  0.600800  1.0  0.0371
  C  C730  1  0.173500  0.348540  0.580920  1.0  -0.1668
  C  C731  1  0.176510  0.345200  0.536500  1.0  -0.1561
  C  C732  1  0.802600  0.381300  0.391800  1.0  0.0078
  C  C733  1  0.762600  0.415700  0.405730  1.0  -0.1064
  C  C734  1  0.844400  0.453500  0.413020  1.0  0.1475
  C  C735  1  0.764200  0.511400  0.439500  1.0  0.0972
  C  C736  1  0.769900  0.527000  0.483700  1.0  0.3333
  C  C737  1  0.798160  0.238130  0.422200  1.0  0.7193
  C  C738  1  0.848300  0.236100  0.451410  1.0  -0.2143
  C  C739  1  0.978370  0.164680  0.418880  1.0  0.7202
  C  C740  1  0.942250  0.194500  0.451030  1.0  -0.2241
  C  C741  1  0.860780  0.135560  0.461300  1.0  -0.091
  C  C742  1  0.863940  0.131260  0.510250  1.0  0.0609
  C  C743  1  0.907900  0.104000  0.530250  1.0  -0.1467
  C  C744  1  0.911400  0.100900  0.574710  1.0  -0.1487
  C  C745  1  0.870770  0.123900  0.600800  1.0  0.0371
  C  C746  1  0.826500  0.151460  0.580920  1.0  -0.1651
  C  C747  1  0.823490  0.154800  0.536500  1.0  -0.1546
  C  C748  1  0.197400  0.118700  0.391800  1.0  0.0067
  C  C749  1  0.237400  0.084300  0.405730  1.0  -0.1047
  C  C750  1  0.155600  0.046500  0.413020  1.0  0.1475
  C  C751  1  0.235800  0.988600  0.439500  1.0  0.096
  C  C752  1  0.230100  0.973000  0.483700  1.0  0.333
  C  C753  1  0.298160  0.738130  0.922200  1.0  0.7193
  C  C754  1  0.348300  0.736100  0.951410  1.0  -0.2143
  C  C755  1  0.478370  0.664680  0.918880  1.0  0.7202
  C  C756  1  0.442250  0.694500  0.951030  1.0  -0.2241
  C  C757  1  0.360780  0.635560  0.961300  1.0  -0.091
  C  C758  1  0.363940  0.631260  0.010250  1.0  0.0609
  C  C759  1  0.407900  0.604000  0.030250  1.0  -0.1467
  C  C760  1  0.411400  0.600900  0.074710  1.0  -0.1487
  C  C761  1  0.370770  0.623900  0.100800  1.0  0.0371
  C  C762  1  0.326500  0.651460  0.080920  1.0  -0.1651
  C  C763  1  0.323490  0.654800  0.036500  1.0  -0.1546
  C  C764  1  0.697400  0.618700  0.891800  1.0  0.0067
  C  C765  1  0.737400  0.584300  0.905730  1.0  -0.1047
  C  C766  1  0.655600  0.546500  0.913020  1.0  0.1475
  C  C767  1  0.735800  0.488600  0.939500  1.0  0.096
  C  C768  1  0.730100  0.473000  0.983700  1.0  0.333
  C  C769  1  0.988130  0.951840  0.672200  1.0  0.718
  C  C770  1  0.986100  0.901700  0.701410  1.0  -0.2134
  C  C771  1  0.914680  0.771630  0.668880  1.0  0.7216
  C  C772  1  0.944500  0.807750  0.701030  1.0  -0.219
  C  C773  1  0.885560  0.889220  0.711300  1.0  -0.0902
  C  C774  1  0.881260  0.886060  0.760250  1.0  0.0608
  C  C775  1  0.854000  0.842100  0.780250  1.0  -0.1507
  C  C776  1  0.850900  0.838600  0.824710  1.0  -0.1554
  C  C777  1  0.873900  0.879230  0.850800  1.0  0.0366
  C  C778  1  0.901460  0.923500  0.830920  1.0  -0.1671
  C  C779  1  0.904800  0.926510  0.786500  1.0  -0.155
  C  C780  1  0.868700  0.552600  0.641800  1.0  0.0075
  C  C781  1  0.834300  0.512600  0.655730  1.0  -0.1073
  C  C782  1  0.796500  0.594400  0.663020  1.0  0.1452
  C  C783  1  0.738600  0.514200  0.689500  1.0  0.0958
  C  C784  1  0.723000  0.519900  0.733700  1.0  0.3334
  C  C785  1  0.488130  0.451840  0.172200  1.0  0.718
  C  C786  1  0.486100  0.401700  0.201410  1.0  -0.2134
  C  C787  1  0.414680  0.271630  0.168880  1.0  0.7216
  C  C788  1  0.444500  0.307750  0.201030  1.0  -0.219
  C  C789  1  0.385560  0.389220  0.211300  1.0  -0.0902
  C  C790  1  0.381260  0.386060  0.260250  1.0  0.0608
  C  C791  1  0.354000  0.342100  0.280250  1.0  -0.1507
  C  C792  1  0.350900  0.338600  0.324710  1.0  -0.1554
  C  C793  1  0.373900  0.379230  0.350800  1.0  0.0366
  C  C794  1  0.401460  0.423500  0.330920  1.0  -0.1671
  C  C795  1  0.404800  0.426510  0.286500  1.0  -0.155
  C  C796  1  0.368700  0.052600  0.141800  1.0  0.0075
  C  C797  1  0.334300  0.012600  0.155730  1.0  -0.1073
  C  C798  1  0.296500  0.094400  0.163020  1.0  0.1452
  C  C799  1  0.238600  0.014200  0.189500  1.0  0.0958
  C  C800  1  0.223000  0.019900  0.233700  1.0  0.3334
  C  C801  1  0.511870  0.048160  0.172200  1.0  0.7187
  C  C802  1  0.513900  0.098300  0.201410  1.0  -0.2154
  C  C803  1  0.585320  0.228370  0.168880  1.0  0.7229
  C  C804  1  0.555500  0.192250  0.201030  1.0  -0.2208
  C  C805  1  0.614440  0.110780  0.211300  1.0  -0.0912
  C  C806  1  0.618740  0.113940  0.260250  1.0  0.0617
  C  C807  1  0.646000  0.157900  0.280250  1.0  -0.1526
  C  C808  1  0.649100  0.161400  0.324710  1.0  -0.1531
  C  C809  1  0.626100  0.120770  0.350800  1.0  0.0366
  C  C810  1  0.598540  0.076500  0.330920  1.0  -0.1659
  C  C811  1  0.595200  0.073490  0.286500  1.0  -0.1545
  C  C812  1  0.631300  0.447400  0.141800  1.0  0.0069
  C  C813  1  0.665700  0.487400  0.155730  1.0  -0.1049
  C  C814  1  0.703500  0.405600  0.163020  1.0  0.1458
  C  C815  1  0.761400  0.485800  0.189500  1.0  0.0932
  C  C816  1  0.777000  0.480100  0.233700  1.0  0.3322
  C  C817  1  0.011870  0.548160  0.672200  1.0  0.7187
  C  C818  1  0.013900  0.598300  0.701410  1.0  -0.2154
  C  C819  1  0.085320  0.728370  0.668880  1.0  0.7229
  C  C820  1  0.055500  0.692250  0.701030  1.0  -0.2208
  C  C821  1  0.114440  0.610780  0.711300  1.0  -0.0912
  C  C822  1  0.118740  0.613940  0.760250  1.0  0.0617
  C  C823  1  0.146000  0.657900  0.780250  1.0  -0.1526
  C  C824  1  0.149100  0.661400  0.824710  1.0  -0.1531
  C  C825  1  0.126100  0.620770  0.850800  1.0  0.0366
  C  C826  1  0.098540  0.576500  0.830920  1.0  -0.1659
  C  C827  1  0.095200  0.573490  0.786500  1.0  -0.1545
  C  C828  1  0.131300  0.947400  0.641800  1.0  0.0069
  C  C829  1  0.165700  0.987400  0.655730  1.0  -0.1049
  C  C830  1  0.203500  0.905600  0.663020  1.0  0.1458
  C  C831  1  0.261400  0.985800  0.689500  1.0  0.0932
  C  C832  1  0.277000  0.980100  0.733700  1.0  0.3322
  C  C833  1  0.798160  0.761870  0.077800  1.0  0.7169
  C  C834  1  0.848300  0.763900  0.048590  1.0  -0.2157
  C  C835  1  0.978370  0.835320  0.081120  1.0  0.7214
  C  C836  1  0.942250  0.805500  0.048970  1.0  -0.2209
  C  C837  1  0.860780  0.864440  0.038700  1.0  -0.0906
  C  C838  1  0.863940  0.868740  0.989750  1.0  0.0624
  C  C839  1  0.907900  0.896000  0.969750  1.0  -0.1477
  C  C840  1  0.911400  0.899100  0.925290  1.0  -0.1485
  C  C841  1  0.870770  0.876100  0.899200  1.0  0.0366
  C  C842  1  0.826500  0.848540  0.919080  1.0  -0.1644
  C  C843  1  0.823490  0.845200  0.963500  1.0  -0.154
  C  C844  1  0.197400  0.881300  0.108200  1.0  0.0081
  C  C845  1  0.237400  0.915700  0.094270  1.0  -0.1055
  C  C846  1  0.155600  0.953500  0.086980  1.0  0.1488
  C  C847  1  0.235800  0.011400  0.060500  1.0  0.0959
  C  C848  1  0.230100  0.027000  0.016300  1.0  0.332
  C  C849  1  0.298160  0.261870  0.577800  1.0  0.7169
  C  C850  1  0.348300  0.263900  0.548590  1.0  -0.2157
  C  C851  1  0.478370  0.335320  0.581120  1.0  0.7214
  C  C852  1  0.442250  0.305500  0.548970  1.0  -0.2209
  C  C853  1  0.360780  0.364440  0.538700  1.0  -0.0906
  C  C854  1  0.363940  0.368740  0.489750  1.0  0.0624
  C  C855  1  0.407900  0.396000  0.469750  1.0  -0.1477
  C  C856  1  0.411400  0.399100  0.425290  1.0  -0.1485
  C  C857  1  0.370770  0.376100  0.399200  1.0  0.0366
  C  C858  1  0.326500  0.348540  0.419080  1.0  -0.1644
  C  C859  1  0.323490  0.345200  0.463500  1.0  -0.154
  C  C860  1  0.697400  0.381300  0.608200  1.0  0.0081
  C  C861  1  0.737400  0.415700  0.594270  1.0  -0.1055
  C  C862  1  0.655600  0.453500  0.586980  1.0  0.1488
  C  C863  1  0.735800  0.511400  0.560500  1.0  0.0959
  C  C864  1  0.730100  0.527000  0.516300  1.0  0.332
  C  C865  1  0.701840  0.238130  0.577800  1.0  0.7173
  C  C866  1  0.651700  0.236100  0.548590  1.0  -0.215
  C  C867  1  0.521630  0.164680  0.581120  1.0  0.7219
  C  C868  1  0.557750  0.194500  0.548970  1.0  -0.2218
  C  C869  1  0.639220  0.135560  0.538700  1.0  -0.091
  C  C870  1  0.636060  0.131260  0.489750  1.0  0.0611
  C  C871  1  0.592100  0.104000  0.469750  1.0  -0.1471
  C  C872  1  0.588600  0.100900  0.425290  1.0  -0.1498
  C  C873  1  0.629230  0.123900  0.399200  1.0  0.0361
  C  C874  1  0.673500  0.151460  0.419080  1.0  -0.1661
  C  C875  1  0.676510  0.154800  0.463500  1.0  -0.1559
  C  C876  1  0.302600  0.118700  0.608200  1.0  0.0078
  C  C877  1  0.262600  0.084300  0.594270  1.0  -0.1069
  C  C878  1  0.344400  0.046500  0.586980  1.0  0.1485
  C  C879  1  0.264200  0.988600  0.560500  1.0  0.0964
  C  C880  1  0.269900  0.973000  0.516300  1.0  0.3338
  C  C881  1  0.201840  0.738130  0.077800  1.0  0.7173
  C  C882  1  0.151700  0.736100  0.048590  1.0  -0.215
  C  C883  1  0.021630  0.664680  0.081120  1.0  0.7219
  C  C884  1  0.057750  0.694500  0.048970  1.0  -0.2218
  C  C885  1  0.139220  0.635560  0.038700  1.0  -0.091
  C  C886  1  0.136060  0.631260  0.989750  1.0  0.0611
  C  C887  1  0.092100  0.604000  0.969750  1.0  -0.1471
  C  C888  1  0.088600  0.600900  0.925290  1.0  -0.1498
  C  C889  1  0.129230  0.623900  0.899200  1.0  0.0361
  C  C890  1  0.173500  0.651460  0.919080  1.0  -0.1661
  C  C891  1  0.176510  0.654800  0.963500  1.0  -0.1559
  C  C892  1  0.802600  0.618700  0.108200  1.0  0.0078
  C  C893  1  0.762600  0.584300  0.094270  1.0  -0.1069
  C  C894  1  0.844400  0.546500  0.086980  1.0  0.1485
  C  C895  1  0.764200  0.488600  0.060500  1.0  0.0964
  C  C896  1  0.769900  0.473000  0.016300  1.0  0.3338
  C  C897  1  0.511870  0.951840  0.327800  1.0  0.7196
  C  C898  1  0.513900  0.901700  0.298590  1.0  -0.2162
  C  C899  1  0.585320  0.771630  0.331120  1.0  0.7224
  C  C900  1  0.555500  0.807750  0.298970  1.0  -0.2175
  C  C901  1  0.614440  0.889220  0.288700  1.0  -0.0915
  C  C902  1  0.618740  0.886060  0.239750  1.0  0.0622
  C  C903  1  0.646000  0.842100  0.219750  1.0  -0.1514
  C  C904  1  0.649100  0.838600  0.175290  1.0  -0.1541
  C  C905  1  0.626100  0.879230  0.149200  1.0  0.0359
  C  C906  1  0.598540  0.923500  0.169080  1.0  -0.1656
  C  C907  1  0.595200  0.926510  0.213500  1.0  -0.1541
  C  C908  1  0.631300  0.552600  0.358200  1.0  0.008
  C  C909  1  0.665700  0.512600  0.344270  1.0  -0.1073
  C  C910  1  0.703500  0.594400  0.336980  1.0  0.147
  C  C911  1  0.761400  0.514200  0.310500  1.0  0.092
  C  C912  1  0.777000  0.519900  0.266300  1.0  0.3303
  C  C913  1  0.011870  0.451840  0.827800  1.0  0.7196
  C  C914  1  0.013900  0.401700  0.798590  1.0  -0.2162
  C  C915  1  0.085320  0.271630  0.831120  1.0  0.7224
  C  C916  1  0.055500  0.307750  0.798970  1.0  -0.2175
  C  C917  1  0.114440  0.389220  0.788700  1.0  -0.0915
  C  C918  1  0.118740  0.386060  0.739750  1.0  0.0622
  C  C919  1  0.146000  0.342100  0.719750  1.0  -0.1514
  C  C920  1  0.149100  0.338600  0.675290  1.0  -0.1541
  C  C921  1  0.126100  0.379230  0.649200  1.0  0.0359
  C  C922  1  0.098540  0.423500  0.669080  1.0  -0.1656
  C  C923  1  0.095200  0.426510  0.713500  1.0  -0.1541
  C  C924  1  0.131300  0.052600  0.858200  1.0  0.008
  C  C925  1  0.165700  0.012600  0.844270  1.0  -0.1073
  C  C926  1  0.203500  0.094400  0.836980  1.0  0.147
  C  C927  1  0.261400  0.014200  0.810500  1.0  0.092
  C  C928  1  0.277000  0.019900  0.766300  1.0  0.3303
  C  C929  1  0.988130  0.048160  0.827800  1.0  0.7184
  C  C930  1  0.986100  0.098300  0.798590  1.0  -0.2158
  C  C931  1  0.914680  0.228370  0.831120  1.0  0.7234
  C  C932  1  0.944500  0.192250  0.798970  1.0  -0.2172
  C  C933  1  0.885560  0.110780  0.788700  1.0  -0.0891
  C  C934  1  0.881260  0.113940  0.739750  1.0  0.062
  C  C935  1  0.854000  0.157900  0.719750  1.0  -0.1515
  C  C936  1  0.850900  0.161400  0.675290  1.0  -0.1542
  C  C937  1  0.873900  0.120770  0.649200  1.0  0.0362
  C  C938  1  0.901460  0.076500  0.669080  1.0  -0.1667
  C  C939  1  0.904800  0.073490  0.713500  1.0  -0.1548
  C  C940  1  0.868700  0.447400  0.858200  1.0  0.0082
  C  C941  1  0.834300  0.487400  0.844270  1.0  -0.1055
  C  C942  1  0.796500  0.405600  0.836980  1.0  0.1463
  C  C943  1  0.738600  0.485800  0.810500  1.0  0.0949
  C  C944  1  0.723000  0.480100  0.766300  1.0  0.3338
  C  C945  1  0.488130  0.548160  0.327800  1.0  0.7184
  C  C946  1  0.486100  0.598300  0.298590  1.0  -0.2158
  C  C947  1  0.414680  0.728370  0.331120  1.0  0.7234
  C  C948  1  0.444500  0.692250  0.298970  1.0  -0.2172
  C  C949  1  0.385560  0.610780  0.288700  1.0  -0.0891
  C  C950  1  0.381260  0.613940  0.239750  1.0  0.062
  C  C951  1  0.354000  0.657900  0.219750  1.0  -0.1515
  C  C952  1  0.350900  0.661400  0.175290  1.0  -0.1542
  C  C953  1  0.373900  0.620770  0.149200  1.0  0.0362
  C  C954  1  0.401460  0.576500  0.169080  1.0  -0.1667
  C  C955  1  0.404800  0.573490  0.213500  1.0  -0.1548
  C  C956  1  0.368700  0.947400  0.358200  1.0  0.0082
  C  C957  1  0.334300  0.987400  0.344270  1.0  -0.1055
  C  C958  1  0.296500  0.905600  0.336980  1.0  0.1463
  C  C959  1  0.238600  0.985800  0.310500  1.0  0.0949
  C  C960  1  0.223000  0.980100  0.266300  1.0  0.3338
  C  C961  1  0.750000  0.015500  0.000000  1.0  0.2863
  C  C962  1  0.250000  0.515500  0.500000  1.0  0.2863
  C  C963  1  0.750000  0.984500  0.500000  1.0  0.2808
  C  C964  1  0.250000  0.484500  0.000000  1.0  0.2808
  C  C965  1  0.234500  0.500000  0.250000  1.0  0.2784
  C  C966  1  0.734500  0.000000  0.750000  1.0  0.2784
  C  C967  1  0.265500  0.500000  0.750000  1.0  0.2805
  C  C968  1  0.765500  0.000000  0.250000  1.0  0.2805
  C  C969  1  0.250000  0.984500  0.000000  1.0  0.2808
  C  C970  1  0.750000  0.484500  0.500000  1.0  0.2808
  C  C971  1  0.250000  0.015500  0.500000  1.0  0.2863
  C  C972  1  0.750000  0.515500  0.000000  1.0  0.2863
  C  C973  1  0.765500  0.500000  0.750000  1.0  0.2805
  C  C974  1  0.265500  0.000000  0.250000  1.0  0.2805
  C  C975  1  0.734500  0.500000  0.250000  1.0  0.2785
  C  C976  1  0.234500  0.000000  0.750000  1.0  0.2785
  N  N977  1  0.383350  0.187050  0.058410  1.0  -0.0994
  N  N978  1  0.646270  0.095060  0.103680  1.0  -0.398
  N  N979  1  0.710310  0.038700  0.079950  1.0  0.0029
  N  N980  1  0.883350  0.687050  0.558410  1.0  -0.0994
  N  N981  1  0.146270  0.595060  0.603680  1.0  -0.398
  N  N982  1  0.210310  0.538700  0.579950  1.0  0.0029
  N  N983  1  0.116650  0.812950  0.558410  1.0  -0.0993
  N  N984  1  0.853730  0.904940  0.603680  1.0  -0.3983
  N  N985  1  0.789690  0.961300  0.579950  1.0  0.0029
  N  N986  1  0.616650  0.312950  0.058410  1.0  -0.0993
  N  N987  1  0.353730  0.404940  0.103680  1.0  -0.3984
  N  N988  1  0.289690  0.461300  0.079950  1.0  0.0029
  N  N989  1  0.062950  0.133350  0.308410  1.0  -0.0994
  N  N990  1  0.154940  0.396270  0.353680  1.0  -0.3979
  N  N991  1  0.211300  0.460310  0.329950  1.0  0.0027
  N  N992  1  0.562950  0.633350  0.808410  1.0  -0.0994
  N  N993  1  0.654940  0.896270  0.853680  1.0  -0.3979
  N  N994  1  0.711300  0.960310  0.829950  1.0  0.0027
  N  N995  1  0.437050  0.866650  0.808410  1.0  -0.0996
  N  N996  1  0.345060  0.603730  0.853680  1.0  -0.3979
  N  N997  1  0.288700  0.539690  0.829950  1.0  0.0016
  N  N998  1  0.937050  0.366650  0.308410  1.0  -0.0996
  N  N999  1  0.845060  0.103730  0.353680  1.0  -0.3979
  N  N1000  1  0.788700  0.039690  0.329950  1.0  0.0016
  N  N1001  1  0.116650  0.187050  0.941590  1.0  -0.1002
  N  N1002  1  0.853730  0.095060  0.896320  1.0  -0.3988
  N  N1003  1  0.789690  0.038700  0.920050  1.0  0.0023
  N  N1004  1  0.616650  0.687050  0.441590  1.0  -0.1002
  N  N1005  1  0.353730  0.595060  0.396320  1.0  -0.3988
  N  N1006  1  0.289690  0.538700  0.420050  1.0  0.0023
  N  N1007  1  0.383350  0.812950  0.441590  1.0  -0.1006
  N  N1008  1  0.646270  0.904940  0.396320  1.0  -0.3989
  N  N1009  1  0.710310  0.961300  0.420050  1.0  0.0014
  N  N1010  1  0.883350  0.312950  0.941590  1.0  -0.1006
  N  N1011  1  0.146270  0.404940  0.896320  1.0  -0.3989
  N  N1012  1  0.210310  0.461300  0.920050  1.0  0.0014
  N  N1013  1  0.437050  0.133350  0.691590  1.0  -0.1008
  N  N1014  1  0.345060  0.396270  0.646320  1.0  -0.3982
  N  N1015  1  0.288700  0.460310  0.670050  1.0  0.0012
  N  N1016  1  0.937050  0.633350  0.191590  1.0  -0.1007
  N  N1017  1  0.845060  0.896270  0.146320  1.0  -0.3982
  N  N1018  1  0.788700  0.960310  0.170050  1.0  0.0012
  N  N1019  1  0.062950  0.866650  0.191590  1.0  -0.1004
  N  N1020  1  0.154940  0.603730  0.146320  1.0  -0.398
  N  N1021  1  0.211300  0.539690  0.170050  1.0  0.0023
  N  N1022  1  0.562950  0.366650  0.691590  1.0  -0.1004
  N  N1023  1  0.654940  0.103730  0.646320  1.0  -0.398
  N  N1024  1  0.711300  0.039690  0.670050  1.0  0.0023
  N  N1025  1  0.616650  0.812950  0.941590  1.0  -0.1003
  N  N1026  1  0.353730  0.904940  0.896320  1.0  -0.3985
  N  N1027  1  0.289690  0.961300  0.920050  1.0  0.0025
  N  N1028  1  0.116650  0.312950  0.441590  1.0  -0.1003
  N  N1029  1  0.853730  0.404940  0.396320  1.0  -0.3985
  N  N1030  1  0.789690  0.461300  0.420050  1.0  0.0025
  N  N1031  1  0.883350  0.187050  0.441590  1.0  -0.1005
  N  N1032  1  0.146270  0.095060  0.396320  1.0  -0.3991
  N  N1033  1  0.210310  0.038700  0.420050  1.0  0.0016
  N  N1034  1  0.383350  0.687050  0.941590  1.0  -0.1005
  N  N1035  1  0.646270  0.595060  0.896320  1.0  -0.3991
  N  N1036  1  0.710310  0.538700  0.920050  1.0  0.0016
  N  N1037  1  0.937050  0.866650  0.691590  1.0  -0.1008
  N  N1038  1  0.845060  0.603730  0.646320  1.0  -0.3986
  N  N1039  1  0.788700  0.539690  0.670050  1.0  0.0014
  N  N1040  1  0.437050  0.366650  0.191590  1.0  -0.1008
  N  N1041  1  0.345060  0.103730  0.146320  1.0  -0.3986
  N  N1042  1  0.288700  0.039690  0.170050  1.0  0.0014
  N  N1043  1  0.562950  0.133350  0.191590  1.0  -0.1004
  N  N1044  1  0.654940  0.396270  0.146320  1.0  -0.3979
  N  N1045  1  0.711300  0.460310  0.170050  1.0  0.0021
  N  N1046  1  0.062950  0.633350  0.691590  1.0  -0.1004
  N  N1047  1  0.154940  0.896270  0.646320  1.0  -0.3979
  N  N1048  1  0.211300  0.960310  0.670050  1.0  0.0021
  N  N1049  1  0.883350  0.812950  0.058410  1.0  -0.0994
  N  N1050  1  0.146270  0.904940  0.103680  1.0  -0.3981
  N  N1051  1  0.210310  0.961300  0.079950  1.0  0.0027
  N  N1052  1  0.383350  0.312950  0.558410  1.0  -0.0994
  N  N1053  1  0.646270  0.404940  0.603680  1.0  -0.398
  N  N1054  1  0.710310  0.461300  0.579950  1.0  0.0027
  N  N1055  1  0.616650  0.187050  0.558410  1.0  -0.0992
  N  N1056  1  0.353730  0.095060  0.603680  1.0  -0.3981
  N  N1057  1  0.289690  0.038700  0.579950  1.0  0.0027
  N  N1058  1  0.116650  0.687050  0.058410  1.0  -0.0992
  N  N1059  1  0.853730  0.595060  0.103680  1.0  -0.3981
  N  N1060  1  0.789690  0.538700  0.079950  1.0  0.0027
  N  N1061  1  0.562950  0.866650  0.308410  1.0  -0.0993
  N  N1062  1  0.654940  0.603730  0.353680  1.0  -0.3977
  N  N1063  1  0.711300  0.539690  0.329950  1.0  0.0023
  N  N1064  1  0.062950  0.366650  0.808410  1.0  -0.0993
  N  N1065  1  0.154940  0.103730  0.853680  1.0  -0.3977
  N  N1066  1  0.211300  0.039690  0.829950  1.0  0.0023
  N  N1067  1  0.937050  0.133350  0.808410  1.0  -0.0996
  N  N1068  1  0.845060  0.396270  0.853680  1.0  -0.3982
  N  N1069  1  0.788700  0.460310  0.829950  1.0  0.0021
  N  N1070  1  0.437050  0.633350  0.308410  1.0  -0.0996
  N  N1071  1  0.345060  0.896270  0.353680  1.0  -0.3982
  N  N1072  1  0.288700  0.960310  0.329950  1.0  0.0021
  O  O1073  1  0.256680  0.264560  0.065740  1.0  -0.6124
  O  O1074  1  0.300900  0.213430  0.114110  1.0  -0.5956
  O  O1075  1  0.458820  0.153170  0.117330  1.0  -0.5815
  O  O1076  1  0.528100  0.153870  0.071050  1.0  -0.6022
  O  O1077  1  0.756680  0.764560  0.565740  1.0  -0.6124
  O  O1078  1  0.800900  0.713430  0.614110  1.0  -0.5956
  O  O1079  1  0.958820  0.653170  0.617330  1.0  -0.5815
  O  O1080  1  0.028100  0.653870  0.571050  1.0  -0.602
  O  O1081  1  0.243320  0.735440  0.565740  1.0  -0.6115
  O  O1082  1  0.199100  0.786570  0.614110  1.0  -0.5948
  O  O1083  1  0.041180  0.846830  0.617330  1.0  -0.581
  O  O1084  1  0.971900  0.846130  0.571050  1.0  -0.6029
  O  O1085  1  0.743320  0.235440  0.065740  1.0  -0.6115
  O  O1086  1  0.699100  0.286570  0.114110  1.0  -0.5948
  O  O1087  1  0.541180  0.346830  0.117330  1.0  -0.581
  O  O1088  1  0.471900  0.346130  0.071050  1.0  -0.6031
  O  O1089  1  0.985440  0.006680  0.315740  1.0  -0.6089
  O  O1090  1  0.036570  0.050900  0.364110  1.0  -0.5978
  O  O1091  1  0.096830  0.208820  0.367330  1.0  -0.5815
  O  O1092  1  0.096130  0.278100  0.321050  1.0  -0.6038
  O  O1093  1  0.485440  0.506680  0.815740  1.0  -0.6089
  O  O1094  1  0.536570  0.550900  0.864110  1.0  -0.5978
  O  O1095  1  0.596830  0.708820  0.867330  1.0  -0.5815
  O  O1096  1  0.596130  0.778100  0.821050  1.0  -0.6038
  O  O1097  1  0.514560  0.993320  0.815740  1.0  -0.6099
  O  O1098  1  0.463430  0.949100  0.864110  1.0  -0.5979
  O  O1099  1  0.403170  0.791180  0.867330  1.0  -0.5821
  O  O1100  1  0.403870  0.721900  0.821050  1.0  -0.6041
  O  O1101  1  0.014560  0.493320  0.315740  1.0  -0.6099
  O  O1102  1  0.963430  0.449100  0.364110  1.0  -0.5979
  O  O1103  1  0.903170  0.291180  0.367330  1.0  -0.5821
  O  O1104  1  0.903870  0.221900  0.321050  1.0  -0.6041
  O  O1105  1  0.243320  0.264560  0.934260  1.0  -0.6138
  O  O1106  1  0.199100  0.213430  0.885890  1.0  -0.5949
  O  O1107  1  0.041180  0.153170  0.882670  1.0  -0.5824
  O  O1108  1  0.971900  0.153870  0.928950  1.0  -0.6034
  O  O1109  1  0.743320  0.764560  0.434260  1.0  -0.6138
  O  O1110  1  0.699100  0.713430  0.385890  1.0  -0.5949
  O  O1111  1  0.541180  0.653170  0.382670  1.0  -0.5824
  O  O1112  1  0.471900  0.653870  0.428950  1.0  -0.6034
  O  O1113  1  0.256680  0.735440  0.434260  1.0  -0.6127
  O  O1114  1  0.300900  0.786570  0.385890  1.0  -0.5947
  O  O1115  1  0.458820  0.846830  0.382670  1.0  -0.5816
  O  O1116  1  0.528100  0.846130  0.428950  1.0  -0.6024
  O  O1117  1  0.756680  0.235440  0.934260  1.0  -0.6127
  O  O1118  1  0.800900  0.286570  0.885890  1.0  -0.5947
  O  O1119  1  0.958820  0.346830  0.882670  1.0  -0.5816
  O  O1120  1  0.028100  0.346130  0.928950  1.0  -0.6024
  O  O1121  1  0.514560  0.006680  0.684260  1.0  -0.6107
  O  O1122  1  0.463430  0.050900  0.635890  1.0  -0.597
  O  O1123  1  0.403170  0.208820  0.632670  1.0  -0.5827
  O  O1124  1  0.403870  0.278100  0.678950  1.0  -0.6056
  O  O1125  1  0.014560  0.506680  0.184260  1.0  -0.6107
  O  O1126  1  0.963430  0.550900  0.135890  1.0  -0.5969
  O  O1127  1  0.903170  0.708820  0.132670  1.0  -0.5826
  O  O1128  1  0.903870  0.778100  0.178950  1.0  -0.6056
  O  O1129  1  0.985440  0.993320  0.184260  1.0  -0.6092
  O  O1130  1  0.036570  0.949100  0.135890  1.0  -0.5971
  O  O1131  1  0.096830  0.791180  0.132670  1.0  -0.5822
  O  O1132  1  0.096130  0.721900  0.178950  1.0  -0.6048
  O  O1133  1  0.485440  0.493320  0.684260  1.0  -0.6092
  O  O1134  1  0.536570  0.449100  0.635890  1.0  -0.5973
  O  O1135  1  0.596830  0.291180  0.632670  1.0  -0.5823
  O  O1136  1  0.596130  0.221900  0.678950  1.0  -0.6048
  O  O1137  1  0.743320  0.735440  0.934260  1.0  -0.6128
  O  O1138  1  0.699100  0.786570  0.885890  1.0  -0.5951
  O  O1139  1  0.541180  0.846830  0.882670  1.0  -0.5814
  O  O1140  1  0.471900  0.846130  0.928950  1.0  -0.6033
  O  O1141  1  0.243320  0.235440  0.434260  1.0  -0.6128
  O  O1142  1  0.199100  0.286570  0.385890  1.0  -0.5951
  O  O1143  1  0.041180  0.346830  0.382670  1.0  -0.5814
  O  O1144  1  0.971900  0.346130  0.428950  1.0  -0.6033
  O  O1145  1  0.756680  0.264560  0.434260  1.0  -0.6121
  O  O1146  1  0.800900  0.213430  0.385890  1.0  -0.5944
  O  O1147  1  0.958820  0.153170  0.382670  1.0  -0.5825
  O  O1148  1  0.028100  0.153870  0.428950  1.0  -0.603
  O  O1149  1  0.256680  0.764560  0.934260  1.0  -0.6121
  O  O1150  1  0.300900  0.713430  0.885890  1.0  -0.5944
  O  O1151  1  0.458820  0.653170  0.882670  1.0  -0.5825
  O  O1152  1  0.528100  0.653870  0.928950  1.0  -0.603
  O  O1153  1  0.014560  0.993320  0.684260  1.0  -0.6109
  O  O1154  1  0.963430  0.949100  0.635890  1.0  -0.5964
  O  O1155  1  0.903170  0.791180  0.632670  1.0  -0.5826
  O  O1156  1  0.903870  0.721900  0.678950  1.0  -0.6047
  O  O1157  1  0.514560  0.493320  0.184260  1.0  -0.6109
  O  O1158  1  0.463430  0.449100  0.135890  1.0  -0.5962
  O  O1159  1  0.403170  0.291180  0.132670  1.0  -0.5825
  O  O1160  1  0.403870  0.221900  0.178950  1.0  -0.6047
  O  O1161  1  0.485440  0.006680  0.184260  1.0  -0.6089
  O  O1162  1  0.536570  0.050900  0.135890  1.0  -0.5972
  O  O1163  1  0.596830  0.208820  0.132670  1.0  -0.5823
  O  O1164  1  0.596130  0.278100  0.178950  1.0  -0.6044
  O  O1165  1  0.985440  0.506680  0.684260  1.0  -0.6089
  O  O1166  1  0.036570  0.550900  0.635890  1.0  -0.5974
  O  O1167  1  0.096830  0.708820  0.632670  1.0  -0.5824
  O  O1168  1  0.096130  0.778100  0.678950  1.0  -0.6044
  O  O1169  1  0.756680  0.735440  0.065740  1.0  -0.6127
  O  O1170  1  0.800900  0.786570  0.114110  1.0  -0.5952
  O  O1171  1  0.958820  0.846830  0.117330  1.0  -0.5814
  O  O1172  1  0.028100  0.846130  0.071050  1.0  -0.6031
  O  O1173  1  0.256680  0.235440  0.565740  1.0  -0.6127
  O  O1174  1  0.300900  0.286570  0.614110  1.0  -0.5952
  O  O1175  1  0.458820  0.346830  0.617330  1.0  -0.5814
  O  O1176  1  0.528100  0.346130  0.571050  1.0  -0.6029
  O  O1177  1  0.743320  0.264560  0.565740  1.0  -0.6131
  O  O1178  1  0.699100  0.213430  0.614110  1.0  -0.5957
  O  O1179  1  0.541180  0.153170  0.617330  1.0  -0.5812
  O  O1180  1  0.471900  0.153870  0.571050  1.0  -0.6027
  O  O1181  1  0.243320  0.764560  0.065740  1.0  -0.6131
  O  O1182  1  0.199100  0.713430  0.114110  1.0  -0.5957
  O  O1183  1  0.041180  0.653170  0.117330  1.0  -0.5812
  O  O1184  1  0.971900  0.653870  0.071050  1.0  -0.6029
  O  O1185  1  0.485440  0.993320  0.315740  1.0  -0.6094
  O  O1186  1  0.536570  0.949100  0.364110  1.0  -0.5983
  O  O1187  1  0.596830  0.791180  0.367330  1.0  -0.5818
  O  O1188  1  0.596130  0.721900  0.321050  1.0  -0.6038
  O  O1189  1  0.985440  0.493320  0.815740  1.0  -0.6094
  O  O1190  1  0.036570  0.449100  0.864110  1.0  -0.5983
  O  O1191  1  0.096830  0.291180  0.867330  1.0  -0.5818
  O  O1192  1  0.096130  0.221900  0.821050  1.0  -0.6038
  O  O1193  1  0.014560  0.006680  0.815740  1.0  -0.6093
  O  O1194  1  0.963430  0.050900  0.864110  1.0  -0.5981
  O  O1195  1  0.903170  0.208820  0.867330  1.0  -0.5819
  O  O1196  1  0.903870  0.278100  0.821050  1.0  -0.606
  O  O1197  1  0.514560  0.506680  0.315740  1.0  -0.6093
  O  O1198  1  0.463430  0.550900  0.364110  1.0  -0.5981
  O  O1199  1  0.403170  0.708820  0.367330  1.0  -0.5819
  O  O1200  1  0.403870  0.778100  0.321050  1.0  -0.606
