# generated using pymatgen
data_Cd16C49Se7S19
_symmetry_space_group_name_H-M   'P 1'
_cell_length_a   35.53870000
_cell_length_b   35.53870000
_cell_length_c   53.26070000
_cell_angle_alpha   90.00000000
_cell_angle_beta   90.00000000
_cell_angle_gamma   90.00000000
_symmetry_Int_Tables_number   1
_chemical_formula_structural   Cd16C49Se7S19
_chemical_formula_sum   'Cd256 C784 Se112 S304'
_cell_volume   67268.22136841
_cell_formula_units_Z   16
loop_
 _symmetry_equiv_pos_site_id
 _symmetry_equiv_pos_as_xyz
  1  'x, y, z'
loop_
 _atom_site_type_symbol
 _atom_site_label
 _atom_site_symmetry_multiplicity
 _atom_site_fract_x
 _atom_site_fract_y
 _atom_site_fract_z
 _atom_site_occupancy
 _atom_site_charge
  Cd  Cd1  1  0.198700  0.078120  0.149550  1.0  0.5942
  Cd  Cd2  1  0.125090  0.991280  0.159000  1.0  0.5732
  Cd  Cd3  1  0.089430  0.106220  0.169310  1.0  0.5951
  Cd  Cd4  1  0.168020  0.055730  0.221000  1.0  0.6242
  Cd  Cd5  1  0.977980  0.060070  0.163860  1.0  0.6823
  Cd  Cd6  1  0.099500  0.911720  0.215770  1.0  0.6226
  Cd  Cd7  1  0.053550  0.022190  0.219100  1.0  0.5638
  Cd  Cd8  1  0.130890  0.989610  0.277570  1.0  0.5987
  Cd  Cd9  1  0.005050  0.133760  0.216660  1.0  0.6405
  Cd  Cd10  1  0.092790  0.095920  0.275120  1.0  0.6197
  Cd  Cd11  1  0.928630  0.161120  0.271460  1.0  0.6261
  Cd  Cd12  1  0.979650  0.054270  0.273220  1.0  0.5917
  Cd  Cd13  1  0.909440  0.085430  0.332700  1.0  0.5628
  Cd  Cd14  1  0.941720  0.974860  0.329580  1.0  0.5523
  Cd  Cd15  1  0.018610  0.134840  0.326460  1.0  0.6098
  Cd  Cd16  1  0.926380  0.197050  0.345670  1.0  0.592
  Cd  Cd17  1  0.698700  0.578120  0.649550  1.0  0.5942
  Cd  Cd18  1  0.625090  0.491280  0.659000  1.0  0.5732
  Cd  Cd19  1  0.589430  0.606220  0.669310  1.0  0.5951
  Cd  Cd20  1  0.668020  0.555730  0.721000  1.0  0.6242
  Cd  Cd21  1  0.477980  0.560070  0.663860  1.0  0.6823
  Cd  Cd22  1  0.599500  0.411720  0.715770  1.0  0.6226
  Cd  Cd23  1  0.553550  0.522190  0.719100  1.0  0.5638
  Cd  Cd24  1  0.630890  0.489610  0.777570  1.0  0.5987
  Cd  Cd25  1  0.505050  0.633760  0.716660  1.0  0.6405
  Cd  Cd26  1  0.592790  0.595920  0.775120  1.0  0.6197
  Cd  Cd27  1  0.428630  0.661120  0.771460  1.0  0.6261
  Cd  Cd28  1  0.479650  0.554270  0.773220  1.0  0.5917
  Cd  Cd29  1  0.409440  0.585430  0.832700  1.0  0.5628
  Cd  Cd30  1  0.441720  0.474860  0.829580  1.0  0.5523
  Cd  Cd31  1  0.518610  0.634840  0.826460  1.0  0.6098
  Cd  Cd32  1  0.426380  0.697050  0.845670  1.0  0.592
  Cd  Cd33  1  0.801300  0.921880  0.149550  1.0  0.5932
  Cd  Cd34  1  0.874910  0.008720  0.159000  1.0  0.5745
  Cd  Cd35  1  0.910570  0.893780  0.169310  1.0  0.5949
  Cd  Cd36  1  0.831980  0.944270  0.221000  1.0  0.6242
  Cd  Cd37  1  0.022020  0.939930  0.163860  1.0  0.6811
  Cd  Cd38  1  0.900500  0.088280  0.215770  1.0  0.6226
  Cd  Cd39  1  0.946450  0.977810  0.219100  1.0  0.5642
  Cd  Cd40  1  0.869110  0.010390  0.277570  1.0  0.5996
  Cd  Cd41  1  0.994950  0.866240  0.216660  1.0  0.6405
  Cd  Cd42  1  0.907210  0.904080  0.275120  1.0  0.6205
  Cd  Cd43  1  0.071370  0.838880  0.271460  1.0  0.6259
  Cd  Cd44  1  0.020350  0.945730  0.273220  1.0  0.5923
  Cd  Cd45  1  0.090560  0.914570  0.332700  1.0  0.5625
  Cd  Cd46  1  0.058280  0.025140  0.329580  1.0  0.5522
  Cd  Cd47  1  0.981390  0.865160  0.326460  1.0  0.6091
  Cd  Cd48  1  0.073620  0.802950  0.345670  1.0  0.5915
  Cd  Cd49  1  0.301300  0.421880  0.649550  1.0  0.5932
  Cd  Cd50  1  0.374910  0.508720  0.659000  1.0  0.5745
  Cd  Cd51  1  0.410570  0.393780  0.669310  1.0  0.5949
  Cd  Cd52  1  0.331980  0.444270  0.721000  1.0  0.6242
  Cd  Cd53  1  0.522020  0.439930  0.663860  1.0  0.6811
  Cd  Cd54  1  0.400500  0.588280  0.715770  1.0  0.6226
  Cd  Cd55  1  0.446450  0.477810  0.719100  1.0  0.5642
  Cd  Cd56  1  0.369110  0.510390  0.777570  1.0  0.5996
  Cd  Cd57  1  0.494950  0.366240  0.716660  1.0  0.6405
  Cd  Cd58  1  0.407210  0.404080  0.775120  1.0  0.6205
  Cd  Cd59  1  0.571370  0.338880  0.771460  1.0  0.6259
  Cd  Cd60  1  0.520350  0.445730  0.773220  1.0  0.5923
  Cd  Cd61  1  0.590560  0.414570  0.832700  1.0  0.5625
  Cd  Cd62  1  0.558280  0.525140  0.829580  1.0  0.5522
  Cd  Cd63  1  0.481390  0.365160  0.826460  1.0  0.6091
  Cd  Cd64  1  0.573620  0.302950  0.845670  1.0  0.5915
  Cd  Cd65  1  0.421880  0.801300  0.899550  1.0  0.593
  Cd  Cd66  1  0.508720  0.874910  0.909000  1.0  0.5712
  Cd  Cd67  1  0.393780  0.910570  0.919310  1.0  0.5936
  Cd  Cd68  1  0.444270  0.831980  0.971000  1.0  0.6246
  Cd  Cd69  1  0.439930  0.022020  0.913860  1.0  0.6821
  Cd  Cd70  1  0.588280  0.900500  0.965770  1.0  0.6221
  Cd  Cd71  1  0.477810  0.946450  0.969100  1.0  0.5643
  Cd  Cd72  1  0.510390  0.869110  0.027570  1.0  0.6008
  Cd  Cd73  1  0.366240  0.994950  0.966660  1.0  0.6417
  Cd  Cd74  1  0.404080  0.907210  0.025120  1.0  0.6208
  Cd  Cd75  1  0.338880  0.071370  0.021460  1.0  0.6239
  Cd  Cd76  1  0.445730  0.020350  0.023220  1.0  0.5917
  Cd  Cd77  1  0.414570  0.090560  0.082700  1.0  0.5644
  Cd  Cd78  1  0.525140  0.058280  0.079580  1.0  0.5522
  Cd  Cd79  1  0.365160  0.981390  0.076460  1.0  0.6097
  Cd  Cd80  1  0.302950  0.073620  0.095670  1.0  0.5923
  Cd  Cd81  1  0.921880  0.301300  0.399550  1.0  0.593
  Cd  Cd82  1  0.008720  0.374910  0.409000  1.0  0.5712
  Cd  Cd83  1  0.893780  0.410570  0.419310  1.0  0.5936
  Cd  Cd84  1  0.944270  0.331980  0.471000  1.0  0.6246
  Cd  Cd85  1  0.939930  0.522020  0.413860  1.0  0.6821
  Cd  Cd86  1  0.088280  0.400500  0.465770  1.0  0.6221
  Cd  Cd87  1  0.977810  0.446450  0.469100  1.0  0.5643
  Cd  Cd88  1  0.010390  0.369110  0.527570  1.0  0.6008
  Cd  Cd89  1  0.866240  0.494950  0.466660  1.0  0.6417
  Cd  Cd90  1  0.904080  0.407210  0.525120  1.0  0.6208
  Cd  Cd91  1  0.838880  0.571370  0.521460  1.0  0.6239
  Cd  Cd92  1  0.945730  0.520350  0.523220  1.0  0.5917
  Cd  Cd93  1  0.914570  0.590560  0.582700  1.0  0.5644
  Cd  Cd94  1  0.025140  0.558280  0.579580  1.0  0.5522
  Cd  Cd95  1  0.865160  0.481390  0.576460  1.0  0.6097
  Cd  Cd96  1  0.802950  0.573620  0.595670  1.0  0.5923
  Cd  Cd97  1  0.578120  0.198700  0.899550  1.0  0.5944
  Cd  Cd98  1  0.491280  0.125090  0.909000  1.0  0.5719
  Cd  Cd99  1  0.606220  0.089430  0.919310  1.0  0.5943
  Cd  Cd100  1  0.555730  0.168020  0.971000  1.0  0.6251
  Cd  Cd101  1  0.560070  0.977980  0.913860  1.0  0.6815
  Cd  Cd102  1  0.411720  0.099500  0.965770  1.0  0.6226
  Cd  Cd103  1  0.522190  0.053550  0.969100  1.0  0.5635
  Cd  Cd104  1  0.489610  0.130890  0.027570  1.0  0.6011
  Cd  Cd105  1  0.633760  0.005050  0.966660  1.0  0.6419
  Cd  Cd106  1  0.595920  0.092790  0.025120  1.0  0.6201
  Cd  Cd107  1  0.661120  0.928630  0.021460  1.0  0.624
  Cd  Cd108  1  0.554270  0.979650  0.023220  1.0  0.5924
  Cd  Cd109  1  0.585430  0.909440  0.082700  1.0  0.5645
  Cd  Cd110  1  0.474860  0.941720  0.079580  1.0  0.5519
  Cd  Cd111  1  0.634840  0.018610  0.076460  1.0  0.6092
  Cd  Cd112  1  0.697050  0.926380  0.095670  1.0  0.5925
  Cd  Cd113  1  0.078120  0.698700  0.399550  1.0  0.5944
  Cd  Cd114  1  0.991280  0.625090  0.409000  1.0  0.5719
  Cd  Cd115  1  0.106220  0.589430  0.419310  1.0  0.5943
  Cd  Cd116  1  0.055730  0.668020  0.471000  1.0  0.6251
  Cd  Cd117  1  0.060070  0.477980  0.413860  1.0  0.6815
  Cd  Cd118  1  0.911720  0.599500  0.465770  1.0  0.6226
  Cd  Cd119  1  0.022190  0.553550  0.469100  1.0  0.5635
  Cd  Cd120  1  0.989610  0.630890  0.527570  1.0  0.6011
  Cd  Cd121  1  0.133760  0.505050  0.466660  1.0  0.6419
  Cd  Cd122  1  0.095920  0.592790  0.525120  1.0  0.6201
  Cd  Cd123  1  0.161120  0.428630  0.521460  1.0  0.624
  Cd  Cd124  1  0.054270  0.479650  0.523220  1.0  0.5924
  Cd  Cd125  1  0.085430  0.409440  0.582700  1.0  0.5645
  Cd  Cd126  1  0.974860  0.441720  0.579580  1.0  0.5519
  Cd  Cd127  1  0.134840  0.518610  0.576460  1.0  0.6092
  Cd  Cd128  1  0.197050  0.426380  0.595670  1.0  0.5925
  Cd  Cd129  1  0.078120  0.801300  0.850450  1.0  0.5935
  Cd  Cd130  1  0.991280  0.874910  0.841000  1.0  0.5723
  Cd  Cd131  1  0.106220  0.910570  0.830690  1.0  0.5951
  Cd  Cd132  1  0.055730  0.831980  0.779000  1.0  0.6257
  Cd  Cd133  1  0.060070  0.022020  0.836140  1.0  0.6815
  Cd  Cd134  1  0.911720  0.900500  0.784230  1.0  0.6226
  Cd  Cd135  1  0.022190  0.946450  0.780900  1.0  0.5642
  Cd  Cd136  1  0.989610  0.869110  0.722430  1.0  0.6009
  Cd  Cd137  1  0.133760  0.994950  0.783340  1.0  0.6421
  Cd  Cd138  1  0.095920  0.907210  0.724880  1.0  0.6205
  Cd  Cd139  1  0.161120  0.071370  0.728540  1.0  0.6241
  Cd  Cd140  1  0.054270  0.020350  0.726780  1.0  0.5917
  Cd  Cd141  1  0.085430  0.090560  0.667300  1.0  0.565
  Cd  Cd142  1  0.974860  0.058280  0.670420  1.0  0.5523
  Cd  Cd143  1  0.134840  0.981390  0.673540  1.0  0.6092
  Cd  Cd144  1  0.197050  0.073620  0.654330  1.0  0.5912
  Cd  Cd145  1  0.578120  0.301300  0.350450  1.0  0.5935
  Cd  Cd146  1  0.491280  0.374910  0.341000  1.0  0.5723
  Cd  Cd147  1  0.606220  0.410570  0.330690  1.0  0.5951
  Cd  Cd148  1  0.555730  0.331980  0.279000  1.0  0.6257
  Cd  Cd149  1  0.560070  0.522020  0.336140  1.0  0.6815
  Cd  Cd150  1  0.411720  0.400500  0.284230  1.0  0.6226
  Cd  Cd151  1  0.522190  0.446450  0.280900  1.0  0.5642
  Cd  Cd152  1  0.489610  0.369110  0.222430  1.0  0.6009
  Cd  Cd153  1  0.633760  0.494950  0.283340  1.0  0.6421
  Cd  Cd154  1  0.595920  0.407210  0.224880  1.0  0.6205
  Cd  Cd155  1  0.661120  0.571370  0.228540  1.0  0.6241
  Cd  Cd156  1  0.554270  0.520350  0.226780  1.0  0.5917
  Cd  Cd157  1  0.585430  0.590560  0.167300  1.0  0.565
  Cd  Cd158  1  0.474860  0.558280  0.170420  1.0  0.5523
  Cd  Cd159  1  0.634840  0.481390  0.173540  1.0  0.6092
  Cd  Cd160  1  0.697050  0.573620  0.154330  1.0  0.5912
  Cd  Cd161  1  0.921880  0.198700  0.850450  1.0  0.592
  Cd  Cd162  1  0.008720  0.125090  0.841000  1.0  0.571
  Cd  Cd163  1  0.893780  0.089430  0.830690  1.0  0.5936
  Cd  Cd164  1  0.944270  0.168020  0.779000  1.0  0.625
  Cd  Cd165  1  0.939930  0.977980  0.836140  1.0  0.6826
  Cd  Cd166  1  0.088280  0.099500  0.784230  1.0  0.6218
  Cd  Cd167  1  0.977810  0.053550  0.780900  1.0  0.5636
  Cd  Cd168  1  0.010390  0.130890  0.722430  1.0  0.6012
  Cd  Cd169  1  0.866240  0.005050  0.783340  1.0  0.6418
  Cd  Cd170  1  0.904080  0.092790  0.724880  1.0  0.6209
  Cd  Cd171  1  0.838880  0.928630  0.728540  1.0  0.6239
  Cd  Cd172  1  0.945730  0.979650  0.726780  1.0  0.5931
  Cd  Cd173  1  0.914570  0.909440  0.667300  1.0  0.5651
  Cd  Cd174  1  0.025140  0.941720  0.670420  1.0  0.5523
  Cd  Cd175  1  0.865160  0.018610  0.673540  1.0  0.61
  Cd  Cd176  1  0.802950  0.926380  0.654330  1.0  0.5912
  Cd  Cd177  1  0.421880  0.698700  0.350450  1.0  0.592
  Cd  Cd178  1  0.508720  0.625090  0.341000  1.0  0.571
  Cd  Cd179  1  0.393780  0.589430  0.330690  1.0  0.5936
  Cd  Cd180  1  0.444270  0.668020  0.279000  1.0  0.625
  Cd  Cd181  1  0.439930  0.477980  0.336140  1.0  0.6826
  Cd  Cd182  1  0.588280  0.599500  0.284230  1.0  0.6218
  Cd  Cd183  1  0.477810  0.553550  0.280900  1.0  0.5636
  Cd  Cd184  1  0.510390  0.630890  0.222430  1.0  0.6012
  Cd  Cd185  1  0.366240  0.505050  0.283340  1.0  0.6418
  Cd  Cd186  1  0.404080  0.592790  0.224880  1.0  0.6209
  Cd  Cd187  1  0.338880  0.428630  0.228540  1.0  0.6239
  Cd  Cd188  1  0.445730  0.479650  0.226780  1.0  0.5931
  Cd  Cd189  1  0.414570  0.409440  0.167300  1.0  0.5651
  Cd  Cd190  1  0.525140  0.441720  0.170420  1.0  0.5523
  Cd  Cd191  1  0.365160  0.518610  0.173540  1.0  0.61
  Cd  Cd192  1  0.302950  0.426380  0.154330  1.0  0.5912
  Cd  Cd193  1  0.301300  0.078120  0.600450  1.0  0.5922
  Cd  Cd194  1  0.374910  0.991280  0.591000  1.0  0.5736
  Cd  Cd195  1  0.410570  0.106220  0.580690  1.0  0.5949
  Cd  Cd196  1  0.331980  0.055730  0.529000  1.0  0.6247
  Cd  Cd197  1  0.522020  0.060070  0.586140  1.0  0.6818
  Cd  Cd198  1  0.400500  0.911720  0.534230  1.0  0.6226
  Cd  Cd199  1  0.446450  0.022190  0.530900  1.0  0.564
  Cd  Cd200  1  0.369110  0.989610  0.472430  1.0  0.5996
  Cd  Cd201  1  0.494950  0.133760  0.533340  1.0  0.6403
  Cd  Cd202  1  0.407210  0.095920  0.474880  1.0  0.6206
  Cd  Cd203  1  0.571370  0.161120  0.478540  1.0  0.6258
  Cd  Cd204  1  0.520350  0.054270  0.476780  1.0  0.5915
  Cd  Cd205  1  0.590560  0.085430  0.417300  1.0  0.563
  Cd  Cd206  1  0.558280  0.974860  0.420420  1.0  0.5526
  Cd  Cd207  1  0.481390  0.134840  0.423540  1.0  0.6095
  Cd  Cd208  1  0.573620  0.197050  0.404330  1.0  0.5901
  Cd  Cd209  1  0.801300  0.578120  0.100450  1.0  0.5922
  Cd  Cd210  1  0.874910  0.491280  0.091000  1.0  0.5736
  Cd  Cd211  1  0.910570  0.606220  0.080690  1.0  0.5949
  Cd  Cd212  1  0.831980  0.555730  0.029000  1.0  0.6247
  Cd  Cd213  1  0.022020  0.560070  0.086140  1.0  0.6818
  Cd  Cd214  1  0.900500  0.411720  0.034230  1.0  0.6226
  Cd  Cd215  1  0.946450  0.522190  0.030900  1.0  0.564
  Cd  Cd216  1  0.869110  0.489610  0.972430  1.0  0.5996
  Cd  Cd217  1  0.994950  0.633760  0.033340  1.0  0.6403
  Cd  Cd218  1  0.907210  0.595920  0.974880  1.0  0.6206
  Cd  Cd219  1  0.071370  0.661120  0.978540  1.0  0.6258
  Cd  Cd220  1  0.020350  0.554270  0.976780  1.0  0.5915
  Cd  Cd221  1  0.090560  0.585430  0.917300  1.0  0.563
  Cd  Cd222  1  0.058280  0.474860  0.920420  1.0  0.5526
  Cd  Cd223  1  0.981390  0.634840  0.923540  1.0  0.6095
  Cd  Cd224  1  0.073620  0.697050  0.904330  1.0  0.5901
  Cd  Cd225  1  0.698700  0.921880  0.600450  1.0  0.5935
  Cd  Cd226  1  0.625090  0.008720  0.591000  1.0  0.574
  Cd  Cd227  1  0.589430  0.893780  0.580690  1.0  0.5959
  Cd  Cd228  1  0.668020  0.944270  0.529000  1.0  0.625
  Cd  Cd229  1  0.477980  0.939930  0.586140  1.0  0.6822
  Cd  Cd230  1  0.599500  0.088280  0.534230  1.0  0.6223
  Cd  Cd231  1  0.553550  0.977810  0.530900  1.0  0.564
  Cd  Cd232  1  0.630890  0.010390  0.472430  1.0  0.5988
  Cd  Cd233  1  0.505050  0.866240  0.533340  1.0  0.6408
  Cd  Cd234  1  0.592790  0.904080  0.474880  1.0  0.6201
  Cd  Cd235  1  0.428630  0.838880  0.478540  1.0  0.6261
  Cd  Cd236  1  0.479650  0.945730  0.476780  1.0  0.593
  Cd  Cd237  1  0.409440  0.914570  0.417300  1.0  0.5635
  Cd  Cd238  1  0.441720  0.025140  0.420420  1.0  0.5524
  Cd  Cd239  1  0.518610  0.865160  0.423540  1.0  0.6097
  Cd  Cd240  1  0.426380  0.802950  0.404330  1.0  0.5909
  Cd  Cd241  1  0.198700  0.421880  0.100450  1.0  0.5935
  Cd  Cd242  1  0.125090  0.508720  0.091000  1.0  0.574
  Cd  Cd243  1  0.089430  0.393780  0.080690  1.0  0.5959
  Cd  Cd244  1  0.168020  0.444270  0.029000  1.0  0.625
  Cd  Cd245  1  0.977980  0.439930  0.086140  1.0  0.6822
  Cd  Cd246  1  0.099500  0.588280  0.034230  1.0  0.6223
  Cd  Cd247  1  0.053550  0.477810  0.030900  1.0  0.564
  Cd  Cd248  1  0.130890  0.510390  0.972430  1.0  0.5988
  Cd  Cd249  1  0.005050  0.366240  0.033340  1.0  0.6408
  Cd  Cd250  1  0.092790  0.404080  0.974880  1.0  0.6201
  Cd  Cd251  1  0.928630  0.338880  0.978540  1.0  0.6261
  Cd  Cd252  1  0.979650  0.445730  0.976780  1.0  0.593
  Cd  Cd253  1  0.909440  0.414570  0.917300  1.0  0.5635
  Cd  Cd254  1  0.941720  0.525140  0.920420  1.0  0.5524
  Cd  Cd255  1  0.018610  0.365160  0.923540  1.0  0.6097
  Cd  Cd256  1  0.926380  0.302950  0.904330  1.0  0.5909
  C  C257  1  0.160100  0.033700  0.102900  1.0  -0.1347
  C  C258  1  0.189100  0.039500  0.084600  1.0  -0.0764
  C  C259  1  0.174800  0.055500  0.061000  1.0  -0.0625
  C  C260  1  0.131400  0.065100  0.056000  1.0  -0.1386
  C  C261  1  0.109200  0.057000  0.077100  1.0  -0.0393
  C  C262  1  0.123200  0.044700  0.102700  1.0  -0.074
  C  C263  1  0.909800  0.064900  0.113800  1.0  -0.0866
  C  C264  1  0.908800  0.058000  0.088100  1.0  -0.0959
  C  C265  1  0.891900  0.083800  0.072100  1.0  -0.1333
  C  C266  1  0.876100  0.116500  0.081700  1.0  -0.1273
  C  C267  1  0.877000  0.123400  0.107400  1.0  -0.0765
  C  C268  1  0.893900  0.097600  0.123400  1.0  -0.0483
  C  C269  1  0.177200  0.911100  0.171400  1.0  -0.1689
  C  C270  1  0.166000  0.870500  0.177100  1.0  -0.0998
  C  C271  1  0.192000  0.839100  0.161400  1.0  -0.1339
  C  C272  1  0.220000  0.851800  0.145300  1.0  -0.1639
  C  C273  1  0.226100  0.901300  0.148700  1.0  -0.0704
  C  C274  1  0.204600  0.924200  0.156900  1.0  0.1149
  C  C275  1  0.026900  0.112800  0.120500  1.0  -0.0496
  C  C276  1  0.990200  0.125100  0.116800  1.0  -0.058
  C  C277  1  0.981800  0.149000  0.096900  1.0  -0.0624
  C  C278  1  0.010100  0.160600  0.080700  1.0  -0.0983
  C  C279  1  0.046900  0.148300  0.084400  1.0  -0.122
  C  C280  1  0.055200  0.124400  0.104200  1.0  -0.058
  C  C281  1  0.851900  0.176100  0.231800  1.0  -0.0994
  C  C282  1  0.869500  0.196700  0.215600  1.0  -0.0419
  C  C283  1  0.969600  0.226700  0.232700  1.0  -0.1238
  C  C284  1  0.957500  0.255400  0.248200  1.0  -0.0863
  C  C285  1  0.942600  0.289200  0.235500  1.0  -0.1151
  C  C286  1  0.948100  0.287500  0.207900  1.0  -0.0043
  C  C287  1  0.956800  0.259000  0.190900  1.0  -0.1099
  C  C288  1  0.973700  0.229600  0.205400  1.0  -0.0035
  C  C289  1  0.859600  0.219200  0.298800  1.0  -0.1465
  C  C290  1  0.835700  0.186900  0.302000  1.0  -0.007
  C  C291  1  0.796200  0.189700  0.301000  1.0  -0.1293
  C  C292  1  0.784700  0.225300  0.295500  1.0  -0.0433
  C  C293  1  0.808300  0.253000  0.285900  1.0  0.0075
  C  C294  1  0.844500  0.256800  0.289700  1.0  -0.073
  C  C295  1  0.887800  0.025900  0.380900  1.0  -0.1092
  C  C296  1  0.856600  0.014900  0.369500  1.0  -0.0411
  C  C297  1  0.906600  0.128800  0.393000  1.0  -0.1454
  C  C298  1  0.064200  0.097800  0.379800  1.0  -0.1932
  C  C299  1  0.101500  0.072200  0.380500  1.0  -0.1507
  C  C300  1  0.018500  0.230800  0.334000  1.0  -0.0864
  C  C301  1  0.010900  0.234600  0.308600  1.0  -0.0375
  C  C302  1  0.025000  0.265200  0.295300  1.0  -0.0722
  C  C303  1  0.046800  0.292000  0.307600  1.0  -0.1097
  C  C304  1  0.054500  0.288200  0.333100  1.0  -0.0713
  C  C305  1  0.040300  0.257600  0.346300  1.0  -0.069
  C  C306  1  0.660100  0.533700  0.602900  1.0  -0.1347
  C  C307  1  0.689100  0.539500  0.584600  1.0  -0.0764
  C  C308  1  0.674800  0.555500  0.561000  1.0  -0.0625
  C  C309  1  0.631400  0.565100  0.556000  1.0  -0.1386
  C  C310  1  0.609200  0.557000  0.577100  1.0  -0.0393
  C  C311  1  0.623200  0.544700  0.602700  1.0  -0.074
  C  C312  1  0.409800  0.564900  0.613800  1.0  -0.0866
  C  C313  1  0.408800  0.558000  0.588100  1.0  -0.0959
  C  C314  1  0.391900  0.583800  0.572100  1.0  -0.1333
  C  C315  1  0.376100  0.616500  0.581700  1.0  -0.1273
  C  C316  1  0.377000  0.623400  0.607400  1.0  -0.0765
  C  C317  1  0.393900  0.597600  0.623400  1.0  -0.0483
  C  C318  1  0.677200  0.411100  0.671400  1.0  -0.1689
  C  C319  1  0.666000  0.370500  0.677100  1.0  -0.0998
  C  C320  1  0.692000  0.339100  0.661400  1.0  -0.1339
  C  C321  1  0.720000  0.351800  0.645300  1.0  -0.1639
  C  C322  1  0.726100  0.401300  0.648700  1.0  -0.0704
  C  C323  1  0.704600  0.424200  0.656900  1.0  0.1149
  C  C324  1  0.526900  0.612800  0.620500  1.0  -0.0496
  C  C325  1  0.490200  0.625100  0.616800  1.0  -0.058
  C  C326  1  0.481800  0.649000  0.596900  1.0  -0.0624
  C  C327  1  0.510100  0.660600  0.580700  1.0  -0.0983
  C  C328  1  0.546900  0.648300  0.584400  1.0  -0.122
  C  C329  1  0.555200  0.624400  0.604200  1.0  -0.058
  C  C330  1  0.351900  0.676100  0.731800  1.0  -0.0994
  C  C331  1  0.369500  0.696700  0.715600  1.0  -0.0419
  C  C332  1  0.469600  0.726700  0.732700  1.0  -0.1238
  C  C333  1  0.457500  0.755400  0.748200  1.0  -0.0863
  C  C334  1  0.442600  0.789200  0.735500  1.0  -0.1151
  C  C335  1  0.448100  0.787500  0.707900  1.0  -0.0043
  C  C336  1  0.456800  0.759000  0.690900  1.0  -0.1099
  C  C337  1  0.473700  0.729600  0.705400  1.0  -0.0035
  C  C338  1  0.359600  0.719200  0.798800  1.0  -0.1465
  C  C339  1  0.335700  0.686900  0.802000  1.0  -0.007
  C  C340  1  0.296200  0.689700  0.801000  1.0  -0.1293
  C  C341  1  0.284700  0.725300  0.795500  1.0  -0.0433
  C  C342  1  0.308300  0.753000  0.785900  1.0  0.0075
  C  C343  1  0.344500  0.756800  0.789700  1.0  -0.073
  C  C344  1  0.387800  0.525900  0.880900  1.0  -0.1049
  C  C345  1  0.356600  0.514900  0.869500  1.0  -0.0411
  C  C346  1  0.406600  0.628800  0.893000  1.0  -0.147
  C  C347  1  0.564200  0.597800  0.879800  1.0  -0.1914
  C  C348  1  0.601500  0.572200  0.880500  1.0  -0.1522
  C  C349  1  0.518500  0.730800  0.834000  1.0  -0.0864
  C  C350  1  0.510900  0.734600  0.808600  1.0  -0.0375
  C  C351  1  0.525000  0.765200  0.795300  1.0  -0.0722
  C  C352  1  0.546800  0.792000  0.807600  1.0  -0.1097
  C  C353  1  0.554500  0.788200  0.833100  1.0  -0.0713
  C  C354  1  0.540300  0.757600  0.846300  1.0  -0.069
  C  C355  1  0.839900  0.966300  0.102900  1.0  -0.1348
  C  C356  1  0.810900  0.960500  0.084600  1.0  -0.0789
  C  C357  1  0.825200  0.944500  0.061000  1.0  -0.0635
  C  C358  1  0.868600  0.934900  0.056000  1.0  -0.1386
  C  C359  1  0.890800  0.943000  0.077100  1.0  -0.0385
  C  C360  1  0.876800  0.955300  0.102700  1.0  -0.074
  C  C361  1  0.090200  0.935100  0.113800  1.0  -0.0861
  C  C362  1  0.091200  0.942000  0.088100  1.0  -0.0952
  C  C363  1  0.108100  0.916200  0.072100  1.0  -0.1323
  C  C364  1  0.123900  0.883500  0.081700  1.0  -0.1271
  C  C365  1  0.123000  0.876600  0.107400  1.0  -0.0763
  C  C366  1  0.106100  0.902400  0.123400  1.0  -0.0484
  C  C367  1  0.822800  0.088900  0.171400  1.0  -0.1686
  C  C368  1  0.834000  0.129500  0.177100  1.0  -0.1009
  C  C369  1  0.808000  0.160900  0.161400  1.0  -0.1345
  C  C370  1  0.780000  0.148200  0.145300  1.0  -0.164
  C  C371  1  0.773900  0.098700  0.148700  1.0  -0.0712
  C  C372  1  0.795400  0.075800  0.156900  1.0  0.1122
  C  C373  1  0.973100  0.887200  0.120500  1.0  -0.0488
  C  C374  1  0.009800  0.874900  0.116800  1.0  -0.0585
  C  C375  1  0.018200  0.851000  0.096900  1.0  -0.0617
  C  C376  1  0.989900  0.839400  0.080700  1.0  -0.095
  C  C377  1  0.953100  0.851700  0.084400  1.0  -0.1221
  C  C378  1  0.944800  0.875600  0.104200  1.0  -0.0588
  C  C379  1  0.148100  0.823900  0.231800  1.0  -0.0988
  C  C380  1  0.130500  0.803300  0.215600  1.0  -0.0429
  C  C381  1  0.030400  0.773300  0.232700  1.0  -0.1245
  C  C382  1  0.042500  0.744600  0.248200  1.0  -0.0866
  C  C383  1  0.057400  0.710800  0.235500  1.0  -0.1145
  C  C384  1  0.051900  0.712500  0.207900  1.0  -0.0027
  C  C385  1  0.043200  0.741000  0.190900  1.0  -0.1084
  C  C386  1  0.026300  0.770400  0.205400  1.0  -0.0022
  C  C387  1  0.140400  0.780800  0.298800  1.0  -0.1463
  C  C388  1  0.164300  0.813100  0.302000  1.0  -0.0065
  C  C389  1  0.203800  0.810300  0.301000  1.0  -0.1257
  C  C390  1  0.215300  0.774700  0.295500  1.0  -0.0458
  C  C391  1  0.191700  0.747000  0.285900  1.0  0.0057
  C  C392  1  0.155500  0.743200  0.289700  1.0  -0.0746
  C  C393  1  0.112200  0.974100  0.380900  1.0  -0.1109
  C  C394  1  0.143400  0.985100  0.369500  1.0  -0.0427
  C  C395  1  0.093400  0.871200  0.393000  1.0  -0.1454
  C  C396  1  0.935800  0.902200  0.379800  1.0  -0.1945
  C  C397  1  0.898500  0.927800  0.380500  1.0  -0.15
  C  C398  1  0.981500  0.769200  0.334000  1.0  -0.0841
  C  C399  1  0.989100  0.765400  0.308600  1.0  -0.0361
  C  C400  1  0.975000  0.734800  0.295300  1.0  -0.0721
  C  C401  1  0.953200  0.708000  0.307600  1.0  -0.1117
  C  C402  1  0.945500  0.711800  0.333100  1.0  -0.0698
  C  C403  1  0.959700  0.742400  0.346300  1.0  -0.0697
  C  C404  1  0.339900  0.466300  0.602900  1.0  -0.1348
  C  C405  1  0.310900  0.460500  0.584600  1.0  -0.0789
  C  C406  1  0.325200  0.444500  0.561000  1.0  -0.0635
  C  C407  1  0.368600  0.434900  0.556000  1.0  -0.1386
  C  C408  1  0.390800  0.443000  0.577100  1.0  -0.0385
  C  C409  1  0.376800  0.455300  0.602700  1.0  -0.074
  C  C410  1  0.590200  0.435100  0.613800  1.0  -0.0861
  C  C411  1  0.591200  0.442000  0.588100  1.0  -0.0952
  C  C412  1  0.608100  0.416200  0.572100  1.0  -0.1323
  C  C413  1  0.623900  0.383500  0.581700  1.0  -0.1271
  C  C414  1  0.623000  0.376600  0.607400  1.0  -0.0763
  C  C415  1  0.606100  0.402400  0.623400  1.0  -0.0484
  C  C416  1  0.322800  0.588900  0.671400  1.0  -0.1686
  C  C417  1  0.334000  0.629500  0.677100  1.0  -0.1009
  C  C418  1  0.308000  0.660900  0.661400  1.0  -0.1345
  C  C419  1  0.280000  0.648200  0.645300  1.0  -0.164
  C  C420  1  0.273900  0.598700  0.648700  1.0  -0.0712
  C  C421  1  0.295400  0.575800  0.656900  1.0  0.1122
  C  C422  1  0.473100  0.387200  0.620500  1.0  -0.0488
  C  C423  1  0.509800  0.374900  0.616800  1.0  -0.0585
  C  C424  1  0.518200  0.351000  0.596900  1.0  -0.0617
  C  C425  1  0.489900  0.339400  0.580700  1.0  -0.095
  C  C426  1  0.453100  0.351700  0.584400  1.0  -0.1221
  C  C427  1  0.444800  0.375600  0.604200  1.0  -0.0588
  C  C428  1  0.648100  0.323900  0.731800  1.0  -0.0988
  C  C429  1  0.630500  0.303300  0.715600  1.0  -0.0429
  C  C430  1  0.530400  0.273300  0.732700  1.0  -0.1245
  C  C431  1  0.542500  0.244600  0.748200  1.0  -0.0866
  C  C432  1  0.557400  0.210800  0.735500  1.0  -0.1145
  C  C433  1  0.551900  0.212500  0.707900  1.0  -0.0027
  C  C434  1  0.543200  0.241000  0.690900  1.0  -0.1084
  C  C435  1  0.526300  0.270400  0.705400  1.0  -0.0022
  C  C436  1  0.640400  0.280800  0.798800  1.0  -0.1463
  C  C437  1  0.664300  0.313100  0.802000  1.0  -0.0065
  C  C438  1  0.703800  0.310300  0.801000  1.0  -0.1257
  C  C439  1  0.715300  0.274700  0.795500  1.0  -0.0458
  C  C440  1  0.691700  0.247000  0.785900  1.0  0.0057
  C  C441  1  0.655500  0.243200  0.789700  1.0  -0.0746
  C  C442  1  0.612200  0.474100  0.880900  1.0  -0.1069
  C  C443  1  0.643400  0.485100  0.869500  1.0  -0.0427
  C  C444  1  0.593400  0.371200  0.893000  1.0  -0.1466
  C  C445  1  0.435800  0.402200  0.879800  1.0  -0.1924
  C  C446  1  0.398500  0.427800  0.880500  1.0  -0.1513
  C  C447  1  0.481500  0.269200  0.834000  1.0  -0.0841
  C  C448  1  0.489100  0.265400  0.808600  1.0  -0.0361
  C  C449  1  0.475000  0.234800  0.795300  1.0  -0.0721
  C  C450  1  0.453200  0.208000  0.807600  1.0  -0.1117
  C  C451  1  0.445500  0.211800  0.833100  1.0  -0.0698
  C  C452  1  0.459700  0.242400  0.846300  1.0  -0.0697
  C  C453  1  0.466300  0.839900  0.852900  1.0  -0.1351
  C  C454  1  0.460500  0.810900  0.834600  1.0  -0.0777
  C  C455  1  0.444500  0.825200  0.811000  1.0  -0.0621
  C  C456  1  0.434900  0.868600  0.806000  1.0  -0.1375
  C  C457  1  0.443000  0.890800  0.827100  1.0  -0.0418
  C  C458  1  0.455300  0.876800  0.852700  1.0  -0.0761
  C  C459  1  0.435100  0.090200  0.863800  1.0  -0.085
  C  C460  1  0.442000  0.091200  0.838100  1.0  -0.0949
  C  C461  1  0.416200  0.108100  0.822100  1.0  -0.1325
  C  C462  1  0.383500  0.123900  0.831700  1.0  -0.1303
  C  C463  1  0.376600  0.123000  0.857400  1.0  -0.0774
  C  C464  1  0.402400  0.106100  0.873400  1.0  -0.0462
  C  C465  1  0.588900  0.822800  0.921400  1.0  -0.1691
  C  C466  1  0.629500  0.834000  0.927100  1.0  -0.1003
  C  C467  1  0.660900  0.808000  0.911400  1.0  -0.1325
  C  C468  1  0.648200  0.780000  0.895300  1.0  -0.1629
  C  C469  1  0.598700  0.773900  0.898700  1.0  -0.0678
  C  C470  1  0.575800  0.795400  0.906900  1.0  0.115
  C  C471  1  0.387200  0.973100  0.870500  1.0  -0.049
  C  C472  1  0.374900  0.009800  0.866800  1.0  -0.0614
  C  C473  1  0.351000  0.018200  0.846900  1.0  -0.0646
  C  C474  1  0.339400  0.989900  0.830700  1.0  -0.0939
  C  C475  1  0.351700  0.953100  0.834400  1.0  -0.1226
  C  C476  1  0.375600  0.944800  0.854200  1.0  -0.0605
  C  C477  1  0.323900  0.148100  0.981800  1.0  -0.0996
  C  C478  1  0.303300  0.130500  0.965600  1.0  -0.0408
  C  C479  1  0.273300  0.030400  0.982700  1.0  -0.1228
  C  C480  1  0.244600  0.042500  0.998200  1.0  -0.0865
  C  C481  1  0.210800  0.057400  0.985500  1.0  -0.1157
  C  C482  1  0.212500  0.051900  0.957900  1.0  -0.0029
  C  C483  1  0.241000  0.043200  0.940900  1.0  -0.1089
  C  C484  1  0.270400  0.026300  0.955400  1.0  -0.0014
  C  C485  1  0.280800  0.140400  0.048800  1.0  -0.1491
  C  C486  1  0.313100  0.164300  0.052000  1.0  -0.0075
  C  C487  1  0.310300  0.203800  0.051000  1.0  -0.1253
  C  C488  1  0.274700  0.215300  0.045500  1.0  -0.0432
  C  C489  1  0.247000  0.191700  0.035900  1.0  0.0047
  C  C490  1  0.243200  0.155500  0.039700  1.0  -0.0751
  C  C491  1  0.474100  0.112200  0.130900  1.0  -0.1105
  C  C492  1  0.485100  0.143400  0.119500  1.0  -0.0432
  C  C493  1  0.371200  0.093400  0.143000  1.0  -0.1454
  C  C494  1  0.402200  0.935800  0.129800  1.0  -0.1933
  C  C495  1  0.427800  0.898500  0.130500  1.0  -0.1516
  C  C496  1  0.269200  0.981500  0.084000  1.0  -0.0854
  C  C497  1  0.265400  0.989100  0.058600  1.0  -0.0368
  C  C498  1  0.234800  0.975000  0.045300  1.0  -0.0693
  C  C499  1  0.208000  0.953200  0.057600  1.0  -0.1142
  C  C500  1  0.211800  0.945500  0.083100  1.0  -0.068
  C  C501  1  0.242400  0.959700  0.096300  1.0  -0.071
  C  C502  1  0.966300  0.339900  0.352900  1.0  -0.1351
  C  C503  1  0.960500  0.310900  0.334600  1.0  -0.0777
  C  C504  1  0.944500  0.325200  0.311000  1.0  -0.0621
  C  C505  1  0.934900  0.368600  0.306000  1.0  -0.1375
  C  C506  1  0.943000  0.390800  0.327100  1.0  -0.0418
  C  C507  1  0.955300  0.376800  0.352700  1.0  -0.0761
  C  C508  1  0.935100  0.590200  0.363800  1.0  -0.085
  C  C509  1  0.942000  0.591200  0.338100  1.0  -0.0949
  C  C510  1  0.916200  0.608100  0.322100  1.0  -0.1325
  C  C511  1  0.883500  0.623900  0.331700  1.0  -0.1303
  C  C512  1  0.876600  0.623000  0.357400  1.0  -0.0774
  C  C513  1  0.902400  0.606100  0.373400  1.0  -0.0462
  C  C514  1  0.088900  0.322800  0.421400  1.0  -0.1691
  C  C515  1  0.129500  0.334000  0.427100  1.0  -0.1003
  C  C516  1  0.160900  0.308000  0.411400  1.0  -0.1325
  C  C517  1  0.148200  0.280000  0.395300  1.0  -0.1629
  C  C518  1  0.098700  0.273900  0.398700  1.0  -0.0696
  C  C519  1  0.075800  0.295400  0.406900  1.0  0.115
  C  C520  1  0.887200  0.473100  0.370500  1.0  -0.049
  C  C521  1  0.874900  0.509800  0.366800  1.0  -0.0614
  C  C522  1  0.851000  0.518200  0.346900  1.0  -0.0646
  C  C523  1  0.839400  0.489900  0.330700  1.0  -0.0939
  C  C524  1  0.851700  0.453100  0.334400  1.0  -0.1226
  C  C525  1  0.875600  0.444800  0.354200  1.0  -0.0605
  C  C526  1  0.823900  0.648100  0.481800  1.0  -0.0996
  C  C527  1  0.803300  0.630500  0.465600  1.0  -0.0408
  C  C528  1  0.773300  0.530400  0.482700  1.0  -0.1228
  C  C529  1  0.744600  0.542500  0.498200  1.0  -0.0865
  C  C530  1  0.710800  0.557400  0.485500  1.0  -0.1157
  C  C531  1  0.712500  0.551900  0.457900  1.0  -0.0029
  C  C532  1  0.741000  0.543200  0.440900  1.0  -0.1089
  C  C533  1  0.770400  0.526300  0.455400  1.0  -0.0014
  C  C534  1  0.780800  0.640400  0.548800  1.0  -0.1491
  C  C535  1  0.813100  0.664300  0.552000  1.0  -0.0075
  C  C536  1  0.810300  0.703800  0.551000  1.0  -0.1258
  C  C537  1  0.774700  0.715300  0.545500  1.0  -0.0445
  C  C538  1  0.747000  0.691700  0.535900  1.0  0.0082
  C  C539  1  0.743200  0.655500  0.539700  1.0  -0.0751
  C  C540  1  0.974100  0.612200  0.630900  1.0  -0.1105
  C  C541  1  0.985100  0.643400  0.619500  1.0  -0.0432
  C  C542  1  0.871200  0.593400  0.643000  1.0  -0.1454
  C  C543  1  0.902200  0.435800  0.629800  1.0  -0.1933
  C  C544  1  0.927800  0.398500  0.630500  1.0  -0.1516
  C  C545  1  0.769200  0.481500  0.584000  1.0  -0.0854
  C  C546  1  0.765400  0.489100  0.558600  1.0  -0.0368
  C  C547  1  0.734800  0.475000  0.545300  1.0  -0.0693
  C  C548  1  0.708000  0.453200  0.557600  1.0  -0.1142
  C  C549  1  0.711800  0.445500  0.583100  1.0  -0.068
  C  C550  1  0.742400  0.459700  0.596300  1.0  -0.071
  C  C551  1  0.533700  0.160100  0.852900  1.0  -0.1354
  C  C552  1  0.539500  0.189100  0.834600  1.0  -0.0777
  C  C553  1  0.555500  0.174800  0.811000  1.0  -0.0633
  C  C554  1  0.565100  0.131400  0.806000  1.0  -0.1392
  C  C555  1  0.557000  0.109200  0.827100  1.0  -0.0401
  C  C556  1  0.544700  0.123200  0.852700  1.0  -0.0753
  C  C557  1  0.564900  0.909800  0.863800  1.0  -0.0852
  C  C558  1  0.558000  0.908800  0.838100  1.0  -0.0954
  C  C559  1  0.583800  0.891900  0.822100  1.0  -0.1325
  C  C560  1  0.616500  0.876100  0.831700  1.0  -0.1313
  C  C561  1  0.623400  0.877000  0.857400  1.0  -0.0765
  C  C562  1  0.597600  0.893900  0.873400  1.0  -0.0475
  C  C563  1  0.411100  0.177200  0.921400  1.0  -0.1697
  C  C564  1  0.370500  0.166000  0.927100  1.0  -0.1001
  C  C565  1  0.339100  0.192000  0.911400  1.0  -0.1305
  C  C566  1  0.351800  0.220000  0.895300  1.0  -0.1651
  C  C567  1  0.401300  0.226100  0.898700  1.0  -0.0688
  C  C568  1  0.424200  0.204600  0.906900  1.0  0.1151
  C  C569  1  0.612800  0.026900  0.870500  1.0  -0.0497
  C  C570  1  0.625100  0.990200  0.866800  1.0  -0.0621
  C  C571  1  0.649000  0.981800  0.846900  1.0  -0.0625
  C  C572  1  0.660600  0.010100  0.830700  1.0  -0.0938
  C  C573  1  0.648300  0.046900  0.834400  1.0  -0.1225
  C  C574  1  0.624400  0.055200  0.854200  1.0  -0.0617
  C  C575  1  0.676100  0.851900  0.981800  1.0  -0.1012
  C  C576  1  0.696700  0.869500  0.965600  1.0  -0.041
  C  C577  1  0.726700  0.969600  0.982700  1.0  -0.1244
  C  C578  1  0.755400  0.957500  0.998200  1.0  -0.0871
  C  C579  1  0.789200  0.942600  0.985500  1.0  -0.1147
  C  C580  1  0.787500  0.948100  0.957900  1.0  -0.0013
  C  C581  1  0.759000  0.956800  0.940900  1.0  -0.1093
  C  C582  1  0.729600  0.973700  0.955400  1.0  -0.0016
  C  C583  1  0.719200  0.859600  0.048800  1.0  -0.149
  C  C584  1  0.686900  0.835700  0.052000  1.0  -0.0074
  C  C585  1  0.689700  0.796200  0.051000  1.0  -0.1286
  C  C586  1  0.725300  0.784700  0.045500  1.0  -0.0421
  C  C587  1  0.753000  0.808300  0.035900  1.0  0.0025
  C  C588  1  0.756800  0.844500  0.039700  1.0  -0.0733
  C  C589  1  0.525900  0.887800  0.130900  1.0  -0.1095
  C  C590  1  0.514900  0.856600  0.119500  1.0  -0.0422
  C  C591  1  0.628800  0.906600  0.143000  1.0  -0.1454
  C  C592  1  0.597800  0.064200  0.129800  1.0  -0.1927
  C  C593  1  0.572200  0.101500  0.130500  1.0  -0.152
  C  C594  1  0.730800  0.018500  0.084000  1.0  -0.0843
  C  C595  1  0.734600  0.010900  0.058600  1.0  -0.0367
  C  C596  1  0.765200  0.025000  0.045300  1.0  -0.071
  C  C597  1  0.792000  0.046800  0.057600  1.0  -0.1123
  C  C598  1  0.788200  0.054500  0.083100  1.0  -0.0701
  C  C599  1  0.757600  0.040300  0.096300  1.0  -0.0718
  C  C600  1  0.033700  0.660100  0.352900  1.0  -0.1354
  C  C601  1  0.039500  0.689100  0.334600  1.0  -0.0777
  C  C602  1  0.055500  0.674800  0.311000  1.0  -0.0633
  C  C603  1  0.065100  0.631400  0.306000  1.0  -0.1392
  C  C604  1  0.057000  0.609200  0.327100  1.0  -0.0401
  C  C605  1  0.044700  0.623200  0.352700  1.0  -0.0753
  C  C606  1  0.064900  0.409800  0.363800  1.0  -0.0852
  C  C607  1  0.058000  0.408800  0.338100  1.0  -0.0954
  C  C608  1  0.083800  0.391900  0.322100  1.0  -0.1325
  C  C609  1  0.116500  0.376100  0.331700  1.0  -0.1313
  C  C610  1  0.123400  0.377000  0.357400  1.0  -0.0765
  C  C611  1  0.097600  0.393900  0.373400  1.0  -0.0475
  C  C612  1  0.911100  0.677200  0.421400  1.0  -0.1697
  C  C613  1  0.870500  0.666000  0.427100  1.0  -0.1001
  C  C614  1  0.839100  0.692000  0.411400  1.0  -0.1305
  C  C615  1  0.851800  0.720000  0.395300  1.0  -0.1651
  C  C616  1  0.901300  0.726100  0.398700  1.0  -0.0708
  C  C617  1  0.924200  0.704600  0.406900  1.0  0.1151
  C  C618  1  0.112800  0.526900  0.370500  1.0  -0.0497
  C  C619  1  0.125100  0.490200  0.366800  1.0  -0.0621
  C  C620  1  0.149000  0.481800  0.346900  1.0  -0.0625
  C  C621  1  0.160600  0.510100  0.330700  1.0  -0.0938
  C  C622  1  0.148300  0.546900  0.334400  1.0  -0.1225
  C  C623  1  0.124400  0.555200  0.354200  1.0  -0.0617
  C  C624  1  0.176100  0.351900  0.481800  1.0  -0.1012
  C  C625  1  0.196700  0.369500  0.465600  1.0  -0.041
  C  C626  1  0.226700  0.469600  0.482700  1.0  -0.1244
  C  C627  1  0.255400  0.457500  0.498200  1.0  -0.0871
  C  C628  1  0.289200  0.442600  0.485500  1.0  -0.1147
  C  C629  1  0.287500  0.448100  0.457900  1.0  -0.0013
  C  C630  1  0.259000  0.456800  0.440900  1.0  -0.1093
  C  C631  1  0.229600  0.473700  0.455400  1.0  -0.0016
  C  C632  1  0.219200  0.359600  0.548800  1.0  -0.149
  C  C633  1  0.186900  0.335700  0.552000  1.0  -0.0074
  C  C634  1  0.189700  0.296200  0.551000  1.0  -0.1302
  C  C635  1  0.225300  0.284700  0.545500  1.0  -0.0433
  C  C636  1  0.253000  0.308300  0.535900  1.0  0.0067
  C  C637  1  0.256800  0.344500  0.539700  1.0  -0.0733
  C  C638  1  0.025900  0.387800  0.630900  1.0  -0.1095
  C  C639  1  0.014900  0.356600  0.619500  1.0  -0.0422
  C  C640  1  0.128800  0.406600  0.643000  1.0  -0.1454
  C  C641  1  0.097800  0.564200  0.629800  1.0  -0.1927
  C  C642  1  0.072200  0.601500  0.630500  1.0  -0.152
  C  C643  1  0.230800  0.518500  0.584000  1.0  -0.0843
  C  C644  1  0.234600  0.510900  0.558600  1.0  -0.0367
  C  C645  1  0.265200  0.525000  0.545300  1.0  -0.071
  C  C646  1  0.292000  0.546800  0.557600  1.0  -0.1123
  C  C647  1  0.288200  0.554500  0.583100  1.0  -0.0701
  C  C648  1  0.257600  0.540300  0.596300  1.0  -0.0718
  C  C649  1  0.033700  0.839900  0.897100  1.0  -0.1338
  C  C650  1  0.039500  0.810900  0.915400  1.0  -0.0788
  C  C651  1  0.055500  0.825200  0.939000  1.0  -0.0667
  C  C652  1  0.065100  0.868600  0.944000  1.0  -0.1328
  C  C653  1  0.057000  0.890800  0.922900  1.0  -0.0415
  C  C654  1  0.044700  0.876800  0.897300  1.0  -0.0745
  C  C655  1  0.064900  0.090200  0.886200  1.0  -0.0851
  C  C656  1  0.058000  0.091200  0.911900  1.0  -0.0957
  C  C657  1  0.083800  0.108100  0.927900  1.0  -0.1375
  C  C658  1  0.116500  0.123900  0.918300  1.0  -0.1281
  C  C659  1  0.123400  0.123000  0.892600  1.0  -0.0771
  C  C660  1  0.097600  0.106100  0.876600  1.0  -0.0417
  C  C661  1  0.911100  0.822800  0.828600  1.0  -0.1663
  C  C662  1  0.870500  0.834000  0.822900  1.0  -0.0959
  C  C663  1  0.839100  0.808000  0.838600  1.0  -0.1306
  C  C664  1  0.851800  0.780000  0.854700  1.0  -0.1677
  C  C665  1  0.901300  0.773900  0.851300  1.0  -0.073
  C  C666  1  0.924200  0.795400  0.843100  1.0  0.1156
  C  C667  1  0.112800  0.973100  0.879500  1.0  -0.0512
  C  C668  1  0.125100  0.009800  0.883200  1.0  -0.0635
  C  C669  1  0.149000  0.018200  0.903100  1.0  -0.066
  C  C670  1  0.160600  0.989900  0.919300  1.0  -0.0933
  C  C671  1  0.148300  0.953100  0.915600  1.0  -0.1206
  C  C672  1  0.124400  0.944800  0.895800  1.0  -0.0609
  C  C673  1  0.176100  0.148100  0.768200  1.0  -0.0991
  C  C674  1  0.196700  0.130500  0.784400  1.0  -0.044
  C  C675  1  0.226700  0.030400  0.767300  1.0  -0.1247
  C  C676  1  0.255400  0.042500  0.751800  1.0  -0.0888
  C  C677  1  0.289200  0.057400  0.764500  1.0  -0.1136
  C  C678  1  0.287500  0.051900  0.792100  1.0  -0.0012
  C  C679  1  0.259000  0.043200  0.809100  1.0  -0.1143
  C  C680  1  0.229600  0.026300  0.794600  1.0  -0.0045
  C  C681  1  0.219200  0.140400  0.701200  1.0  -0.1493
  C  C682  1  0.186900  0.164300  0.698000  1.0  -0.006
  C  C683  1  0.189700  0.203800  0.699000  1.0  -0.127
  C  C684  1  0.225300  0.215300  0.704500  1.0  -0.0442
  C  C685  1  0.253000  0.191700  0.714100  1.0  0.0055
  C  C686  1  0.256800  0.155500  0.710300  1.0  -0.072
  C  C687  1  0.025900  0.112200  0.619100  1.0  -0.1103
  C  C688  1  0.014900  0.143400  0.630500  1.0  -0.0425
  C  C689  1  0.128800  0.093400  0.607000  1.0  -0.1446
  C  C690  1  0.097800  0.935800  0.620200  1.0  -0.1915
  C  C691  1  0.072200  0.898500  0.619500  1.0  -0.153
  C  C692  1  0.230800  0.981500  0.666000  1.0  -0.0834
  C  C693  1  0.234600  0.989100  0.691400  1.0  -0.0399
  C  C694  1  0.265200  0.975000  0.704700  1.0  -0.0719
  C  C695  1  0.292000  0.953200  0.692400  1.0  -0.1089
  C  C696  1  0.288200  0.945500  0.666900  1.0  -0.0671
  C  C697  1  0.257600  0.959700  0.653700  1.0  -0.073
  C  C698  1  0.533700  0.339900  0.397100  1.0  -0.1338
  C  C699  1  0.539500  0.310900  0.415400  1.0  -0.0788
  C  C700  1  0.555500  0.325200  0.439000  1.0  -0.0667
  C  C701  1  0.565100  0.368600  0.444000  1.0  -0.1328
  C  C702  1  0.557000  0.390800  0.422900  1.0  -0.0415
  C  C703  1  0.544700  0.376800  0.397300  1.0  -0.0745
  C  C704  1  0.564900  0.590200  0.386200  1.0  -0.0851
  C  C705  1  0.558000  0.591200  0.411900  1.0  -0.0957
  C  C706  1  0.583800  0.608100  0.427900  1.0  -0.1375
  C  C707  1  0.616500  0.623900  0.418300  1.0  -0.1281
  C  C708  1  0.623400  0.623000  0.392600  1.0  -0.0771
  C  C709  1  0.597600  0.606100  0.376600  1.0  -0.0417
  C  C710  1  0.411100  0.322800  0.328600  1.0  -0.1663
  C  C711  1  0.370500  0.334000  0.322900  1.0  -0.0959
  C  C712  1  0.339100  0.308000  0.338600  1.0  -0.1306
  C  C713  1  0.351800  0.280000  0.354700  1.0  -0.1677
  C  C714  1  0.401300  0.273900  0.351300  1.0  -0.073
  C  C715  1  0.424200  0.295400  0.343100  1.0  0.1156
  C  C716  1  0.612800  0.473100  0.379500  1.0  -0.0512
  C  C717  1  0.625100  0.509800  0.383200  1.0  -0.0635
  C  C718  1  0.649000  0.518200  0.403100  1.0  -0.066
  C  C719  1  0.660600  0.489900  0.419300  1.0  -0.0933
  C  C720  1  0.648300  0.453100  0.415600  1.0  -0.1206
  C  C721  1  0.624400  0.444800  0.395800  1.0  -0.0609
  C  C722  1  0.676100  0.648100  0.268200  1.0  -0.0991
  C  C723  1  0.696700  0.630500  0.284400  1.0  -0.044
  C  C724  1  0.726700  0.530400  0.267300  1.0  -0.1247
  C  C725  1  0.755400  0.542500  0.251800  1.0  -0.0888
  C  C726  1  0.789200  0.557400  0.264500  1.0  -0.1136
  C  C727  1  0.787500  0.551900  0.292100  1.0  -0.0012
  C  C728  1  0.759000  0.543200  0.309100  1.0  -0.1143
  C  C729  1  0.729600  0.526300  0.294600  1.0  -0.0045
  C  C730  1  0.719200  0.640400  0.201200  1.0  -0.1493
  C  C731  1  0.686900  0.664300  0.198000  1.0  -0.006
  C  C732  1  0.689700  0.703800  0.199000  1.0  -0.127
  C  C733  1  0.725300  0.715300  0.204500  1.0  -0.0442
  C  C734  1  0.753000  0.691700  0.214100  1.0  0.0055
  C  C735  1  0.756800  0.655500  0.210300  1.0  -0.072
  C  C736  1  0.525900  0.612200  0.119100  1.0  -0.1065
  C  C737  1  0.514900  0.643400  0.130500  1.0  -0.0425
  C  C738  1  0.628800  0.593400  0.107000  1.0  -0.146
  C  C739  1  0.597800  0.435800  0.120200  1.0  -0.1891
  C  C740  1  0.572200  0.398500  0.119500  1.0  -0.1548
  C  C741  1  0.730800  0.481500  0.166000  1.0  -0.0834
  C  C742  1  0.734600  0.489100  0.191400  1.0  -0.0399
  C  C743  1  0.765200  0.475000  0.204700  1.0  -0.0719
  C  C744  1  0.792000  0.453200  0.192400  1.0  -0.1089
  C  C745  1  0.788200  0.445500  0.166900  1.0  -0.0671
  C  C746  1  0.757600  0.459700  0.153700  1.0  -0.073
  C  C747  1  0.966300  0.160100  0.897100  1.0  -0.1339
  C  C748  1  0.960500  0.189100  0.915400  1.0  -0.0776
  C  C749  1  0.944500  0.174800  0.939000  1.0  -0.066
  C  C750  1  0.934900  0.131400  0.944000  1.0  -0.1346
  C  C751  1  0.943000  0.109200  0.922900  1.0  -0.0409
  C  C752  1  0.955300  0.123200  0.897300  1.0  -0.0732
  C  C753  1  0.935100  0.909800  0.886200  1.0  -0.0839
  C  C754  1  0.942000  0.908800  0.911900  1.0  -0.0952
  C  C755  1  0.916200  0.891900  0.927900  1.0  -0.1371
  C  C756  1  0.883500  0.876100  0.918300  1.0  -0.1272
  C  C757  1  0.876600  0.877000  0.892600  1.0  -0.0779
  C  C758  1  0.902400  0.893900  0.876600  1.0  -0.0399
  C  C759  1  0.088900  0.177200  0.828600  1.0  -0.1681
  C  C760  1  0.129500  0.166000  0.822900  1.0  -0.0978
  C  C761  1  0.160900  0.192000  0.838600  1.0  -0.1321
  C  C762  1  0.148200  0.220000  0.854700  1.0  -0.1661
  C  C763  1  0.098700  0.226100  0.851300  1.0  -0.0716
  C  C764  1  0.075800  0.204600  0.843100  1.0  0.1137
  C  C765  1  0.887200  0.026900  0.879500  1.0  -0.0505
  C  C766  1  0.874900  0.990200  0.883200  1.0  -0.061
  C  C767  1  0.851000  0.981800  0.903100  1.0  -0.0641
  C  C768  1  0.839400  0.010100  0.919300  1.0  -0.0922
  C  C769  1  0.851700  0.046900  0.915600  1.0  -0.1213
  C  C770  1  0.875600  0.055200  0.895800  1.0  -0.061
  C  C771  1  0.823900  0.851900  0.768200  1.0  -0.0986
  C  C772  1  0.803300  0.869500  0.784400  1.0  -0.0437
  C  C773  1  0.773300  0.969600  0.767300  1.0  -0.1225
  C  C774  1  0.744600  0.957500  0.751800  1.0  -0.0889
  C  C775  1  0.710800  0.942600  0.764500  1.0  -0.1149
  C  C776  1  0.712500  0.948100  0.792100  1.0  -0.0029
  C  C777  1  0.741000  0.956800  0.809100  1.0  -0.1141
  C  C778  1  0.770400  0.973700  0.794600  1.0  -0.0055
  C  C779  1  0.780800  0.859600  0.701200  1.0  -0.1479
  C  C780  1  0.813100  0.835700  0.698000  1.0  -0.0064
  C  C781  1  0.810300  0.796200  0.699000  1.0  -0.128
  C  C782  1  0.774700  0.784700  0.704500  1.0  -0.0437
  C  C783  1  0.747000  0.808300  0.714100  1.0  0.0038
  C  C784  1  0.743200  0.844500  0.710300  1.0  -0.075
  C  C785  1  0.974100  0.887800  0.619100  1.0  -0.1102
  C  C786  1  0.985100  0.856600  0.630500  1.0  -0.0418
  C  C787  1  0.871200  0.906600  0.607000  1.0  -0.1449
  C  C788  1  0.902200  0.064200  0.620200  1.0  -0.1928
  C  C789  1  0.927800  0.101500  0.619500  1.0  -0.1519
  C  C790  1  0.769200  0.018500  0.666000  1.0  -0.0866
  C  C791  1  0.765400  0.010900  0.691400  1.0  -0.0403
  C  C792  1  0.734800  0.025000  0.704700  1.0  -0.0719
  C  C793  1  0.708000  0.046800  0.692400  1.0  -0.111
  C  C794  1  0.711800  0.054500  0.666900  1.0  -0.0697
  C  C795  1  0.742400  0.040300  0.653700  1.0  -0.0733
  C  C796  1  0.466300  0.660100  0.397100  1.0  -0.1339
  C  C797  1  0.460500  0.689100  0.415400  1.0  -0.0776
  C  C798  1  0.444500  0.674800  0.439000  1.0  -0.066
  C  C799  1  0.434900  0.631400  0.444000  1.0  -0.1346
  C  C800  1  0.443000  0.609200  0.422900  1.0  -0.0409
  C  C801  1  0.455300  0.623200  0.397300  1.0  -0.0732
  C  C802  1  0.435100  0.409800  0.386200  1.0  -0.0839
  C  C803  1  0.442000  0.408800  0.411900  1.0  -0.0952
  C  C804  1  0.416200  0.391900  0.427900  1.0  -0.1371
  C  C805  1  0.383500  0.376100  0.418300  1.0  -0.1272
  C  C806  1  0.376600  0.377000  0.392600  1.0  -0.0779
  C  C807  1  0.402400  0.393900  0.376600  1.0  -0.0399
  C  C808  1  0.588900  0.677200  0.328600  1.0  -0.1681
  C  C809  1  0.629500  0.666000  0.322900  1.0  -0.0978
  C  C810  1  0.660900  0.692000  0.338600  1.0  -0.1321
  C  C811  1  0.648200  0.720000  0.354700  1.0  -0.1661
  C  C812  1  0.598700  0.726100  0.351300  1.0  -0.0716
  C  C813  1  0.575800  0.704600  0.343100  1.0  0.1137
  C  C814  1  0.387200  0.526900  0.379500  1.0  -0.0505
  C  C815  1  0.374900  0.490200  0.383200  1.0  -0.061
  C  C816  1  0.351000  0.481800  0.403100  1.0  -0.0641
  C  C817  1  0.339400  0.510100  0.419300  1.0  -0.0922
  C  C818  1  0.351700  0.546900  0.415600  1.0  -0.1213
  C  C819  1  0.375600  0.555200  0.395800  1.0  -0.061
  C  C820  1  0.323900  0.351900  0.268200  1.0  -0.0986
  C  C821  1  0.303300  0.369500  0.284400  1.0  -0.0437
  C  C822  1  0.273300  0.469600  0.267300  1.0  -0.1225
  C  C823  1  0.244600  0.457500  0.251800  1.0  -0.0889
  C  C824  1  0.210800  0.442600  0.264500  1.0  -0.1149
  C  C825  1  0.212500  0.448100  0.292100  1.0  -0.0029
  C  C826  1  0.241000  0.456800  0.309100  1.0  -0.1141
  C  C827  1  0.270400  0.473700  0.294600  1.0  -0.0055
  C  C828  1  0.280800  0.359600  0.201200  1.0  -0.1479
  C  C829  1  0.313100  0.335700  0.198000  1.0  -0.0064
  C  C830  1  0.310300  0.296200  0.199000  1.0  -0.128
  C  C831  1  0.274700  0.284700  0.204500  1.0  -0.0437
  C  C832  1  0.247000  0.308300  0.214100  1.0  0.0038
  C  C833  1  0.243200  0.344500  0.210300  1.0  -0.075
  C  C834  1  0.474100  0.387800  0.119100  1.0  -0.1059
  C  C835  1  0.485100  0.356600  0.130500  1.0  -0.0418
  C  C836  1  0.371200  0.406600  0.107000  1.0  -0.1463
  C  C837  1  0.402200  0.564200  0.120200  1.0  -0.1903
  C  C838  1  0.427800  0.601500  0.119500  1.0  -0.1537
  C  C839  1  0.269200  0.518500  0.166000  1.0  -0.0866
  C  C840  1  0.265400  0.510900  0.191400  1.0  -0.0403
  C  C841  1  0.234800  0.525000  0.204700  1.0  -0.0719
  C  C842  1  0.208000  0.546800  0.192400  1.0  -0.111
  C  C843  1  0.211800  0.554500  0.166900  1.0  -0.0697
  C  C844  1  0.242400  0.540300  0.153700  1.0  -0.0733
  C  C845  1  0.339900  0.033700  0.647100  1.0  -0.1332
  C  C846  1  0.310900  0.039500  0.665400  1.0  -0.0785
  C  C847  1  0.325200  0.055500  0.689000  1.0  -0.0669
  C  C848  1  0.368600  0.065100  0.694000  1.0  -0.1337
  C  C849  1  0.390800  0.057000  0.672900  1.0  -0.0396
  C  C850  1  0.376800  0.044700  0.647300  1.0  -0.0727
  C  C851  1  0.590200  0.064900  0.636200  1.0  -0.0857
  C  C852  1  0.591200  0.058000  0.661900  1.0  -0.0954
  C  C853  1  0.608100  0.083800  0.677900  1.0  -0.1367
  C  C854  1  0.623900  0.116500  0.668300  1.0  -0.1278
  C  C855  1  0.623000  0.123400  0.642600  1.0  -0.0765
  C  C856  1  0.606100  0.097600  0.626600  1.0  -0.0423
  C  C857  1  0.322800  0.911100  0.578600  1.0  -0.1661
  C  C858  1  0.334000  0.870500  0.572900  1.0  -0.0981
  C  C859  1  0.308000  0.839100  0.588600  1.0  -0.1338
  C  C860  1  0.280000  0.851800  0.604700  1.0  -0.1667
  C  C861  1  0.273900  0.901300  0.601300  1.0  -0.0697
  C  C862  1  0.295400  0.924200  0.593100  1.0  0.1111
  C  C863  1  0.473100  0.112800  0.629500  1.0  -0.0509
  C  C864  1  0.509800  0.125100  0.633200  1.0  -0.0594
  C  C865  1  0.518200  0.149000  0.653100  1.0  -0.0634
  C  C866  1  0.489900  0.160600  0.669300  1.0  -0.0967
  C  C867  1  0.453100  0.148300  0.665600  1.0  -0.1216
  C  C868  1  0.444800  0.124400  0.645800  1.0  -0.0586
  C  C869  1  0.648100  0.176100  0.518200  1.0  -0.0973
  C  C870  1  0.630500  0.196700  0.534400  1.0  -0.0459
  C  C871  1  0.530400  0.226700  0.517300  1.0  -0.1248
  C  C872  1  0.542500  0.255400  0.501800  1.0  -0.088
  C  C873  1  0.557400  0.289200  0.514500  1.0  -0.1132
  C  C874  1  0.551900  0.287500  0.542100  1.0  -0.0032
  C  C875  1  0.543200  0.259000  0.559100  1.0  -0.1138
  C  C876  1  0.526300  0.229600  0.544600  1.0  -0.007
  C  C877  1  0.640400  0.219200  0.451200  1.0  -0.1464
  C  C878  1  0.664300  0.186900  0.448000  1.0  -0.0057
  C  C879  1  0.703800  0.189700  0.449000  1.0  -0.1279
  C  C880  1  0.715300  0.225300  0.454500  1.0  -0.0457
  C  C881  1  0.691700  0.253000  0.464100  1.0  0.0038
  C  C882  1  0.655500  0.256800  0.460300  1.0  -0.0747
  C  C883  1  0.612200  0.025900  0.369100  1.0  -0.1114
  C  C884  1  0.643400  0.014900  0.380500  1.0  -0.0418
  C  C885  1  0.593400  0.128800  0.357000  1.0  -0.1451
  C  C886  1  0.435800  0.097800  0.370200  1.0  -0.1919
  C  C887  1  0.398500  0.072200  0.369500  1.0  -0.1502
  C  C888  1  0.481500  0.230800  0.416000  1.0  -0.0854
  C  C889  1  0.489100  0.234600  0.441400  1.0  -0.0388
  C  C890  1  0.475000  0.265200  0.454700  1.0  -0.0738
  C  C891  1  0.453200  0.292000  0.442400  1.0  -0.1135
  C  C892  1  0.445500  0.288200  0.416900  1.0  -0.0719
  C  C893  1  0.459700  0.257600  0.403700  1.0  -0.0718
  C  C894  1  0.839900  0.533700  0.147100  1.0  -0.1332
  C  C895  1  0.810900  0.539500  0.165400  1.0  -0.0785
  C  C896  1  0.825200  0.555500  0.189000  1.0  -0.0669
  C  C897  1  0.868600  0.565100  0.194000  1.0  -0.1337
  C  C898  1  0.890800  0.557000  0.172900  1.0  -0.0396
  C  C899  1  0.876800  0.544700  0.147300  1.0  -0.0727
  C  C900  1  0.090200  0.564900  0.136200  1.0  -0.0857
  C  C901  1  0.091200  0.558000  0.161900  1.0  -0.0954
  C  C902  1  0.108100  0.583800  0.177900  1.0  -0.1367
  C  C903  1  0.123900  0.616500  0.168300  1.0  -0.1278
  C  C904  1  0.123000  0.623400  0.142600  1.0  -0.0765
  C  C905  1  0.106100  0.597600  0.126600  1.0  -0.0423
  C  C906  1  0.822800  0.411100  0.078600  1.0  -0.1661
  C  C907  1  0.834000  0.370500  0.072900  1.0  -0.0981
  C  C908  1  0.808000  0.339100  0.088600  1.0  -0.1338
  C  C909  1  0.780000  0.351800  0.104700  1.0  -0.1667
  C  C910  1  0.773900  0.401300  0.101300  1.0  -0.0681
  C  C911  1  0.795400  0.424200  0.093100  1.0  0.1111
  C  C912  1  0.973100  0.612800  0.129500  1.0  -0.0509
  C  C913  1  0.009800  0.625100  0.133200  1.0  -0.0594
  C  C914  1  0.018200  0.649000  0.153100  1.0  -0.0634
  C  C915  1  0.989900  0.660600  0.169300  1.0  -0.0967
  C  C916  1  0.953100  0.648300  0.165600  1.0  -0.1216
  C  C917  1  0.944800  0.624400  0.145800  1.0  -0.0586
  C  C918  1  0.148100  0.676100  0.018200  1.0  -0.0973
  C  C919  1  0.130500  0.696700  0.034400  1.0  -0.0459
  C  C920  1  0.030400  0.726700  0.017300  1.0  -0.1248
  C  C921  1  0.042500  0.755400  0.001800  1.0  -0.088
  C  C922  1  0.057400  0.789200  0.014500  1.0  -0.1132
  C  C923  1  0.051900  0.787500  0.042100  1.0  -0.0032
  C  C924  1  0.043200  0.759000  0.059100  1.0  -0.1138
  C  C925  1  0.026300  0.729600  0.044600  1.0  -0.007
  C  C926  1  0.140400  0.719200  0.951200  1.0  -0.1464
  C  C927  1  0.164300  0.686900  0.948000  1.0  -0.0057
  C  C928  1  0.203800  0.689700  0.949000  1.0  -0.1268
  C  C929  1  0.215300  0.725300  0.954500  1.0  -0.0448
  C  C930  1  0.191700  0.753000  0.964100  1.0  0.0002
  C  C931  1  0.155500  0.756800  0.960300  1.0  -0.0747
  C  C932  1  0.112200  0.525900  0.869100  1.0  -0.1114
  C  C933  1  0.143400  0.514900  0.880500  1.0  -0.0418
  C  C934  1  0.093400  0.628800  0.857000  1.0  -0.1451
  C  C935  1  0.935800  0.597800  0.870200  1.0  -0.1919
  C  C936  1  0.898500  0.572200  0.869500  1.0  -0.1502
  C  C937  1  0.981500  0.730800  0.916000  1.0  -0.0854
  C  C938  1  0.989100  0.734600  0.941400  1.0  -0.0388
  C  C939  1  0.975000  0.765200  0.954700  1.0  -0.0738
  C  C940  1  0.953200  0.792000  0.942400  1.0  -0.1135
  C  C941  1  0.945500  0.788200  0.916900  1.0  -0.0719
  C  C942  1  0.959700  0.757600  0.903700  1.0  -0.0718
  C  C943  1  0.660100  0.966300  0.647100  1.0  -0.1331
  C  C944  1  0.689100  0.960500  0.665400  1.0  -0.0766
  C  C945  1  0.674800  0.944500  0.689000  1.0  -0.0657
  C  C946  1  0.631400  0.934900  0.694000  1.0  -0.1349
  C  C947  1  0.609200  0.943000  0.672900  1.0  -0.0404
  C  C948  1  0.623200  0.955300  0.647300  1.0  -0.0726
  C  C949  1  0.409800  0.935100  0.636200  1.0  -0.086
  C  C950  1  0.408800  0.942000  0.661900  1.0  -0.0941
  C  C951  1  0.391900  0.916200  0.677900  1.0  -0.1376
  C  C952  1  0.376100  0.883500  0.668300  1.0  -0.1291
  C  C953  1  0.377000  0.876600  0.642600  1.0  -0.0769
  C  C954  1  0.393900  0.902400  0.626600  1.0  -0.0431
  C  C955  1  0.677200  0.088900  0.578600  1.0  -0.1669
  C  C956  1  0.666000  0.129500  0.572900  1.0  -0.0962
  C  C957  1  0.692000  0.160900  0.588600  1.0  -0.1343
  C  C958  1  0.720000  0.148200  0.604700  1.0  -0.1668
  C  C959  1  0.726100  0.098700  0.601300  1.0  -0.0688
  C  C960  1  0.704600  0.075800  0.593100  1.0  0.1143
  C  C961  1  0.526900  0.887200  0.629500  1.0  -0.0509
  C  C962  1  0.490200  0.874900  0.633200  1.0  -0.0582
  C  C963  1  0.481800  0.851000  0.653100  1.0  -0.0632
  C  C964  1  0.510100  0.839400  0.669300  1.0  -0.0949
  C  C965  1  0.546900  0.851700  0.665600  1.0  -0.1192
  C  C966  1  0.555200  0.875600  0.645800  1.0  -0.0577
  C  C967  1  0.351900  0.823900  0.518200  1.0  -0.0977
  C  C968  1  0.369500  0.803300  0.534400  1.0  -0.0444
  C  C969  1  0.469600  0.773300  0.517300  1.0  -0.1238
  C  C970  1  0.457500  0.744600  0.501800  1.0  -0.0888
  C  C971  1  0.442600  0.710800  0.514500  1.0  -0.1122
  C  C972  1  0.448100  0.712500  0.542100  1.0  -0.0036
  C  C973  1  0.456800  0.741000  0.559100  1.0  -0.1144
  C  C974  1  0.473700  0.770400  0.544600  1.0  -0.0069
  C  C975  1  0.359600  0.780800  0.451200  1.0  -0.1461
  C  C976  1  0.335700  0.813100  0.448000  1.0  -0.0063
  C  C977  1  0.296200  0.810300  0.449000  1.0  -0.1283
  C  C978  1  0.284700  0.774700  0.454500  1.0  -0.0435
  C  C979  1  0.308300  0.747000  0.464100  1.0  0.0028
  C  C980  1  0.344500  0.743200  0.460300  1.0  -0.0722
  C  C981  1  0.387800  0.974100  0.369100  1.0  -0.1093
  C  C982  1  0.356600  0.985100  0.380500  1.0  -0.0404
  C  C983  1  0.406600  0.871200  0.357000  1.0  -0.1445
  C  C984  1  0.564200  0.902200  0.370200  1.0  -0.1938
  C  C985  1  0.601500  0.927800  0.369500  1.0  -0.1507
  C  C986  1  0.518500  0.769200  0.416000  1.0  -0.0842
  C  C987  1  0.510900  0.765400  0.441400  1.0  -0.0397
  C  C988  1  0.525000  0.734800  0.454700  1.0  -0.073
  C  C989  1  0.546800  0.708000  0.442400  1.0  -0.1124
  C  C990  1  0.554500  0.711800  0.416900  1.0  -0.0695
  C  C991  1  0.540300  0.742400  0.403700  1.0  -0.0718
  C  C992  1  0.160100  0.466300  0.147100  1.0  -0.1331
  C  C993  1  0.189100  0.460500  0.165400  1.0  -0.0766
  C  C994  1  0.174800  0.444500  0.189000  1.0  -0.0657
  C  C995  1  0.131400  0.434900  0.194000  1.0  -0.1349
  C  C996  1  0.109200  0.443000  0.172900  1.0  -0.0404
  C  C997  1  0.123200  0.455300  0.147300  1.0  -0.0726
  C  C998  1  0.909800  0.435100  0.136200  1.0  -0.086
  C  C999  1  0.908800  0.442000  0.161900  1.0  -0.0941
  C  C1000  1  0.891900  0.416200  0.177900  1.0  -0.1376
  C  C1001  1  0.876100  0.383500  0.168300  1.0  -0.1291
  C  C1002  1  0.877000  0.376600  0.142600  1.0  -0.0769
  C  C1003  1  0.893900  0.402400  0.126600  1.0  -0.0431
  C  C1004  1  0.177200  0.588900  0.078600  1.0  -0.1669
  C  C1005  1  0.166000  0.629500  0.072900  1.0  -0.0962
  C  C1006  1  0.192000  0.660900  0.088600  1.0  -0.1343
  C  C1007  1  0.220000  0.648200  0.104700  1.0  -0.1668
  C  C1008  1  0.226100  0.598700  0.101300  1.0  -0.0672
  C  C1009  1  0.204600  0.575800  0.093100  1.0  0.1143
  C  C1010  1  0.026900  0.387200  0.129500  1.0  -0.0509
  C  C1011  1  0.990200  0.374900  0.133200  1.0  -0.0582
  C  C1012  1  0.981800  0.351000  0.153100  1.0  -0.0632
  C  C1013  1  0.010100  0.339400  0.169300  1.0  -0.0949
  C  C1014  1  0.046900  0.351700  0.165600  1.0  -0.1192
  C  C1015  1  0.055200  0.375600  0.145800  1.0  -0.0577
  C  C1016  1  0.851900  0.323900  0.018200  1.0  -0.0977
  C  C1017  1  0.869500  0.303300  0.034400  1.0  -0.0444
  C  C1018  1  0.969600  0.273300  0.017300  1.0  -0.1238
  C  C1019  1  0.957500  0.244600  0.001800  1.0  -0.0888
  C  C1020  1  0.942600  0.210800  0.014500  1.0  -0.1122
  C  C1021  1  0.948100  0.212500  0.042100  1.0  -0.0036
  C  C1022  1  0.956800  0.241000  0.059100  1.0  -0.1144
  C  C1023  1  0.973700  0.270400  0.044600  1.0  -0.0069
  C  C1024  1  0.859600  0.280800  0.951200  1.0  -0.1461
  C  C1025  1  0.835700  0.313100  0.948000  1.0  -0.0063
  C  C1026  1  0.796200  0.310300  0.949000  1.0  -0.1271
  C  C1027  1  0.784700  0.274700  0.954500  1.0  -0.0423
  C  C1028  1  0.808300  0.247000  0.964100  1.0  -0.0011
  C  C1029  1  0.844500  0.243200  0.960300  1.0  -0.0722
  C  C1030  1  0.887800  0.474100  0.869100  1.0  -0.1093
  C  C1031  1  0.856600  0.485100  0.880500  1.0  -0.0404
  C  C1032  1  0.906600  0.371200  0.857000  1.0  -0.1445
  C  C1033  1  0.064200  0.402200  0.870200  1.0  -0.1938
  C  C1034  1  0.101500  0.427800  0.869500  1.0  -0.1507
  C  C1035  1  0.018500  0.269200  0.916000  1.0  -0.0842
  C  C1036  1  0.010900  0.265400  0.941400  1.0  -0.0397
  C  C1037  1  0.025000  0.234800  0.954700  1.0  -0.073
  C  C1038  1  0.046800  0.208000  0.942400  1.0  -0.1124
  C  C1039  1  0.054500  0.211800  0.916900  1.0  -0.0695
  C  C1040  1  0.040300  0.242400  0.903700  1.0  -0.0718
  Se  Se1041  1  0.110450  0.044220  0.191870  1.0  0.1526
  Se  Se1042  1  0.078270  0.966330  0.246280  1.0  0.1252
  Se  Se1043  1  0.034380  0.080890  0.245680  1.0  0.1032
  Se  Se1044  1  0.959490  0.111350  0.301120  1.0  0.1312
  Se  Se1045  1  0.950420  0.117750  0.186440  1.0  -0.1017
  Se  Se1046  1  0.118020  0.046260  0.306310  1.0  -0.1988
  Se  Se1047  1  0.610450  0.544220  0.691870  1.0  0.1526
  Se  Se1048  1  0.578270  0.466330  0.746280  1.0  0.1252
  Se  Se1049  1  0.534380  0.580890  0.745680  1.0  0.1032
  Se  Se1050  1  0.459490  0.611350  0.801120  1.0  0.1312
  Se  Se1051  1  0.450420  0.617750  0.686440  1.0  -0.1017
  Se  Se1052  1  0.618020  0.546260  0.806310  1.0  -0.1988
  Se  Se1053  1  0.889550  0.955780  0.191870  1.0  0.1532
  Se  Se1054  1  0.921730  0.033670  0.246280  1.0  0.1254
  Se  Se1055  1  0.965620  0.919110  0.245680  1.0  0.1021
  Se  Se1056  1  0.040510  0.888650  0.301120  1.0  0.1302
  Se  Se1057  1  0.049580  0.882250  0.186440  1.0  -0.1027
  Se  Se1058  1  0.881980  0.953740  0.306310  1.0  -0.1996
  Se  Se1059  1  0.389550  0.455780  0.691870  1.0  0.1532
  Se  Se1060  1  0.421730  0.533670  0.746280  1.0  0.1254
  Se  Se1061  1  0.465620  0.419110  0.745680  1.0  0.1021
  Se  Se1062  1  0.540510  0.388650  0.801120  1.0  0.1302
  Se  Se1063  1  0.549580  0.382250  0.686440  1.0  -0.1027
  Se  Se1064  1  0.381980  0.453740  0.806310  1.0  -0.1996
  Se  Se1065  1  0.455780  0.889550  0.941870  1.0  0.1528
  Se  Se1066  1  0.533670  0.921730  0.996280  1.0  0.1258
  Se  Se1067  1  0.419110  0.965620  0.995680  1.0  0.1027
  Se  Se1068  1  0.388650  0.040510  0.051120  1.0  0.1291
  Se  Se1069  1  0.382250  0.049580  0.936440  1.0  -0.1041
  Se  Se1070  1  0.453740  0.881980  0.056310  1.0  -0.2001
  Se  Se1071  1  0.955780  0.389550  0.441870  1.0  0.1528
  Se  Se1072  1  0.033670  0.421730  0.496280  1.0  0.1258
  Se  Se1073  1  0.919110  0.465620  0.495680  1.0  0.1027
  Se  Se1074  1  0.888650  0.540510  0.551120  1.0  0.1291
  Se  Se1075  1  0.882250  0.549580  0.436440  1.0  -0.1041
  Se  Se1076  1  0.953740  0.381980  0.556310  1.0  -0.2001
  Se  Se1077  1  0.544220  0.110450  0.941870  1.0  0.1529
  Se  Se1078  1  0.466330  0.078270  0.996280  1.0  0.1258
  Se  Se1079  1  0.580890  0.034380  0.995680  1.0  0.1022
  Se  Se1080  1  0.611350  0.959490  0.051120  1.0  0.1308
  Se  Se1081  1  0.617750  0.950420  0.936440  1.0  -0.1046
  Se  Se1082  1  0.546260  0.118020  0.056310  1.0  -0.2
  Se  Se1083  1  0.044220  0.610450  0.441870  1.0  0.1529
  Se  Se1084  1  0.966330  0.578270  0.496280  1.0  0.1258
  Se  Se1085  1  0.080890  0.534380  0.495680  1.0  0.1022
  Se  Se1086  1  0.111350  0.459490  0.551120  1.0  0.1308
  Se  Se1087  1  0.117750  0.450420  0.436440  1.0  -0.1046
  Se  Se1088  1  0.046260  0.618020  0.556310  1.0  -0.2
  Se  Se1089  1  0.000000  0.000000  0.189180  1.0  0.0984
  Se  Se1090  1  0.000000  0.000000  0.303370  1.0  0.1142
  Se  Se1091  1  0.500000  0.500000  0.689180  1.0  0.0984
  Se  Se1092  1  0.500000  0.500000  0.803370  1.0  0.1142
  Se  Se1093  1  0.500000  0.000000  0.939180  1.0  0.0984
  Se  Se1094  1  0.500000  0.000000  0.053370  1.0  0.1142
  Se  Se1095  1  0.000000  0.500000  0.439180  1.0  0.0984
  Se  Se1096  1  0.000000  0.500000  0.553370  1.0  0.1142
  Se  Se1097  1  0.044220  0.889550  0.808130  1.0  0.1529
  Se  Se1098  1  0.966330  0.921730  0.753720  1.0  0.1259
  Se  Se1099  1  0.080890  0.965620  0.754320  1.0  0.1022
  Se  Se1100  1  0.111350  0.040510  0.698880  1.0  0.13
  Se  Se1101  1  0.117750  0.049580  0.813560  1.0  -0.1045
  Se  Se1102  1  0.046260  0.881980  0.693690  1.0  -0.2
  Se  Se1103  1  0.544220  0.389550  0.308130  1.0  0.1529
  Se  Se1104  1  0.466330  0.421730  0.253720  1.0  0.1259
  Se  Se1105  1  0.580890  0.465620  0.254320  1.0  0.1022
  Se  Se1106  1  0.611350  0.540510  0.198880  1.0  0.13
  Se  Se1107  1  0.617750  0.549580  0.313560  1.0  -0.1045
  Se  Se1108  1  0.546260  0.381980  0.193690  1.0  -0.2
  Se  Se1109  1  0.955780  0.110450  0.808130  1.0  0.153
  Se  Se1110  1  0.033670  0.078270  0.753720  1.0  0.1261
  Se  Se1111  1  0.919110  0.034380  0.754320  1.0  0.1027
  Se  Se1112  1  0.888650  0.959490  0.698880  1.0  0.1294
  Se  Se1113  1  0.882250  0.950420  0.813560  1.0  -0.1044
  Se  Se1114  1  0.953740  0.118020  0.693690  1.0  -0.1997
  Se  Se1115  1  0.455780  0.610450  0.308130  1.0  0.153
  Se  Se1116  1  0.533670  0.578270  0.253720  1.0  0.1261
  Se  Se1117  1  0.419110  0.534380  0.254320  1.0  0.1027
  Se  Se1118  1  0.388650  0.459490  0.198880  1.0  0.1294
  Se  Se1119  1  0.382250  0.450420  0.313560  1.0  -0.1044
  Se  Se1120  1  0.453740  0.618020  0.193690  1.0  -0.1997
  Se  Se1121  1  0.389550  0.044220  0.558130  1.0  0.1528
  Se  Se1122  1  0.421730  0.966330  0.503720  1.0  0.1253
  Se  Se1123  1  0.465620  0.080890  0.504320  1.0  0.1024
  Se  Se1124  1  0.540510  0.111350  0.448880  1.0  0.1307
  Se  Se1125  1  0.549580  0.117750  0.563560  1.0  -0.1026
  Se  Se1126  1  0.381980  0.046260  0.443690  1.0  -0.1991
  Se  Se1127  1  0.889550  0.544220  0.058130  1.0  0.1528
  Se  Se1128  1  0.921730  0.466330  0.003720  1.0  0.1253
  Se  Se1129  1  0.965620  0.580890  0.004320  1.0  0.1024
  Se  Se1130  1  0.040510  0.611350  0.948880  1.0  0.1307
  Se  Se1131  1  0.049580  0.617750  0.063560  1.0  -0.1026
  Se  Se1132  1  0.881980  0.546260  0.943690  1.0  -0.1991
  Se  Se1133  1  0.610450  0.955780  0.558130  1.0  0.1532
  Se  Se1134  1  0.578270  0.033670  0.503720  1.0  0.1257
  Se  Se1135  1  0.534380  0.919110  0.504320  1.0  0.103
  Se  Se1136  1  0.459490  0.888650  0.448880  1.0  0.1302
  Se  Se1137  1  0.450420  0.882250  0.563560  1.0  -0.1023
  Se  Se1138  1  0.618020  0.953740  0.443690  1.0  -0.1993
  Se  Se1139  1  0.110450  0.455780  0.058130  1.0  0.1532
  Se  Se1140  1  0.078270  0.533670  0.003720  1.0  0.1257
  Se  Se1141  1  0.034380  0.419110  0.004320  1.0  0.103
  Se  Se1142  1  0.959490  0.388650  0.948880  1.0  0.1302
  Se  Se1143  1  0.950420  0.382250  0.063560  1.0  -0.1023
  Se  Se1144  1  0.118020  0.453740  0.943690  1.0  -0.1993
  Se  Se1145  1  0.000000  0.000000  0.810820  1.0  0.0983
  Se  Se1146  1  0.000000  0.000000  0.696630  1.0  0.1143
  Se  Se1147  1  0.500000  0.500000  0.310820  1.0  0.0983
  Se  Se1148  1  0.500000  0.500000  0.196630  1.0  0.1143
  Se  Se1149  1  0.500000  0.000000  0.560820  1.0  0.0983
  Se  Se1150  1  0.500000  0.000000  0.446630  1.0  0.1143
  Se  Se1151  1  0.000000  0.500000  0.060820  1.0  0.0983
  Se  Se1152  1  0.000000  0.500000  0.946630  1.0  0.1143
  S  S1153  1  0.896700  0.251600  0.369400  1.0  -0.2324
  S  S1154  1  0.177700  0.016600  0.131320  1.0  -0.3406
  S  S1155  1  0.147100  0.127000  0.146070  1.0  -0.3412
  S  S1156  1  0.224600  0.074000  0.193620  1.0  -0.291
  S  S1157  1  0.930500  0.028200  0.133530  1.0  -0.3732
  S  S1158  1  0.152600  0.943500  0.189870  1.0  -0.2985
  S  S1159  1  0.038900  0.077900  0.140530  1.0  -0.2834
  S  S1160  1  0.187800  0.002800  0.248890  1.0  -0.2676
  S  S1161  1  0.059900  0.160100  0.191000  1.0  -0.279
  S  S1162  1  0.141200  0.114400  0.242130  1.0  -0.2861
  S  S1163  1  0.873600  0.136800  0.247250  1.0  -0.3012
  S  S1164  1  0.857200  0.073300  0.300640  1.0  -0.2809
  S  S1165  1  0.986600  0.185800  0.247570  1.0  -0.3375
  S  S1166  1  0.069900  0.155200  0.298130  1.0  -0.299
  S  S1167  1  0.911500  0.215400  0.300810  1.0  -0.3451
  S  S1168  1  0.931600  0.031300  0.359200  1.0  -0.3208
  S  S1169  1  0.890500  0.140500  0.359560  1.0  -0.3386
  S  S1170  1  0.030600  0.080700  0.355120  1.0  -0.3086
  S  S1171  1  0.996900  0.192300  0.351890  1.0  -0.3147
  S  S1172  1  0.396700  0.751600  0.869400  1.0  -0.2324
  S  S1173  1  0.677700  0.516600  0.631320  1.0  -0.3406
  S  S1174  1  0.647100  0.627000  0.646070  1.0  -0.3412
  S  S1175  1  0.724600  0.574000  0.693620  1.0  -0.291
  S  S1176  1  0.430500  0.528200  0.633530  1.0  -0.3732
  S  S1177  1  0.652600  0.443500  0.689870  1.0  -0.2985
  S  S1178  1  0.538900  0.577900  0.640530  1.0  -0.2834
  S  S1179  1  0.687800  0.502800  0.748890  1.0  -0.2676
  S  S1180  1  0.559900  0.660100  0.691000  1.0  -0.279
  S  S1181  1  0.641200  0.614400  0.742130  1.0  -0.2861
  S  S1182  1  0.373600  0.636800  0.747250  1.0  -0.3012
  S  S1183  1  0.357200  0.573300  0.800640  1.0  -0.2809
  S  S1184  1  0.486600  0.685800  0.747570  1.0  -0.3375
  S  S1185  1  0.569900  0.655200  0.798130  1.0  -0.299
  S  S1186  1  0.411500  0.715400  0.800810  1.0  -0.3451
  S  S1187  1  0.431600  0.531300  0.859200  1.0  -0.3208
  S  S1188  1  0.390500  0.640500  0.859560  1.0  -0.3386
  S  S1189  1  0.530600  0.580700  0.855120  1.0  -0.3086
  S  S1190  1  0.496900  0.692300  0.851890  1.0  -0.3147
  S  S1191  1  0.103300  0.748400  0.369400  1.0  -0.2321
  S  S1192  1  0.822300  0.983400  0.131320  1.0  -0.3413
  S  S1193  1  0.852900  0.873000  0.146070  1.0  -0.3425
  S  S1194  1  0.775400  0.926000  0.193620  1.0  -0.2908
  S  S1195  1  0.069500  0.971800  0.133530  1.0  -0.3727
  S  S1196  1  0.847400  0.056500  0.189870  1.0  -0.2992
  S  S1197  1  0.961100  0.922100  0.140530  1.0  -0.2849
  S  S1198  1  0.812200  0.997200  0.248890  1.0  -0.2666
  S  S1199  1  0.940100  0.839900  0.191000  1.0  -0.2803
  S  S1200  1  0.858800  0.885600  0.242130  1.0  -0.2851
  S  S1201  1  0.126400  0.863200  0.247250  1.0  -0.2992
  S  S1202  1  0.142800  0.926700  0.300640  1.0  -0.2806
  S  S1203  1  0.013400  0.814200  0.247570  1.0  -0.3392
  S  S1204  1  0.930100  0.844800  0.298130  1.0  -0.2983
  S  S1205  1  0.088500  0.784600  0.300810  1.0  -0.3455
  S  S1206  1  0.068400  0.968700  0.359200  1.0  -0.3214
  S  S1207  1  0.109500  0.859500  0.359560  1.0  -0.3381
  S  S1208  1  0.969400  0.919300  0.355120  1.0  -0.3072
  S  S1209  1  0.003100  0.807700  0.351890  1.0  -0.3139
  S  S1210  1  0.603300  0.248400  0.869400  1.0  -0.2321
  S  S1211  1  0.322300  0.483400  0.631320  1.0  -0.3413
  S  S1212  1  0.352900  0.373000  0.646070  1.0  -0.3425
  S  S1213  1  0.275400  0.426000  0.693620  1.0  -0.2908
  S  S1214  1  0.569500  0.471800  0.633530  1.0  -0.3727
  S  S1215  1  0.347400  0.556500  0.689870  1.0  -0.2992
  S  S1216  1  0.461100  0.422100  0.640530  1.0  -0.2849
  S  S1217  1  0.312200  0.497200  0.748890  1.0  -0.2666
  S  S1218  1  0.440100  0.339900  0.691000  1.0  -0.2803
  S  S1219  1  0.358800  0.385600  0.742130  1.0  -0.2851
  S  S1220  1  0.626400  0.363200  0.747250  1.0  -0.2992
  S  S1221  1  0.642800  0.426700  0.800640  1.0  -0.2806
  S  S1222  1  0.513400  0.314200  0.747570  1.0  -0.3392
  S  S1223  1  0.430100  0.344800  0.798130  1.0  -0.2983
  S  S1224  1  0.588500  0.284600  0.800810  1.0  -0.3455
  S  S1225  1  0.568400  0.468700  0.859200  1.0  -0.3214
  S  S1226  1  0.609500  0.359500  0.859560  1.0  -0.3381
  S  S1227  1  0.469400  0.419300  0.855120  1.0  -0.3072
  S  S1228  1  0.503100  0.307700  0.851890  1.0  -0.3139
  S  S1229  1  0.248400  0.103300  0.119400  1.0  -0.2321
  S  S1230  1  0.483400  0.822300  0.881320  1.0  -0.3394
  S  S1231  1  0.373000  0.852900  0.896070  1.0  -0.3411
  S  S1232  1  0.426000  0.775400  0.943620  1.0  -0.2845
  S  S1233  1  0.471800  0.069500  0.883530  1.0  -0.3723
  S  S1234  1  0.556500  0.847400  0.939870  1.0  -0.297
  S  S1235  1  0.422100  0.961100  0.890530  1.0  -0.2805
  S  S1236  1  0.497200  0.812200  0.998890  1.0  -0.2687
  S  S1237  1  0.339900  0.940100  0.941000  1.0  -0.2797
  S  S1238  1  0.385600  0.858800  0.992130  1.0  -0.2846
  S  S1239  1  0.363200  0.126400  0.997250  1.0  -0.2981
  S  S1240  1  0.426700  0.142800  0.050640  1.0  -0.2818
  S  S1241  1  0.314200  0.013400  0.997570  1.0  -0.3368
  S  S1242  1  0.344800  0.930100  0.048130  1.0  -0.2969
  S  S1243  1  0.284600  0.088500  0.050810  1.0  -0.3454
  S  S1244  1  0.468700  0.068400  0.109200  1.0  -0.3241
  S  S1245  1  0.359500  0.109500  0.109560  1.0  -0.3395
  S  S1246  1  0.419300  0.969400  0.105120  1.0  -0.3091
  S  S1247  1  0.307700  0.003100  0.101890  1.0  -0.315
  S  S1248  1  0.748400  0.603300  0.619400  1.0  -0.2321
  S  S1249  1  0.983400  0.322300  0.381320  1.0  -0.3394
  S  S1250  1  0.873000  0.352900  0.396070  1.0  -0.3411
  S  S1251  1  0.926000  0.275400  0.443620  1.0  -0.2902
  S  S1252  1  0.971800  0.569500  0.383530  1.0  -0.3723
  S  S1253  1  0.056500  0.347400  0.439870  1.0  -0.297
  S  S1254  1  0.922100  0.461100  0.390530  1.0  -0.2805
  S  S1255  1  0.997200  0.312200  0.498890  1.0  -0.2658
  S  S1256  1  0.839900  0.440100  0.441000  1.0  -0.2797
  S  S1257  1  0.885600  0.358800  0.492130  1.0  -0.2851
  S  S1258  1  0.863200  0.626400  0.497250  1.0  -0.2981
  S  S1259  1  0.926700  0.642800  0.550640  1.0  -0.2818
  S  S1260  1  0.814200  0.513400  0.497570  1.0  -0.3368
  S  S1261  1  0.844800  0.430100  0.548130  1.0  -0.2969
  S  S1262  1  0.784600  0.588500  0.550810  1.0  -0.3454
  S  S1263  1  0.968700  0.568400  0.609200  1.0  -0.3241
  S  S1264  1  0.859500  0.609500  0.609560  1.0  -0.3395
  S  S1265  1  0.919300  0.469400  0.605120  1.0  -0.3091
  S  S1266  1  0.807700  0.503100  0.601890  1.0  -0.315
  S  S1267  1  0.751600  0.896700  0.119400  1.0  -0.2325
  S  S1268  1  0.516600  0.177700  0.881320  1.0  -0.3408
  S  S1269  1  0.627000  0.147100  0.896070  1.0  -0.3412
  S  S1270  1  0.574000  0.224600  0.943620  1.0  -0.2853
  S  S1271  1  0.528200  0.930500  0.883530  1.0  -0.3724
  S  S1272  1  0.443500  0.152600  0.939870  1.0  -0.297
  S  S1273  1  0.577900  0.038900  0.890530  1.0  -0.2831
  S  S1274  1  0.502800  0.187800  0.998890  1.0  -0.2684
  S  S1275  1  0.660100  0.059900  0.941000  1.0  -0.279
  S  S1276  1  0.614400  0.141200  0.992130  1.0  -0.2849
  S  S1277  1  0.636800  0.873600  0.997250  1.0  -0.2984
  S  S1278  1  0.573300  0.857200  0.050640  1.0  -0.2821
  S  S1279  1  0.685800  0.986600  0.997570  1.0  -0.3376
  S  S1280  1  0.655200  0.069900  0.048130  1.0  -0.2982
  S  S1281  1  0.715400  0.911500  0.050810  1.0  -0.3453
  S  S1282  1  0.531300  0.931600  0.109200  1.0  -0.322
  S  S1283  1  0.640500  0.890500  0.109560  1.0  -0.3396
  S  S1284  1  0.580700  0.030600  0.105120  1.0  -0.3093
  S  S1285  1  0.692300  0.996900  0.101890  1.0  -0.3162
  S  S1286  1  0.251600  0.396700  0.619400  1.0  -0.2325
  S  S1287  1  0.016600  0.677700  0.381320  1.0  -0.3408
  S  S1288  1  0.127000  0.647100  0.396070  1.0  -0.3412
  S  S1289  1  0.074000  0.724600  0.443620  1.0  -0.2913
  S  S1290  1  0.028200  0.430500  0.383530  1.0  -0.3724
  S  S1291  1  0.943500  0.652600  0.439870  1.0  -0.297
  S  S1292  1  0.077900  0.538900  0.390530  1.0  -0.2831
  S  S1293  1  0.002800  0.687800  0.498890  1.0  -0.2658
  S  S1294  1  0.160100  0.559900  0.441000  1.0  -0.279
  S  S1295  1  0.114400  0.641200  0.492130  1.0  -0.286
  S  S1296  1  0.136800  0.373600  0.497250  1.0  -0.2984
  S  S1297  1  0.073300  0.357200  0.550640  1.0  -0.2821
  S  S1298  1  0.185800  0.486600  0.497570  1.0  -0.3376
  S  S1299  1  0.155200  0.569900  0.548130  1.0  -0.2982
  S  S1300  1  0.215400  0.411500  0.550810  1.0  -0.3453
  S  S1301  1  0.031300  0.431600  0.609200  1.0  -0.322
  S  S1302  1  0.140500  0.390500  0.609560  1.0  -0.3396
  S  S1303  1  0.080700  0.530600  0.605120  1.0  -0.3093
  S  S1304  1  0.192300  0.496900  0.601890  1.0  -0.3162
  S  S1305  1  0.251600  0.103300  0.630600  1.0  -0.232
  S  S1306  1  0.016600  0.822300  0.868680  1.0  -0.3393
  S  S1307  1  0.127000  0.852900  0.853930  1.0  -0.3408
  S  S1308  1  0.074000  0.775400  0.806380  1.0  -0.2907
  S  S1309  1  0.028200  0.069500  0.866470  1.0  -0.3727
  S  S1310  1  0.943500  0.847400  0.810130  1.0  -0.2974
  S  S1311  1  0.077900  0.961100  0.859470  1.0  -0.2825
  S  S1312  1  0.002800  0.812200  0.751110  1.0  -0.2662
  S  S1313  1  0.160100  0.940100  0.809000  1.0  -0.2786
  S  S1314  1  0.114400  0.858800  0.757870  1.0  -0.2858
  S  S1315  1  0.136800  0.126400  0.752750  1.0  -0.2985
  S  S1316  1  0.073300  0.142800  0.699360  1.0  -0.2825
  S  S1317  1  0.185800  0.013400  0.752430  1.0  -0.3374
  S  S1318  1  0.155200  0.930100  0.701870  1.0  -0.2977
  S  S1319  1  0.215400  0.088500  0.699190  1.0  -0.3448
  S  S1320  1  0.031300  0.068400  0.640800  1.0  -0.3226
  S  S1321  1  0.140500  0.109500  0.640440  1.0  -0.339
  S  S1322  1  0.080700  0.969400  0.644880  1.0  -0.3082
  S  S1323  1  0.192300  0.003100  0.648110  1.0  -0.314
  S  S1324  1  0.751600  0.603300  0.130600  1.0  -0.232
  S  S1325  1  0.516600  0.322300  0.368680  1.0  -0.3393
  S  S1326  1  0.627000  0.352900  0.353930  1.0  -0.3408
  S  S1327  1  0.574000  0.275400  0.306380  1.0  -0.2907
  S  S1328  1  0.528200  0.569500  0.366470  1.0  -0.3727
  S  S1329  1  0.443500  0.347400  0.310130  1.0  -0.2974
  S  S1330  1  0.577900  0.461100  0.359470  1.0  -0.2825
  S  S1331  1  0.502800  0.312200  0.251110  1.0  -0.2662
  S  S1332  1  0.660100  0.440100  0.309000  1.0  -0.2786
  S  S1333  1  0.614400  0.358800  0.257870  1.0  -0.2858
  S  S1334  1  0.636800  0.626400  0.252750  1.0  -0.2985
  S  S1335  1  0.573300  0.642800  0.199360  1.0  -0.2825
  S  S1336  1  0.685800  0.513400  0.252430  1.0  -0.3374
  S  S1337  1  0.655200  0.430100  0.201870  1.0  -0.2977
  S  S1338  1  0.715400  0.588500  0.199190  1.0  -0.3448
  S  S1339  1  0.531300  0.568400  0.140800  1.0  -0.3226
  S  S1340  1  0.640500  0.609500  0.140440  1.0  -0.339
  S  S1341  1  0.580700  0.469400  0.144880  1.0  -0.3082
  S  S1342  1  0.692300  0.503100  0.148110  1.0  -0.314
  S  S1343  1  0.748400  0.896700  0.630600  1.0  -0.232
  S  S1344  1  0.983400  0.177700  0.868680  1.0  -0.3381
  S  S1345  1  0.873000  0.147100  0.853930  1.0  -0.341
  S  S1346  1  0.926000  0.224600  0.806380  1.0  -0.291
  S  S1347  1  0.971800  0.930500  0.866470  1.0  -0.3704
  S  S1348  1  0.056500  0.152600  0.810130  1.0  -0.2969
  S  S1349  1  0.922100  0.038900  0.859470  1.0  -0.2788
  S  S1350  1  0.997200  0.187800  0.751110  1.0  -0.2658
  S  S1351  1  0.839900  0.059900  0.809000  1.0  -0.2801
  S  S1352  1  0.885600  0.141200  0.757870  1.0  -0.285
  S  S1353  1  0.863200  0.873600  0.752750  1.0  -0.2974
  S  S1354  1  0.926700  0.857200  0.699360  1.0  -0.2813
  S  S1355  1  0.814200  0.986600  0.752430  1.0  -0.3359
  S  S1356  1  0.844800  0.069900  0.701870  1.0  -0.2972
  S  S1357  1  0.784600  0.911500  0.699190  1.0  -0.3459
  S  S1358  1  0.968700  0.931600  0.640800  1.0  -0.3212
  S  S1359  1  0.859500  0.890500  0.640440  1.0  -0.3389
  S  S1360  1  0.919300  0.030600  0.644880  1.0  -0.3087
  S  S1361  1  0.807700  0.996900  0.648110  1.0  -0.314
  S  S1362  1  0.248400  0.396700  0.130600  1.0  -0.232
  S  S1363  1  0.483400  0.677700  0.368680  1.0  -0.3381
  S  S1364  1  0.373000  0.647100  0.353930  1.0  -0.341
  S  S1365  1  0.426000  0.724600  0.306380  1.0  -0.291
  S  S1366  1  0.471800  0.430500  0.366470  1.0  -0.3704
  S  S1367  1  0.556500  0.652600  0.310130  1.0  -0.2969
  S  S1368  1  0.422100  0.538900  0.359470  1.0  -0.2788
  S  S1369  1  0.497200  0.687800  0.251110  1.0  -0.2658
  S  S1370  1  0.339900  0.559900  0.309000  1.0  -0.2801
  S  S1371  1  0.385600  0.641200  0.257870  1.0  -0.285
  S  S1372  1  0.363200  0.373600  0.252750  1.0  -0.2974
  S  S1373  1  0.426700  0.357200  0.199360  1.0  -0.2813
  S  S1374  1  0.314200  0.486600  0.252430  1.0  -0.3359
  S  S1375  1  0.344800  0.569900  0.201870  1.0  -0.2972
  S  S1376  1  0.284600  0.411500  0.199190  1.0  -0.3459
  S  S1377  1  0.468700  0.431600  0.140800  1.0  -0.3212
  S  S1378  1  0.359500  0.390500  0.140440  1.0  -0.3389
  S  S1379  1  0.419300  0.530600  0.144880  1.0  -0.3087
  S  S1380  1  0.307700  0.496900  0.148110  1.0  -0.314
  S  S1381  1  0.603300  0.251600  0.380600  1.0  -0.232
  S  S1382  1  0.322300  0.016600  0.618680  1.0  -0.3391
  S  S1383  1  0.352900  0.127000  0.603930  1.0  -0.3417
  S  S1384  1  0.275400  0.074000  0.556380  1.0  -0.291
  S  S1385  1  0.569500  0.028200  0.616470  1.0  -0.3731
  S  S1386  1  0.347400  0.943500  0.560130  1.0  -0.3004
  S  S1387  1  0.461100  0.077900  0.609470  1.0  -0.2824
  S  S1388  1  0.312200  0.002800  0.501110  1.0  -0.2668
  S  S1389  1  0.440100  0.160100  0.559000  1.0  -0.2805
  S  S1390  1  0.358800  0.114400  0.507870  1.0  -0.2853
  S  S1391  1  0.626400  0.136800  0.502750  1.0  -0.301
  S  S1392  1  0.642800  0.073300  0.449360  1.0  -0.2805
  S  S1393  1  0.513400  0.185800  0.502430  1.0  -0.3388
  S  S1394  1  0.430100  0.155200  0.451870  1.0  -0.2982
  S  S1395  1  0.588500  0.215400  0.449190  1.0  -0.3454
  S  S1396  1  0.568400  0.031300  0.390800  1.0  -0.3201
  S  S1397  1  0.609500  0.140500  0.390440  1.0  -0.3375
  S  S1398  1  0.469400  0.080700  0.394880  1.0  -0.3066
  S  S1399  1  0.503100  0.192300  0.398110  1.0  -0.3131
  S  S1400  1  0.103300  0.751600  0.880600  1.0  -0.232
  S  S1401  1  0.822300  0.516600  0.118680  1.0  -0.3391
  S  S1402  1  0.852900  0.627000  0.103930  1.0  -0.3417
  S  S1403  1  0.775400  0.574000  0.056380  1.0  -0.2848
  S  S1404  1  0.069500  0.528200  0.116470  1.0  -0.3731
  S  S1405  1  0.847400  0.443500  0.060130  1.0  -0.3004
  S  S1406  1  0.961100  0.577900  0.109470  1.0  -0.2824
  S  S1407  1  0.812200  0.502800  0.001110  1.0  -0.2701
  S  S1408  1  0.940100  0.660100  0.059000  1.0  -0.2805
  S  S1409  1  0.858800  0.614400  0.007870  1.0  -0.2849
  S  S1410  1  0.126400  0.636800  0.002750  1.0  -0.301
  S  S1411  1  0.142800  0.573300  0.949360  1.0  -0.2805
  S  S1412  1  0.013400  0.685800  0.002430  1.0  -0.3388
  S  S1413  1  0.930100  0.655200  0.951870  1.0  -0.2982
  S  S1414  1  0.088500  0.715400  0.949190  1.0  -0.3454
  S  S1415  1  0.068400  0.531300  0.890800  1.0  -0.3201
  S  S1416  1  0.109500  0.640500  0.890440  1.0  -0.3375
  S  S1417  1  0.969400  0.580700  0.894880  1.0  -0.3066
  S  S1418  1  0.003100  0.692300  0.898110  1.0  -0.3131
  S  S1419  1  0.396700  0.748400  0.380600  1.0  -0.2322
  S  S1420  1  0.677700  0.983400  0.618680  1.0  -0.3389
  S  S1421  1  0.647100  0.873000  0.603930  1.0  -0.3424
  S  S1422  1  0.724600  0.926000  0.556380  1.0  -0.291
  S  S1423  1  0.430500  0.971800  0.616470  1.0  -0.3709
  S  S1424  1  0.652600  0.056500  0.560130  1.0  -0.299
  S  S1425  1  0.538900  0.922100  0.609470  1.0  -0.2833
  S  S1426  1  0.687800  0.997200  0.501110  1.0  -0.2675
  S  S1427  1  0.559900  0.839900  0.559000  1.0  -0.2789
  S  S1428  1  0.641200  0.885600  0.507870  1.0  -0.2856
  S  S1429  1  0.373600  0.863200  0.502750  1.0  -0.2989
  S  S1430  1  0.357200  0.926700  0.449360  1.0  -0.2807
  S  S1431  1  0.486600  0.814200  0.502430  1.0  -0.3368
  S  S1432  1  0.569900  0.844800  0.451870  1.0  -0.2983
  S  S1433  1  0.411500  0.784600  0.449190  1.0  -0.3453
  S  S1434  1  0.431600  0.968700  0.390800  1.0  -0.3191
  S  S1435  1  0.390500  0.859500  0.390440  1.0  -0.3384
  S  S1436  1  0.530600  0.919300  0.394880  1.0  -0.3078
  S  S1437  1  0.496900  0.807700  0.398110  1.0  -0.3122
  S  S1438  1  0.896700  0.248400  0.880600  1.0  -0.2322
  S  S1439  1  0.177700  0.483400  0.118680  1.0  -0.3389
  S  S1440  1  0.147100  0.373000  0.103930  1.0  -0.3424
  S  S1441  1  0.224600  0.426000  0.056380  1.0  -0.285
  S  S1442  1  0.930500  0.471800  0.116470  1.0  -0.3709
  S  S1443  1  0.152600  0.556500  0.060130  1.0  -0.299
  S  S1444  1  0.038900  0.422100  0.109470  1.0  -0.2833
  S  S1445  1  0.187800  0.497200  0.001110  1.0  -0.2712
  S  S1446  1  0.059900  0.339900  0.059000  1.0  -0.2789
  S  S1447  1  0.141200  0.385600  0.007870  1.0  -0.2846
  S  S1448  1  0.873600  0.363200  0.002750  1.0  -0.2989
  S  S1449  1  0.857200  0.426700  0.949360  1.0  -0.2807
  S  S1450  1  0.986600  0.314200  0.002430  1.0  -0.3368
  S  S1451  1  0.069900  0.344800  0.951870  1.0  -0.2983
  S  S1452  1  0.911500  0.284600  0.949190  1.0  -0.3453
  S  S1453  1  0.931600  0.468700  0.890800  1.0  -0.3191
  S  S1454  1  0.890500  0.359500  0.890440  1.0  -0.3384
  S  S1455  1  0.030600  0.419300  0.894880  1.0  -0.3078
  S  S1456  1  0.996900  0.307700  0.898110  1.0  -0.3122
