# generated using pymatgen
data_CuH8C10Se2BrN2
_symmetry_space_group_name_H-M   'P 1'
_cell_length_a   21.85800000
_cell_length_b   21.85800000
_cell_length_c   25.13100000
_cell_angle_alpha   90.00000000
_cell_angle_beta   90.00000000
_cell_angle_gamma   90.00000000
_symmetry_Int_Tables_number   1
_chemical_formula_structural   CuH8C10Se2BrN2
_chemical_formula_sum   'Cu32 H256 C320 Se64 Br32 N64'
_cell_volume   12006.89225348
_cell_formula_units_Z   32
loop_
 _symmetry_equiv_pos_site_id
 _symmetry_equiv_pos_as_xyz
  1  'x, y, z'
loop_
 _atom_site_type_symbol
 _atom_site_label
 _atom_site_symmetry_multiplicity
 _atom_site_fract_x
 _atom_site_fract_y
 _atom_site_fract_z
 _atom_site_occupancy
 _atom_site_charge
  Cu  Cu1  1  0.025360  0.941520  0.475720  1.0  0.3351
  Cu  Cu2  1  0.525360  0.441520  0.975720  1.0  0.3351
  Cu  Cu3  1  0.474640  0.058480  0.975720  1.0  0.3348
  Cu  Cu4  1  0.974640  0.558480  0.475720  1.0  0.3348
  Cu  Cu5  1  0.191520  0.775360  0.274280  1.0  0.3353
  Cu  Cu6  1  0.691520  0.275360  0.774280  1.0  0.3353
  Cu  Cu7  1  0.308480  0.224640  0.774280  1.0  0.3351
  Cu  Cu8  1  0.808480  0.724640  0.274280  1.0  0.3351
  Cu  Cu9  1  0.974640  0.058480  0.524280  1.0  0.3347
  Cu  Cu10  1  0.474640  0.558480  0.024280  1.0  0.3347
  Cu  Cu11  1  0.525360  0.941520  0.024280  1.0  0.3349
  Cu  Cu12  1  0.025360  0.441520  0.524280  1.0  0.3349
  Cu  Cu13  1  0.808480  0.224640  0.725720  1.0  0.335
  Cu  Cu14  1  0.308480  0.724640  0.225720  1.0  0.335
  Cu  Cu15  1  0.691520  0.775360  0.225720  1.0  0.3351
  Cu  Cu16  1  0.191520  0.275360  0.725720  1.0  0.3351
  Cu  Cu17  1  0.308480  0.775360  0.725720  1.0  0.3352
  Cu  Cu18  1  0.808480  0.275360  0.225720  1.0  0.3352
  Cu  Cu19  1  0.191520  0.224640  0.225720  1.0  0.3352
  Cu  Cu20  1  0.691520  0.724640  0.725720  1.0  0.3352
  Cu  Cu21  1  0.474640  0.941520  0.524280  1.0  0.3346
  Cu  Cu22  1  0.974640  0.441520  0.024280  1.0  0.3346
  Cu  Cu23  1  0.025360  0.058480  0.024280  1.0  0.3353
  Cu  Cu24  1  0.525360  0.558480  0.524280  1.0  0.3353
  Cu  Cu25  1  0.691520  0.224640  0.274280  1.0  0.335
  Cu  Cu26  1  0.191520  0.724640  0.774280  1.0  0.335
  Cu  Cu27  1  0.808480  0.775360  0.774280  1.0  0.3352
  Cu  Cu28  1  0.308480  0.275360  0.274280  1.0  0.3352
  Cu  Cu29  1  0.525360  0.058480  0.475720  1.0  0.3351
  Cu  Cu30  1  0.025360  0.558480  0.975720  1.0  0.3351
  Cu  Cu31  1  0.974640  0.941520  0.975720  1.0  0.3345
  Cu  Cu32  1  0.474640  0.441520  0.475720  1.0  0.3345
  H  H33  1  0.066100  0.744000  0.567100  1.0  0.1051
  H  H34  1  0.133400  0.782900  0.631900  1.0  0.1047
  H  H35  1  0.157000  0.888200  0.630700  1.0  0.1199
  H  H36  1  0.114000  0.949500  0.567600  1.0  0.0803
  H  H37  1  0.088900  0.938000  0.288100  1.0  0.1073
  H  H38  1  0.991900  0.925800  0.251600  1.0  0.0947
  H  H39  1  0.907800  0.918800  0.305700  1.0  0.1073
  H  H40  1  0.921900  0.925500  0.397800  1.0  0.0884
  H  H41  1  0.566100  0.244000  0.067100  1.0  0.1051
  H  H42  1  0.633400  0.282900  0.131900  1.0  0.1047
  H  H43  1  0.657000  0.388200  0.130700  1.0  0.1199
  H  H44  1  0.614000  0.449500  0.067600  1.0  0.0803
  H  H45  1  0.588900  0.438000  0.788100  1.0  0.1073
  H  H46  1  0.491900  0.425800  0.751600  1.0  0.0947
  H  H47  1  0.407800  0.418800  0.805700  1.0  0.1073
  H  H48  1  0.421900  0.425500  0.897800  1.0  0.0884
  H  H49  1  0.433900  0.256000  0.067100  1.0  0.1055
  H  H50  1  0.366600  0.217100  0.131900  1.0  0.1046
  H  H51  1  0.343000  0.111800  0.130700  1.0  0.1204
  H  H52  1  0.386000  0.050500  0.067600  1.0  0.08
  H  H53  1  0.411100  0.062000  0.788100  1.0  0.107
  H  H54  1  0.508100  0.074200  0.751600  1.0  0.0946
  H  H55  1  0.592200  0.081200  0.805700  1.0  0.1075
  H  H56  1  0.578100  0.074500  0.897800  1.0  0.0884
  H  H57  1  0.933900  0.756000  0.567100  1.0  0.1055
  H  H58  1  0.866600  0.717100  0.631900  1.0  0.1046
  H  H59  1  0.843000  0.611800  0.630700  1.0  0.1204
  H  H60  1  0.886000  0.550500  0.567600  1.0  0.08
  H  H61  1  0.911100  0.562000  0.288100  1.0  0.107
  H  H62  1  0.008100  0.574200  0.251600  1.0  0.0946
  H  H63  1  0.092200  0.581200  0.305700  1.0  0.1075
  H  H64  1  0.078100  0.574500  0.397800  1.0  0.0884
  H  H65  1  0.994000  0.816100  0.182900  1.0  0.1053
  H  H66  1  0.032900  0.883400  0.118100  1.0  0.1049
  H  H67  1  0.138200  0.907000  0.119300  1.0  0.1194
  H  H68  1  0.199500  0.864000  0.182400  1.0  0.0816
  H  H69  1  0.188000  0.838900  0.461900  1.0  0.1065
  H  H70  1  0.175800  0.741900  0.498400  1.0  0.0943
  H  H71  1  0.168800  0.657800  0.444300  1.0  0.107
  H  H72  1  0.175500  0.671900  0.352200  1.0  0.0889
  H  H73  1  0.494000  0.316100  0.682900  1.0  0.1053
  H  H74  1  0.532900  0.383400  0.618100  1.0  0.1049
  H  H75  1  0.638200  0.407000  0.619300  1.0  0.1194
  H  H76  1  0.699500  0.364000  0.682400  1.0  0.0816
  H  H77  1  0.688000  0.338900  0.961900  1.0  0.1065
  H  H78  1  0.675800  0.241900  0.998400  1.0  0.0943
  H  H79  1  0.668800  0.157800  0.944300  1.0  0.107
  H  H80  1  0.675500  0.171900  0.852200  1.0  0.0889
  H  H81  1  0.506000  0.183900  0.682900  1.0  0.1051
  H  H82  1  0.467100  0.116600  0.618100  1.0  0.1047
  H  H83  1  0.361800  0.093000  0.619300  1.0  0.1197
  H  H84  1  0.300500  0.136000  0.682400  1.0  0.0816
  H  H85  1  0.312000  0.161100  0.961900  1.0  0.1072
  H  H86  1  0.324200  0.258100  0.998400  1.0  0.0938
  H  H87  1  0.331200  0.342200  0.944300  1.0  0.1085
  H  H88  1  0.324500  0.328100  0.852200  1.0  0.0893
  H  H89  1  0.006000  0.683900  0.182900  1.0  0.1051
  H  H90  1  0.967100  0.616600  0.118100  1.0  0.1047
  H  H91  1  0.861800  0.593000  0.119300  1.0  0.1197
  H  H92  1  0.800500  0.636000  0.182400  1.0  0.0816
  H  H93  1  0.812000  0.661100  0.461900  1.0  0.1072
  H  H94  1  0.824200  0.758100  0.498400  1.0  0.0938
  H  H95  1  0.831200  0.842200  0.444300  1.0  0.1085
  H  H96  1  0.824500  0.828100  0.352200  1.0  0.0893
  H  H97  1  0.933900  0.256000  0.432900  1.0  0.1054
  H  H98  1  0.866600  0.217100  0.368100  1.0  0.1048
  H  H99  1  0.843000  0.111800  0.369300  1.0  0.1196
  H  H100  1  0.886000  0.050500  0.432400  1.0  0.08
  H  H101  1  0.911100  0.062000  0.711900  1.0  0.1071
  H  H102  1  0.008100  0.074200  0.748400  1.0  0.0943
  H  H103  1  0.092200  0.081200  0.694300  1.0  0.1072
  H  H104  1  0.078100  0.074500  0.602200  1.0  0.0889
  H  H105  1  0.433900  0.756000  0.932900  1.0  0.1054
  H  H106  1  0.366600  0.717100  0.868100  1.0  0.1048
  H  H107  1  0.343000  0.611800  0.869300  1.0  0.1196
  H  H108  1  0.386000  0.550500  0.932400  1.0  0.08
  H  H109  1  0.411100  0.562000  0.211900  1.0  0.1071
  H  H110  1  0.508100  0.574200  0.248400  1.0  0.0943
  H  H111  1  0.592200  0.581200  0.194300  1.0  0.1072
  H  H112  1  0.578100  0.574500  0.102200  1.0  0.0889
  H  H113  1  0.566100  0.744000  0.932900  1.0  0.1054
  H  H114  1  0.633400  0.782900  0.868100  1.0  0.1051
  H  H115  1  0.657000  0.888200  0.869300  1.0  0.1194
  H  H116  1  0.614000  0.949500  0.932400  1.0  0.0802
  H  H117  1  0.588900  0.938000  0.211900  1.0  0.1072
  H  H118  1  0.491900  0.925800  0.248400  1.0  0.0943
  H  H119  1  0.407800  0.918800  0.194300  1.0  0.1071
  H  H120  1  0.421900  0.925500  0.102200  1.0  0.0887
  H  H121  1  0.066100  0.244000  0.432900  1.0  0.1054
  H  H122  1  0.133400  0.282900  0.368100  1.0  0.1051
  H  H123  1  0.157000  0.388200  0.369300  1.0  0.1194
  H  H124  1  0.114000  0.449500  0.432400  1.0  0.0802
  H  H125  1  0.088900  0.438000  0.711900  1.0  0.1072
  H  H126  1  0.991900  0.425800  0.748400  1.0  0.0943
  H  H127  1  0.907800  0.418800  0.694300  1.0  0.1071
  H  H128  1  0.921900  0.425500  0.602200  1.0  0.0887
  H  H129  1  0.006000  0.183900  0.817100  1.0  0.1051
  H  H130  1  0.967100  0.116600  0.881900  1.0  0.1047
  H  H131  1  0.861800  0.093000  0.880700  1.0  0.1204
  H  H132  1  0.800500  0.136000  0.817600  1.0  0.0816
  H  H133  1  0.812000  0.161100  0.538100  1.0  0.1068
  H  H134  1  0.824200  0.258100  0.501600  1.0  0.0946
  H  H135  1  0.831200  0.342200  0.555700  1.0  0.1088
  H  H136  1  0.824500  0.328100  0.647800  1.0  0.0889
  H  H137  1  0.506000  0.683900  0.317100  1.0  0.1051
  H  H138  1  0.467100  0.616600  0.381900  1.0  0.1047
  H  H139  1  0.361800  0.593000  0.380700  1.0  0.1204
  H  H140  1  0.300500  0.636000  0.317600  1.0  0.0816
  H  H141  1  0.312000  0.661100  0.038100  1.0  0.1068
  H  H142  1  0.324200  0.758100  0.001600  1.0  0.0946
  H  H143  1  0.331200  0.842200  0.055700  1.0  0.1088
  H  H144  1  0.324500  0.828100  0.147800  1.0  0.0889
  H  H145  1  0.494000  0.816100  0.317100  1.0  0.1052
  H  H146  1  0.532900  0.883400  0.381900  1.0  0.1045
  H  H147  1  0.638200  0.907000  0.380700  1.0  0.1196
  H  H148  1  0.699500  0.864000  0.317600  1.0  0.0818
  H  H149  1  0.688000  0.838900  0.038100  1.0  0.1067
  H  H150  1  0.675800  0.741900  0.001600  1.0  0.0946
  H  H151  1  0.668800  0.657800  0.055700  1.0  0.1072
  H  H152  1  0.675500  0.671900  0.147800  1.0  0.0889
  H  H153  1  0.994000  0.316100  0.817100  1.0  0.1052
  H  H154  1  0.032900  0.383400  0.881900  1.0  0.1045
  H  H155  1  0.138200  0.407000  0.880700  1.0  0.1196
  H  H156  1  0.199500  0.364000  0.817600  1.0  0.0818
  H  H157  1  0.188000  0.338900  0.538100  1.0  0.1067
  H  H158  1  0.175800  0.241900  0.501600  1.0  0.0946
  H  H159  1  0.168800  0.157800  0.555700  1.0  0.1072
  H  H160  1  0.175500  0.171900  0.647800  1.0  0.0889
  H  H161  1  0.506000  0.816100  0.817100  1.0  0.1052
  H  H162  1  0.467100  0.883400  0.881900  1.0  0.1042
  H  H163  1  0.361800  0.907000  0.880700  1.0  0.1201
  H  H164  1  0.300500  0.864000  0.817600  1.0  0.0815
  H  H165  1  0.312000  0.838900  0.538100  1.0  0.1071
  H  H166  1  0.324200  0.741900  0.501600  1.0  0.0945
  H  H167  1  0.331200  0.657800  0.555700  1.0  0.1071
  H  H168  1  0.324500  0.671900  0.647800  1.0  0.089
  H  H169  1  0.006000  0.316100  0.317100  1.0  0.1052
  H  H170  1  0.967100  0.383400  0.381900  1.0  0.1042
  H  H171  1  0.861800  0.407000  0.380700  1.0  0.1201
  H  H172  1  0.800500  0.364000  0.317600  1.0  0.0815
  H  H173  1  0.812000  0.338900  0.038100  1.0  0.1071
  H  H174  1  0.824200  0.241900  0.001600  1.0  0.0945
  H  H175  1  0.831200  0.157800  0.055700  1.0  0.1071
  H  H176  1  0.824500  0.171900  0.147800  1.0  0.089
  H  H177  1  0.994000  0.183900  0.317100  1.0  0.1052
  H  H178  1  0.032900  0.116600  0.381900  1.0  0.1047
  H  H179  1  0.138200  0.093000  0.380700  1.0  0.1199
  H  H180  1  0.199500  0.136000  0.317600  1.0  0.0815
  H  H181  1  0.188000  0.161100  0.038100  1.0  0.1064
  H  H182  1  0.175800  0.258100  0.001600  1.0  0.0946
  H  H183  1  0.168800  0.342200  0.055700  1.0  0.1088
  H  H184  1  0.175500  0.328100  0.147800  1.0  0.0888
  H  H185  1  0.494000  0.683900  0.817100  1.0  0.1052
  H  H186  1  0.532900  0.616600  0.881900  1.0  0.1047
  H  H187  1  0.638200  0.593000  0.880700  1.0  0.1199
  H  H188  1  0.699500  0.636000  0.817600  1.0  0.0815
  H  H189  1  0.688000  0.661100  0.538100  1.0  0.1064
  H  H190  1  0.675800  0.758100  0.501600  1.0  0.0946
  H  H191  1  0.668800  0.842200  0.555700  1.0  0.1088
  H  H192  1  0.675500  0.828100  0.647800  1.0  0.0888
  H  H193  1  0.433900  0.744000  0.432900  1.0  0.1056
  H  H194  1  0.366600  0.782900  0.368100  1.0  0.1049
  H  H195  1  0.343000  0.888200  0.369300  1.0  0.1196
  H  H196  1  0.386000  0.949500  0.432400  1.0  0.08
  H  H197  1  0.411100  0.938000  0.711900  1.0  0.107
  H  H198  1  0.508100  0.925800  0.748400  1.0  0.0942
  H  H199  1  0.592200  0.918800  0.694300  1.0  0.1078
  H  H200  1  0.578100  0.925500  0.602200  1.0  0.0888
  H  H201  1  0.933900  0.244000  0.932900  1.0  0.1056
  H  H202  1  0.866600  0.282900  0.868100  1.0  0.1049
  H  H203  1  0.843000  0.388200  0.869300  1.0  0.1196
  H  H204  1  0.886000  0.449500  0.932400  1.0  0.08
  H  H205  1  0.911100  0.438000  0.211900  1.0  0.107
  H  H206  1  0.008100  0.425800  0.248400  1.0  0.0942
  H  H207  1  0.092200  0.418800  0.194300  1.0  0.1078
  H  H208  1  0.078100  0.425500  0.102200  1.0  0.0888
  H  H209  1  0.066100  0.256000  0.932900  1.0  0.1053
  H  H210  1  0.133400  0.217100  0.868100  1.0  0.1049
  H  H211  1  0.157000  0.111800  0.869300  1.0  0.1193
  H  H212  1  0.114000  0.050500  0.932400  1.0  0.0809
  H  H213  1  0.088900  0.062000  0.211900  1.0  0.1075
  H  H214  1  0.991900  0.074200  0.248400  1.0  0.0941
  H  H215  1  0.907800  0.081200  0.194300  1.0  0.107
  H  H216  1  0.921900  0.074500  0.102200  1.0  0.0884
  H  H217  1  0.566100  0.756000  0.432900  1.0  0.1053
  H  H218  1  0.633400  0.717100  0.368100  1.0  0.1049
  H  H219  1  0.657000  0.611800  0.369300  1.0  0.1193
  H  H220  1  0.614000  0.550500  0.432400  1.0  0.0809
  H  H221  1  0.588900  0.562000  0.711900  1.0  0.1075
  H  H222  1  0.491900  0.574200  0.748400  1.0  0.0941
  H  H223  1  0.407800  0.581200  0.694300  1.0  0.107
  H  H224  1  0.421900  0.574500  0.602200  1.0  0.0884
  H  H225  1  0.494000  0.183900  0.182900  1.0  0.1052
  H  H226  1  0.532900  0.116600  0.118100  1.0  0.1047
  H  H227  1  0.638200  0.093000  0.119300  1.0  0.1192
  H  H228  1  0.699500  0.136000  0.182400  1.0  0.0815
  H  H229  1  0.688000  0.161100  0.461900  1.0  0.1069
  H  H230  1  0.675800  0.258100  0.498400  1.0  0.0938
  H  H231  1  0.668800  0.342200  0.444300  1.0  0.1083
  H  H232  1  0.675500  0.328100  0.352200  1.0  0.0894
  H  H233  1  0.994000  0.683900  0.682900  1.0  0.1052
  H  H234  1  0.032900  0.616600  0.618100  1.0  0.1047
  H  H235  1  0.138200  0.593000  0.619300  1.0  0.1192
  H  H236  1  0.199500  0.636000  0.682400  1.0  0.0815
  H  H237  1  0.188000  0.661100  0.961900  1.0  0.1069
  H  H238  1  0.175800  0.758100  0.998400  1.0  0.0938
  H  H239  1  0.168800  0.842200  0.944300  1.0  0.1083
  H  H240  1  0.175500  0.828100  0.852200  1.0  0.0894
  H  H241  1  0.006000  0.816100  0.682900  1.0  0.1053
  H  H242  1  0.967100  0.883400  0.618100  1.0  0.1046
  H  H243  1  0.861800  0.907000  0.619300  1.0  0.1194
  H  H244  1  0.800500  0.864000  0.682400  1.0  0.0814
  H  H245  1  0.812000  0.838900  0.961900  1.0  0.1069
  H  H246  1  0.824200  0.741900  0.998400  1.0  0.0942
  H  H247  1  0.831200  0.657800  0.944300  1.0  0.1069
  H  H248  1  0.824500  0.671900  0.852200  1.0  0.0891
  H  H249  1  0.506000  0.316100  0.182900  1.0  0.1053
  H  H250  1  0.467100  0.383400  0.118100  1.0  0.1046
  H  H251  1  0.361800  0.407000  0.119300  1.0  0.1194
  H  H252  1  0.300500  0.364000  0.182400  1.0  0.0814
  H  H253  1  0.312000  0.338900  0.461900  1.0  0.1069
  H  H254  1  0.324200  0.241900  0.498400  1.0  0.0942
  H  H255  1  0.331200  0.157800  0.444300  1.0  0.1069
  H  H256  1  0.324500  0.171900  0.352200  1.0  0.0891
  H  H257  1  0.566100  0.256000  0.567100  1.0  0.1055
  H  H258  1  0.633400  0.217100  0.631900  1.0  0.1045
  H  H259  1  0.657000  0.111800  0.630700  1.0  0.1198
  H  H260  1  0.614000  0.050500  0.567600  1.0  0.0808
  H  H261  1  0.588900  0.062000  0.288100  1.0  0.1072
  H  H262  1  0.491900  0.074200  0.251600  1.0  0.0947
  H  H263  1  0.407800  0.081200  0.305700  1.0  0.1073
  H  H264  1  0.421900  0.074500  0.397800  1.0  0.0883
  H  H265  1  0.066100  0.756000  0.067100  1.0  0.1055
  H  H266  1  0.133400  0.717100  0.131900  1.0  0.1045
  H  H267  1  0.157000  0.611800  0.130700  1.0  0.1198
  H  H268  1  0.114000  0.550500  0.067600  1.0  0.0808
  H  H269  1  0.088900  0.562000  0.788100  1.0  0.1072
  H  H270  1  0.991900  0.574200  0.751600  1.0  0.0947
  H  H271  1  0.907800  0.581200  0.805700  1.0  0.1073
  H  H272  1  0.921900  0.574500  0.897800  1.0  0.0883
  H  H273  1  0.933900  0.744000  0.067100  1.0  0.1051
  H  H274  1  0.866600  0.782900  0.131900  1.0  0.1047
  H  H275  1  0.843000  0.888200  0.130700  1.0  0.1202
  H  H276  1  0.886000  0.949500  0.067600  1.0  0.0801
  H  H277  1  0.911100  0.938000  0.788100  1.0  0.1073
  H  H278  1  0.008100  0.925800  0.751600  1.0  0.0945
  H  H279  1  0.092200  0.918800  0.805700  1.0  0.1081
  H  H280  1  0.078100  0.925500  0.897800  1.0  0.0885
  H  H281  1  0.433900  0.244000  0.567100  1.0  0.1051
  H  H282  1  0.366600  0.282900  0.631900  1.0  0.1047
  H  H283  1  0.343000  0.388200  0.630700  1.0  0.1202
  H  H284  1  0.386000  0.449500  0.567600  1.0  0.0801
  H  H285  1  0.411100  0.438000  0.288100  1.0  0.1073
  H  H286  1  0.508100  0.425800  0.251600  1.0  0.0945
  H  H287  1  0.592200  0.418800  0.305700  1.0  0.1081
  H  H288  1  0.578100  0.425500  0.397800  1.0  0.0885
  C  C289  1  0.053100  0.826000  0.529700  1.0  0.2517
  C  C290  1  0.076800  0.786100  0.567500  1.0  -0.0656
  C  C291  1  0.116200  0.809100  0.605700  1.0  -0.1153
  C  C292  1  0.130100  0.871200  0.604900  1.0  -0.1419
  C  C293  1  0.104900  0.907000  0.567100  1.0  0.1448
  C  C294  1  0.061100  0.939000  0.364600  1.0  0.0735
  C  C295  1  0.054200  0.935400  0.310700  1.0  -0.0861
  C  C296  1  0.996600  0.928100  0.289100  1.0  -0.0856
  C  C297  1  0.947500  0.924100  0.320300  1.0  -0.1623
  C  C298  1  0.956300  0.928200  0.374800  1.0  0.1363
  C  C299  1  0.553100  0.326000  0.029700  1.0  0.2517
  C  C300  1  0.576800  0.286100  0.067500  1.0  -0.0656
  C  C301  1  0.616200  0.309100  0.105700  1.0  -0.1153
  C  C302  1  0.630100  0.371200  0.104900  1.0  -0.1419
  C  C303  1  0.604900  0.407000  0.067100  1.0  0.1448
  C  C304  1  0.561100  0.439000  0.864600  1.0  0.0735
  C  C305  1  0.554200  0.435400  0.810700  1.0  -0.0861
  C  C306  1  0.496600  0.428100  0.789100  1.0  -0.0856
  C  C307  1  0.447500  0.424100  0.820300  1.0  -0.1623
  C  C308  1  0.456300  0.428200  0.874800  1.0  0.1363
  C  C309  1  0.446900  0.174000  0.029700  1.0  0.2534
  C  C310  1  0.423200  0.213900  0.067500  1.0  -0.0658
  C  C311  1  0.383800  0.190900  0.105700  1.0  -0.1157
  C  C312  1  0.369900  0.128800  0.104900  1.0  -0.1413
  C  C313  1  0.395100  0.093000  0.067100  1.0  0.1437
  C  C314  1  0.438900  0.061000  0.864600  1.0  0.0761
  C  C315  1  0.445800  0.064600  0.810700  1.0  -0.0864
  C  C316  1  0.503400  0.071900  0.789100  1.0  -0.0858
  C  C317  1  0.552500  0.075900  0.820300  1.0  -0.1607
  C  C318  1  0.543700  0.071800  0.874800  1.0  0.1355
  C  C319  1  0.946900  0.674000  0.529700  1.0  0.2534
  C  C320  1  0.923200  0.713900  0.567500  1.0  -0.0658
  C  C321  1  0.883800  0.690900  0.605700  1.0  -0.1157
  C  C322  1  0.869900  0.628800  0.604900  1.0  -0.1413
  C  C323  1  0.895100  0.593000  0.567100  1.0  0.1437
  C  C324  1  0.938900  0.561000  0.364600  1.0  0.0761
  C  C325  1  0.945800  0.564600  0.310700  1.0  -0.0864
  C  C326  1  0.003400  0.571900  0.289100  1.0  -0.0858
  C  C327  1  0.052500  0.575900  0.320300  1.0  -0.1607
  C  C328  1  0.043700  0.571800  0.374800  1.0  0.1355
  C  C329  1  0.076000  0.803100  0.220300  1.0  0.2512
  C  C330  1  0.036100  0.826800  0.182500  1.0  -0.0643
  C  C331  1  0.059100  0.866200  0.144300  1.0  -0.1143
  C  C332  1  0.121200  0.880100  0.145100  1.0  -0.1406
  C  C333  1  0.157000  0.854900  0.182900  1.0  0.1448
  C  C334  1  0.189000  0.811100  0.385400  1.0  0.0749
  C  C335  1  0.185400  0.804200  0.439300  1.0  -0.0868
  C  C336  1  0.178100  0.746600  0.460900  1.0  -0.0828
  C  C337  1  0.174100  0.697500  0.429700  1.0  -0.1613
  C  C338  1  0.178200  0.706300  0.375200  1.0  0.1359
  C  C339  1  0.576000  0.303100  0.720300  1.0  0.2512
  C  C340  1  0.536100  0.326800  0.682500  1.0  -0.0643
  C  C341  1  0.559100  0.366200  0.644300  1.0  -0.1143
  C  C342  1  0.621200  0.380100  0.645100  1.0  -0.1406
  C  C343  1  0.657000  0.354900  0.682900  1.0  0.1448
  C  C344  1  0.689000  0.311100  0.885400  1.0  0.0749
  C  C345  1  0.685400  0.304200  0.939300  1.0  -0.0868
  C  C346  1  0.678100  0.246600  0.960900  1.0  -0.0828
  C  C347  1  0.674100  0.197500  0.929700  1.0  -0.1613
  C  C348  1  0.678200  0.206300  0.875200  1.0  0.1359
  C  C349  1  0.424000  0.196900  0.720300  1.0  0.2498
  C  C350  1  0.463900  0.173200  0.682500  1.0  -0.065
  C  C351  1  0.440900  0.133800  0.644300  1.0  -0.1157
  C  C352  1  0.378800  0.119900  0.645100  1.0  -0.1398
  C  C353  1  0.343000  0.145100  0.682900  1.0  0.1455
  C  C354  1  0.311000  0.188900  0.885400  1.0  0.0737
  C  C355  1  0.314600  0.195800  0.939300  1.0  -0.0872
  C  C356  1  0.321900  0.253400  0.960900  1.0  -0.0825
  C  C357  1  0.325900  0.302500  0.929700  1.0  -0.1592
  C  C358  1  0.321800  0.293700  0.875200  1.0  0.136
  C  C359  1  0.924000  0.696900  0.220300  1.0  0.2498
  C  C360  1  0.963900  0.673200  0.182500  1.0  -0.065
  C  C361  1  0.940900  0.633800  0.144300  1.0  -0.1157
  C  C362  1  0.878800  0.619900  0.145100  1.0  -0.1398
  C  C363  1  0.843000  0.645100  0.182900  1.0  0.1455
  C  C364  1  0.811000  0.688900  0.385400  1.0  0.0737
  C  C365  1  0.814600  0.695800  0.439300  1.0  -0.0872
  C  C366  1  0.821900  0.753400  0.460900  1.0  -0.0825
  C  C367  1  0.825900  0.802500  0.429700  1.0  -0.1592
  C  C368  1  0.821800  0.793700  0.375200  1.0  0.136
  C  C369  1  0.946900  0.174000  0.470300  1.0  0.2526
  C  C370  1  0.923200  0.213900  0.432500  1.0  -0.0662
  C  C371  1  0.883800  0.190900  0.394300  1.0  -0.1164
  C  C372  1  0.869900  0.128800  0.395100  1.0  -0.1422
  C  C373  1  0.895100  0.093000  0.432900  1.0  0.1431
  C  C374  1  0.938900  0.061000  0.635400  1.0  0.0754
  C  C375  1  0.945800  0.064600  0.689300  1.0  -0.0861
  C  C376  1  0.003400  0.071900  0.710900  1.0  -0.0845
  C  C377  1  0.052500  0.075900  0.679700  1.0  -0.1609
  C  C378  1  0.043700  0.071800  0.625200  1.0  0.1354
  C  C379  1  0.446900  0.674000  0.970300  1.0  0.2526
  C  C380  1  0.423200  0.713900  0.932500  1.0  -0.0662
  C  C381  1  0.383800  0.690900  0.894300  1.0  -0.1164
  C  C382  1  0.369900  0.628800  0.895100  1.0  -0.1422
  C  C383  1  0.395100  0.593000  0.932900  1.0  0.1431
  C  C384  1  0.438900  0.561000  0.135400  1.0  0.0754
  C  C385  1  0.445800  0.564600  0.189300  1.0  -0.0861
  C  C386  1  0.503400  0.571900  0.210900  1.0  -0.0845
  C  C387  1  0.552500  0.575900  0.179700  1.0  -0.1609
  C  C388  1  0.543700  0.571800  0.125200  1.0  0.1354
  C  C389  1  0.553100  0.826000  0.970300  1.0  0.2513
  C  C390  1  0.576800  0.786100  0.932500  1.0  -0.0661
  C  C391  1  0.616200  0.809100  0.894300  1.0  -0.116
  C  C392  1  0.630100  0.871200  0.895100  1.0  -0.141
  C  C393  1  0.604900  0.907000  0.932900  1.0  0.1446
  C  C394  1  0.561100  0.939000  0.135400  1.0  0.074
  C  C395  1  0.554200  0.935400  0.189300  1.0  -0.0858
  C  C396  1  0.496600  0.928100  0.210900  1.0  -0.0845
  C  C397  1  0.447500  0.924100  0.179700  1.0  -0.1625
  C  C398  1  0.456300  0.928200  0.125200  1.0  0.1365
  C  C399  1  0.053100  0.326000  0.470300  1.0  0.2513
  C  C400  1  0.076800  0.286100  0.432500  1.0  -0.0661
  C  C401  1  0.116200  0.309100  0.394300  1.0  -0.116
  C  C402  1  0.130100  0.371200  0.395100  1.0  -0.141
  C  C403  1  0.104900  0.407000  0.432900  1.0  0.1446
  C  C404  1  0.061100  0.439000  0.635400  1.0  0.074
  C  C405  1  0.054200  0.435400  0.689300  1.0  -0.0858
  C  C406  1  0.996600  0.428100  0.710900  1.0  -0.0845
  C  C407  1  0.947500  0.424100  0.679700  1.0  -0.1625
  C  C408  1  0.956300  0.428200  0.625200  1.0  0.1365
  C  C409  1  0.924000  0.196900  0.779700  1.0  0.2521
  C  C410  1  0.963900  0.173200  0.817500  1.0  -0.0648
  C  C411  1  0.940900  0.133800  0.855700  1.0  -0.1147
  C  C412  1  0.878800  0.119900  0.854900  1.0  -0.1389
  C  C413  1  0.843000  0.145100  0.817100  1.0  0.1454
  C  C414  1  0.811000  0.188900  0.614600  1.0  0.0731
  C  C415  1  0.814600  0.195800  0.560700  1.0  -0.0874
  C  C416  1  0.821900  0.253400  0.539100  1.0  -0.0835
  C  C417  1  0.825900  0.302500  0.570300  1.0  -0.1587
  C  C418  1  0.821800  0.293700  0.624800  1.0  0.1358
  C  C419  1  0.424000  0.696900  0.279700  1.0  0.2521
  C  C420  1  0.463900  0.673200  0.317500  1.0  -0.0648
  C  C421  1  0.440900  0.633800  0.355700  1.0  -0.1147
  C  C422  1  0.378800  0.619900  0.354900  1.0  -0.1389
  C  C423  1  0.343000  0.645100  0.317100  1.0  0.1454
  C  C424  1  0.311000  0.688900  0.114600  1.0  0.0731
  C  C425  1  0.314600  0.695800  0.060700  1.0  -0.0874
  C  C426  1  0.321900  0.753400  0.039100  1.0  -0.0835
  C  C427  1  0.325900  0.802500  0.070300  1.0  -0.1587
  C  C428  1  0.321800  0.793700  0.124800  1.0  0.1358
  C  C429  1  0.576000  0.803100  0.279700  1.0  0.2507
  C  C430  1  0.536100  0.826800  0.317500  1.0  -0.0639
  C  C431  1  0.559100  0.866200  0.355700  1.0  -0.1138
  C  C432  1  0.621200  0.880100  0.354900  1.0  -0.1417
  C  C433  1  0.657000  0.854900  0.317100  1.0  0.1451
  C  C434  1  0.689000  0.811100  0.114600  1.0  0.0736
  C  C435  1  0.685400  0.804200  0.060700  1.0  -0.0865
  C  C436  1  0.678100  0.746600  0.039100  1.0  -0.084
  C  C437  1  0.674100  0.697500  0.070300  1.0  -0.1608
  C  C438  1  0.678200  0.706300  0.124800  1.0  0.1358
  C  C439  1  0.076000  0.303100  0.779700  1.0  0.2507
  C  C440  1  0.036100  0.326800  0.817500  1.0  -0.0639
  C  C441  1  0.059100  0.366200  0.855700  1.0  -0.1138
  C  C442  1  0.121200  0.380100  0.854900  1.0  -0.1417
  C  C443  1  0.157000  0.354900  0.817100  1.0  0.1451
  C  C444  1  0.189000  0.311100  0.614600  1.0  0.0736
  C  C445  1  0.185400  0.304200  0.560700  1.0  -0.0865
  C  C446  1  0.178100  0.246600  0.539100  1.0  -0.084
  C  C447  1  0.174100  0.197500  0.570300  1.0  -0.1608
  C  C448  1  0.178200  0.206300  0.624800  1.0  0.1358
  C  C449  1  0.424000  0.803100  0.779700  1.0  0.251
  C  C450  1  0.463900  0.826800  0.817500  1.0  -0.0648
  C  C451  1  0.440900  0.866200  0.855700  1.0  -0.114
  C  C452  1  0.378800  0.880100  0.854900  1.0  -0.1404
  C  C453  1  0.343000  0.854900  0.817100  1.0  0.1456
  C  C454  1  0.311000  0.811100  0.614600  1.0  0.074
  C  C455  1  0.314600  0.804200  0.560700  1.0  -0.0865
  C  C456  1  0.321900  0.746600  0.539100  1.0  -0.0833
  C  C457  1  0.325900  0.697500  0.570300  1.0  -0.1611
  C  C458  1  0.321800  0.706300  0.624800  1.0  0.1361
  C  C459  1  0.924000  0.303100  0.279700  1.0  0.251
  C  C460  1  0.963900  0.326800  0.317500  1.0  -0.0648
  C  C461  1  0.940900  0.366200  0.355700  1.0  -0.114
  C  C462  1  0.878800  0.380100  0.354900  1.0  -0.1404
  C  C463  1  0.843000  0.354900  0.317100  1.0  0.1456
  C  C464  1  0.811000  0.311100  0.114600  1.0  0.074
  C  C465  1  0.814600  0.304200  0.060700  1.0  -0.0865
  C  C466  1  0.821900  0.246600  0.039100  1.0  -0.0833
  C  C467  1  0.825900  0.197500  0.070300  1.0  -0.1611
  C  C468  1  0.821800  0.206300  0.124800  1.0  0.1361
  C  C469  1  0.076000  0.196900  0.279700  1.0  0.2517
  C  C470  1  0.036100  0.173200  0.317500  1.0  -0.0644
  C  C471  1  0.059100  0.133800  0.355700  1.0  -0.1142
  C  C472  1  0.121200  0.119900  0.354900  1.0  -0.1408
  C  C473  1  0.157000  0.145100  0.317100  1.0  0.1452
  C  C474  1  0.189000  0.188900  0.114600  1.0  0.0732
  C  C475  1  0.185400  0.195800  0.060700  1.0  -0.0869
  C  C476  1  0.178100  0.253400  0.039100  1.0  -0.0841
  C  C477  1  0.174100  0.302500  0.070300  1.0  -0.1588
  C  C478  1  0.178200  0.293700  0.124800  1.0  0.1353
  C  C479  1  0.576000  0.696900  0.779700  1.0  0.2517
  C  C480  1  0.536100  0.673200  0.817500  1.0  -0.0644
  C  C481  1  0.559100  0.633800  0.855700  1.0  -0.1142
  C  C482  1  0.621200  0.619900  0.854900  1.0  -0.1408
  C  C483  1  0.657000  0.645100  0.817100  1.0  0.1452
  C  C484  1  0.689000  0.688900  0.614600  1.0  0.0732
  C  C485  1  0.685400  0.695800  0.560700  1.0  -0.0869
  C  C486  1  0.678100  0.753400  0.539100  1.0  -0.0841
  C  C487  1  0.674100  0.802500  0.570300  1.0  -0.1588
  C  C488  1  0.678200  0.793700  0.624800  1.0  0.1353
  C  C489  1  0.446900  0.826000  0.470300  1.0  0.2528
  C  C490  1  0.423200  0.786100  0.432500  1.0  -0.0658
  C  C491  1  0.383800  0.809100  0.394300  1.0  -0.1167
  C  C492  1  0.369900  0.871200  0.395100  1.0  -0.142
  C  C493  1  0.395100  0.907000  0.432900  1.0  0.1444
  C  C494  1  0.438900  0.939000  0.635400  1.0  0.0761
  C  C495  1  0.445800  0.935400  0.689300  1.0  -0.0859
  C  C496  1  0.503400  0.928100  0.710900  1.0  -0.0848
  C  C497  1  0.552500  0.924100  0.679700  1.0  -0.1609
  C  C498  1  0.543700  0.928200  0.625200  1.0  0.1349
  C  C499  1  0.946900  0.326000  0.970300  1.0  0.2528
  C  C500  1  0.923200  0.286100  0.932500  1.0  -0.0658
  C  C501  1  0.883800  0.309100  0.894300  1.0  -0.1167
  C  C502  1  0.869900  0.371200  0.895100  1.0  -0.142
  C  C503  1  0.895100  0.407000  0.932900  1.0  0.1444
  C  C504  1  0.938900  0.439000  0.135400  1.0  0.0761
  C  C505  1  0.945800  0.435400  0.189300  1.0  -0.0859
  C  C506  1  0.003400  0.428100  0.210900  1.0  -0.0848
  C  C507  1  0.052500  0.424100  0.179700  1.0  -0.1609
  C  C508  1  0.043700  0.428200  0.125200  1.0  0.1349
  C  C509  1  0.053100  0.174000  0.970300  1.0  0.2509
  C  C510  1  0.076800  0.213900  0.932500  1.0  -0.0666
  C  C511  1  0.116200  0.190900  0.894300  1.0  -0.1156
  C  C512  1  0.130100  0.128800  0.895100  1.0  -0.141
  C  C513  1  0.104900  0.093000  0.932900  1.0  0.1436
  C  C514  1  0.061100  0.061000  0.135400  1.0  0.0737
  C  C515  1  0.054200  0.064600  0.189300  1.0  -0.086
  C  C516  1  0.996600  0.071900  0.210900  1.0  -0.0842
  C  C517  1  0.947500  0.075900  0.179700  1.0  -0.1625
  C  C518  1  0.956300  0.071800  0.125200  1.0  0.137
  C  C519  1  0.553100  0.674000  0.470300  1.0  0.2509
  C  C520  1  0.576800  0.713900  0.432500  1.0  -0.0666
  C  C521  1  0.616200  0.690900  0.394300  1.0  -0.1156
  C  C522  1  0.630100  0.628800  0.395100  1.0  -0.141
  C  C523  1  0.604900  0.593000  0.432900  1.0  0.1436
  C  C524  1  0.561100  0.561000  0.635400  1.0  0.0737
  C  C525  1  0.554200  0.564600  0.689300  1.0  -0.086
  C  C526  1  0.496600  0.571900  0.710900  1.0  -0.0842
  C  C527  1  0.447500  0.575900  0.679700  1.0  -0.1625
  C  C528  1  0.456300  0.571800  0.625200  1.0  0.137
  C  C529  1  0.576000  0.196900  0.220300  1.0  0.2506
  C  C530  1  0.536100  0.173200  0.182500  1.0  -0.0649
  C  C531  1  0.559100  0.133800  0.144300  1.0  -0.1154
  C  C532  1  0.621200  0.119900  0.145100  1.0  -0.1408
  C  C533  1  0.657000  0.145100  0.182900  1.0  0.1452
  C  C534  1  0.689000  0.188900  0.385400  1.0  0.0739
  C  C535  1  0.685400  0.195800  0.439300  1.0  -0.0868
  C  C536  1  0.678100  0.253400  0.460900  1.0  -0.0833
  C  C537  1  0.674100  0.302500  0.429700  1.0  -0.1593
  C  C538  1  0.678200  0.293700  0.375200  1.0  0.1356
  C  C539  1  0.076000  0.696900  0.720300  1.0  0.2506
  C  C540  1  0.036100  0.673200  0.682500  1.0  -0.0649
  C  C541  1  0.059100  0.633800  0.644300  1.0  -0.1154
  C  C542  1  0.121200  0.619900  0.645100  1.0  -0.1408
  C  C543  1  0.157000  0.645100  0.682900  1.0  0.1452
  C  C544  1  0.189000  0.688900  0.885400  1.0  0.0739
  C  C545  1  0.185400  0.695800  0.939300  1.0  -0.0868
  C  C546  1  0.178100  0.753400  0.960900  1.0  -0.0833
  C  C547  1  0.174100  0.802500  0.929700  1.0  -0.1593
  C  C548  1  0.178200  0.793700  0.875200  1.0  0.1356
  C  C549  1  0.924000  0.803100  0.720300  1.0  0.2507
  C  C550  1  0.963900  0.826800  0.682500  1.0  -0.0651
  C  C551  1  0.940900  0.866200  0.644300  1.0  -0.1142
  C  C552  1  0.878800  0.880100  0.645100  1.0  -0.14
  C  C553  1  0.843000  0.854900  0.682900  1.0  0.1455
  C  C554  1  0.811000  0.811100  0.885400  1.0  0.0752
  C  C555  1  0.814600  0.804200  0.939300  1.0  -0.0867
  C  C556  1  0.821900  0.746600  0.960900  1.0  -0.0821
  C  C557  1  0.825900  0.697500  0.929700  1.0  -0.1616
  C  C558  1  0.821800  0.706300  0.875200  1.0  0.1362
  C  C559  1  0.424000  0.303100  0.220300  1.0  0.2507
  C  C560  1  0.463900  0.326800  0.182500  1.0  -0.0651
  C  C561  1  0.440900  0.366200  0.144300  1.0  -0.1142
  C  C562  1  0.378800  0.380100  0.145100  1.0  -0.14
  C  C563  1  0.343000  0.354900  0.182900  1.0  0.1455
  C  C564  1  0.311000  0.311100  0.385400  1.0  0.0752
  C  C565  1  0.314600  0.304200  0.439300  1.0  -0.0867
  C  C566  1  0.321900  0.246600  0.460900  1.0  -0.0821
  C  C567  1  0.325900  0.197500  0.429700  1.0  -0.1616
  C  C568  1  0.321800  0.206300  0.375200  1.0  0.1362
  C  C569  1  0.553100  0.174000  0.529700  1.0  0.252
  C  C570  1  0.576800  0.213900  0.567500  1.0  -0.0663
  C  C571  1  0.616200  0.190900  0.605700  1.0  -0.1148
  C  C572  1  0.630100  0.128800  0.604900  1.0  -0.1409
  C  C573  1  0.604900  0.093000  0.567100  1.0  0.1439
  C  C574  1  0.561100  0.061000  0.364600  1.0  0.0737
  C  C575  1  0.554200  0.064600  0.310700  1.0  -0.0863
  C  C576  1  0.496600  0.071900  0.289100  1.0  -0.0854
  C  C577  1  0.447500  0.075900  0.320300  1.0  -0.1621
  C  C578  1  0.456300  0.071800  0.374800  1.0  0.1367
  C  C579  1  0.053100  0.674000  0.029700  1.0  0.252
  C  C580  1  0.076800  0.713900  0.067500  1.0  -0.0663
  C  C581  1  0.116200  0.690900  0.105700  1.0  -0.1148
  C  C582  1  0.130100  0.628800  0.104900  1.0  -0.1409
  C  C583  1  0.104900  0.593000  0.067100  1.0  0.1439
  C  C584  1  0.061100  0.561000  0.864600  1.0  0.0737
  C  C585  1  0.054200  0.564600  0.810700  1.0  -0.0863
  C  C586  1  0.996600  0.571900  0.789100  1.0  -0.0854
  C  C587  1  0.947500  0.575900  0.820300  1.0  -0.1621
  C  C588  1  0.956300  0.571800  0.874800  1.0  0.1367
  C  C589  1  0.946900  0.826000  0.029700  1.0  0.2532
  C  C590  1  0.923200  0.786100  0.067500  1.0  -0.065
  C  C591  1  0.883800  0.809100  0.105700  1.0  -0.1161
  C  C592  1  0.869900  0.871200  0.104900  1.0  -0.1424
  C  C593  1  0.895100  0.907000  0.067100  1.0  0.1447
  C  C594  1  0.938900  0.939000  0.864600  1.0  0.0761
  C  C595  1  0.945800  0.935400  0.810700  1.0  -0.0861
  C  C596  1  0.003400  0.928100  0.789100  1.0  -0.0861
  C  C597  1  0.052500  0.924100  0.820300  1.0  -0.1608
  C  C598  1  0.043700  0.928200  0.874800  1.0  0.1351
  C  C599  1  0.446900  0.326000  0.529700  1.0  0.2532
  C  C600  1  0.423200  0.286100  0.567500  1.0  -0.065
  C  C601  1  0.383800  0.309100  0.605700  1.0  -0.1161
  C  C602  1  0.369900  0.371200  0.604900  1.0  -0.1424
  C  C603  1  0.395100  0.407000  0.567100  1.0  0.1447
  C  C604  1  0.438900  0.439000  0.364600  1.0  0.0761
  C  C605  1  0.445800  0.435400  0.310700  1.0  -0.0861
  C  C606  1  0.503400  0.428100  0.289100  1.0  -0.0861
  C  C607  1  0.552500  0.424100  0.320300  1.0  -0.1608
  C  C608  1  0.543700  0.428200  0.374800  1.0  0.1351
  Se  Se609  1  0.996330  0.803120  0.474660  1.0  0.0124
  Se  Se610  1  0.136980  0.948710  0.401520  1.0  -0.0107
  Se  Se611  1  0.496330  0.303120  0.974660  1.0  0.0124
  Se  Se612  1  0.636980  0.448710  0.901520  1.0  -0.0107
  Se  Se613  1  0.503670  0.196880  0.974660  1.0  0.0138
  Se  Se614  1  0.363020  0.051290  0.901520  1.0  -0.0085
  Se  Se615  1  0.003670  0.696880  0.474660  1.0  0.0138
  Se  Se616  1  0.863020  0.551290  0.401520  1.0  -0.0085
  Se  Se617  1  0.053120  0.746330  0.275340  1.0  0.014
  Se  Se618  1  0.198710  0.886980  0.348480  1.0  -0.0084
  Se  Se619  1  0.553120  0.246330  0.775340  1.0  0.014
  Se  Se620  1  0.698710  0.386980  0.848480  1.0  -0.0084
  Se  Se621  1  0.446880  0.253670  0.775340  1.0  0.0123
  Se  Se622  1  0.301290  0.113020  0.848480  1.0  -0.0073
  Se  Se623  1  0.946880  0.753670  0.275340  1.0  0.0123
  Se  Se624  1  0.801290  0.613020  0.348480  1.0  -0.0073
  Se  Se625  1  0.003670  0.196880  0.525340  1.0  0.0138
  Se  Se626  1  0.863020  0.051290  0.598480  1.0  -0.0094
  Se  Se627  1  0.503670  0.696880  0.025340  1.0  0.0138
  Se  Se628  1  0.363020  0.551290  0.098480  1.0  -0.0094
  Se  Se629  1  0.496330  0.803120  0.025340  1.0  0.0127
  Se  Se630  1  0.636980  0.948710  0.098480  1.0  -0.0106
  Se  Se631  1  0.996330  0.303120  0.525340  1.0  0.0127
  Se  Se632  1  0.136980  0.448710  0.598480  1.0  -0.0106
  Se  Se633  1  0.946880  0.253670  0.724660  1.0  0.0126
  Se  Se634  1  0.801290  0.113020  0.651520  1.0  -0.0067
  Se  Se635  1  0.446880  0.753670  0.224660  1.0  0.0126
  Se  Se636  1  0.301290  0.613020  0.151520  1.0  -0.0067
  Se  Se637  1  0.553120  0.746330  0.224660  1.0  0.0141
  Se  Se638  1  0.698710  0.886980  0.151520  1.0  -0.0076
  Se  Se639  1  0.053120  0.246330  0.724660  1.0  0.0141
  Se  Se640  1  0.198710  0.386980  0.651520  1.0  -0.0076
  Se  Se641  1  0.446880  0.746330  0.724660  1.0  0.0139
  Se  Se642  1  0.301290  0.886980  0.651520  1.0  -0.0058
  Se  Se643  1  0.946880  0.246330  0.224660  1.0  0.0139
  Se  Se644  1  0.801290  0.386980  0.151520  1.0  -0.0058
  Se  Se645  1  0.053120  0.253670  0.224660  1.0  0.0129
  Se  Se646  1  0.198710  0.113020  0.151520  1.0  -0.0092
  Se  Se647  1  0.553120  0.753670  0.724660  1.0  0.0129
  Se  Se648  1  0.698710  0.613020  0.651520  1.0  -0.0092
  Se  Se649  1  0.503670  0.803120  0.525340  1.0  0.014
  Se  Se650  1  0.363020  0.948710  0.598480  1.0  -0.0094
  Se  Se651  1  0.003670  0.303120  0.025340  1.0  0.014
  Se  Se652  1  0.863020  0.448710  0.098480  1.0  -0.0094
  Se  Se653  1  0.996330  0.196880  0.025340  1.0  0.0124
  Se  Se654  1  0.136980  0.051290  0.098480  1.0  -0.011
  Se  Se655  1  0.496330  0.696880  0.525340  1.0  0.0124
  Se  Se656  1  0.636980  0.551290  0.598480  1.0  -0.011
  Se  Se657  1  0.553120  0.253670  0.275340  1.0  0.0125
  Se  Se658  1  0.698710  0.113020  0.348480  1.0  -0.0099
  Se  Se659  1  0.053120  0.753670  0.775340  1.0  0.0125
  Se  Se660  1  0.198710  0.613020  0.848480  1.0  -0.0099
  Se  Se661  1  0.946880  0.746330  0.775340  1.0  0.0139
  Se  Se662  1  0.801290  0.886980  0.848480  1.0  -0.0067
  Se  Se663  1  0.446880  0.246330  0.275340  1.0  0.0139
  Se  Se664  1  0.301290  0.386980  0.348480  1.0  -0.0067
  Se  Se665  1  0.496330  0.196880  0.474660  1.0  0.0124
  Se  Se666  1  0.636980  0.051290  0.401520  1.0  -0.01
  Se  Se667  1  0.996330  0.696880  0.974660  1.0  0.0124
  Se  Se668  1  0.136980  0.551290  0.901520  1.0  -0.01
  Se  Se669  1  0.003670  0.803120  0.974660  1.0  0.0138
  Se  Se670  1  0.863020  0.948710  0.901520  1.0  -0.009
  Se  Se671  1  0.503670  0.303120  0.474660  1.0  0.0138
  Se  Se672  1  0.363020  0.448710  0.401520  1.0  -0.009
  Br  Br673  1  0.919610  0.952320  0.512320  1.0  -0.388
  Br  Br674  1  0.419610  0.452320  0.012320  1.0  -0.388
  Br  Br675  1  0.580390  0.047680  0.012320  1.0  -0.3886
  Br  Br676  1  0.080390  0.547680  0.512320  1.0  -0.3886
  Br  Br677  1  0.202320  0.669610  0.237680  1.0  -0.387
  Br  Br678  1  0.702320  0.169610  0.737680  1.0  -0.387
  Br  Br679  1  0.297680  0.330390  0.737680  1.0  -0.3869
  Br  Br680  1  0.797680  0.830390  0.237680  1.0  -0.3869
  Br  Br681  1  0.080390  0.047680  0.487680  1.0  -0.3883
  Br  Br682  1  0.580390  0.547680  0.987680  1.0  -0.3883
  Br  Br683  1  0.419610  0.952320  0.987680  1.0  -0.3879
  Br  Br684  1  0.919610  0.452320  0.487680  1.0  -0.3879
  Br  Br685  1  0.797680  0.330390  0.762320  1.0  -0.3869
  Br  Br686  1  0.297680  0.830390  0.262320  1.0  -0.3869
  Br  Br687  1  0.702320  0.669610  0.262320  1.0  -0.3872
  Br  Br688  1  0.202320  0.169610  0.762320  1.0  -0.3872
  Br  Br689  1  0.297680  0.669610  0.762320  1.0  -0.3879
  Br  Br690  1  0.797680  0.169610  0.262320  1.0  -0.3879
  Br  Br691  1  0.202320  0.330390  0.262320  1.0  -0.3867
  Br  Br692  1  0.702320  0.830390  0.762320  1.0  -0.3867
  Br  Br693  1  0.580390  0.952320  0.487680  1.0  -0.3881
  Br  Br694  1  0.080390  0.452320  0.987680  1.0  -0.3881
  Br  Br695  1  0.919610  0.047680  0.987680  1.0  -0.3882
  Br  Br696  1  0.419610  0.547680  0.487680  1.0  -0.3882
  Br  Br697  1  0.702320  0.330390  0.237680  1.0  -0.3866
  Br  Br698  1  0.202320  0.830390  0.737680  1.0  -0.3866
  Br  Br699  1  0.797680  0.669610  0.737680  1.0  -0.3876
  Br  Br700  1  0.297680  0.169610  0.237680  1.0  -0.3876
  Br  Br701  1  0.419610  0.047680  0.512320  1.0  -0.3882
  Br  Br702  1  0.919610  0.547680  0.012320  1.0  -0.3882
  Br  Br703  1  0.080390  0.952320  0.012320  1.0  -0.3884
  Br  Br704  1  0.580390  0.452320  0.512320  1.0  -0.3884
  N  N705  1  0.067200  0.885600  0.528300  1.0  -0.4084
  N  N706  1  0.011700  0.935700  0.395400  1.0  -0.3061
  N  N707  1  0.567200  0.385600  0.028300  1.0  -0.4084
  N  N708  1  0.511700  0.435700  0.895400  1.0  -0.3061
  N  N709  1  0.432800  0.114400  0.028300  1.0  -0.4072
  N  N710  1  0.488300  0.064300  0.895400  1.0  -0.3059
  N  N711  1  0.932800  0.614400  0.528300  1.0  -0.4072
  N  N712  1  0.988300  0.564300  0.395400  1.0  -0.3059
  N  N713  1  0.135600  0.817200  0.221700  1.0  -0.4049
  N  N714  1  0.185700  0.761700  0.354600  1.0  -0.3074
  N  N715  1  0.635600  0.317200  0.721700  1.0  -0.4049
  N  N716  1  0.685700  0.261700  0.854600  1.0  -0.3074
  N  N717  1  0.364400  0.182800  0.721700  1.0  -0.4072
  N  N718  1  0.314300  0.238300  0.854600  1.0  -0.3082
  N  N719  1  0.864400  0.682800  0.221700  1.0  -0.4072
  N  N720  1  0.814300  0.738300  0.354600  1.0  -0.3082
  N  N721  1  0.932800  0.114400  0.471700  1.0  -0.4054
  N  N722  1  0.988300  0.064300  0.604600  1.0  -0.3063
  N  N723  1  0.432800  0.614400  0.971700  1.0  -0.4054
  N  N724  1  0.488300  0.564300  0.104600  1.0  -0.3063
  N  N725  1  0.567200  0.885600  0.971700  1.0  -0.4074
  N  N726  1  0.511700  0.935700  0.104600  1.0  -0.3063
  N  N727  1  0.067200  0.385600  0.471700  1.0  -0.4074
  N  N728  1  0.011700  0.435700  0.604600  1.0  -0.3063
  N  N729  1  0.864400  0.182800  0.778300  1.0  -0.4085
  N  N730  1  0.814300  0.238300  0.645400  1.0  -0.307
  N  N731  1  0.364400  0.682800  0.278300  1.0  -0.4085
  N  N732  1  0.314300  0.738300  0.145400  1.0  -0.307
  N  N733  1  0.635600  0.817200  0.278300  1.0  -0.4075
  N  N734  1  0.685700  0.761700  0.145400  1.0  -0.3069
  N  N735  1  0.135600  0.317200  0.778300  1.0  -0.4075
  N  N736  1  0.185700  0.261700  0.645400  1.0  -0.3069
  N  N737  1  0.364400  0.817200  0.778300  1.0  -0.4096
  N  N738  1  0.314300  0.761700  0.645400  1.0  -0.3064
  N  N739  1  0.864400  0.317200  0.278300  1.0  -0.4096
  N  N740  1  0.814300  0.261700  0.145400  1.0  -0.3064
  N  N741  1  0.135600  0.182800  0.278300  1.0  -0.4067
  N  N742  1  0.185700  0.238300  0.145400  1.0  -0.3074
  N  N743  1  0.635600  0.682800  0.778300  1.0  -0.4067
  N  N744  1  0.685700  0.738300  0.645400  1.0  -0.3074
  N  N745  1  0.432800  0.885600  0.471700  1.0  -0.4061
  N  N746  1  0.488300  0.935700  0.604600  1.0  -0.306
  N  N747  1  0.932800  0.385600  0.971700  1.0  -0.4061
  N  N748  1  0.988300  0.435700  0.104600  1.0  -0.306
  N  N749  1  0.067200  0.114400  0.971700  1.0  -0.4069
  N  N750  1  0.011700  0.064300  0.104600  1.0  -0.3066
  N  N751  1  0.567200  0.614400  0.471700  1.0  -0.4069
  N  N752  1  0.511700  0.564300  0.604600  1.0  -0.3066
  N  N753  1  0.635600  0.182800  0.221700  1.0  -0.4048
  N  N754  1  0.685700  0.238300  0.354600  1.0  -0.3086
  N  N755  1  0.135600  0.682800  0.721700  1.0  -0.4048
  N  N756  1  0.185700  0.738300  0.854600  1.0  -0.3086
  N  N757  1  0.864400  0.817200  0.721700  1.0  -0.4073
  N  N758  1  0.814300  0.761700  0.854600  1.0  -0.3071
  N  N759  1  0.364400  0.317200  0.221700  1.0  -0.4073
  N  N760  1  0.314300  0.261700  0.354600  1.0  -0.3071
  N  N761  1  0.567200  0.114400  0.528300  1.0  -0.4093
  N  N762  1  0.511700  0.064300  0.395400  1.0  -0.3061
  N  N763  1  0.067200  0.614400  0.028300  1.0  -0.4093
  N  N764  1  0.011700  0.564300  0.895400  1.0  -0.3061
  N  N765  1  0.932800  0.885600  0.028300  1.0  -0.4071
  N  N766  1  0.988300  0.935700  0.895400  1.0  -0.306
  N  N767  1  0.432800  0.385600  0.528300  1.0  -0.4071
  N  N768  1  0.488300  0.435700  0.395400  1.0  -0.306
