# generated using pymatgen
data_Rb3Co2H186(C25O4)6
_symmetry_space_group_name_H-M   'P 1'
_cell_length_a   27.08300000
_cell_length_b   27.08300000
_cell_length_c   27.08300000
_cell_angle_alpha   90.00000000
_cell_angle_beta   90.00000000
_cell_angle_gamma   90.00000000
_symmetry_Int_Tables_number   1
_chemical_formula_structural   Rb3Co2H186(C25O4)6
_chemical_formula_sum   'Rb12 Co8 H744 C600 O96'
_cell_volume   19865.07958079
_cell_formula_units_Z   4
loop_
 _symmetry_equiv_pos_site_id
 _symmetry_equiv_pos_as_xyz
  1  'x, y, z'
loop_
 _atom_site_type_symbol
 _atom_site_label
 _atom_site_symmetry_multiplicity
 _atom_site_fract_x
 _atom_site_fract_y
 _atom_site_fract_z
 _atom_site_occupancy
 _atom_site_charge
  Rb  Rb1  1  0.250000  0.034010  0.500000  1.0  0.8995
  Rb  Rb2  1  0.250000  0.965990  0.000000  1.0  0.8992
  Rb  Rb3  1  0.750000  0.534010  0.000000  1.0  0.8995
  Rb  Rb4  1  0.750000  0.465990  0.500000  1.0  0.8992
  Rb  Rb5  1  0.500000  0.250000  0.034010  1.0  0.8968
  Rb  Rb6  1  0.000000  0.250000  0.965990  1.0  0.8976
  Rb  Rb7  1  0.000000  0.750000  0.534010  1.0  0.8968
  Rb  Rb8  1  0.500000  0.750000  0.465990  1.0  0.8976
  Rb  Rb9  1  0.034010  0.500000  0.250000  1.0  0.8985
  Rb  Rb10  1  0.965990  0.000000  0.250000  1.0  0.899
  Rb  Rb11  1  0.534010  0.000000  0.750000  1.0  0.8985
  Rb  Rb12  1  0.465990  0.500000  0.750000  1.0  0.899
  Co  Co13  1  0.100670  0.899330  0.399330  1.0  0.7949
  Co  Co14  1  0.600670  0.399330  0.899330  1.0  0.7949
  Co  Co15  1  0.399330  0.100670  0.899330  1.0  0.795
  Co  Co16  1  0.899330  0.600670  0.399330  1.0  0.795
  Co  Co17  1  0.899330  0.399330  0.100670  1.0  0.7942
  Co  Co18  1  0.399330  0.899330  0.600670  1.0  0.7942
  Co  Co19  1  0.600670  0.600670  0.600670  1.0  0.7947
  Co  Co20  1  0.100670  0.100670  0.100670  1.0  0.7947
  H  H21  1  0.118800  0.042700  0.567700  1.0  0.0803
  H  H22  1  0.130300  0.066200  0.397600  1.0  0.0832
  H  H23  1  0.104700  0.059100  0.449200  1.0  0.0886
  H  H24  1  0.111300  0.222400  0.496200  1.0  0.0938
  H  H25  1  0.243500  0.036000  0.645000  1.0  0.0686
  H  H26  1  0.186400  0.218700  0.371600  1.0  0.0941
  H  H27  1  0.093600  0.108800  0.520200  1.0  0.106
  H  H28  1  0.104800  0.157400  0.549400  1.0  0.1024
  H  H29  1  0.179100  0.347700  0.419800  1.0  0.0951
  H  H30  1  0.204900  0.300800  0.397900  1.0  0.0941
  H  H31  1  0.200200  0.307100  0.455300  1.0  0.1029
  H  H32  1  0.227000  0.151200  0.347600  1.0  0.1035
  H  H33  1  0.197800  0.102600  0.357200  1.0  0.0991
  H  H34  1  0.160000  0.954100  0.548700  1.0  0.0982
  H  H35  1  0.174700  0.910500  0.583800  1.0  0.089
  H  H36  1  0.214700  0.948600  0.566700  1.0  0.1188
  H  H37  1  0.192700  0.925200  0.674500  1.0  0.0934
  H  H38  1  0.198500  0.979200  0.694400  1.0  0.0899
  H  H39  1  0.236300  0.958400  0.655900  1.0  0.0956
  H  H40  1  0.086500  0.338300  0.447500  1.0  0.1045
  H  H41  1  0.103300  0.302200  0.489500  1.0  0.0915
  H  H42  1  0.062600  0.285800  0.451800  1.0  0.1027
  H  H43  1  0.101900  0.319400  0.366300  1.0  0.0802
  H  H44  1  0.085100  0.264100  0.370200  1.0  0.0901
  H  H45  1  0.138100  0.277000  0.350800  1.0  0.0905
  H  H46  1  0.097000  0.979300  0.609500  1.0  0.094
  H  H47  1  0.110500  0.986800  0.665300  1.0  0.0894
  H  H48  1  0.113800  0.934100  0.641500  1.0  0.0917
  H  H49  1  0.208800  0.242000  0.569800  1.0  0.1111
  H  H50  1  0.213700  0.212600  0.619400  1.0  0.0982
  H  H51  1  0.163300  0.213400  0.591100  1.0  0.0983
  H  H52  1  0.618800  0.542700  0.067700  1.0  0.0803
  H  H53  1  0.630300  0.566200  0.897600  1.0  0.0832
  H  H54  1  0.604700  0.559100  0.949200  1.0  0.0886
  H  H55  1  0.611300  0.722400  0.996200  1.0  0.0938
  H  H56  1  0.743500  0.536000  0.145000  1.0  0.0686
  H  H57  1  0.686400  0.718700  0.871600  1.0  0.0941
  H  H58  1  0.593600  0.608800  0.020200  1.0  0.106
  H  H59  1  0.604800  0.657400  0.049400  1.0  0.1024
  H  H60  1  0.679100  0.847700  0.919800  1.0  0.0951
  H  H61  1  0.704900  0.800800  0.897900  1.0  0.0941
  H  H62  1  0.700200  0.807100  0.955300  1.0  0.1029
  H  H63  1  0.727000  0.651200  0.847600  1.0  0.1035
  H  H64  1  0.697800  0.602600  0.857200  1.0  0.0991
  H  H65  1  0.660000  0.454100  0.048700  1.0  0.0982
  H  H66  1  0.674700  0.410500  0.083800  1.0  0.089
  H  H67  1  0.714700  0.448600  0.066700  1.0  0.1188
  H  H68  1  0.692700  0.425200  0.174500  1.0  0.0934
  H  H69  1  0.698500  0.479200  0.194400  1.0  0.0899
  H  H70  1  0.736300  0.458400  0.155900  1.0  0.0956
  H  H71  1  0.586500  0.838300  0.947500  1.0  0.1045
  H  H72  1  0.603300  0.802200  0.989500  1.0  0.0915
  H  H73  1  0.562600  0.785800  0.951800  1.0  0.1027
  H  H74  1  0.601900  0.819400  0.866300  1.0  0.0802
  H  H75  1  0.585100  0.764100  0.870200  1.0  0.0901
  H  H76  1  0.638100  0.777000  0.850800  1.0  0.0905
  H  H77  1  0.597000  0.479300  0.109500  1.0  0.094
  H  H78  1  0.610500  0.486800  0.165300  1.0  0.0894
  H  H79  1  0.613800  0.434100  0.141500  1.0  0.0917
  H  H80  1  0.708800  0.742000  0.069800  1.0  0.1111
  H  H81  1  0.713700  0.712600  0.119400  1.0  0.0982
  H  H82  1  0.663300  0.713400  0.091100  1.0  0.0983
  H  H83  1  0.381200  0.957300  0.067700  1.0  0.0816
  H  H84  1  0.369700  0.933800  0.897600  1.0  0.0832
  H  H85  1  0.395300  0.940900  0.949200  1.0  0.0896
  H  H86  1  0.388700  0.777600  0.996200  1.0  0.093
  H  H87  1  0.256500  0.964000  0.145000  1.0  0.0683
  H  H88  1  0.313600  0.781300  0.871600  1.0  0.0939
  H  H89  1  0.406400  0.891200  0.020200  1.0  0.1052
  H  H90  1  0.395200  0.842600  0.049400  1.0  0.1013
  H  H91  1  0.320900  0.652300  0.919800  1.0  0.0946
  H  H92  1  0.295100  0.699200  0.897900  1.0  0.0929
  H  H93  1  0.299800  0.692900  0.955300  1.0  0.1041
  H  H94  1  0.273000  0.848800  0.847600  1.0  0.1029
  H  H95  1  0.302200  0.897400  0.857200  1.0  0.0993
  H  H96  1  0.340000  0.045900  0.048700  1.0  0.0975
  H  H97  1  0.325300  0.089500  0.083800  1.0  0.0884
  H  H98  1  0.285300  0.051400  0.066700  1.0  0.1204
  H  H99  1  0.307300  0.074800  0.174500  1.0  0.093
  H  H100  1  0.301500  0.020800  0.194400  1.0  0.0908
  H  H101  1  0.263700  0.041600  0.155900  1.0  0.0969
  H  H102  1  0.413500  0.661700  0.947500  1.0  0.1047
  H  H103  1  0.396700  0.697800  0.989500  1.0  0.0918
  H  H104  1  0.437400  0.714200  0.951800  1.0  0.1012
  H  H105  1  0.398100  0.680600  0.866300  1.0  0.0801
  H  H106  1  0.414900  0.735900  0.870200  1.0  0.0918
  H  H107  1  0.361900  0.723000  0.850800  1.0  0.09
  H  H108  1  0.403000  0.020700  0.109500  1.0  0.0926
  H  H109  1  0.389500  0.013200  0.165300  1.0  0.0887
  H  H110  1  0.386200  0.065900  0.141500  1.0  0.0894
  H  H111  1  0.291200  0.758000  0.069800  1.0  0.1117
  H  H112  1  0.286300  0.787400  0.119400  1.0  0.0986
  H  H113  1  0.336700  0.786600  0.091100  1.0  0.0953
  H  H114  1  0.881200  0.457300  0.567700  1.0  0.0816
  H  H115  1  0.869700  0.433800  0.397600  1.0  0.0832
  H  H116  1  0.895300  0.440900  0.449200  1.0  0.0896
  H  H117  1  0.888700  0.277600  0.496200  1.0  0.093
  H  H118  1  0.756500  0.464000  0.645000  1.0  0.0683
  H  H119  1  0.813600  0.281300  0.371600  1.0  0.0939
  H  H120  1  0.906400  0.391200  0.520200  1.0  0.1052
  H  H121  1  0.895200  0.342600  0.549400  1.0  0.1013
  H  H122  1  0.820900  0.152300  0.419800  1.0  0.0946
  H  H123  1  0.795100  0.199200  0.397900  1.0  0.0929
  H  H124  1  0.799800  0.192900  0.455300  1.0  0.1041
  H  H125  1  0.773000  0.348800  0.347600  1.0  0.1029
  H  H126  1  0.802200  0.397400  0.357200  1.0  0.0993
  H  H127  1  0.840000  0.545900  0.548700  1.0  0.0975
  H  H128  1  0.825300  0.589500  0.583800  1.0  0.0884
  H  H129  1  0.785300  0.551400  0.566700  1.0  0.1204
  H  H130  1  0.807300  0.574800  0.674500  1.0  0.093
  H  H131  1  0.801500  0.520800  0.694400  1.0  0.0908
  H  H132  1  0.763700  0.541600  0.655900  1.0  0.0969
  H  H133  1  0.913500  0.161700  0.447500  1.0  0.1047
  H  H134  1  0.896700  0.197800  0.489500  1.0  0.0918
  H  H135  1  0.937400  0.214200  0.451800  1.0  0.1012
  H  H136  1  0.898100  0.180600  0.366300  1.0  0.0801
  H  H137  1  0.914900  0.235900  0.370200  1.0  0.0918
  H  H138  1  0.861900  0.223000  0.350800  1.0  0.09
  H  H139  1  0.903000  0.520700  0.609500  1.0  0.0926
  H  H140  1  0.889500  0.513200  0.665300  1.0  0.0887
  H  H141  1  0.886200  0.565900  0.641500  1.0  0.0894
  H  H142  1  0.791200  0.258000  0.569800  1.0  0.1117
  H  H143  1  0.786300  0.287400  0.619400  1.0  0.0986
  H  H144  1  0.836700  0.286600  0.591100  1.0  0.0953
  H  H145  1  0.881200  0.542700  0.932300  1.0  0.0821
  H  H146  1  0.869700  0.566200  0.102400  1.0  0.0828
  H  H147  1  0.895300  0.559100  0.050800  1.0  0.0891
  H  H148  1  0.888700  0.722400  0.003800  1.0  0.0932
  H  H149  1  0.756500  0.536000  0.855000  1.0  0.0682
  H  H150  1  0.813600  0.718700  0.128400  1.0  0.0931
  H  H151  1  0.906400  0.608800  0.979800  1.0  0.1047
  H  H152  1  0.895200  0.657400  0.950600  1.0  0.1011
  H  H153  1  0.820900  0.847700  0.080200  1.0  0.0961
  H  H154  1  0.795100  0.800800  0.102100  1.0  0.0942
  H  H155  1  0.799800  0.807100  0.044700  1.0  0.1038
  H  H156  1  0.773000  0.651200  0.152400  1.0  0.1045
  H  H157  1  0.802200  0.602600  0.142800  1.0  0.1003
  H  H158  1  0.840000  0.454100  0.951300  1.0  0.0983
  H  H159  1  0.825300  0.410500  0.916200  1.0  0.0889
  H  H160  1  0.785300  0.448600  0.933300  1.0  0.1211
  H  H161  1  0.807300  0.425200  0.825500  1.0  0.0912
  H  H162  1  0.801500  0.479200  0.805600  1.0  0.0904
  H  H163  1  0.763700  0.458400  0.844100  1.0  0.0968
  H  H164  1  0.913500  0.838300  0.052500  1.0  0.1052
  H  H165  1  0.896700  0.802200  0.010500  1.0  0.093
  H  H166  1  0.937400  0.785800  0.048200  1.0  0.1021
  H  H167  1  0.898100  0.819400  0.133700  1.0  0.0801
  H  H168  1  0.914900  0.764100  0.129800  1.0  0.0914
  H  H169  1  0.861900  0.777000  0.149200  1.0  0.0908
  H  H170  1  0.903000  0.479300  0.890500  1.0  0.0921
  H  H171  1  0.889500  0.486800  0.834700  1.0  0.0885
  H  H172  1  0.886200  0.434100  0.858500  1.0  0.0919
  H  H173  1  0.791200  0.742000  0.930200  1.0  0.1101
  H  H174  1  0.786300  0.712600  0.880600  1.0  0.096
  H  H175  1  0.836700  0.713400  0.908900  1.0  0.0965
  H  H176  1  0.381200  0.042700  0.432300  1.0  0.0821
  H  H177  1  0.369700  0.066200  0.602400  1.0  0.0828
  H  H178  1  0.395300  0.059100  0.550800  1.0  0.0891
  H  H179  1  0.388700  0.222400  0.503800  1.0  0.0932
  H  H180  1  0.256500  0.036000  0.355000  1.0  0.0682
  H  H181  1  0.313600  0.218700  0.628400  1.0  0.0931
  H  H182  1  0.406400  0.108800  0.479800  1.0  0.1047
  H  H183  1  0.395200  0.157400  0.450600  1.0  0.1011
  H  H184  1  0.320900  0.347700  0.580200  1.0  0.0961
  H  H185  1  0.295100  0.300800  0.602100  1.0  0.0942
  H  H186  1  0.299800  0.307100  0.544700  1.0  0.1038
  H  H187  1  0.273000  0.151200  0.652400  1.0  0.1045
  H  H188  1  0.302200  0.102600  0.642800  1.0  0.1003
  H  H189  1  0.340000  0.954100  0.451300  1.0  0.0983
  H  H190  1  0.325300  0.910500  0.416200  1.0  0.0889
  H  H191  1  0.285300  0.948600  0.433300  1.0  0.1211
  H  H192  1  0.307300  0.925200  0.325500  1.0  0.0912
  H  H193  1  0.301500  0.979200  0.305600  1.0  0.0904
  H  H194  1  0.263700  0.958400  0.344100  1.0  0.0968
  H  H195  1  0.413500  0.338300  0.552500  1.0  0.1052
  H  H196  1  0.396700  0.302200  0.510500  1.0  0.093
  H  H197  1  0.437400  0.285800  0.548200  1.0  0.1021
  H  H198  1  0.398100  0.319400  0.633700  1.0  0.0801
  H  H199  1  0.414900  0.264100  0.629800  1.0  0.0914
  H  H200  1  0.361900  0.277000  0.649200  1.0  0.0908
  H  H201  1  0.403000  0.979300  0.390500  1.0  0.0921
  H  H202  1  0.389500  0.986800  0.334700  1.0  0.0885
  H  H203  1  0.386200  0.934100  0.358500  1.0  0.0919
  H  H204  1  0.291200  0.242000  0.430200  1.0  0.1101
  H  H205  1  0.286300  0.212600  0.380600  1.0  0.096
  H  H206  1  0.336700  0.213400  0.408900  1.0  0.0965
  H  H207  1  0.618800  0.457300  0.432300  1.0  0.0807
  H  H208  1  0.630300  0.433800  0.602400  1.0  0.0824
  H  H209  1  0.604700  0.440900  0.550800  1.0  0.089
  H  H210  1  0.611300  0.277600  0.503800  1.0  0.0931
  H  H211  1  0.743500  0.464000  0.355000  1.0  0.0688
  H  H212  1  0.686400  0.281300  0.628400  1.0  0.0934
  H  H213  1  0.593600  0.391200  0.479800  1.0  0.1062
  H  H214  1  0.604800  0.342600  0.450600  1.0  0.1016
  H  H215  1  0.679100  0.152300  0.580200  1.0  0.0957
  H  H216  1  0.704900  0.199200  0.602100  1.0  0.094
  H  H217  1  0.700200  0.192900  0.544700  1.0  0.1047
  H  H218  1  0.727000  0.348800  0.652400  1.0  0.1051
  H  H219  1  0.697800  0.397400  0.642800  1.0  0.0984
  H  H220  1  0.660000  0.545900  0.451300  1.0  0.0974
  H  H221  1  0.674700  0.589500  0.416200  1.0  0.0882
  H  H222  1  0.714700  0.551400  0.433300  1.0  0.1193
  H  H223  1  0.692700  0.574800  0.325500  1.0  0.0923
  H  H224  1  0.698500  0.520800  0.305600  1.0  0.0919
  H  H225  1  0.736300  0.541600  0.344100  1.0  0.097
  H  H226  1  0.586500  0.161700  0.552500  1.0  0.1036
  H  H227  1  0.603300  0.197800  0.510500  1.0  0.0928
  H  H228  1  0.562600  0.214200  0.548200  1.0  0.0993
  H  H229  1  0.601900  0.180600  0.633700  1.0  0.0798
  H  H230  1  0.585100  0.235900  0.629800  1.0  0.091
  H  H231  1  0.638100  0.223000  0.649200  1.0  0.091
  H  H232  1  0.597000  0.520700  0.390500  1.0  0.0922
  H  H233  1  0.610500  0.513200  0.334700  1.0  0.0886
  H  H234  1  0.613800  0.565900  0.358500  1.0  0.0891
  H  H235  1  0.708800  0.258000  0.430200  1.0  0.1115
  H  H236  1  0.713700  0.287400  0.380600  1.0  0.0948
  H  H237  1  0.663300  0.286600  0.408900  1.0  0.0977
  H  H238  1  0.118800  0.957300  0.932300  1.0  0.0807
  H  H239  1  0.130300  0.933800  0.102400  1.0  0.0824
  H  H240  1  0.104700  0.940900  0.050800  1.0  0.089
  H  H241  1  0.111300  0.777600  0.003800  1.0  0.0931
  H  H242  1  0.243500  0.964000  0.855000  1.0  0.0688
  H  H243  1  0.186400  0.781300  0.128400  1.0  0.0934
  H  H244  1  0.093600  0.891200  0.979800  1.0  0.1062
  H  H245  1  0.104800  0.842600  0.950600  1.0  0.1016
  H  H246  1  0.179100  0.652300  0.080200  1.0  0.0957
  H  H247  1  0.204900  0.699200  0.102100  1.0  0.094
  H  H248  1  0.200200  0.692900  0.044700  1.0  0.1047
  H  H249  1  0.227000  0.848800  0.152400  1.0  0.1051
  H  H250  1  0.197800  0.897400  0.142800  1.0  0.0984
  H  H251  1  0.160000  0.045900  0.951300  1.0  0.0974
  H  H252  1  0.174700  0.089500  0.916200  1.0  0.0882
  H  H253  1  0.214700  0.051400  0.933300  1.0  0.1193
  H  H254  1  0.192700  0.074800  0.825500  1.0  0.0923
  H  H255  1  0.198500  0.020800  0.805600  1.0  0.0919
  H  H256  1  0.236300  0.041600  0.844100  1.0  0.097
  H  H257  1  0.086500  0.661700  0.052500  1.0  0.1036
  H  H258  1  0.103300  0.697800  0.010500  1.0  0.0928
  H  H259  1  0.062600  0.714200  0.048200  1.0  0.0993
  H  H260  1  0.101900  0.680600  0.133700  1.0  0.0798
  H  H261  1  0.085100  0.735900  0.129800  1.0  0.091
  H  H262  1  0.138100  0.723000  0.149200  1.0  0.091
  H  H263  1  0.097000  0.020700  0.890500  1.0  0.0922
  H  H264  1  0.110500  0.013200  0.834700  1.0  0.0886
  H  H265  1  0.113800  0.065900  0.858500  1.0  0.0891
  H  H266  1  0.208800  0.758000  0.930200  1.0  0.1115
  H  H267  1  0.213700  0.787400  0.880600  1.0  0.0948
  H  H268  1  0.163300  0.786600  0.908900  1.0  0.0977
  H  H269  1  0.567700  0.118800  0.042700  1.0  0.0786
  H  H270  1  0.397600  0.130300  0.066200  1.0  0.0845
  H  H271  1  0.449200  0.104700  0.059100  1.0  0.0901
  H  H272  1  0.496200  0.111300  0.222400  1.0  0.0938
  H  H273  1  0.645000  0.243500  0.036000  1.0  0.0688
  H  H274  1  0.371600  0.186400  0.218700  1.0  0.093
  H  H275  1  0.520200  0.093600  0.108800  1.0  0.1032
  H  H276  1  0.549400  0.104800  0.157400  1.0  0.1023
  H  H277  1  0.419800  0.179100  0.347700  1.0  0.0954
  H  H278  1  0.397900  0.204900  0.300800  1.0  0.0922
  H  H279  1  0.455300  0.200200  0.307100  1.0  0.1045
  H  H280  1  0.347600  0.227000  0.151200  1.0  0.1036
  H  H281  1  0.357200  0.197800  0.102600  1.0  0.0997
  H  H282  1  0.548700  0.160000  0.954100  1.0  0.0966
  H  H283  1  0.583800  0.174700  0.910500  1.0  0.0885
  H  H284  1  0.566700  0.214700  0.948600  1.0  0.1207
  H  H285  1  0.674500  0.192700  0.925200  1.0  0.0911
  H  H286  1  0.694400  0.198500  0.979200  1.0  0.0905
  H  H287  1  0.655900  0.236300  0.958400  1.0  0.0924
  H  H288  1  0.447500  0.086500  0.338300  1.0  0.1042
  H  H289  1  0.489500  0.103300  0.302200  1.0  0.0908
  H  H290  1  0.451800  0.062600  0.285800  1.0  0.1022
  H  H291  1  0.366300  0.101900  0.319400  1.0  0.0805
  H  H292  1  0.370200  0.085100  0.264100  1.0  0.0913
  H  H293  1  0.350800  0.138100  0.277000  1.0  0.0926
  H  H294  1  0.609500  0.097000  0.979300  1.0  0.0923
  H  H295  1  0.665300  0.110500  0.986800  1.0  0.088
  H  H296  1  0.641500  0.113800  0.934100  1.0  0.0867
  H  H297  1  0.569800  0.208800  0.242000  1.0  0.111
  H  H298  1  0.619400  0.213700  0.212600  1.0  0.0932
  H  H299  1  0.591100  0.163300  0.213400  1.0  0.1007
  H  H300  1  0.067700  0.618800  0.542700  1.0  0.0786
  H  H301  1  0.897600  0.630300  0.566200  1.0  0.0845
  H  H302  1  0.949200  0.604700  0.559100  1.0  0.0901
  H  H303  1  0.996200  0.611300  0.722400  1.0  0.0938
  H  H304  1  0.145000  0.743500  0.536000  1.0  0.0688
  H  H305  1  0.871600  0.686400  0.718700  1.0  0.093
  H  H306  1  0.020200  0.593600  0.608800  1.0  0.1032
  H  H307  1  0.049400  0.604800  0.657400  1.0  0.1023
  H  H308  1  0.919800  0.679100  0.847700  1.0  0.0954
  H  H309  1  0.897900  0.704900  0.800800  1.0  0.0922
  H  H310  1  0.955300  0.700200  0.807100  1.0  0.1045
  H  H311  1  0.847600  0.727000  0.651200  1.0  0.1036
  H  H312  1  0.857200  0.697800  0.602600  1.0  0.0997
  H  H313  1  0.048700  0.660000  0.454100  1.0  0.0966
  H  H314  1  0.083800  0.674700  0.410500  1.0  0.0885
  H  H315  1  0.066700  0.714700  0.448600  1.0  0.1207
  H  H316  1  0.174500  0.692700  0.425200  1.0  0.0911
  H  H317  1  0.194400  0.698500  0.479200  1.0  0.0905
  H  H318  1  0.155900  0.736300  0.458400  1.0  0.0924
  H  H319  1  0.947500  0.586500  0.838300  1.0  0.1042
  H  H320  1  0.989500  0.603300  0.802200  1.0  0.0908
  H  H321  1  0.951800  0.562600  0.785800  1.0  0.1022
  H  H322  1  0.866300  0.601900  0.819400  1.0  0.0805
  H  H323  1  0.870200  0.585100  0.764100  1.0  0.0913
  H  H324  1  0.850800  0.638100  0.777000  1.0  0.0926
  H  H325  1  0.109500  0.597000  0.479300  1.0  0.0923
  H  H326  1  0.165300  0.610500  0.486800  1.0  0.088
  H  H327  1  0.141500  0.613800  0.434100  1.0  0.0867
  H  H328  1  0.069800  0.708800  0.742000  1.0  0.111
  H  H329  1  0.119400  0.713700  0.712600  1.0  0.0932
  H  H330  1  0.091100  0.663300  0.713400  1.0  0.1007
  H  H331  1  0.067700  0.381200  0.957300  1.0  0.0799
  H  H332  1  0.897600  0.369700  0.933800  1.0  0.0845
  H  H333  1  0.949200  0.395300  0.940900  1.0  0.0904
  H  H334  1  0.996200  0.388700  0.777600  1.0  0.0943
  H  H335  1  0.145000  0.256500  0.964000  1.0  0.0691
  H  H336  1  0.871600  0.313600  0.781300  1.0  0.0923
  H  H337  1  0.020200  0.406400  0.891200  1.0  0.1036
  H  H338  1  0.049400  0.395200  0.842600  1.0  0.1014
  H  H339  1  0.919800  0.320900  0.652300  1.0  0.0953
  H  H340  1  0.897900  0.295100  0.699200  1.0  0.0925
  H  H341  1  0.955300  0.299800  0.692900  1.0  0.1072
  H  H342  1  0.847600  0.273000  0.848800  1.0  0.1038
  H  H343  1  0.857200  0.302200  0.897400  1.0  0.0994
  H  H344  1  0.048700  0.340000  0.045900  1.0  0.0973
  H  H345  1  0.083800  0.325300  0.089500  1.0  0.089
  H  H346  1  0.066700  0.285300  0.051400  1.0  0.1192
  H  H347  1  0.174500  0.307300  0.074800  1.0  0.09
  H  H348  1  0.194400  0.301500  0.020800  1.0  0.0906
  H  H349  1  0.155900  0.263700  0.041600  1.0  0.0909
  H  H350  1  0.947500  0.413500  0.661700  1.0  0.1043
  H  H351  1  0.989500  0.396700  0.697800  1.0  0.0919
  H  H352  1  0.951800  0.437400  0.714200  1.0  0.1017
  H  H353  1  0.866300  0.398100  0.680600  1.0  0.0799
  H  H354  1  0.870200  0.414900  0.735900  1.0  0.0916
  H  H355  1  0.850800  0.361900  0.723000  1.0  0.0931
  H  H356  1  0.109500  0.403000  0.020700  1.0  0.0921
  H  H357  1  0.165300  0.389500  0.013200  1.0  0.0885
  H  H358  1  0.141500  0.386200  0.065900  1.0  0.0871
  H  H359  1  0.069800  0.291200  0.758000  1.0  0.1128
  H  H360  1  0.119400  0.286300  0.787400  1.0  0.0943
  H  H361  1  0.091100  0.336700  0.786600  1.0  0.1007
  H  H362  1  0.567700  0.881200  0.457300  1.0  0.0799
  H  H363  1  0.397600  0.869700  0.433800  1.0  0.0845
  H  H364  1  0.449200  0.895300  0.440900  1.0  0.0904
  H  H365  1  0.496200  0.888700  0.277600  1.0  0.0943
  H  H366  1  0.645000  0.756500  0.464000  1.0  0.0691
  H  H367  1  0.371600  0.813600  0.281300  1.0  0.0923
  H  H368  1  0.520200  0.906400  0.391200  1.0  0.1036
  H  H369  1  0.549400  0.895200  0.342600  1.0  0.1014
  H  H370  1  0.419800  0.820900  0.152300  1.0  0.0953
  H  H371  1  0.397900  0.795100  0.199200  1.0  0.0925
  H  H372  1  0.455300  0.799800  0.192900  1.0  0.1072
  H  H373  1  0.347600  0.773000  0.348800  1.0  0.1038
  H  H374  1  0.357200  0.802200  0.397400  1.0  0.0994
  H  H375  1  0.548700  0.840000  0.545900  1.0  0.0973
  H  H376  1  0.583800  0.825300  0.589500  1.0  0.089
  H  H377  1  0.566700  0.785300  0.551400  1.0  0.1192
  H  H378  1  0.674500  0.807300  0.574800  1.0  0.09
  H  H379  1  0.694400  0.801500  0.520800  1.0  0.0906
  H  H380  1  0.655900  0.763700  0.541600  1.0  0.0909
  H  H381  1  0.447500  0.913500  0.161700  1.0  0.1043
  H  H382  1  0.489500  0.896700  0.197800  1.0  0.0919
  H  H383  1  0.451800  0.937400  0.214200  1.0  0.1017
  H  H384  1  0.366300  0.898100  0.180600  1.0  0.0799
  H  H385  1  0.370200  0.914900  0.235900  1.0  0.0916
  H  H386  1  0.350800  0.861900  0.223000  1.0  0.0931
  H  H387  1  0.609500  0.903000  0.520700  1.0  0.0921
  H  H388  1  0.665300  0.889500  0.513200  1.0  0.0885
  H  H389  1  0.641500  0.886200  0.565900  1.0  0.0871
  H  H390  1  0.569800  0.791200  0.258000  1.0  0.1128
  H  H391  1  0.619400  0.786300  0.287400  1.0  0.0943
  H  H392  1  0.591100  0.836700  0.286600  1.0  0.1007
  H  H393  1  0.932300  0.881200  0.542700  1.0  0.079
  H  H394  1  0.102400  0.869700  0.566200  1.0  0.0858
  H  H395  1  0.050800  0.895300  0.559100  1.0  0.0909
  H  H396  1  0.003800  0.888700  0.722400  1.0  0.0946
  H  H397  1  0.855000  0.756500  0.536000  1.0  0.068
  H  H398  1  0.128400  0.813600  0.718700  1.0  0.0939
  H  H399  1  0.979800  0.906400  0.608800  1.0  0.1057
  H  H400  1  0.950600  0.895200  0.657400  1.0  0.1017
  H  H401  1  0.080200  0.820900  0.847700  1.0  0.096
  H  H402  1  0.102100  0.795100  0.800800  1.0  0.0921
  H  H403  1  0.044700  0.799800  0.807100  1.0  0.1064
  H  H404  1  0.152400  0.773000  0.651200  1.0  0.1054
  H  H405  1  0.142800  0.802200  0.602600  1.0  0.099
  H  H406  1  0.951300  0.840000  0.454100  1.0  0.0965
  H  H407  1  0.916200  0.825300  0.410500  1.0  0.0875
  H  H408  1  0.933300  0.785300  0.448600  1.0  0.1183
  H  H409  1  0.825500  0.807300  0.425200  1.0  0.0911
  H  H410  1  0.805600  0.801500  0.479200  1.0  0.089
  H  H411  1  0.844100  0.763700  0.458400  1.0  0.09
  H  H412  1  0.052500  0.913500  0.838300  1.0  0.1041
  H  H413  1  0.010500  0.896700  0.802200  1.0  0.0931
  H  H414  1  0.048200  0.937400  0.785800  1.0  0.1031
  H  H415  1  0.133700  0.898100  0.819400  1.0  0.08
  H  H416  1  0.129800  0.914900  0.764100  1.0  0.0925
  H  H417  1  0.149200  0.861900  0.777000  1.0  0.0929
  H  H418  1  0.890500  0.903000  0.479300  1.0  0.0916
  H  H419  1  0.834700  0.889500  0.486800  1.0  0.0879
  H  H420  1  0.858500  0.886200  0.434100  1.0  0.087
  H  H421  1  0.930200  0.791200  0.742000  1.0  0.1123
  H  H422  1  0.880600  0.786300  0.712600  1.0  0.0971
  H  H423  1  0.908900  0.836700  0.713400  1.0  0.1007
  H  H424  1  0.432300  0.381200  0.042700  1.0  0.079
  H  H425  1  0.602400  0.369700  0.066200  1.0  0.0858
  H  H426  1  0.550800  0.395300  0.059100  1.0  0.0909
  H  H427  1  0.503800  0.388700  0.222400  1.0  0.0946
  H  H428  1  0.355000  0.256500  0.036000  1.0  0.068
  H  H429  1  0.628400  0.313600  0.218700  1.0  0.0939
  H  H430  1  0.479800  0.406400  0.108800  1.0  0.1057
  H  H431  1  0.450600  0.395200  0.157400  1.0  0.1017
  H  H432  1  0.580200  0.320900  0.347700  1.0  0.096
  H  H433  1  0.602100  0.295100  0.300800  1.0  0.0921
  H  H434  1  0.544700  0.299800  0.307100  1.0  0.1064
  H  H435  1  0.652400  0.273000  0.151200  1.0  0.1054
  H  H436  1  0.642800  0.302200  0.102600  1.0  0.099
  H  H437  1  0.451300  0.340000  0.954100  1.0  0.0965
  H  H438  1  0.416200  0.325300  0.910500  1.0  0.0875
  H  H439  1  0.433300  0.285300  0.948600  1.0  0.1183
  H  H440  1  0.325500  0.307300  0.925200  1.0  0.0911
  H  H441  1  0.305600  0.301500  0.979200  1.0  0.089
  H  H442  1  0.344100  0.263700  0.958400  1.0  0.09
  H  H443  1  0.552500  0.413500  0.338300  1.0  0.1041
  H  H444  1  0.510500  0.396700  0.302200  1.0  0.0931
  H  H445  1  0.548200  0.437400  0.285800  1.0  0.1031
  H  H446  1  0.633700  0.398100  0.319400  1.0  0.08
  H  H447  1  0.629800  0.414900  0.264100  1.0  0.0925
  H  H448  1  0.649200  0.361900  0.277000  1.0  0.0929
  H  H449  1  0.390500  0.403000  0.979300  1.0  0.0916
  H  H450  1  0.334700  0.389500  0.986800  1.0  0.0879
  H  H451  1  0.358500  0.386200  0.934100  1.0  0.087
  H  H452  1  0.430200  0.291200  0.242000  1.0  0.1123
  H  H453  1  0.380600  0.286300  0.212600  1.0  0.0971
  H  H454  1  0.408900  0.336700  0.213400  1.0  0.1007
  H  H455  1  0.432300  0.618800  0.457300  1.0  0.0786
  H  H456  1  0.602400  0.630300  0.433800  1.0  0.086
  H  H457  1  0.550800  0.604700  0.440900  1.0  0.0904
  H  H458  1  0.503800  0.611300  0.277600  1.0  0.0925
  H  H459  1  0.355000  0.743500  0.464000  1.0  0.0693
  H  H460  1  0.628400  0.686400  0.281300  1.0  0.0925
  H  H461  1  0.479800  0.593600  0.391200  1.0  0.1049
  H  H462  1  0.450600  0.604800  0.342600  1.0  0.1017
  H  H463  1  0.580200  0.679100  0.152300  1.0  0.0947
  H  H464  1  0.602100  0.704900  0.199200  1.0  0.0925
  H  H465  1  0.544700  0.700200  0.192900  1.0  0.1031
  H  H466  1  0.652400  0.727000  0.348800  1.0  0.1048
  H  H467  1  0.642800  0.697800  0.397400  1.0  0.0988
  H  H468  1  0.451300  0.660000  0.545900  1.0  0.0973
  H  H469  1  0.416200  0.674700  0.589500  1.0  0.0868
  H  H470  1  0.433300  0.714700  0.551400  1.0  0.1202
  H  H471  1  0.325500  0.692700  0.574800  1.0  0.0924
  H  H472  1  0.305600  0.698500  0.520800  1.0  0.0891
  H  H473  1  0.344100  0.736300  0.541600  1.0  0.0915
  H  H474  1  0.552500  0.586500  0.161700  1.0  0.1024
  H  H475  1  0.510500  0.603300  0.197800  1.0  0.0925
  H  H476  1  0.548200  0.562600  0.214200  1.0  0.101
  H  H477  1  0.633700  0.601900  0.180600  1.0  0.0798
  H  H478  1  0.629800  0.585100  0.235900  1.0  0.0919
  H  H479  1  0.649200  0.638100  0.223000  1.0  0.0933
  H  H480  1  0.390500  0.597000  0.520700  1.0  0.0912
  H  H481  1  0.334700  0.610500  0.513200  1.0  0.0875
  H  H482  1  0.358500  0.613800  0.565900  1.0  0.0876
  H  H483  1  0.430200  0.708800  0.258000  1.0  0.1117
  H  H484  1  0.380600  0.713700  0.287400  1.0  0.0937
  H  H485  1  0.408900  0.663300  0.286600  1.0  0.0973
  H  H486  1  0.932300  0.118800  0.957300  1.0  0.0786
  H  H487  1  0.102400  0.130300  0.933800  1.0  0.086
  H  H488  1  0.050800  0.104700  0.940900  1.0  0.0904
  H  H489  1  0.003800  0.111300  0.777600  1.0  0.0925
  H  H490  1  0.855000  0.243500  0.964000  1.0  0.0693
  H  H491  1  0.128400  0.186400  0.781300  1.0  0.0925
  H  H492  1  0.979800  0.093600  0.891200  1.0  0.1049
  H  H493  1  0.950600  0.104800  0.842600  1.0  0.1017
  H  H494  1  0.080200  0.179100  0.652300  1.0  0.0947
  H  H495  1  0.102100  0.204900  0.699200  1.0  0.0925
  H  H496  1  0.044700  0.200200  0.692900  1.0  0.1031
  H  H497  1  0.152400  0.227000  0.848800  1.0  0.1048
  H  H498  1  0.142800  0.197800  0.897400  1.0  0.0988
  H  H499  1  0.951300  0.160000  0.045900  1.0  0.0973
  H  H500  1  0.916200  0.174700  0.089500  1.0  0.0868
  H  H501  1  0.933300  0.214700  0.051400  1.0  0.1202
  H  H502  1  0.825500  0.192700  0.074800  1.0  0.0924
  H  H503  1  0.805600  0.198500  0.020800  1.0  0.0891
  H  H504  1  0.844100  0.236300  0.041600  1.0  0.0915
  H  H505  1  0.052500  0.086500  0.661700  1.0  0.1024
  H  H506  1  0.010500  0.103300  0.697800  1.0  0.0925
  H  H507  1  0.048200  0.062600  0.714200  1.0  0.101
  H  H508  1  0.133700  0.101900  0.680600  1.0  0.0798
  H  H509  1  0.129800  0.085100  0.735900  1.0  0.0919
  H  H510  1  0.149200  0.138100  0.723000  1.0  0.0933
  H  H511  1  0.890500  0.097000  0.020700  1.0  0.0912
  H  H512  1  0.834700  0.110500  0.013200  1.0  0.0875
  H  H513  1  0.858500  0.113800  0.065900  1.0  0.0876
  H  H514  1  0.930200  0.208800  0.758000  1.0  0.1117
  H  H515  1  0.880600  0.213700  0.787400  1.0  0.0937
  H  H516  1  0.908900  0.163300  0.786600  1.0  0.0973
  H  H517  1  0.042700  0.567700  0.118800  1.0  0.08
  H  H518  1  0.066200  0.397600  0.130300  1.0  0.0853
  H  H519  1  0.059100  0.449200  0.104700  1.0  0.0897
  H  H520  1  0.222400  0.496200  0.111300  1.0  0.0927
  H  H521  1  0.036000  0.645000  0.243500  1.0  0.0681
  H  H522  1  0.218700  0.371600  0.186400  1.0  0.0936
  H  H523  1  0.108800  0.520200  0.093600  1.0  0.1041
  H  H524  1  0.157400  0.549400  0.104800  1.0  0.1007
  H  H525  1  0.347700  0.419800  0.179100  1.0  0.094
  H  H526  1  0.300800  0.397900  0.204900  1.0  0.0945
  H  H527  1  0.307100  0.455300  0.200200  1.0  0.1049
  H  H528  1  0.151200  0.347600  0.227000  1.0  0.1042
  H  H529  1  0.102600  0.357200  0.197800  1.0  0.0992
  H  H530  1  0.954100  0.548700  0.160000  1.0  0.0942
  H  H531  1  0.910500  0.583800  0.174700  1.0  0.0918
  H  H532  1  0.948600  0.566700  0.214700  1.0  0.119
  H  H533  1  0.925200  0.674500  0.192700  1.0  0.0942
  H  H534  1  0.979200  0.694400  0.198500  1.0  0.0893
  H  H535  1  0.958400  0.655900  0.236300  1.0  0.0904
  H  H536  1  0.338300  0.447500  0.086500  1.0  0.107
  H  H537  1  0.302200  0.489500  0.103300  1.0  0.0914
  H  H538  1  0.285800  0.451800  0.062600  1.0  0.1012
  H  H539  1  0.319400  0.366300  0.101900  1.0  0.0792
  H  H540  1  0.264100  0.370200  0.085100  1.0  0.0911
  H  H541  1  0.277000  0.350800  0.138100  1.0  0.0959
  H  H542  1  0.979300  0.609500  0.097000  1.0  0.0921
  H  H543  1  0.986800  0.665300  0.110500  1.0  0.0904
  H  H544  1  0.934100  0.641500  0.113800  1.0  0.0871
  H  H545  1  0.242000  0.569800  0.208800  1.0  0.1129
  H  H546  1  0.212600  0.619400  0.213700  1.0  0.0981
  H  H547  1  0.213400  0.591100  0.163300  1.0  0.0983
  H  H548  1  0.542700  0.067700  0.618800  1.0  0.08
  H  H549  1  0.566200  0.897600  0.630300  1.0  0.0853
  H  H550  1  0.559100  0.949200  0.604700  1.0  0.0897
  H  H551  1  0.722400  0.996200  0.611300  1.0  0.0927
  H  H552  1  0.536000  0.145000  0.743500  1.0  0.0681
  H  H553  1  0.718700  0.871600  0.686400  1.0  0.0936
  H  H554  1  0.608800  0.020200  0.593600  1.0  0.1041
  H  H555  1  0.657400  0.049400  0.604800  1.0  0.1007
  H  H556  1  0.847700  0.919800  0.679100  1.0  0.094
  H  H557  1  0.800800  0.897900  0.704900  1.0  0.0945
  H  H558  1  0.807100  0.955300  0.700200  1.0  0.1049
  H  H559  1  0.651200  0.847600  0.727000  1.0  0.1042
  H  H560  1  0.602600  0.857200  0.697800  1.0  0.0992
  H  H561  1  0.454100  0.048700  0.660000  1.0  0.0942
  H  H562  1  0.410500  0.083800  0.674700  1.0  0.0918
  H  H563  1  0.448600  0.066700  0.714700  1.0  0.119
  H  H564  1  0.425200  0.174500  0.692700  1.0  0.0942
  H  H565  1  0.479200  0.194400  0.698500  1.0  0.0893
  H  H566  1  0.458400  0.155900  0.736300  1.0  0.0904
  H  H567  1  0.838300  0.947500  0.586500  1.0  0.107
  H  H568  1  0.802200  0.989500  0.603300  1.0  0.0914
  H  H569  1  0.785800  0.951800  0.562600  1.0  0.1012
  H  H570  1  0.819400  0.866300  0.601900  1.0  0.0792
  H  H571  1  0.764100  0.870200  0.585100  1.0  0.0911
  H  H572  1  0.777000  0.850800  0.638100  1.0  0.0959
  H  H573  1  0.479300  0.109500  0.597000  1.0  0.0921
  H  H574  1  0.486800  0.165300  0.610500  1.0  0.0904
  H  H575  1  0.434100  0.141500  0.613800  1.0  0.0871
  H  H576  1  0.742000  0.069800  0.708800  1.0  0.1129
  H  H577  1  0.712600  0.119400  0.713700  1.0  0.0981
  H  H578  1  0.713400  0.091100  0.663300  1.0  0.0983
  H  H579  1  0.957300  0.067700  0.381200  1.0  0.0795
  H  H580  1  0.933800  0.897600  0.369700  1.0  0.0848
  H  H581  1  0.940900  0.949200  0.395300  1.0  0.0895
  H  H582  1  0.777600  0.996200  0.388700  1.0  0.094
  H  H583  1  0.964000  0.145000  0.256500  1.0  0.0671
  H  H584  1  0.781300  0.871600  0.313600  1.0  0.0923
  H  H585  1  0.891200  0.020200  0.406400  1.0  0.1041
  H  H586  1  0.842600  0.049400  0.395200  1.0  0.1007
  H  H587  1  0.652300  0.919800  0.320900  1.0  0.0936
  H  H588  1  0.699200  0.897900  0.295100  1.0  0.0945
  H  H589  1  0.692900  0.955300  0.299800  1.0  0.1049
  H  H590  1  0.848800  0.847600  0.273000  1.0  0.1043
  H  H591  1  0.897400  0.857200  0.302200  1.0  0.0991
  H  H592  1  0.045900  0.048700  0.340000  1.0  0.0958
  H  H593  1  0.089500  0.083800  0.325300  1.0  0.0906
  H  H594  1  0.051400  0.066700  0.285300  1.0  0.1173
  H  H595  1  0.074800  0.174500  0.307300  1.0  0.0943
  H  H596  1  0.020800  0.194400  0.301500  1.0  0.0909
  H  H597  1  0.041600  0.155900  0.263700  1.0  0.0924
  H  H598  1  0.661700  0.947500  0.413500  1.0  0.1066
  H  H599  1  0.697800  0.989500  0.396700  1.0  0.0929
  H  H600  1  0.714200  0.951800  0.437400  1.0  0.0999
  H  H601  1  0.680600  0.866300  0.398100  1.0  0.081
  H  H602  1  0.735900  0.870200  0.414900  1.0  0.0923
  H  H603  1  0.723000  0.850800  0.361900  1.0  0.0965
  H  H604  1  0.020700  0.109500  0.403000  1.0  0.0934
  H  H605  1  0.013200  0.165300  0.389500  1.0  0.0906
  H  H606  1  0.065900  0.141500  0.386200  1.0  0.0867
  H  H607  1  0.758000  0.069800  0.291200  1.0  0.1122
  H  H608  1  0.787400  0.119400  0.286300  1.0  0.098
  H  H609  1  0.786600  0.091100  0.336700  1.0  0.0979
  H  H610  1  0.457300  0.567700  0.881200  1.0  0.0795
  H  H611  1  0.433800  0.397600  0.869700  1.0  0.0848
  H  H612  1  0.440900  0.449200  0.895300  1.0  0.0895
  H  H613  1  0.277600  0.496200  0.888700  1.0  0.094
  H  H614  1  0.464000  0.645000  0.756500  1.0  0.0671
  H  H615  1  0.281300  0.371600  0.813600  1.0  0.0923
  H  H616  1  0.391200  0.520200  0.906400  1.0  0.1041
  H  H617  1  0.342600  0.549400  0.895200  1.0  0.1007
  H  H618  1  0.152300  0.419800  0.820900  1.0  0.0936
  H  H619  1  0.199200  0.397900  0.795100  1.0  0.0945
  H  H620  1  0.192900  0.455300  0.799800  1.0  0.1049
  H  H621  1  0.348800  0.347600  0.773000  1.0  0.1043
  H  H622  1  0.397400  0.357200  0.802200  1.0  0.0991
  H  H623  1  0.545900  0.548700  0.840000  1.0  0.0958
  H  H624  1  0.589500  0.583800  0.825300  1.0  0.0906
  H  H625  1  0.551400  0.566700  0.785300  1.0  0.1173
  H  H626  1  0.574800  0.674500  0.807300  1.0  0.0943
  H  H627  1  0.520800  0.694400  0.801500  1.0  0.0909
  H  H628  1  0.541600  0.655900  0.763700  1.0  0.0924
  H  H629  1  0.161700  0.447500  0.913500  1.0  0.1066
  H  H630  1  0.197800  0.489500  0.896700  1.0  0.0929
  H  H631  1  0.214200  0.451800  0.937400  1.0  0.0999
  H  H632  1  0.180600  0.366300  0.898100  1.0  0.081
  H  H633  1  0.235900  0.370200  0.914900  1.0  0.0923
  H  H634  1  0.223000  0.350800  0.861900  1.0  0.0965
  H  H635  1  0.520700  0.609500  0.903000  1.0  0.0934
  H  H636  1  0.513200  0.665300  0.889500  1.0  0.0906
  H  H637  1  0.565900  0.641500  0.886200  1.0  0.0867
  H  H638  1  0.258000  0.569800  0.791200  1.0  0.1122
  H  H639  1  0.287400  0.619400  0.786300  1.0  0.098
  H  H640  1  0.286600  0.591100  0.836700  1.0  0.0979
  H  H641  1  0.542700  0.932300  0.881200  1.0  0.0789
  H  H642  1  0.566200  0.102400  0.869700  1.0  0.0849
  H  H643  1  0.559100  0.050800  0.895300  1.0  0.0901
  H  H644  1  0.722400  0.003800  0.888700  1.0  0.0925
  H  H645  1  0.536000  0.855000  0.756500  1.0  0.0674
  H  H646  1  0.718700  0.128400  0.813600  1.0  0.092
  H  H647  1  0.608800  0.979800  0.906400  1.0  0.1041
  H  H648  1  0.657400  0.950600  0.895200  1.0  0.1009
  H  H649  1  0.847700  0.080200  0.820900  1.0  0.0947
  H  H650  1  0.800800  0.102100  0.795100  1.0  0.0952
  H  H651  1  0.807100  0.044700  0.799800  1.0  0.1061
  H  H652  1  0.651200  0.152400  0.773000  1.0  0.1048
  H  H653  1  0.602600  0.142800  0.802200  1.0  0.0989
  H  H654  1  0.454100  0.951300  0.840000  1.0  0.0955
  H  H655  1  0.410500  0.916200  0.825300  1.0  0.0914
  H  H656  1  0.448600  0.933300  0.785300  1.0  0.1189
  H  H657  1  0.425200  0.825500  0.807300  1.0  0.093
  H  H658  1  0.479200  0.805600  0.801500  1.0  0.0897
  H  H659  1  0.458400  0.844100  0.763700  1.0  0.092
  H  H660  1  0.838300  0.052500  0.913500  1.0  0.1058
  H  H661  1  0.802200  0.010500  0.896700  1.0  0.0924
  H  H662  1  0.785800  0.048200  0.937400  1.0  0.1008
  H  H663  1  0.819400  0.133700  0.898100  1.0  0.0792
  H  H664  1  0.764100  0.129800  0.914900  1.0  0.0922
  H  H665  1  0.777000  0.149200  0.861900  1.0  0.0921
  H  H666  1  0.479300  0.890500  0.903000  1.0  0.0931
  H  H667  1  0.486800  0.834700  0.889500  1.0  0.0901
  H  H668  1  0.434100  0.858500  0.886200  1.0  0.0859
  H  H669  1  0.742000  0.930200  0.791200  1.0  0.1143
  H  H670  1  0.712600  0.880600  0.786300  1.0  0.0951
  H  H671  1  0.713400  0.908900  0.836700  1.0  0.0978
  H  H672  1  0.042700  0.432300  0.381200  1.0  0.0789
  H  H673  1  0.066200  0.602400  0.369700  1.0  0.0849
  H  H674  1  0.059100  0.550800  0.395300  1.0  0.0901
  H  H675  1  0.222400  0.503800  0.388700  1.0  0.0925
  H  H676  1  0.036000  0.355000  0.256500  1.0  0.0674
  H  H677  1  0.218700  0.628400  0.313600  1.0  0.092
  H  H678  1  0.108800  0.479800  0.406400  1.0  0.1041
  H  H679  1  0.157400  0.450600  0.395200  1.0  0.1009
  H  H680  1  0.347700  0.580200  0.320900  1.0  0.0947
  H  H681  1  0.300800  0.602100  0.295100  1.0  0.0952
  H  H682  1  0.307100  0.544700  0.299800  1.0  0.1061
  H  H683  1  0.151200  0.652400  0.273000  1.0  0.1048
  H  H684  1  0.102600  0.642800  0.302200  1.0  0.0989
  H  H685  1  0.954100  0.451300  0.340000  1.0  0.0955
  H  H686  1  0.910500  0.416200  0.325300  1.0  0.0914
  H  H687  1  0.948600  0.433300  0.285300  1.0  0.1189
  H  H688  1  0.925200  0.325500  0.307300  1.0  0.093
  H  H689  1  0.979200  0.305600  0.301500  1.0  0.0897
  H  H690  1  0.958400  0.344100  0.263700  1.0  0.092
  H  H691  1  0.338300  0.552500  0.413500  1.0  0.1058
  H  H692  1  0.302200  0.510500  0.396700  1.0  0.0924
  H  H693  1  0.285800  0.548200  0.437400  1.0  0.1008
  H  H694  1  0.319400  0.633700  0.398100  1.0  0.0792
  H  H695  1  0.264100  0.629800  0.414900  1.0  0.0922
  H  H696  1  0.277000  0.649200  0.361900  1.0  0.0921
  H  H697  1  0.979300  0.390500  0.403000  1.0  0.0931
  H  H698  1  0.986800  0.334700  0.389500  1.0  0.0901
  H  H699  1  0.934100  0.358500  0.386200  1.0  0.0859
  H  H700  1  0.242000  0.430200  0.291200  1.0  0.1143
  H  H701  1  0.212600  0.380600  0.286300  1.0  0.0951
  H  H702  1  0.213400  0.408900  0.336700  1.0  0.0978
  H  H703  1  0.457300  0.432300  0.618800  1.0  0.0804
  H  H704  1  0.433800  0.602400  0.630300  1.0  0.0846
  H  H705  1  0.440900  0.550800  0.604700  1.0  0.0896
  H  H706  1  0.277600  0.503800  0.611300  1.0  0.0914
  H  H707  1  0.464000  0.355000  0.743500  1.0  0.0679
  H  H708  1  0.281300  0.628400  0.686400  1.0  0.0929
  H  H709  1  0.391200  0.479800  0.593600  1.0  0.1035
  H  H710  1  0.342600  0.450600  0.604800  1.0  0.0998
  H  H711  1  0.152300  0.580200  0.679100  1.0  0.0951
  H  H712  1  0.199200  0.602100  0.704900  1.0  0.0951
  H  H713  1  0.192900  0.544700  0.700200  1.0  0.106
  H  H714  1  0.348800  0.652400  0.727000  1.0  0.1054
  H  H715  1  0.397400  0.642800  0.697800  1.0  0.1004
  H  H716  1  0.545900  0.451300  0.660000  1.0  0.0956
  H  H717  1  0.589500  0.416200  0.674700  1.0  0.0901
  H  H718  1  0.551400  0.433300  0.714700  1.0  0.1183
  H  H719  1  0.574800  0.325500  0.692700  1.0  0.0908
  H  H720  1  0.520800  0.305600  0.698500  1.0  0.0903
  H  H721  1  0.541600  0.344100  0.736300  1.0  0.0904
  H  H722  1  0.161700  0.552500  0.586500  1.0  0.104
  H  H723  1  0.197800  0.510500  0.603300  1.0  0.0913
  H  H724  1  0.214200  0.548200  0.562600  1.0  0.1003
  H  H725  1  0.180600  0.633700  0.601900  1.0  0.081
  H  H726  1  0.235900  0.629800  0.585100  1.0  0.0921
  H  H727  1  0.223000  0.649200  0.638100  1.0  0.0912
  H  H728  1  0.520700  0.390500  0.597000  1.0  0.093
  H  H729  1  0.513200  0.334700  0.610500  1.0  0.0896
  H  H730  1  0.565900  0.358500  0.613800  1.0  0.0866
  H  H731  1  0.258000  0.430200  0.708800  1.0  0.1117
  H  H732  1  0.287400  0.380600  0.713700  1.0  0.0935
  H  H733  1  0.286600  0.408900  0.663300  1.0  0.0965
  H  H734  1  0.957300  0.932300  0.118800  1.0  0.0804
  H  H735  1  0.933800  0.102400  0.130300  1.0  0.0846
  H  H736  1  0.940900  0.050800  0.104700  1.0  0.0896
  H  H737  1  0.777600  0.003800  0.111300  1.0  0.0914
  H  H738  1  0.964000  0.855000  0.243500  1.0  0.0679
  H  H739  1  0.781300  0.128400  0.186400  1.0  0.0929
  H  H740  1  0.891200  0.979800  0.093600  1.0  0.1035
  H  H741  1  0.842600  0.950600  0.104800  1.0  0.0998
  H  H742  1  0.652300  0.080200  0.179100  1.0  0.0951
  H  H743  1  0.699200  0.102100  0.204900  1.0  0.0951
  H  H744  1  0.692900  0.044700  0.200200  1.0  0.106
  H  H745  1  0.848800  0.152400  0.227000  1.0  0.1054
  H  H746  1  0.897400  0.142800  0.197800  1.0  0.1004
  H  H747  1  0.045900  0.951300  0.160000  1.0  0.0956
  H  H748  1  0.089500  0.916200  0.174700  1.0  0.0901
  H  H749  1  0.051400  0.933300  0.214700  1.0  0.1183
  H  H750  1  0.074800  0.825500  0.192700  1.0  0.0908
  H  H751  1  0.020800  0.805600  0.198500  1.0  0.0903
  H  H752  1  0.041600  0.844100  0.236300  1.0  0.0904
  H  H753  1  0.661700  0.052500  0.086500  1.0  0.104
  H  H754  1  0.697800  0.010500  0.103300  1.0  0.0913
  H  H755  1  0.714200  0.048200  0.062600  1.0  0.1003
  H  H756  1  0.680600  0.133700  0.101900  1.0  0.081
  H  H757  1  0.735900  0.129800  0.085100  1.0  0.0921
  H  H758  1  0.723000  0.149200  0.138100  1.0  0.0912
  H  H759  1  0.020700  0.890500  0.097000  1.0  0.093
  H  H760  1  0.013200  0.834700  0.110500  1.0  0.0896
  H  H761  1  0.065900  0.858500  0.113800  1.0  0.0866
  H  H762  1  0.758000  0.930200  0.208800  1.0  0.1117
  H  H763  1  0.787400  0.880600  0.213700  1.0  0.0935
  H  H764  1  0.786600  0.908900  0.163300  1.0  0.0965
  C  C765  1  0.234700  0.102600  0.609400  1.0  0.0085
  C  C766  1  0.166300  0.131600  0.448600  1.0  0.2675
  C  C767  1  0.150500  0.057700  0.576600  1.0  -0.1275
  C  C768  1  0.200800  0.128100  0.578600  1.0  0.1681
  C  C769  1  0.139800  0.155000  0.482700  1.0  0.1455
  C  C770  1  0.135100  0.053900  0.430900  1.0  -0.0514
  C  C771  1  0.168700  0.978000  0.622400  1.0  0.1781
  C  C772  1  0.129900  0.204500  0.473500  1.0  -0.1272
  C  C773  1  0.186500  0.153400  0.407600  1.0  0.0664
  C  C774  1  0.182100  0.030200  0.607100  1.0  0.0638
  C  C775  1  0.158400  0.103200  0.561800  1.0  0.0295
  C  C776  1  0.222700  0.052800  0.620700  1.0  -0.1442
  C  C777  1  0.146900  0.997700  0.429100  1.0  0.617
  C  C778  1  0.147600  0.228700  0.429600  1.0  0.0642
  C  C779  1  0.174400  0.203300  0.399800  1.0  -0.0772
  C  C780  1  0.119600  0.131700  0.529400  1.0  -0.2501
  C  C781  1  0.184400  0.312900  0.424100  1.0  -0.3691
  C  C782  1  0.217800  0.127700  0.373000  1.0  -0.2843
  C  C783  1  0.180700  0.944500  0.575800  1.0  -0.3884
  C  C784  1  0.202400  0.958200  0.666100  1.0  -0.3577
  C  C785  1  0.092500  0.304400  0.455800  1.0  -0.3969
  C  C786  1  0.112600  0.286300  0.373400  1.0  -0.3667
  C  C787  1  0.118400  0.968800  0.635800  1.0  -0.3955
  C  C788  1  0.131200  0.284100  0.423000  1.0  0.1823
  C  C789  1  0.198500  0.213100  0.587400  1.0  -0.044
  C  C790  1  0.734700  0.602600  0.109400  1.0  0.0085
  C  C791  1  0.666300  0.631600  0.948600  1.0  0.2675
  C  C792  1  0.650500  0.557700  0.076600  1.0  -0.1275
  C  C793  1  0.700800  0.628100  0.078600  1.0  0.1681
  C  C794  1  0.639800  0.655000  0.982700  1.0  0.1455
  C  C795  1  0.635100  0.553900  0.930900  1.0  -0.0514
  C  C796  1  0.668700  0.478000  0.122400  1.0  0.1781
  C  C797  1  0.629900  0.704500  0.973500  1.0  -0.1272
  C  C798  1  0.686500  0.653400  0.907600  1.0  0.0664
  C  C799  1  0.682100  0.530200  0.107100  1.0  0.0638
  C  C800  1  0.658400  0.603200  0.061800  1.0  0.0295
  C  C801  1  0.722700  0.552800  0.120700  1.0  -0.1442
  C  C802  1  0.646900  0.497700  0.929100  1.0  0.617
  C  C803  1  0.647600  0.728700  0.929600  1.0  0.0642
  C  C804  1  0.674400  0.703300  0.899800  1.0  -0.0772
  C  C805  1  0.619600  0.631700  0.029400  1.0  -0.2501
  C  C806  1  0.684400  0.812900  0.924100  1.0  -0.3691
  C  C807  1  0.717800  0.627700  0.873000  1.0  -0.2843
  C  C808  1  0.680700  0.444500  0.075800  1.0  -0.3884
  C  C809  1  0.702400  0.458200  0.166100  1.0  -0.3577
  C  C810  1  0.592500  0.804400  0.955800  1.0  -0.3969
  C  C811  1  0.612600  0.786300  0.873400  1.0  -0.3667
  C  C812  1  0.618400  0.468800  0.135800  1.0  -0.3955
  C  C813  1  0.631200  0.784100  0.923000  1.0  0.1823
  C  C814  1  0.698500  0.713100  0.087400  1.0  -0.044
  C  C815  1  0.265300  0.897400  0.109400  1.0  0.0091
  C  C816  1  0.333700  0.868400  0.948600  1.0  0.2676
  C  C817  1  0.349500  0.942300  0.076600  1.0  -0.1284
  C  C818  1  0.299200  0.871900  0.078600  1.0  0.168
  C  C819  1  0.360200  0.845000  0.982700  1.0  0.1456
  C  C820  1  0.364900  0.946100  0.930900  1.0  -0.053
  C  C821  1  0.331300  0.022000  0.122400  1.0  0.1789
  C  C822  1  0.370100  0.795500  0.973500  1.0  -0.126
  C  C823  1  0.313500  0.846600  0.907600  1.0  0.0664
  C  C824  1  0.317900  0.969800  0.107100  1.0  0.0636
  C  C825  1  0.341600  0.896800  0.061800  1.0  0.0291
  C  C826  1  0.277300  0.947200  0.120700  1.0  -0.144
  C  C827  1  0.353100  0.002300  0.929100  1.0  0.6155
  C  C828  1  0.352400  0.771300  0.929600  1.0  0.0647
  C  C829  1  0.325600  0.796700  0.899800  1.0  -0.0775
  C  C830  1  0.380400  0.868300  0.029400  1.0  -0.2502
  C  C831  1  0.315600  0.687100  0.924100  1.0  -0.3683
  C  C832  1  0.282200  0.872300  0.873000  1.0  -0.2841
  C  C833  1  0.319300  0.055500  0.075800  1.0  -0.3869
  C  C834  1  0.297600  0.041800  0.166100  1.0  -0.3601
  C  C835  1  0.407500  0.695600  0.955800  1.0  -0.3958
  C  C836  1  0.387400  0.713700  0.873400  1.0  -0.3675
  C  C837  1  0.381600  0.031200  0.135800  1.0  -0.3938
  C  C838  1  0.368800  0.715900  0.923000  1.0  0.1827
  C  C839  1  0.301500  0.786900  0.087400  1.0  -0.0439
  C  C840  1  0.765300  0.397400  0.609400  1.0  0.0091
  C  C841  1  0.833700  0.368400  0.448600  1.0  0.2676
  C  C842  1  0.849500  0.442300  0.576600  1.0  -0.1284
  C  C843  1  0.799200  0.371900  0.578600  1.0  0.168
  C  C844  1  0.860200  0.345000  0.482700  1.0  0.1456
  C  C845  1  0.864900  0.446100  0.430900  1.0  -0.053
  C  C846  1  0.831300  0.522000  0.622400  1.0  0.1789
  C  C847  1  0.870100  0.295500  0.473500  1.0  -0.126
  C  C848  1  0.813500  0.346600  0.407600  1.0  0.0664
  C  C849  1  0.817900  0.469800  0.607100  1.0  0.0636
  C  C850  1  0.841600  0.396800  0.561800  1.0  0.0291
  C  C851  1  0.777300  0.447200  0.620700  1.0  -0.144
  C  C852  1  0.853100  0.502300  0.429100  1.0  0.6155
  C  C853  1  0.852400  0.271300  0.429600  1.0  0.0647
  C  C854  1  0.825600  0.296700  0.399800  1.0  -0.0775
  C  C855  1  0.880400  0.368300  0.529400  1.0  -0.2502
  C  C856  1  0.815600  0.187100  0.424100  1.0  -0.3683
  C  C857  1  0.782200  0.372300  0.373000  1.0  -0.2841
  C  C858  1  0.819300  0.555500  0.575800  1.0  -0.3869
  C  C859  1  0.797600  0.541800  0.666100  1.0  -0.3601
  C  C860  1  0.907500  0.195600  0.455800  1.0  -0.3958
  C  C861  1  0.887400  0.213700  0.373400  1.0  -0.3675
  C  C862  1  0.881600  0.531200  0.635800  1.0  -0.3938
  C  C863  1  0.868800  0.215900  0.423000  1.0  0.1827
  C  C864  1  0.801500  0.286900  0.587400  1.0  -0.0439
  C  C865  1  0.765300  0.602600  0.890600  1.0  0.0094
  C  C866  1  0.833700  0.631600  0.051400  1.0  0.2688
  C  C867  1  0.849500  0.557700  0.923400  1.0  -0.1287
  C  C868  1  0.799200  0.628100  0.921400  1.0  0.168
  C  C869  1  0.860200  0.655000  0.017300  1.0  0.1454
  C  C870  1  0.864900  0.553900  0.069100  1.0  -0.0515
  C  C871  1  0.831300  0.478000  0.877600  1.0  0.1786
  C  C872  1  0.870100  0.704500  0.026500  1.0  -0.1246
  C  C873  1  0.813500  0.653400  0.092400  1.0  0.0666
  C  C874  1  0.817900  0.530200  0.892900  1.0  0.0633
  C  C875  1  0.841600  0.603200  0.938200  1.0  0.0293
  C  C876  1  0.777300  0.552800  0.879300  1.0  -0.1424
  C  C877  1  0.853100  0.497700  0.070900  1.0  0.6162
  C  C878  1  0.852400  0.728700  0.070400  1.0  0.0653
  C  C879  1  0.825600  0.703300  0.100200  1.0  -0.0765
  C  C880  1  0.880400  0.631700  0.970600  1.0  -0.25
  C  C881  1  0.815600  0.812900  0.075900  1.0  -0.3686
  C  C882  1  0.782200  0.627700  0.127000  1.0  -0.2846
  C  C883  1  0.819300  0.444500  0.924200  1.0  -0.3877
  C  C884  1  0.797600  0.458200  0.833900  1.0  -0.3598
  C  C885  1  0.907500  0.804400  0.044200  1.0  -0.3965
  C  C886  1  0.887400  0.786300  0.126600  1.0  -0.3658
  C  C887  1  0.881600  0.468800  0.864200  1.0  -0.3936
  C  C888  1  0.868800  0.784100  0.077000  1.0  0.1801
  C  C889  1  0.801500  0.713100  0.912600  1.0  -0.0437
  C  C890  1  0.265300  0.102600  0.390600  1.0  0.0094
  C  C891  1  0.333700  0.131600  0.551400  1.0  0.2688
  C  C892  1  0.349500  0.057700  0.423400  1.0  -0.1287
  C  C893  1  0.299200  0.128100  0.421400  1.0  0.168
  C  C894  1  0.360200  0.155000  0.517300  1.0  0.1454
  C  C895  1  0.364900  0.053900  0.569100  1.0  -0.0515
  C  C896  1  0.331300  0.978000  0.377600  1.0  0.1786
  C  C897  1  0.370100  0.204500  0.526500  1.0  -0.1246
  C  C898  1  0.313500  0.153400  0.592400  1.0  0.0666
  C  C899  1  0.317900  0.030200  0.392900  1.0  0.0633
  C  C900  1  0.341600  0.103200  0.438200  1.0  0.0293
  C  C901  1  0.277300  0.052800  0.379300  1.0  -0.1424
  C  C902  1  0.353100  0.997700  0.570900  1.0  0.6162
  C  C903  1  0.352400  0.228700  0.570400  1.0  0.0653
  C  C904  1  0.325600  0.203300  0.600200  1.0  -0.0765
  C  C905  1  0.380400  0.131700  0.470600  1.0  -0.25
  C  C906  1  0.315600  0.312900  0.575900  1.0  -0.3686
  C  C907  1  0.282200  0.127700  0.627000  1.0  -0.2846
  C  C908  1  0.319300  0.944500  0.424200  1.0  -0.3877
  C  C909  1  0.297600  0.958200  0.333900  1.0  -0.3598
  C  C910  1  0.407500  0.304400  0.544200  1.0  -0.3965
  C  C911  1  0.387400  0.286300  0.626600  1.0  -0.3658
  C  C912  1  0.381600  0.968800  0.364200  1.0  -0.3936
  C  C913  1  0.368800  0.284100  0.577000  1.0  0.1801
  C  C914  1  0.301500  0.213100  0.412600  1.0  -0.0437
  C  C915  1  0.734700  0.397400  0.390600  1.0  0.0086
  C  C916  1  0.666300  0.368400  0.551400  1.0  0.2681
  C  C917  1  0.650500  0.442300  0.423400  1.0  -0.1279
  C  C918  1  0.700800  0.371900  0.421400  1.0  0.1683
  C  C919  1  0.639800  0.345000  0.517300  1.0  0.1453
  C  C920  1  0.635100  0.446100  0.569100  1.0  -0.053
  C  C921  1  0.668700  0.522000  0.377600  1.0  0.1783
  C  C922  1  0.629900  0.295500  0.526500  1.0  -0.1251
  C  C923  1  0.686500  0.346600  0.592400  1.0  0.0668
  C  C924  1  0.682100  0.469800  0.392900  1.0  0.0647
  C  C925  1  0.658400  0.396800  0.438200  1.0  0.0289
  C  C926  1  0.722700  0.447200  0.379300  1.0  -0.1412
  C  C927  1  0.646900  0.502300  0.570900  1.0  0.614
  C  C928  1  0.647600  0.271300  0.570400  1.0  0.0656
  C  C929  1  0.674400  0.296700  0.600200  1.0  -0.075
  C  C930  1  0.619600  0.368300  0.470600  1.0  -0.2502
  C  C931  1  0.684400  0.187100  0.575900  1.0  -0.3702
  C  C932  1  0.717800  0.372300  0.627000  1.0  -0.2838
  C  C933  1  0.680700  0.555500  0.424200  1.0  -0.3883
  C  C934  1  0.702400  0.541800  0.333900  1.0  -0.3585
  C  C935  1  0.592500  0.195600  0.544200  1.0  -0.3972
  C  C936  1  0.612600  0.213700  0.626600  1.0  -0.3657
  C  C937  1  0.618400  0.531200  0.364200  1.0  -0.3942
  C  C938  1  0.631200  0.215900  0.577000  1.0  0.1808
  C  C939  1  0.698500  0.286900  0.412600  1.0  -0.0447
  C  C940  1  0.234700  0.897400  0.890600  1.0  0.0086
  C  C941  1  0.166300  0.868400  0.051400  1.0  0.2681
  C  C942  1  0.150500  0.942300  0.923400  1.0  -0.1279
  C  C943  1  0.200800  0.871900  0.921400  1.0  0.1683
  C  C944  1  0.139800  0.845000  0.017300  1.0  0.1453
  C  C945  1  0.135100  0.946100  0.069100  1.0  -0.053
  C  C946  1  0.168700  0.022000  0.877600  1.0  0.1783
  C  C947  1  0.129900  0.795500  0.026500  1.0  -0.1251
  C  C948  1  0.186500  0.846600  0.092400  1.0  0.0668
  C  C949  1  0.182100  0.969800  0.892900  1.0  0.0647
  C  C950  1  0.158400  0.896800  0.938200  1.0  0.0289
  C  C951  1  0.222700  0.947200  0.879300  1.0  -0.1412
  C  C952  1  0.146900  0.002300  0.070900  1.0  0.614
  C  C953  1  0.147600  0.771300  0.070400  1.0  0.0656
  C  C954  1  0.174400  0.796700  0.100200  1.0  -0.075
  C  C955  1  0.119600  0.868300  0.970600  1.0  -0.2502
  C  C956  1  0.184400  0.687100  0.075900  1.0  -0.3702
  C  C957  1  0.217800  0.872300  0.127000  1.0  -0.2838
  C  C958  1  0.180700  0.055500  0.924200  1.0  -0.3883
  C  C959  1  0.202400  0.041800  0.833900  1.0  -0.3585
  C  C960  1  0.092500  0.695600  0.044200  1.0  -0.3972
  C  C961  1  0.112600  0.713700  0.126600  1.0  -0.3657
  C  C962  1  0.118400  0.031200  0.864200  1.0  -0.3942
  C  C963  1  0.131200  0.715900  0.077000  1.0  0.1808
  C  C964  1  0.198500  0.786900  0.912600  1.0  -0.0447
  C  C965  1  0.609400  0.234700  0.102600  1.0  0.0068
  C  C966  1  0.448600  0.166300  0.131600  1.0  0.266
  C  C967  1  0.576600  0.150500  0.057700  1.0  -0.1281
  C  C968  1  0.578600  0.200800  0.128100  1.0  0.1667
  C  C969  1  0.482700  0.139800  0.155000  1.0  0.1445
  C  C970  1  0.430900  0.135100  0.053900  1.0  -0.0522
  C  C971  1  0.622400  0.168700  0.978000  1.0  0.1787
  C  C972  1  0.473500  0.129900  0.204500  1.0  -0.1265
  C  C973  1  0.407600  0.186500  0.153400  1.0  0.0643
  C  C974  1  0.607100  0.182100  0.030200  1.0  0.0638
  C  C975  1  0.561800  0.158400  0.103200  1.0  0.0293
  C  C976  1  0.620700  0.222700  0.052800  1.0  -0.1432
  C  C977  1  0.429100  0.146900  0.997700  1.0  0.6183
  C  C978  1  0.429600  0.147600  0.228700  1.0  0.0674
  C  C979  1  0.399800  0.174400  0.203300  1.0  -0.0749
  C  C980  1  0.529400  0.119600  0.131700  1.0  -0.249
  C  C981  1  0.424100  0.184400  0.312900  1.0  -0.3714
  C  C982  1  0.373000  0.217800  0.127700  1.0  -0.2836
  C  C983  1  0.575800  0.180700  0.944500  1.0  -0.3869
  C  C984  1  0.666100  0.202400  0.958200  1.0  -0.3594
  C  C985  1  0.455800  0.092500  0.304400  1.0  -0.3982
  C  C986  1  0.373400  0.112600  0.286300  1.0  -0.3721
  C  C987  1  0.635800  0.118400  0.968800  1.0  -0.3936
  C  C988  1  0.423000  0.131200  0.284100  1.0  0.1852
  C  C989  1  0.587400  0.198500  0.213100  1.0  -0.0449
  C  C990  1  0.109400  0.734700  0.602600  1.0  0.0068
  C  C991  1  0.948600  0.666300  0.631600  1.0  0.266
  C  C992  1  0.076600  0.650500  0.557700  1.0  -0.1281
  C  C993  1  0.078600  0.700800  0.628100  1.0  0.1667
  C  C994  1  0.982700  0.639800  0.655000  1.0  0.1445
  C  C995  1  0.930900  0.635100  0.553900  1.0  -0.0522
  C  C996  1  0.122400  0.668700  0.478000  1.0  0.1787
  C  C997  1  0.973500  0.629900  0.704500  1.0  -0.1265
  C  C998  1  0.907600  0.686500  0.653400  1.0  0.0643
  C  C999  1  0.107100  0.682100  0.530200  1.0  0.0638
  C  C1000  1  0.061800  0.658400  0.603200  1.0  0.0293
  C  C1001  1  0.120700  0.722700  0.552800  1.0  -0.1432
  C  C1002  1  0.929100  0.646900  0.497700  1.0  0.6183
  C  C1003  1  0.929600  0.647600  0.728700  1.0  0.0674
  C  C1004  1  0.899800  0.674400  0.703300  1.0  -0.0749
  C  C1005  1  0.029400  0.619600  0.631700  1.0  -0.249
  C  C1006  1  0.924100  0.684400  0.812900  1.0  -0.3714
  C  C1007  1  0.873000  0.717800  0.627700  1.0  -0.2836
  C  C1008  1  0.075800  0.680700  0.444500  1.0  -0.3869
  C  C1009  1  0.166100  0.702400  0.458200  1.0  -0.3594
  C  C1010  1  0.955800  0.592500  0.804400  1.0  -0.3982
  C  C1011  1  0.873400  0.612600  0.786300  1.0  -0.3721
  C  C1012  1  0.135800  0.618400  0.468800  1.0  -0.3936
  C  C1013  1  0.923000  0.631200  0.784100  1.0  0.1852
  C  C1014  1  0.087400  0.698500  0.713100  1.0  -0.0449
  C  C1015  1  0.109400  0.265300  0.897400  1.0  0.0065
  C  C1016  1  0.948600  0.333700  0.868400  1.0  0.266
  C  C1017  1  0.076600  0.349500  0.942300  1.0  -0.1301
  C  C1018  1  0.078600  0.299200  0.871900  1.0  0.1661
  C  C1019  1  0.982700  0.360200  0.845000  1.0  0.1447
  C  C1020  1  0.930900  0.364900  0.946100  1.0  -0.0538
  C  C1021  1  0.122400  0.331300  0.022000  1.0  0.1784
  C  C1022  1  0.973500  0.370100  0.795500  1.0  -0.1245
  C  C1023  1  0.907600  0.313500  0.846600  1.0  0.0646
  C  C1024  1  0.107100  0.317900  0.969800  1.0  0.065
  C  C1025  1  0.061800  0.341600  0.896800  1.0  0.0302
  C  C1026  1  0.120700  0.277300  0.947200  1.0  -0.1442
  C  C1027  1  0.929100  0.353100  0.002300  1.0  0.6166
  C  C1028  1  0.929600  0.352400  0.771300  1.0  0.0671
  C  C1029  1  0.899800  0.325600  0.796700  1.0  -0.0763
  C  C1030  1  0.029400  0.380400  0.868300  1.0  -0.252
  C  C1031  1  0.924100  0.315600  0.687100  1.0  -0.3725
  C  C1032  1  0.873000  0.282200  0.872300  1.0  -0.2829
  C  C1033  1  0.075800  0.319300  0.055500  1.0  -0.3884
  C  C1034  1  0.166100  0.297600  0.041800  1.0  -0.358
  C  C1035  1  0.955800  0.407500  0.695600  1.0  -0.3993
  C  C1036  1  0.873400  0.387400  0.713700  1.0  -0.3718
  C  C1037  1  0.135800  0.381600  0.031200  1.0  -0.3924
  C  C1038  1  0.923000  0.368800  0.715900  1.0  0.1839
  C  C1039  1  0.087400  0.301500  0.786900  1.0  -0.0446
  C  C1040  1  0.609400  0.765300  0.397400  1.0  0.0065
  C  C1041  1  0.448600  0.833700  0.368400  1.0  0.266
  C  C1042  1  0.576600  0.849500  0.442300  1.0  -0.1301
  C  C1043  1  0.578600  0.799200  0.371900  1.0  0.1661
  C  C1044  1  0.482700  0.860200  0.345000  1.0  0.1447
  C  C1045  1  0.430900  0.864900  0.446100  1.0  -0.0538
  C  C1046  1  0.622400  0.831300  0.522000  1.0  0.1784
  C  C1047  1  0.473500  0.870100  0.295500  1.0  -0.1245
  C  C1048  1  0.407600  0.813500  0.346600  1.0  0.0646
  C  C1049  1  0.607100  0.817900  0.469800  1.0  0.065
  C  C1050  1  0.561800  0.841600  0.396800  1.0  0.0302
  C  C1051  1  0.620700  0.777300  0.447200  1.0  -0.1442
  C  C1052  1  0.429100  0.853100  0.502300  1.0  0.6166
  C  C1053  1  0.429600  0.852400  0.271300  1.0  0.0671
  C  C1054  1  0.399800  0.825600  0.296700  1.0  -0.0763
  C  C1055  1  0.529400  0.880400  0.368300  1.0  -0.252
  C  C1056  1  0.424100  0.815600  0.187100  1.0  -0.3725
  C  C1057  1  0.373000  0.782200  0.372300  1.0  -0.2829
  C  C1058  1  0.575800  0.819300  0.555500  1.0  -0.3884
  C  C1059  1  0.666100  0.797600  0.541800  1.0  -0.358
  C  C1060  1  0.455800  0.907500  0.195600  1.0  -0.3993
  C  C1061  1  0.373400  0.887400  0.213700  1.0  -0.3718
  C  C1062  1  0.635800  0.881600  0.531200  1.0  -0.3924
  C  C1063  1  0.423000  0.868800  0.215900  1.0  0.1839
  C  C1064  1  0.587400  0.801500  0.286900  1.0  -0.0446
  C  C1065  1  0.890600  0.765300  0.602600  1.0  0.0074
  C  C1066  1  0.051400  0.833700  0.631600  1.0  0.2659
  C  C1067  1  0.923400  0.849500  0.557700  1.0  -0.1295
  C  C1068  1  0.921400  0.799200  0.628100  1.0  0.1661
  C  C1069  1  0.017300  0.860200  0.655000  1.0  0.1449
  C  C1070  1  0.069100  0.864900  0.553900  1.0  -0.0525
  C  C1071  1  0.877600  0.831300  0.478000  1.0  0.1786
  C  C1072  1  0.026500  0.870100  0.704500  1.0  -0.1261
  C  C1073  1  0.092400  0.813500  0.653400  1.0  0.065
  C  C1074  1  0.892900  0.817900  0.530200  1.0  0.0641
  C  C1075  1  0.938200  0.841600  0.603200  1.0  0.0293
  C  C1076  1  0.879300  0.777300  0.552800  1.0  -0.1419
  C  C1077  1  0.070900  0.853100  0.497700  1.0  0.6178
  C  C1078  1  0.070400  0.852400  0.728700  1.0  0.067
  C  C1079  1  0.100200  0.825600  0.703300  1.0  -0.0743
  C  C1080  1  0.970600  0.880400  0.631700  1.0  -0.2525
  C  C1081  1  0.075900  0.815600  0.812900  1.0  -0.3724
  C  C1082  1  0.127000  0.782200  0.627700  1.0  -0.2819
  C  C1083  1  0.924200  0.819300  0.444500  1.0  -0.3885
  C  C1084  1  0.833900  0.797600  0.458200  1.0  -0.3589
  C  C1085  1  0.044200  0.907500  0.804400  1.0  -0.3993
  C  C1086  1  0.126600  0.887400  0.786300  1.0  -0.3696
  C  C1087  1  0.864200  0.881600  0.468800  1.0  -0.3921
  C  C1088  1  0.077000  0.868800  0.784100  1.0  0.1841
  C  C1089  1  0.912600  0.801500  0.713100  1.0  -0.0448
  C  C1090  1  0.390600  0.265300  0.102600  1.0  0.0074
  C  C1091  1  0.551400  0.333700  0.131600  1.0  0.2659
  C  C1092  1  0.423400  0.349500  0.057700  1.0  -0.1295
  C  C1093  1  0.421400  0.299200  0.128100  1.0  0.1661
  C  C1094  1  0.517300  0.360200  0.155000  1.0  0.1449
  C  C1095  1  0.569100  0.364900  0.053900  1.0  -0.0525
  C  C1096  1  0.377600  0.331300  0.978000  1.0  0.1786
  C  C1097  1  0.526500  0.370100  0.204500  1.0  -0.1261
  C  C1098  1  0.592400  0.313500  0.153400  1.0  0.065
  C  C1099  1  0.392900  0.317900  0.030200  1.0  0.0641
  C  C1100  1  0.438200  0.341600  0.103200  1.0  0.0293
  C  C1101  1  0.379300  0.277300  0.052800  1.0  -0.1419
  C  C1102  1  0.570900  0.353100  0.997700  1.0  0.6178
  C  C1103  1  0.570400  0.352400  0.228700  1.0  0.067
  C  C1104  1  0.600200  0.325600  0.203300  1.0  -0.0743
  C  C1105  1  0.470600  0.380400  0.131700  1.0  -0.2525
  C  C1106  1  0.575900  0.315600  0.312900  1.0  -0.3724
  C  C1107  1  0.627000  0.282200  0.127700  1.0  -0.2819
  C  C1108  1  0.424200  0.319300  0.944500  1.0  -0.3885
  C  C1109  1  0.333900  0.297600  0.958200  1.0  -0.3589
  C  C1110  1  0.544200  0.407500  0.304400  1.0  -0.3993
  C  C1111  1  0.626600  0.387400  0.286300  1.0  -0.3696
  C  C1112  1  0.364200  0.381600  0.968800  1.0  -0.3921
  C  C1113  1  0.577000  0.368800  0.284100  1.0  0.1841
  C  C1114  1  0.412600  0.301500  0.213100  1.0  -0.0448
  C  C1115  1  0.390600  0.734700  0.397400  1.0  0.0072
  C  C1116  1  0.551400  0.666300  0.368400  1.0  0.2658
  C  C1117  1  0.423400  0.650500  0.442300  1.0  -0.1284
  C  C1118  1  0.421400  0.700800  0.371900  1.0  0.1664
  C  C1119  1  0.517300  0.639800  0.345000  1.0  0.144
  C  C1120  1  0.569100  0.635100  0.446100  1.0  -0.0528
  C  C1121  1  0.377600  0.668700  0.522000  1.0  0.1788
  C  C1122  1  0.526500  0.629900  0.295500  1.0  -0.1249
  C  C1123  1  0.592400  0.686500  0.346600  1.0  0.0648
  C  C1124  1  0.392900  0.682100  0.469800  1.0  0.0649
  C  C1125  1  0.438200  0.658400  0.396800  1.0  0.0295
  C  C1126  1  0.379300  0.722700  0.447200  1.0  -0.1428
  C  C1127  1  0.570900  0.646900  0.502300  1.0  0.6176
  C  C1128  1  0.570400  0.647600  0.271300  1.0  0.0665
  C  C1129  1  0.600200  0.674400  0.296700  1.0  -0.075
  C  C1130  1  0.470600  0.619600  0.368300  1.0  -0.2483
  C  C1131  1  0.575900  0.684400  0.187100  1.0  -0.3705
  C  C1132  1  0.627000  0.717800  0.372300  1.0  -0.2828
  C  C1133  1  0.424200  0.680700  0.555500  1.0  -0.388
  C  C1134  1  0.333900  0.702400  0.541800  1.0  -0.36
  C  C1135  1  0.544200  0.592500  0.195600  1.0  -0.3997
  C  C1136  1  0.626600  0.612600  0.213700  1.0  -0.3697
  C  C1137  1  0.364200  0.618400  0.531200  1.0  -0.3923
  C  C1138  1  0.577000  0.631200  0.215900  1.0  0.183
  C  C1139  1  0.412600  0.698500  0.286900  1.0  -0.0452
  C  C1140  1  0.890600  0.234700  0.897400  1.0  0.0072
  C  C1141  1  0.051400  0.166300  0.868400  1.0  0.2658
  C  C1142  1  0.923400  0.150500  0.942300  1.0  -0.1284
  C  C1143  1  0.921400  0.200800  0.871900  1.0  0.1664
  C  C1144  1  0.017300  0.139800  0.845000  1.0  0.144
  C  C1145  1  0.069100  0.135100  0.946100  1.0  -0.0528
  C  C1146  1  0.877600  0.168700  0.022000  1.0  0.1788
  C  C1147  1  0.026500  0.129900  0.795500  1.0  -0.1249
  C  C1148  1  0.092400  0.186500  0.846600  1.0  0.0648
  C  C1149  1  0.892900  0.182100  0.969800  1.0  0.0649
  C  C1150  1  0.938200  0.158400  0.896800  1.0  0.0295
  C  C1151  1  0.879300  0.222700  0.947200  1.0  -0.1428
  C  C1152  1  0.070900  0.146900  0.002300  1.0  0.6176
  C  C1153  1  0.070400  0.147600  0.771300  1.0  0.0665
  C  C1154  1  0.100200  0.174400  0.796700  1.0  -0.075
  C  C1155  1  0.970600  0.119600  0.868300  1.0  -0.2483
  C  C1156  1  0.075900  0.184400  0.687100  1.0  -0.3705
  C  C1157  1  0.127000  0.217800  0.872300  1.0  -0.2828
  C  C1158  1  0.924200  0.180700  0.055500  1.0  -0.388
  C  C1159  1  0.833900  0.202400  0.041800  1.0  -0.36
  C  C1160  1  0.044200  0.092500  0.695600  1.0  -0.3997
  C  C1161  1  0.126600  0.112600  0.713700  1.0  -0.3697
  C  C1162  1  0.864200  0.118400  0.031200  1.0  -0.3923
  C  C1163  1  0.077000  0.131200  0.715900  1.0  0.183
  C  C1164  1  0.912600  0.198500  0.786900  1.0  -0.0452
  C  C1165  1  0.102600  0.609400  0.234700  1.0  0.007
  C  C1166  1  0.131600  0.448600  0.166300  1.0  0.2675
  C  C1167  1  0.057700  0.576600  0.150500  1.0  -0.1274
  C  C1168  1  0.128100  0.578600  0.200800  1.0  0.1675
  C  C1169  1  0.155000  0.482700  0.139800  1.0  0.1455
  C  C1170  1  0.053900  0.430900  0.135100  1.0  -0.0566
  C  C1171  1  0.978000  0.622400  0.168700  1.0  0.1803
  C  C1172  1  0.204500  0.473500  0.129900  1.0  -0.1255
  C  C1173  1  0.153400  0.407600  0.186500  1.0  0.0627
  C  C1174  1  0.030200  0.607100  0.182100  1.0  0.0623
  C  C1175  1  0.103200  0.561800  0.158400  1.0  0.0303
  C  C1176  1  0.052800  0.620700  0.222700  1.0  -0.1438
  C  C1177  1  0.997700  0.429100  0.146900  1.0  0.6137
  C  C1178  1  0.228700  0.429600  0.147600  1.0  0.0653
  C  C1179  1  0.203300  0.399800  0.174400  1.0  -0.0751
  C  C1180  1  0.131700  0.529400  0.119600  1.0  -0.2516
  C  C1181  1  0.312900  0.424100  0.184400  1.0  -0.3736
  C  C1182  1  0.127700  0.373000  0.217800  1.0  -0.2774
  C  C1183  1  0.944500  0.575800  0.180700  1.0  -0.3891
  C  C1184  1  0.958200  0.666100  0.202400  1.0  -0.3586
  C  C1185  1  0.304400  0.455800  0.092500  1.0  -0.3994
  C  C1186  1  0.286300  0.373400  0.112600  1.0  -0.3677
  C  C1187  1  0.968800  0.635800  0.118400  1.0  -0.392
  C  C1188  1  0.284100  0.423000  0.131200  1.0  0.1846
  C  C1189  1  0.213100  0.587400  0.198500  1.0  -0.0462
  C  C1190  1  0.602600  0.109400  0.734700  1.0  0.007
  C  C1191  1  0.631600  0.948600  0.666300  1.0  0.2675
  C  C1192  1  0.557700  0.076600  0.650500  1.0  -0.1274
  C  C1193  1  0.628100  0.078600  0.700800  1.0  0.1675
  C  C1194  1  0.655000  0.982700  0.639800  1.0  0.1455
  C  C1195  1  0.553900  0.930900  0.635100  1.0  -0.0566
  C  C1196  1  0.478000  0.122400  0.668700  1.0  0.1803
  C  C1197  1  0.704500  0.973500  0.629900  1.0  -0.1255
  C  C1198  1  0.653400  0.907600  0.686500  1.0  0.0627
  C  C1199  1  0.530200  0.107100  0.682100  1.0  0.0623
  C  C1200  1  0.603200  0.061800  0.658400  1.0  0.0303
  C  C1201  1  0.552800  0.120700  0.722700  1.0  -0.1438
  C  C1202  1  0.497700  0.929100  0.646900  1.0  0.6137
  C  C1203  1  0.728700  0.929600  0.647600  1.0  0.0653
  C  C1204  1  0.703300  0.899800  0.674400  1.0  -0.0751
  C  C1205  1  0.631700  0.029400  0.619600  1.0  -0.2516
  C  C1206  1  0.812900  0.924100  0.684400  1.0  -0.3736
  C  C1207  1  0.627700  0.873000  0.717800  1.0  -0.2774
  C  C1208  1  0.444500  0.075800  0.680700  1.0  -0.3891
  C  C1209  1  0.458200  0.166100  0.702400  1.0  -0.3586
  C  C1210  1  0.804400  0.955800  0.592500  1.0  -0.3994
  C  C1211  1  0.786300  0.873400  0.612600  1.0  -0.3677
  C  C1212  1  0.468800  0.135800  0.618400  1.0  -0.392
  C  C1213  1  0.784100  0.923000  0.631200  1.0  0.1846
  C  C1214  1  0.713100  0.087400  0.698500  1.0  -0.0462
  C  C1215  1  0.897400  0.109400  0.265300  1.0  0.0068
  C  C1216  1  0.868400  0.948600  0.333700  1.0  0.2678
  C  C1217  1  0.942300  0.076600  0.349500  1.0  -0.1274
  C  C1218  1  0.871900  0.078600  0.299200  1.0  0.1674
  C  C1219  1  0.845000  0.982700  0.360200  1.0  0.1448
  C  C1220  1  0.946100  0.930900  0.364900  1.0  -0.0535
  C  C1221  1  0.022000  0.122400  0.331300  1.0  0.1774
  C  C1222  1  0.795500  0.973500  0.370100  1.0  -0.1276
  C  C1223  1  0.846600  0.907600  0.313500  1.0  0.0633
  C  C1224  1  0.969800  0.107100  0.317900  1.0  0.0625
  C  C1225  1  0.896800  0.061800  0.341600  1.0  0.03
  C  C1226  1  0.947200  0.120700  0.277300  1.0  -0.1439
  C  C1227  1  0.002300  0.929100  0.353100  1.0  0.6148
  C  C1228  1  0.771300  0.929600  0.352400  1.0  0.0665
  C  C1229  1  0.796700  0.899800  0.325600  1.0  -0.0777
  C  C1230  1  0.868300  0.029400  0.380400  1.0  -0.249
  C  C1231  1  0.687100  0.924100  0.315600  1.0  -0.371
  C  C1232  1  0.872300  0.873000  0.282200  1.0  -0.2772
  C  C1233  1  0.055500  0.075800  0.319300  1.0  -0.3889
  C  C1234  1  0.041800  0.166100  0.297600  1.0  -0.3576
  C  C1235  1  0.695600  0.955800  0.407500  1.0  -0.4001
  C  C1236  1  0.713700  0.873400  0.387400  1.0  -0.3683
  C  C1237  1  0.031200  0.135800  0.381600  1.0  -0.3906
  C  C1238  1  0.715900  0.923000  0.368800  1.0  0.1843
  C  C1239  1  0.786900  0.087400  0.301500  1.0  -0.0461
  C  C1240  1  0.397400  0.609400  0.765300  1.0  0.0068
  C  C1241  1  0.368400  0.448600  0.833700  1.0  0.2678
  C  C1242  1  0.442300  0.576600  0.849500  1.0  -0.1274
  C  C1243  1  0.371900  0.578600  0.799200  1.0  0.1674
  C  C1244  1  0.345000  0.482700  0.860200  1.0  0.1448
  C  C1245  1  0.446100  0.430900  0.864900  1.0  -0.0535
  C  C1246  1  0.522000  0.622400  0.831300  1.0  0.1774
  C  C1247  1  0.295500  0.473500  0.870100  1.0  -0.1276
  C  C1248  1  0.346600  0.407600  0.813500  1.0  0.0633
  C  C1249  1  0.469800  0.607100  0.817900  1.0  0.0625
  C  C1250  1  0.396800  0.561800  0.841600  1.0  0.03
  C  C1251  1  0.447200  0.620700  0.777300  1.0  -0.1439
  C  C1252  1  0.502300  0.429100  0.853100  1.0  0.6148
  C  C1253  1  0.271300  0.429600  0.852400  1.0  0.0665
  C  C1254  1  0.296700  0.399800  0.825600  1.0  -0.0777
  C  C1255  1  0.368300  0.529400  0.880400  1.0  -0.249
  C  C1256  1  0.187100  0.424100  0.815600  1.0  -0.371
  C  C1257  1  0.372300  0.373000  0.782200  1.0  -0.2772
  C  C1258  1  0.555500  0.575800  0.819300  1.0  -0.3889
  C  C1259  1  0.541800  0.666100  0.797600  1.0  -0.3576
  C  C1260  1  0.195600  0.455800  0.907500  1.0  -0.4001
  C  C1261  1  0.213700  0.373400  0.887400  1.0  -0.3683
  C  C1262  1  0.531200  0.635800  0.881600  1.0  -0.3906
  C  C1263  1  0.215900  0.423000  0.868800  1.0  0.1843
  C  C1264  1  0.286900  0.587400  0.801500  1.0  -0.0461
  C  C1265  1  0.602600  0.890600  0.765300  1.0  0.007
  C  C1266  1  0.631600  0.051400  0.833700  1.0  0.2679
  C  C1267  1  0.557700  0.923400  0.849500  1.0  -0.1303
  C  C1268  1  0.628100  0.921400  0.799200  1.0  0.1679
  C  C1269  1  0.655000  0.017300  0.860200  1.0  0.1453
  C  C1270  1  0.553900  0.069100  0.864900  1.0  -0.0548
  C  C1271  1  0.478000  0.877600  0.831300  1.0  0.1794
  C  C1272  1  0.704500  0.026500  0.870100  1.0  -0.127
  C  C1273  1  0.653400  0.092400  0.813500  1.0  0.0639
  C  C1274  1  0.530200  0.892900  0.817900  1.0  0.0621
  C  C1275  1  0.603200  0.938200  0.841600  1.0  0.0307
  C  C1276  1  0.552800  0.879300  0.777300  1.0  -0.1429
  C  C1277  1  0.497700  0.070900  0.853100  1.0  0.6141
  C  C1278  1  0.728700  0.070400  0.852400  1.0  0.0649
  C  C1279  1  0.703300  0.100200  0.825600  1.0  -0.0775
  C  C1280  1  0.631700  0.970600  0.880400  1.0  -0.2505
  C  C1281  1  0.812900  0.075900  0.815600  1.0  -0.3727
  C  C1282  1  0.627700  0.127000  0.782200  1.0  -0.2807
  C  C1283  1  0.444500  0.924200  0.819300  1.0  -0.3881
  C  C1284  1  0.458200  0.833900  0.797600  1.0  -0.3574
  C  C1285  1  0.804400  0.044200  0.907500  1.0  -0.3986
  C  C1286  1  0.786300  0.126600  0.887400  1.0  -0.3683
  C  C1287  1  0.468800  0.864200  0.881600  1.0  -0.3913
  C  C1288  1  0.784100  0.077000  0.868800  1.0  0.183
  C  C1289  1  0.713100  0.912600  0.801500  1.0  -0.0454
  C  C1290  1  0.102600  0.390600  0.265300  1.0  0.007
  C  C1291  1  0.131600  0.551400  0.333700  1.0  0.2679
  C  C1292  1  0.057700  0.423400  0.349500  1.0  -0.1303
  C  C1293  1  0.128100  0.421400  0.299200  1.0  0.1679
  C  C1294  1  0.155000  0.517300  0.360200  1.0  0.1453
  C  C1295  1  0.053900  0.569100  0.364900  1.0  -0.0548
  C  C1296  1  0.978000  0.377600  0.331300  1.0  0.1794
  C  C1297  1  0.204500  0.526500  0.370100  1.0  -0.127
  C  C1298  1  0.153400  0.592400  0.313500  1.0  0.0639
  C  C1299  1  0.030200  0.392900  0.317900  1.0  0.0621
  C  C1300  1  0.103200  0.438200  0.341600  1.0  0.0307
  C  C1301  1  0.052800  0.379300  0.277300  1.0  -0.1429
  C  C1302  1  0.997700  0.570900  0.353100  1.0  0.6141
  C  C1303  1  0.228700  0.570400  0.352400  1.0  0.0649
  C  C1304  1  0.203300  0.600200  0.325600  1.0  -0.0775
  C  C1305  1  0.131700  0.470600  0.380400  1.0  -0.2505
  C  C1306  1  0.312900  0.575900  0.315600  1.0  -0.3727
  C  C1307  1  0.127700  0.627000  0.282200  1.0  -0.2807
  C  C1308  1  0.944500  0.424200  0.319300  1.0  -0.3881
  C  C1309  1  0.958200  0.333900  0.297600  1.0  -0.3574
  C  C1310  1  0.304400  0.544200  0.407500  1.0  -0.3986
  C  C1311  1  0.286300  0.626600  0.387400  1.0  -0.3683
  C  C1312  1  0.968800  0.364200  0.381600  1.0  -0.3913
  C  C1313  1  0.284100  0.577000  0.368800  1.0  0.183
  C  C1314  1  0.213100  0.412600  0.301500  1.0  -0.0454
  C  C1315  1  0.397400  0.390600  0.734700  1.0  0.0071
  C  C1316  1  0.368400  0.551400  0.666300  1.0  0.2678
  C  C1317  1  0.442300  0.423400  0.650500  1.0  -0.1265
  C  C1318  1  0.371900  0.421400  0.700800  1.0  0.1674
  C  C1319  1  0.345000  0.517300  0.639800  1.0  0.1452
  C  C1320  1  0.446100  0.569100  0.635100  1.0  -0.0559
  C  C1321  1  0.522000  0.377600  0.668700  1.0  0.1789
  C  C1322  1  0.295500  0.526500  0.629900  1.0  -0.1272
  C  C1323  1  0.346600  0.592400  0.686500  1.0  0.0632
  C  C1324  1  0.469800  0.392900  0.682100  1.0  0.0626
  C  C1325  1  0.396800  0.438200  0.658400  1.0  0.0297
  C  C1326  1  0.447200  0.379300  0.722700  1.0  -0.1423
  C  C1327  1  0.502300  0.570900  0.646900  1.0  0.6141
  C  C1328  1  0.271300  0.570400  0.647600  1.0  0.0657
  C  C1329  1  0.296700  0.600200  0.674400  1.0  -0.0769
  C  C1330  1  0.368300  0.470600  0.619600  1.0  -0.2495
  C  C1331  1  0.187100  0.575900  0.684400  1.0  -0.3713
  C  C1332  1  0.372300  0.627000  0.717800  1.0  -0.2806
  C  C1333  1  0.555500  0.424200  0.680700  1.0  -0.3887
  C  C1334  1  0.541800  0.333900  0.702400  1.0  -0.3585
  C  C1335  1  0.195600  0.544200  0.592500  1.0  -0.3981
  C  C1336  1  0.213700  0.626600  0.612600  1.0  -0.3675
  C  C1337  1  0.531200  0.364200  0.618400  1.0  -0.3912
  C  C1338  1  0.215900  0.577000  0.631200  1.0  0.1841
  C  C1339  1  0.286900  0.412600  0.698500  1.0  -0.0472
  C  C1340  1  0.897400  0.890600  0.234700  1.0  0.0071
  C  C1341  1  0.868400  0.051400  0.166300  1.0  0.2678
  C  C1342  1  0.942300  0.923400  0.150500  1.0  -0.1265
  C  C1343  1  0.871900  0.921400  0.200800  1.0  0.1674
  C  C1344  1  0.845000  0.017300  0.139800  1.0  0.1452
  C  C1345  1  0.946100  0.069100  0.135100  1.0  -0.0559
  C  C1346  1  0.022000  0.877600  0.168700  1.0  0.1789
  C  C1347  1  0.795500  0.026500  0.129900  1.0  -0.1272
  C  C1348  1  0.846600  0.092400  0.186500  1.0  0.0632
  C  C1349  1  0.969800  0.892900  0.182100  1.0  0.0626
  C  C1350  1  0.896800  0.938200  0.158400  1.0  0.0297
  C  C1351  1  0.947200  0.879300  0.222700  1.0  -0.1423
  C  C1352  1  0.002300  0.070900  0.146900  1.0  0.6141
  C  C1353  1  0.771300  0.070400  0.147600  1.0  0.0657
  C  C1354  1  0.796700  0.100200  0.174400  1.0  -0.0769
  C  C1355  1  0.868300  0.970600  0.119600  1.0  -0.2495
  C  C1356  1  0.687100  0.075900  0.184400  1.0  -0.3713
  C  C1357  1  0.872300  0.127000  0.217800  1.0  -0.2806
  C  C1358  1  0.055500  0.924200  0.180700  1.0  -0.3887
  C  C1359  1  0.041800  0.833900  0.202400  1.0  -0.3585
  C  C1360  1  0.695600  0.044200  0.092500  1.0  -0.3981
  C  C1361  1  0.713700  0.126600  0.112600  1.0  -0.3675
  C  C1362  1  0.031200  0.864200  0.118400  1.0  -0.3912
  C  C1363  1  0.715900  0.077000  0.131200  1.0  0.1841
  C  C1364  1  0.786900  0.912600  0.198500  1.0  -0.0472
  O  O1365  1  0.172900  0.080000  0.453300  1.0  -0.4247
  O  O1366  1  0.185300  0.980700  0.442100  1.0  -0.6126
  O  O1367  1  0.211200  0.175300  0.563800  1.0  -0.3649
  O  O1368  1  0.109000  0.973700  0.408300  1.0  -0.6448
  O  O1369  1  0.672900  0.580000  0.953300  1.0  -0.4247
  O  O1370  1  0.685300  0.480700  0.942100  1.0  -0.6126
  O  O1371  1  0.711200  0.675300  0.063800  1.0  -0.3649
  O  O1372  1  0.609000  0.473700  0.908300  1.0  -0.6448
  O  O1373  1  0.327100  0.920000  0.953300  1.0  -0.4282
  O  O1374  1  0.314700  0.019300  0.942100  1.0  -0.6126
  O  O1375  1  0.288800  0.824700  0.063800  1.0  -0.3656
  O  O1376  1  0.391000  0.026300  0.908300  1.0  -0.6431
  O  O1377  1  0.827100  0.420000  0.453300  1.0  -0.4282
  O  O1378  1  0.814700  0.519300  0.442100  1.0  -0.6126
  O  O1379  1  0.788800  0.324700  0.563800  1.0  -0.3656
  O  O1380  1  0.891000  0.526300  0.408300  1.0  -0.6431
  O  O1381  1  0.827100  0.580000  0.046700  1.0  -0.4286
  O  O1382  1  0.814700  0.480700  0.057900  1.0  -0.6132
  O  O1383  1  0.788800  0.675300  0.936200  1.0  -0.3673
  O  O1384  1  0.891000  0.473700  0.091700  1.0  -0.6418
  O  O1385  1  0.327100  0.080000  0.546700  1.0  -0.4286
  O  O1386  1  0.314700  0.980700  0.557900  1.0  -0.6132
  O  O1387  1  0.288800  0.175300  0.436200  1.0  -0.3673
  O  O1388  1  0.391000  0.973700  0.591700  1.0  -0.6418
  O  O1389  1  0.672900  0.420000  0.546700  1.0  -0.4279
  O  O1390  1  0.685300  0.519300  0.557900  1.0  -0.613
  O  O1391  1  0.711200  0.324700  0.436200  1.0  -0.3667
  O  O1392  1  0.609000  0.526300  0.591700  1.0  -0.6438
  O  O1393  1  0.172900  0.920000  0.046700  1.0  -0.4279
  O  O1394  1  0.185300  0.019300  0.057900  1.0  -0.613
  O  O1395  1  0.211200  0.824700  0.936200  1.0  -0.3667
  O  O1396  1  0.109000  0.026300  0.091700  1.0  -0.6438
  O  O1397  1  0.453300  0.172900  0.080000  1.0  -0.4304
  O  O1398  1  0.442100  0.185300  0.980700  1.0  -0.6143
  O  O1399  1  0.563800  0.211200  0.175300  1.0  -0.3651
  O  O1400  1  0.408300  0.109000  0.973700  1.0  -0.6451
  O  O1401  1  0.953300  0.672900  0.580000  1.0  -0.4304
  O  O1402  1  0.942100  0.685300  0.480700  1.0  -0.6143
  O  O1403  1  0.063800  0.711200  0.675300  1.0  -0.3651
  O  O1404  1  0.908300  0.609000  0.473700  1.0  -0.6451
  O  O1405  1  0.953300  0.327100  0.920000  1.0  -0.4285
  O  O1406  1  0.942100  0.314700  0.019300  1.0  -0.6148
  O  O1407  1  0.063800  0.288800  0.824700  1.0  -0.3658
  O  O1408  1  0.908300  0.391000  0.026300  1.0  -0.6432
  O  O1409  1  0.453300  0.827100  0.420000  1.0  -0.4285
  O  O1410  1  0.442100  0.814700  0.519300  1.0  -0.6148
  O  O1411  1  0.563800  0.788800  0.324700  1.0  -0.3658
  O  O1412  1  0.408300  0.891000  0.526300  1.0  -0.6432
  O  O1413  1  0.046700  0.827100  0.580000  1.0  -0.4302
  O  O1414  1  0.057900  0.814700  0.480700  1.0  -0.6134
  O  O1415  1  0.936200  0.788800  0.675300  1.0  -0.3642
  O  O1416  1  0.091700  0.891000  0.473700  1.0  -0.6449
  O  O1417  1  0.546700  0.327100  0.080000  1.0  -0.4302
  O  O1418  1  0.557900  0.314700  0.980700  1.0  -0.6134
  O  O1419  1  0.436200  0.288800  0.175300  1.0  -0.3642
  O  O1420  1  0.591700  0.391000  0.973700  1.0  -0.6449
  O  O1421  1  0.546700  0.672900  0.420000  1.0  -0.4289
  O  O1422  1  0.557900  0.685300  0.519300  1.0  -0.6151
  O  O1423  1  0.436200  0.711200  0.324700  1.0  -0.3646
  O  O1424  1  0.591700  0.609000  0.526300  1.0  -0.6443
  O  O1425  1  0.046700  0.172900  0.920000  1.0  -0.4289
  O  O1426  1  0.057900  0.185300  0.019300  1.0  -0.6151
  O  O1427  1  0.936200  0.211200  0.824700  1.0  -0.3646
  O  O1428  1  0.091700  0.109000  0.026300  1.0  -0.6443
  O  O1429  1  0.080000  0.453300  0.172900  1.0  -0.4283
  O  O1430  1  0.980700  0.442100  0.185300  1.0  -0.609
  O  O1431  1  0.175300  0.563800  0.211200  1.0  -0.3686
  O  O1432  1  0.973700  0.408300  0.109000  1.0  -0.6448
  O  O1433  1  0.580000  0.953300  0.672900  1.0  -0.4283
  O  O1434  1  0.480700  0.942100  0.685300  1.0  -0.609
  O  O1435  1  0.675300  0.063800  0.711200  1.0  -0.3686
  O  O1436  1  0.473700  0.908300  0.609000  1.0  -0.6448
  O  O1437  1  0.920000  0.953300  0.327100  1.0  -0.4284
  O  O1438  1  0.019300  0.942100  0.314700  1.0  -0.6106
  O  O1439  1  0.824700  0.063800  0.288800  1.0  -0.3687
  O  O1440  1  0.026300  0.908300  0.391000  1.0  -0.6442
  O  O1441  1  0.420000  0.453300  0.827100  1.0  -0.4284
  O  O1442  1  0.519300  0.442100  0.814700  1.0  -0.6106
  O  O1443  1  0.324700  0.563800  0.788800  1.0  -0.3687
  O  O1444  1  0.526300  0.408300  0.891000  1.0  -0.6442
  O  O1445  1  0.580000  0.046700  0.827100  1.0  -0.4294
  O  O1446  1  0.480700  0.057900  0.814700  1.0  -0.6101
  O  O1447  1  0.675300  0.936200  0.788800  1.0  -0.3701
  O  O1448  1  0.473700  0.091700  0.891000  1.0  -0.6441
  O  O1449  1  0.080000  0.546700  0.327100  1.0  -0.4294
  O  O1450  1  0.980700  0.557900  0.314700  1.0  -0.6101
  O  O1451  1  0.175300  0.436200  0.288800  1.0  -0.3701
  O  O1452  1  0.973700  0.591700  0.391000  1.0  -0.6441
  O  O1453  1  0.420000  0.546700  0.672900  1.0  -0.4269
  O  O1454  1  0.519300  0.557900  0.685300  1.0  -0.6091
  O  O1455  1  0.324700  0.436200  0.711200  1.0  -0.3688
  O  O1456  1  0.526300  0.591700  0.609000  1.0  -0.6463
  O  O1457  1  0.920000  0.046700  0.172900  1.0  -0.4269
  O  O1458  1  0.019300  0.057900  0.185300  1.0  -0.6091
  O  O1459  1  0.824700  0.936200  0.211200  1.0  -0.3688
  O  O1460  1  0.026300  0.091700  0.109000  1.0  -0.6463
