# generated using pymatgen
data_Pr4H168C183(N2O5)12
_symmetry_space_group_name_H-M   'P 1'
_cell_length_a   24.25010000
_cell_length_b   24.25010000
_cell_length_c   24.25010000
_cell_angle_alpha   109.45800000
_cell_angle_beta   109.45800000
_cell_angle_gamma   109.45800000
_symmetry_Int_Tables_number   1
_chemical_formula_structural   Pr4H168C183(N2O5)12
_chemical_formula_sum   'Pr8 H336 C366 N48 O120'
_cell_volume   10983.25603568
_cell_formula_units_Z   2
loop_
 _symmetry_equiv_pos_site_id
 _symmetry_equiv_pos_as_xyz
  1  'x, y, z'
loop_
 _atom_site_type_symbol
 _atom_site_label
 _atom_site_symmetry_multiplicity
 _atom_site_fract_x
 _atom_site_fract_y
 _atom_site_fract_z
 _atom_site_occupancy
 _atom_site_charge
  Pr  Pr1  1  0.401590  0.350830  0.850480  1.0  2.2971
  Pr  Pr2  1  0.850480  0.401590  0.350830  1.0  2.2942
  Pr  Pr3  1  0.350830  0.850480  0.401590  1.0  2.296
  Pr  Pr4  1  0.850830  0.901590  0.350480  1.0  2.2946
  Pr  Pr5  1  0.901590  0.350480  0.850830  1.0  2.2974
  Pr  Pr6  1  0.350480  0.850830  0.901590  1.0  2.2954
  Pr  Pr7  1  0.299370  0.299370  0.299370  1.0  2.23
  Pr  Pr8  1  0.799370  0.799370  0.799370  1.0  2.23
  H  H9  1  0.332100  0.471400  0.012700  1.0  0.3357
  H  H10  1  0.382600  0.701000  0.206000  1.0  0.2973
  H  H11  1  0.675500  0.673900  0.312500  1.0  0.2717
  H  H12  1  0.507300  0.526400  0.378000  1.0  0.2961
  H  H13  1  0.533500  0.666400  0.207900  1.0  0.0896
  H  H14  1  0.463100  0.661200  0.192300  1.0  0.0955
  H  H15  1  0.390500  0.532600  0.219800  1.0  0.0971
  H  H16  1  0.374100  0.538000  0.154000  1.0  0.0965
  H  H17  1  0.521300  0.627300  0.331500  1.0  0.0913
  H  H18  1  0.499300  0.678400  0.318900  1.0  0.1161
  H  H19  1  0.549300  0.571800  0.241700  1.0  0.1062
  H  H20  1  0.482800  0.520100  0.172100  1.0  0.109
  H  H21  1  0.520600  0.695700  0.133900  1.0  0.1198
  H  H22  1  0.557800  0.728000  0.067100  1.0  0.1298
  H  H23  1  0.515700  0.649100  0.957400  1.0  0.1259
  H  H24  1  0.439900  0.536000  0.915300  1.0  0.1281
  H  H25  1  0.326500  0.355600  0.949900  1.0  0.1022
  H  H26  1  0.395500  0.400000  0.019200  1.0  0.1306
  H  H27  1  0.363100  0.371000  0.108500  1.0  0.1183
  H  H28  1  0.285000  0.355300  0.145000  1.0  0.1416
  H  H29  1  0.186400  0.352800  0.086500  1.0  0.1225
  H  H30  1  0.168600  0.371500  0.996800  1.0  0.1236
  H  H31  1  0.246300  0.385500  0.959400  1.0  0.154
  H  H32  1  0.282900  0.490000  0.165700  1.0  0.1415
  H  H33  1  0.174400  0.461400  0.151900  1.0  0.1312
  H  H34  1  0.150600  0.543100  0.194500  1.0  0.1253
  H  H35  1  0.231700  0.657800  0.247100  1.0  0.1302
  H  H36  1  0.418400  0.826600  0.284300  1.0  0.113
  H  H37  1  0.462700  0.809700  0.332200  1.0  0.1166
  H  H38  1  0.564700  0.828800  0.342200  1.0  0.1334
  H  H39  1  0.643900  0.860700  0.310900  1.0  0.1171
  H  H40  1  0.615900  0.866000  0.212700  1.0  0.129
  H  H41  1  0.508500  0.845200  0.148600  1.0  0.1359
  H  H42  1  0.429900  0.814300  0.181600  1.0  0.1401
  H  H43  1  0.559000  0.742100  0.413300  1.0  0.1364
  H  H44  1  0.635600  0.834800  0.521200  1.0  0.1213
  H  H45  1  0.747100  0.894900  0.552100  1.0  0.1334
  H  H46  1  0.777900  0.870400  0.469300  1.0  0.1146
  H  H47  1  0.760700  0.726000  0.270900  1.0  0.1153
  H  H48  1  0.693700  0.725900  0.232400  1.0  0.1177
  H  H49  1  0.591200  0.593600  0.126100  1.0  0.108
  H  H50  1  0.564100  0.483700  0.078000  1.0  0.1422
  H  H51  1  0.641000  0.453100  0.129500  1.0  0.1395
  H  H52  1  0.738000  0.534400  0.230800  1.0  0.1241
  H  H53  1  0.762200  0.645200  0.278800  1.0  0.1494
  H  H54  1  0.511800  0.455800  0.158800  1.0  0.1327
  H  H55  1  0.535000  0.369400  0.149400  1.0  0.1346
  H  H56  1  0.514200  0.315600  0.209900  1.0  0.1334
  H  H57  1  0.469100  0.349700  0.277300  1.0  0.1143
  H  H58  1  0.376200  0.488400  0.331100  1.0  0.1195
  H  H59  1  0.408900  0.490100  0.399600  1.0  0.1147
  H  H60  1  0.365500  0.577400  0.335600  1.0  0.1447
  H  H61  1  0.398500  0.691800  0.394600  1.0  0.1303
  H  H62  1  0.488400  0.759900  0.502100  1.0  0.1218
  H  H63  1  0.549100  0.717600  0.552400  1.0  0.1327
  H  H64  1  0.516700  0.604700  0.493400  1.0  0.1524
  H  H65  1  0.012700  0.332100  0.471400  1.0  0.3355
  H  H66  1  0.206000  0.382600  0.701000  1.0  0.2957
  H  H67  1  0.312500  0.675500  0.673900  1.0  0.2768
  H  H68  1  0.378000  0.507300  0.526400  1.0  0.2962
  H  H69  1  0.207900  0.533500  0.666400  1.0  0.0925
  H  H70  1  0.192300  0.463100  0.661200  1.0  0.0981
  H  H71  1  0.219800  0.390500  0.532600  1.0  0.097
  H  H72  1  0.154000  0.374100  0.538000  1.0  0.092
  H  H73  1  0.331500  0.521300  0.627300  1.0  0.0896
  H  H74  1  0.318900  0.499300  0.678400  1.0  0.1158
  H  H75  1  0.241700  0.549300  0.571800  1.0  0.1004
  H  H76  1  0.172100  0.482800  0.520100  1.0  0.1099
  H  H77  1  0.133900  0.520600  0.695700  1.0  0.1189
  H  H78  1  0.067100  0.557800  0.728000  1.0  0.1299
  H  H79  1  0.957400  0.515700  0.649100  1.0  0.1262
  H  H80  1  0.915300  0.439900  0.536000  1.0  0.1286
  H  H81  1  0.949900  0.326500  0.355600  1.0  0.1016
  H  H82  1  0.019200  0.395500  0.400000  1.0  0.1311
  H  H83  1  0.108500  0.363100  0.371000  1.0  0.1184
  H  H84  1  0.145000  0.285000  0.355300  1.0  0.1389
  H  H85  1  0.086500  0.186400  0.352800  1.0  0.123
  H  H86  1  0.996800  0.168600  0.371500  1.0  0.1238
  H  H87  1  0.959400  0.246300  0.385500  1.0  0.1537
  H  H88  1  0.165700  0.282900  0.490000  1.0  0.1423
  H  H89  1  0.151900  0.174400  0.461400  1.0  0.1291
  H  H90  1  0.194500  0.150600  0.543100  1.0  0.1251
  H  H91  1  0.247100  0.231700  0.657800  1.0  0.131
  H  H92  1  0.284300  0.418400  0.826600  1.0  0.1127
  H  H93  1  0.332200  0.462700  0.809700  1.0  0.1167
  H  H94  1  0.342200  0.564700  0.828800  1.0  0.1333
  H  H95  1  0.310900  0.643900  0.860700  1.0  0.1166
  H  H96  1  0.212700  0.615900  0.866000  1.0  0.1286
  H  H97  1  0.148600  0.508500  0.845200  1.0  0.1354
  H  H98  1  0.181600  0.429900  0.814300  1.0  0.1375
  H  H99  1  0.413300  0.559000  0.742100  1.0  0.1369
  H  H100  1  0.521200  0.635600  0.834800  1.0  0.1214
  H  H101  1  0.552100  0.747100  0.894900  1.0  0.1335
  H  H102  1  0.469300  0.777900  0.870400  1.0  0.1145
  H  H103  1  0.270900  0.760700  0.726000  1.0  0.1172
  H  H104  1  0.232400  0.693700  0.725900  1.0  0.1169
  H  H105  1  0.126100  0.591200  0.593600  1.0  0.1085
  H  H106  1  0.078000  0.564100  0.483700  1.0  0.1427
  H  H107  1  0.129500  0.641000  0.453100  1.0  0.1393
  H  H108  1  0.230800  0.738000  0.534400  1.0  0.1257
  H  H109  1  0.278800  0.762200  0.645200  1.0  0.1519
  H  H110  1  0.158800  0.511800  0.455800  1.0  0.129
  H  H111  1  0.149400  0.535000  0.369400  1.0  0.136
  H  H112  1  0.209900  0.514200  0.315600  1.0  0.1321
  H  H113  1  0.277300  0.469100  0.349700  1.0  0.1121
  H  H114  1  0.331100  0.376200  0.488400  1.0  0.1214
  H  H115  1  0.399600  0.408900  0.490100  1.0  0.1146
  H  H116  1  0.335600  0.365500  0.577400  1.0  0.1456
  H  H117  1  0.394600  0.398500  0.691800  1.0  0.1311
  H  H118  1  0.502100  0.488400  0.759900  1.0  0.1207
  H  H119  1  0.552400  0.549100  0.717600  1.0  0.132
  H  H120  1  0.493400  0.516700  0.604700  1.0  0.1515
  H  H121  1  0.471400  0.012700  0.332100  1.0  0.3363
  H  H122  1  0.701000  0.206000  0.382600  1.0  0.2956
  H  H123  1  0.673900  0.312500  0.675500  1.0  0.275
  H  H124  1  0.526400  0.378000  0.507300  1.0  0.2957
  H  H125  1  0.666400  0.207900  0.533500  1.0  0.0903
  H  H126  1  0.661200  0.192300  0.463100  1.0  0.0979
  H  H127  1  0.532600  0.219800  0.390500  1.0  0.0949
  H  H128  1  0.538000  0.154000  0.374100  1.0  0.0955
  H  H129  1  0.627300  0.331500  0.521300  1.0  0.0867
  H  H130  1  0.678400  0.318900  0.499300  1.0  0.1167
  H  H131  1  0.571800  0.241700  0.549300  1.0  0.1011
  H  H132  1  0.520100  0.172100  0.482800  1.0  0.1118
  H  H133  1  0.695700  0.133900  0.520600  1.0  0.119
  H  H134  1  0.728000  0.067100  0.557800  1.0  0.1312
  H  H135  1  0.649100  0.957400  0.515700  1.0  0.1261
  H  H136  1  0.536000  0.915300  0.439900  1.0  0.1284
  H  H137  1  0.355600  0.949900  0.326500  1.0  0.1036
  H  H138  1  0.400000  0.019200  0.395500  1.0  0.1301
  H  H139  1  0.371000  0.108500  0.363100  1.0  0.1173
  H  H140  1  0.355300  0.145000  0.285000  1.0  0.1394
  H  H141  1  0.352800  0.086500  0.186400  1.0  0.123
  H  H142  1  0.371500  0.996800  0.168600  1.0  0.1236
  H  H143  1  0.385500  0.959400  0.246300  1.0  0.156
  H  H144  1  0.490000  0.165700  0.282900  1.0  0.143
  H  H145  1  0.461400  0.151900  0.174400  1.0  0.1297
  H  H146  1  0.543100  0.194500  0.150600  1.0  0.1262
  H  H147  1  0.657800  0.247100  0.231700  1.0  0.1296
  H  H148  1  0.826600  0.284300  0.418400  1.0  0.1116
  H  H149  1  0.809700  0.332200  0.462700  1.0  0.1161
  H  H150  1  0.828800  0.342200  0.564700  1.0  0.1338
  H  H151  1  0.860700  0.310900  0.643900  1.0  0.1161
  H  H152  1  0.866000  0.212700  0.615900  1.0  0.1296
  H  H153  1  0.845200  0.148600  0.508500  1.0  0.1354
  H  H154  1  0.814300  0.181600  0.429900  1.0  0.1395
  H  H155  1  0.742100  0.413300  0.559000  1.0  0.1349
  H  H156  1  0.834800  0.521200  0.635600  1.0  0.1214
  H  H157  1  0.894900  0.552100  0.747100  1.0  0.1347
  H  H158  1  0.870400  0.469300  0.777900  1.0  0.1151
  H  H159  1  0.726000  0.270900  0.760700  1.0  0.1159
  H  H160  1  0.725900  0.232400  0.693700  1.0  0.1171
  H  H161  1  0.593600  0.126100  0.591200  1.0  0.1081
  H  H162  1  0.483700  0.078000  0.564100  1.0  0.1451
  H  H163  1  0.453100  0.129500  0.641000  1.0  0.139
  H  H164  1  0.534400  0.230800  0.738000  1.0  0.1246
  H  H165  1  0.645200  0.278800  0.762200  1.0  0.1498
  H  H166  1  0.455800  0.158800  0.511800  1.0  0.1294
  H  H167  1  0.369400  0.149400  0.535000  1.0  0.1351
  H  H168  1  0.315600  0.209900  0.514200  1.0  0.1327
  H  H169  1  0.349700  0.277300  0.469100  1.0  0.1139
  H  H170  1  0.488400  0.331100  0.376200  1.0  0.1207
  H  H171  1  0.490100  0.399600  0.408900  1.0  0.1125
  H  H172  1  0.577400  0.335600  0.365500  1.0  0.1452
  H  H173  1  0.691800  0.394600  0.398500  1.0  0.1293
  H  H174  1  0.759900  0.502100  0.488400  1.0  0.1218
  H  H175  1  0.717600  0.552400  0.549100  1.0  0.1323
  H  H176  1  0.604700  0.493400  0.516700  1.0  0.1517
  H  H177  1  0.971400  0.832100  0.512700  1.0  0.3299
  H  H178  1  0.201000  0.882600  0.706000  1.0  0.2961
  H  H179  1  0.173900  0.175500  0.812500  1.0  0.2739
  H  H180  1  0.026400  0.007300  0.878000  1.0  0.2963
  H  H181  1  0.166400  0.033500  0.707900  1.0  0.0919
  H  H182  1  0.161200  0.963100  0.692300  1.0  0.0966
  H  H183  1  0.032600  0.890500  0.719800  1.0  0.0966
  H  H184  1  0.038000  0.874100  0.654000  1.0  0.0954
  H  H185  1  0.127300  0.021300  0.831500  1.0  0.0892
  H  H186  1  0.178400  0.999300  0.818900  1.0  0.1187
  H  H187  1  0.071800  0.049300  0.741700  1.0  0.1031
  H  H188  1  0.020100  0.982800  0.672100  1.0  0.1099
  H  H189  1  0.195700  0.020600  0.633900  1.0  0.1188
  H  H190  1  0.228000  0.057800  0.567100  1.0  0.1304
  H  H191  1  0.149100  0.015700  0.457400  1.0  0.1258
  H  H192  1  0.036000  0.939900  0.415300  1.0  0.1275
  H  H193  1  0.855600  0.826500  0.449900  1.0  0.1015
  H  H194  1  0.900000  0.895500  0.519200  1.0  0.1324
  H  H195  1  0.871000  0.863100  0.608500  1.0  0.1184
  H  H196  1  0.855300  0.785000  0.645000  1.0  0.1387
  H  H197  1  0.852800  0.686400  0.586500  1.0  0.1223
  H  H198  1  0.871500  0.668600  0.496800  1.0  0.1241
  H  H199  1  0.885500  0.746300  0.459400  1.0  0.1543
  H  H200  1  0.990000  0.782900  0.665700  1.0  0.1436
  H  H201  1  0.961400  0.674400  0.651900  1.0  0.13
  H  H202  1  0.043100  0.650600  0.694500  1.0  0.1253
  H  H203  1  0.157800  0.731700  0.747100  1.0  0.1312
  H  H204  1  0.326600  0.918400  0.784300  1.0  0.1131
  H  H205  1  0.309700  0.962700  0.832200  1.0  0.1173
  H  H206  1  0.328800  0.064700  0.842200  1.0  0.1336
  H  H207  1  0.360700  0.143900  0.810900  1.0  0.1166
  H  H208  1  0.366000  0.115900  0.712700  1.0  0.128
  H  H209  1  0.345200  0.008500  0.648600  1.0  0.1364
  H  H210  1  0.314300  0.929900  0.681600  1.0  0.1397
  H  H211  1  0.242100  0.059000  0.913300  1.0  0.137
  H  H212  1  0.334800  0.135600  0.021200  1.0  0.1214
  H  H213  1  0.394900  0.247100  0.052100  1.0  0.1339
  H  H214  1  0.370400  0.277900  0.969300  1.0  0.1146
  H  H215  1  0.226000  0.260700  0.770900  1.0  0.1173
  H  H216  1  0.225900  0.193700  0.732400  1.0  0.1176
  H  H217  1  0.093600  0.091200  0.626100  1.0  0.1073
  H  H218  1  0.983700  0.064100  0.578000  1.0  0.1428
  H  H219  1  0.953100  0.141000  0.629500  1.0  0.1385
  H  H220  1  0.034400  0.238000  0.730800  1.0  0.1245
  H  H221  1  0.145200  0.262200  0.778800  1.0  0.1498
  H  H222  1  0.955800  0.011800  0.658800  1.0  0.1301
  H  H223  1  0.869400  0.035000  0.649400  1.0  0.1347
  H  H224  1  0.815600  0.014200  0.709900  1.0  0.1332
  H  H225  1  0.849700  0.969100  0.777300  1.0  0.1133
  H  H226  1  0.988400  0.876200  0.831100  1.0  0.1196
  H  H227  1  0.990100  0.908900  0.899600  1.0  0.114
  H  H228  1  0.077400  0.865500  0.835600  1.0  0.1455
  H  H229  1  0.191800  0.898500  0.894600  1.0  0.1296
  H  H230  1  0.259900  0.988400  0.002100  1.0  0.1217
  H  H231  1  0.217600  0.049100  0.052400  1.0  0.1323
  H  H232  1  0.104700  0.016700  0.993400  1.0  0.1511
  H  H233  1  0.832100  0.512700  0.971400  1.0  0.336
  H  H234  1  0.882600  0.706000  0.201000  1.0  0.2969
  H  H235  1  0.175500  0.812500  0.173900  1.0  0.275
  H  H236  1  0.007300  0.878000  0.026400  1.0  0.295
  H  H237  1  0.033500  0.707900  0.166400  1.0  0.0903
  H  H238  1  0.963100  0.692300  0.161200  1.0  0.0971
  H  H239  1  0.890500  0.719800  0.032600  1.0  0.0973
  H  H240  1  0.874100  0.654000  0.038000  1.0  0.0942
  H  H241  1  0.021300  0.831500  0.127300  1.0  0.0896
  H  H242  1  0.999300  0.818900  0.178400  1.0  0.1163
  H  H243  1  0.049300  0.741700  0.071800  1.0  0.1036
  H  H244  1  0.982800  0.672100  0.020100  1.0  0.1117
  H  H245  1  0.020600  0.633900  0.195700  1.0  0.1176
  H  H246  1  0.057800  0.567100  0.228000  1.0  0.1304
  H  H247  1  0.015700  0.457400  0.149100  1.0  0.1263
  H  H248  1  0.939900  0.415300  0.036000  1.0  0.1287
  H  H249  1  0.826500  0.449900  0.855600  1.0  0.1037
  H  H250  1  0.895500  0.519200  0.900000  1.0  0.1314
  H  H251  1  0.863100  0.608500  0.871000  1.0  0.1162
  H  H252  1  0.785000  0.645000  0.855300  1.0  0.1402
  H  H253  1  0.686400  0.586500  0.852800  1.0  0.1229
  H  H254  1  0.668600  0.496800  0.871500  1.0  0.122
  H  H255  1  0.746300  0.459400  0.885500  1.0  0.1539
  H  H256  1  0.782900  0.665700  0.990000  1.0  0.1408
  H  H257  1  0.674400  0.651900  0.961400  1.0  0.129
  H  H258  1  0.650600  0.694500  0.043100  1.0  0.1264
  H  H259  1  0.731700  0.747100  0.157800  1.0  0.1301
  H  H260  1  0.918400  0.784300  0.326600  1.0  0.1122
  H  H261  1  0.962700  0.832200  0.309700  1.0  0.1168
  H  H262  1  0.064700  0.842200  0.328800  1.0  0.1345
  H  H263  1  0.143900  0.810900  0.360700  1.0  0.1159
  H  H264  1  0.115900  0.712700  0.366000  1.0  0.1297
  H  H265  1  0.008500  0.648600  0.345200  1.0  0.1362
  H  H266  1  0.929900  0.681600  0.314300  1.0  0.138
  H  H267  1  0.059000  0.913300  0.242100  1.0  0.1362
  H  H268  1  0.135600  0.021200  0.334800  1.0  0.1211
  H  H269  1  0.247100  0.052100  0.394900  1.0  0.1341
  H  H270  1  0.277900  0.969300  0.370400  1.0  0.1152
  H  H271  1  0.260700  0.770900  0.226000  1.0  0.1168
  H  H272  1  0.193700  0.732400  0.225900  1.0  0.1168
  H  H273  1  0.091200  0.626100  0.093600  1.0  0.1074
  H  H274  1  0.064100  0.578000  0.983700  1.0  0.1429
  H  H275  1  0.141000  0.629500  0.953100  1.0  0.1397
  H  H276  1  0.238000  0.730800  0.034400  1.0  0.125
  H  H277  1  0.262200  0.778800  0.145200  1.0  0.1521
  H  H278  1  0.011800  0.658800  0.955800  1.0  0.1286
  H  H279  1  0.035000  0.649400  0.869400  1.0  0.1358
  H  H280  1  0.014200  0.709900  0.815600  1.0  0.1327
  H  H281  1  0.969100  0.777300  0.849700  1.0  0.1123
  H  H282  1  0.876200  0.831100  0.988400  1.0  0.1212
  H  H283  1  0.908900  0.899600  0.990100  1.0  0.1118
  H  H284  1  0.865500  0.835600  0.077400  1.0  0.145
  H  H285  1  0.898500  0.894600  0.191800  1.0  0.1309
  H  H286  1  0.988400  0.002100  0.259900  1.0  0.1209
  H  H287  1  0.049100  0.052400  0.217600  1.0  0.133
  H  H288  1  0.016700  0.993400  0.104700  1.0  0.1517
  H  H289  1  0.512700  0.971400  0.832100  1.0  0.3375
  H  H290  1  0.706000  0.201000  0.882600  1.0  0.2947
  H  H291  1  0.812500  0.173900  0.175500  1.0  0.2745
  H  H292  1  0.878000  0.026400  0.007300  1.0  0.2949
  H  H293  1  0.707900  0.166400  0.033500  1.0  0.0908
  H  H294  1  0.692300  0.161200  0.963100  1.0  0.0979
  H  H295  1  0.719800  0.032600  0.890500  1.0  0.0957
  H  H296  1  0.654000  0.038000  0.874100  1.0  0.0942
  H  H297  1  0.831500  0.127300  0.021300  1.0  0.093
  H  H298  1  0.818900  0.178400  0.999300  1.0  0.1171
  H  H299  1  0.741700  0.071800  0.049300  1.0  0.1024
  H  H300  1  0.672100  0.020100  0.982800  1.0  0.1087
  H  H301  1  0.633900  0.195700  0.020600  1.0  0.1186
  H  H302  1  0.567100  0.228000  0.057800  1.0  0.1303
  H  H303  1  0.457400  0.149100  0.015700  1.0  0.1259
  H  H304  1  0.415300  0.036000  0.939900  1.0  0.1288
  H  H305  1  0.449900  0.855600  0.826500  1.0  0.1038
  H  H306  1  0.519200  0.900000  0.895500  1.0  0.1323
  H  H307  1  0.608500  0.871000  0.863100  1.0  0.1167
  H  H308  1  0.645000  0.855300  0.785000  1.0  0.1423
  H  H309  1  0.586500  0.852800  0.686400  1.0  0.1237
  H  H310  1  0.496800  0.871500  0.668600  1.0  0.1223
  H  H311  1  0.459400  0.885500  0.746300  1.0  0.1579
  H  H312  1  0.665700  0.990000  0.782900  1.0  0.1436
  H  H313  1  0.651900  0.961400  0.674400  1.0  0.1308
  H  H314  1  0.694500  0.043100  0.650600  1.0  0.1261
  H  H315  1  0.747100  0.157800  0.731700  1.0  0.1298
  H  H316  1  0.784300  0.326600  0.918400  1.0  0.1113
  H  H317  1  0.832200  0.309700  0.962700  1.0  0.1156
  H  H318  1  0.842200  0.328800  0.064700  1.0  0.135
  H  H319  1  0.810900  0.360700  0.143900  1.0  0.116
  H  H320  1  0.712700  0.366000  0.115900  1.0  0.1289
  H  H321  1  0.648600  0.345200  0.008500  1.0  0.1382
  H  H322  1  0.681600  0.314300  0.929900  1.0  0.142
  H  H323  1  0.913300  0.242100  0.059000  1.0  0.1365
  H  H324  1  0.021200  0.334800  0.135600  1.0  0.121
  H  H325  1  0.052100  0.394900  0.247100  1.0  0.1338
  H  H326  1  0.969300  0.370400  0.277900  1.0  0.1156
  H  H327  1  0.770900  0.226000  0.260700  1.0  0.116
  H  H328  1  0.732400  0.225900  0.193700  1.0  0.1179
  H  H329  1  0.626100  0.093600  0.091200  1.0  0.1088
  H  H330  1  0.578000  0.983700  0.064100  1.0  0.1435
  H  H331  1  0.629500  0.953100  0.141000  1.0  0.1404
  H  H332  1  0.730800  0.034400  0.238000  1.0  0.1239
  H  H333  1  0.778800  0.145200  0.262200  1.0  0.1497
  H  H334  1  0.658800  0.955800  0.011800  1.0  0.1302
  H  H335  1  0.649400  0.869400  0.035000  1.0  0.1342
  H  H336  1  0.709900  0.815600  0.014200  1.0  0.1329
  H  H337  1  0.777300  0.849700  0.969100  1.0  0.114
  H  H338  1  0.831100  0.988400  0.876200  1.0  0.12
  H  H339  1  0.899600  0.990100  0.908900  1.0  0.1155
  H  H340  1  0.835600  0.077400  0.865500  1.0  0.1453
  H  H341  1  0.894600  0.191800  0.898500  1.0  0.1279
  H  H342  1  0.002100  0.259900  0.988400  1.0  0.1218
  H  H343  1  0.052400  0.217600  0.049100  1.0  0.1326
  H  H344  1  0.993400  0.104700  0.016700  1.0  0.152
  C  C345  1  0.479200  0.600700  0.227100  1.0  0.0613
  C  C346  1  0.486200  0.635200  0.188900  1.0  0.0791
  C  C347  1  0.400400  0.563600  0.202900  1.0  0.0491
  C  C348  1  0.520100  0.651800  0.307000  1.0  0.0733
  C  C349  1  0.500400  0.549200  0.219600  1.0  0.0527
  C  C350  1  0.389500  0.479300  0.971700  1.0  0.2578
  C  C351  1  0.436800  0.550300  0.000400  1.0  0.0066
  C  C352  1  0.460400  0.596600  0.064900  1.0  0.1379
  C  C353  1  0.505000  0.663600  0.090100  1.0  -0.1788
  C  C354  1  0.526700  0.683100  0.049800  1.0  -0.0979
  C  C355  1  0.502100  0.636200  0.984800  1.0  -0.0825
  C  C356  1  0.456500  0.568300  0.959400  1.0  -0.1179
  C  C357  1  0.350500  0.392800  0.995800  1.0  0.0105
  C  C358  1  0.312800  0.380600  0.032500  1.0  0.0575
  C  C359  1  0.323700  0.371100  0.086000  1.0  -0.0879
  C  C360  1  0.276900  0.361200  0.107600  1.0  -0.08
  C  C361  1  0.218700  0.360500  0.073200  1.0  -0.0655
  C  C362  1  0.207600  0.370700  0.018900  1.0  -0.0846
  C  C363  1  0.254200  0.380000  0.996900  1.0  -0.1111
  C  C364  1  0.353700  0.715700  0.276000  1.0  0.1687
  C  C365  1  0.305200  0.641000  0.239600  1.0  0.0615
  C  C366  1  0.318900  0.591500  0.215100  1.0  0.3017
  C  C367  1  0.272100  0.523000  0.181900  1.0  -0.2224
  C  C368  1  0.207400  0.506500  0.174300  1.0  -0.0799
  C  C369  1  0.193100  0.555000  0.198900  1.0  -0.0862
  C  C370  1  0.242200  0.624400  0.231600  1.0  -0.0939
  C  C371  1  0.440100  0.799700  0.285900  1.0  -0.042
  C  C372  1  0.490100  0.818800  0.265400  1.0  0.1496
  C  C373  1  0.553300  0.832200  0.303400  1.0  -0.1369
  C  C374  1  0.600200  0.850600  0.284300  1.0  -0.0507
  C  C375  1  0.583800  0.854600  0.225900  1.0  -0.0796
  C  C376  1  0.519900  0.841700  0.187500  1.0  -0.1173
  C  C377  1  0.473300  0.823600  0.207500  1.0  -0.0887
  C  C378  1  0.726100  0.773600  0.358700  1.0  0.2173
  C  C379  1  0.689700  0.786600  0.396800  1.0  0.0251
  C  C380  1  0.626600  0.743000  0.382600  1.0  0.3984
  C  C381  1  0.604500  0.765100  0.426400  1.0  -0.155
  C  C382  1  0.650100  0.822200  0.490500  1.0  -0.0678
  C  C383  1  0.715600  0.859300  0.508200  1.0  -0.0914
  C  C384  1  0.734600  0.842900  0.459400  1.0  -0.1015
  C  C385  1  0.712500  0.704500  0.254500  1.0  -0.0341
  C  C386  1  0.678200  0.629500  0.206900  1.0  -0.0123
  C  C387  1  0.620600  0.581100  0.147300  1.0  -0.0413
  C  C388  1  0.604500  0.516000  0.118100  1.0  -0.1216
  C  C389  1  0.650200  0.497600  0.149300  1.0  -0.0966
  C  C390  1  0.708000  0.546100  0.209200  1.0  -0.0929
  C  C391  1  0.722500  0.612400  0.238200  1.0  -0.1919
  C  C392  1  0.438500  0.431700  0.307500  1.0  0.2061
  C  C393  1  0.465700  0.423300  0.259300  1.0  -0.0019
  C  C394  1  0.478400  0.455200  0.223400  1.0  0.3177
  C  C395  1  0.503700  0.434300  0.183000  1.0  -0.1549
  C  C396  1  0.517600  0.382600  0.177000  1.0  -0.077
  C  C397  1  0.505000  0.350400  0.212800  1.0  -0.0547
  C  C398  1  0.478300  0.371400  0.253600  1.0  -0.1123
  C  C399  1  0.418100  0.510400  0.373100  1.0  -0.0466
  C  C400  1  0.438300  0.582100  0.409900  1.0  0.1108
  C  C401  1  0.402400  0.605800  0.379200  1.0  -0.1567
  C  C402  1  0.422100  0.674200  0.414700  1.0  -0.0787
  C  C403  1  0.475900  0.714700  0.478500  1.0  -0.0824
  C  C404  1  0.512200  0.689500  0.508800  1.0  -0.0975
  C  C405  1  0.492900  0.622300  0.473800  1.0  -0.1687
  C  C406  1  0.227100  0.479200  0.600700  1.0  0.0621
  C  C407  1  0.188900  0.486200  0.635200  1.0  0.0741
  C  C408  1  0.202900  0.400400  0.563600  1.0  0.0533
  C  C409  1  0.307000  0.520100  0.651800  1.0  0.0737
  C  C410  1  0.219600  0.500400  0.549200  1.0  0.0516
  C  C411  1  0.971700  0.389500  0.479300  1.0  0.2582
  C  C412  1  0.000400  0.436800  0.550300  1.0  0.0074
  C  C413  1  0.064900  0.460400  0.596600  1.0  0.1369
  C  C414  1  0.090100  0.505000  0.663600  1.0  -0.1854
  C  C415  1  0.049800  0.526700  0.683100  1.0  -0.0968
  C  C416  1  0.984800  0.502100  0.636200  1.0  -0.0853
  C  C417  1  0.959400  0.456500  0.568300  1.0  -0.1172
  C  C418  1  0.995800  0.350500  0.392800  1.0  0.0157
  C  C419  1  0.032500  0.312800  0.380600  1.0  0.0605
  C  C420  1  0.086000  0.323700  0.371100  1.0  -0.0774
  C  C421  1  0.107600  0.276900  0.361200  1.0  -0.0812
  C  C422  1  0.073200  0.218700  0.360500  1.0  -0.068
  C  C423  1  0.018900  0.207600  0.370700  1.0  -0.0833
  C  C424  1  0.996900  0.254200  0.380000  1.0  -0.1068
  C  C425  1  0.276000  0.353700  0.715700  1.0  0.1687
  C  C426  1  0.239600  0.305200  0.641000  1.0  0.0615
  C  C427  1  0.215100  0.318900  0.591500  1.0  0.3025
  C  C428  1  0.181900  0.272100  0.523000  1.0  -0.2257
  C  C429  1  0.174300  0.207400  0.506500  1.0  -0.0777
  C  C430  1  0.198900  0.193100  0.555000  1.0  -0.083
  C  C431  1  0.231600  0.242200  0.624400  1.0  -0.0933
  C  C432  1  0.285900  0.440100  0.799700  1.0  -0.0431
  C  C433  1  0.265400  0.490100  0.818800  1.0  0.1486
  C  C434  1  0.303400  0.553300  0.832200  1.0  -0.1393
  C  C435  1  0.284300  0.600200  0.850600  1.0  -0.053
  C  C436  1  0.225900  0.583800  0.854600  1.0  -0.0827
  C  C437  1  0.187500  0.519900  0.841700  1.0  -0.1177
  C  C438  1  0.207500  0.473300  0.823600  1.0  -0.0906
  C  C439  1  0.358700  0.726100  0.773600  1.0  0.2165
  C  C440  1  0.396800  0.689700  0.786600  1.0  0.0241
  C  C441  1  0.382600  0.626600  0.743000  1.0  0.3985
  C  C442  1  0.426400  0.604500  0.765100  1.0  -0.1581
  C  C443  1  0.490500  0.650100  0.822200  1.0  -0.0701
  C  C444  1  0.508200  0.715600  0.859300  1.0  -0.0934
  C  C445  1  0.459400  0.734600  0.842900  1.0  -0.1064
  C  C446  1  0.254500  0.712500  0.704500  1.0  -0.0344
  C  C447  1  0.206900  0.678200  0.629500  1.0  -0.0108
  C  C448  1  0.147300  0.620600  0.581100  1.0  -0.0406
  C  C449  1  0.118100  0.604500  0.516000  1.0  -0.1233
  C  C450  1  0.149300  0.650200  0.497600  1.0  -0.0974
  C  C451  1  0.209200  0.708000  0.546100  1.0  -0.0966
  C  C452  1  0.238200  0.722500  0.612400  1.0  -0.1955
  C  C453  1  0.307500  0.438500  0.431700  1.0  0.2031
  C  C454  1  0.259300  0.465700  0.423300  1.0  0.0009
  C  C455  1  0.223400  0.478400  0.455200  1.0  0.3169
  C  C456  1  0.183000  0.503700  0.434300  1.0  -0.1568
  C  C457  1  0.177000  0.517600  0.382600  1.0  -0.075
  C  C458  1  0.212800  0.505000  0.350400  1.0  -0.0592
  C  C459  1  0.253600  0.478300  0.371400  1.0  -0.113
  C  C460  1  0.373100  0.418100  0.510400  1.0  -0.0477
  C  C461  1  0.409900  0.438300  0.582100  1.0  0.1126
  C  C462  1  0.379200  0.402400  0.605800  1.0  -0.1513
  C  C463  1  0.414700  0.422100  0.674200  1.0  -0.0718
  C  C464  1  0.478500  0.475900  0.714700  1.0  -0.0802
  C  C465  1  0.508800  0.512200  0.689500  1.0  -0.1
  C  C466  1  0.473800  0.492900  0.622300  1.0  -0.1738
  C  C467  1  0.600700  0.227100  0.479200  1.0  0.0618
  C  C468  1  0.635200  0.188900  0.486200  1.0  0.0788
  C  C469  1  0.563600  0.202900  0.400400  1.0  0.0529
  C  C470  1  0.651800  0.307000  0.520100  1.0  0.0751
  C  C471  1  0.549200  0.219600  0.500400  1.0  0.0494
  C  C472  1  0.479300  0.971700  0.389500  1.0  0.2573
  C  C473  1  0.550300  0.000400  0.436800  1.0  0.0063
  C  C474  1  0.596600  0.064900  0.460400  1.0  0.1363
  C  C475  1  0.663600  0.090100  0.505000  1.0  -0.1854
  C  C476  1  0.683100  0.049800  0.526700  1.0  -0.1002
  C  C477  1  0.636200  0.984800  0.502100  1.0  -0.0847
  C  C478  1  0.568300  0.959400  0.456500  1.0  -0.1219
  C  C479  1  0.392800  0.995800  0.350500  1.0  0.0121
  C  C480  1  0.380600  0.032500  0.312800  1.0  0.0579
  C  C481  1  0.371100  0.086000  0.323700  1.0  -0.0787
  C  C482  1  0.361200  0.107600  0.276900  1.0  -0.0842
  C  C483  1  0.360500  0.073200  0.218700  1.0  -0.0668
  C  C484  1  0.370700  0.018900  0.207600  1.0  -0.0822
  C  C485  1  0.380000  0.996900  0.254200  1.0  -0.1191
  C  C486  1  0.715700  0.276000  0.353700  1.0  0.17
  C  C487  1  0.641000  0.239600  0.305200  1.0  0.0626
  C  C488  1  0.591500  0.215100  0.318900  1.0  0.3018
  C  C489  1  0.523000  0.181900  0.272100  1.0  -0.2224
  C  C490  1  0.506500  0.174300  0.207400  1.0  -0.0772
  C  C491  1  0.555000  0.198900  0.193100  1.0  -0.0818
  C  C492  1  0.624400  0.231600  0.242200  1.0  -0.0946
  C  C493  1  0.799700  0.285900  0.440100  1.0  -0.0416
  C  C494  1  0.818800  0.265400  0.490100  1.0  0.1499
  C  C495  1  0.832200  0.303400  0.553300  1.0  -0.1297
  C  C496  1  0.850600  0.284300  0.600200  1.0  -0.0503
  C  C497  1  0.854600  0.225900  0.583800  1.0  -0.0775
  C  C498  1  0.841700  0.187500  0.519900  1.0  -0.1207
  C  C499  1  0.823600  0.207500  0.473300  1.0  -0.0934
  C  C500  1  0.773600  0.358700  0.726100  1.0  0.2183
  C  C501  1  0.786600  0.396800  0.689700  1.0  0.0245
  C  C502  1  0.743000  0.382600  0.626600  1.0  0.3982
  C  C503  1  0.765100  0.426400  0.604500  1.0  -0.1601
  C  C504  1  0.822200  0.490500  0.650100  1.0  -0.067
  C  C505  1  0.859300  0.508200  0.715600  1.0  -0.0927
  C  C506  1  0.842900  0.459400  0.734600  1.0  -0.1044
  C  C507  1  0.704500  0.254500  0.712500  1.0  -0.0338
  C  C508  1  0.629500  0.206900  0.678200  1.0  -0.0107
  C  C509  1  0.581100  0.147300  0.620600  1.0  -0.0421
  C  C510  1  0.516000  0.118100  0.604500  1.0  -0.1226
  C  C511  1  0.497600  0.149300  0.650200  1.0  -0.0978
  C  C512  1  0.546100  0.209200  0.708000  1.0  -0.0976
  C  C513  1  0.612400  0.238200  0.722500  1.0  -0.1918
  C  C514  1  0.431700  0.307500  0.438500  1.0  0.2039
  C  C515  1  0.423300  0.259300  0.465700  1.0  -0.0026
  C  C516  1  0.455200  0.223400  0.478400  1.0  0.3184
  C  C517  1  0.434300  0.183000  0.503700  1.0  -0.1549
  C  C518  1  0.382600  0.177000  0.517600  1.0  -0.0727
  C  C519  1  0.350400  0.212800  0.505000  1.0  -0.0562
  C  C520  1  0.371400  0.253600  0.478300  1.0  -0.1115
  C  C521  1  0.510400  0.373100  0.418100  1.0  -0.0447
  C  C522  1  0.582100  0.409900  0.438300  1.0  0.1114
  C  C523  1  0.605800  0.379200  0.402400  1.0  -0.1532
  C  C524  1  0.674200  0.414700  0.422100  1.0  -0.0728
  C  C525  1  0.714700  0.478500  0.475900  1.0  -0.0811
  C  C526  1  0.689500  0.508800  0.512200  1.0  -0.1009
  C  C527  1  0.622300  0.473800  0.492900  1.0  -0.1687
  C  C528  1  0.100700  0.979200  0.727100  1.0  0.0615
  C  C529  1  0.135200  0.986200  0.688900  1.0  0.0812
  C  C530  1  0.063600  0.900400  0.702900  1.0  0.0539
  C  C531  1  0.151800  0.020100  0.807000  1.0  0.0726
  C  C532  1  0.049200  0.000400  0.719600  1.0  0.0542
  C  C533  1  0.979300  0.889500  0.471700  1.0  0.2566
  C  C534  1  0.050300  0.936800  0.500400  1.0  0.0062
  C  C535  1  0.096600  0.960400  0.564900  1.0  0.1363
  C  C536  1  0.163600  0.005000  0.590100  1.0  -0.1822
  C  C537  1  0.183100  0.026700  0.549800  1.0  -0.0991
  C  C538  1  0.136200  0.002100  0.484800  1.0  -0.0831
  C  C539  1  0.068300  0.956500  0.459400  1.0  -0.1197
  C  C540  1  0.892800  0.850500  0.495800  1.0  0.0146
  C  C541  1  0.880600  0.812800  0.532500  1.0  0.0584
  C  C542  1  0.871100  0.823700  0.586000  1.0  -0.0838
  C  C543  1  0.861200  0.776900  0.607600  1.0  -0.0806
  C  C544  1  0.860500  0.718700  0.573200  1.0  -0.0675
  C  C545  1  0.870700  0.707600  0.518900  1.0  -0.0847
  C  C546  1  0.880000  0.754200  0.496900  1.0  -0.1122
  C  C547  1  0.215700  0.853700  0.776000  1.0  0.169
  C  C548  1  0.141000  0.805200  0.739600  1.0  0.0615
  C  C549  1  0.091500  0.818900  0.715100  1.0  0.2999
  C  C550  1  0.023000  0.772100  0.681900  1.0  -0.226
  C  C551  1  0.006500  0.707400  0.674300  1.0  -0.0761
  C  C552  1  0.055000  0.693100  0.698900  1.0  -0.0828
  C  C553  1  0.124400  0.742200  0.731600  1.0  -0.0962
  C  C554  1  0.299700  0.940100  0.785900  1.0  -0.0414
  C  C555  1  0.318800  0.990100  0.765400  1.0  0.1493
  C  C556  1  0.332200  0.053300  0.803400  1.0  -0.1348
  C  C557  1  0.350600  0.100200  0.784300  1.0  -0.0512
  C  C558  1  0.354600  0.083800  0.725900  1.0  -0.0791
  C  C559  1  0.341700  0.019900  0.687500  1.0  -0.1163
  C  C560  1  0.323600  0.973300  0.707500  1.0  -0.0922
  C  C561  1  0.273600  0.226100  0.858700  1.0  0.2176
  C  C562  1  0.286600  0.189700  0.896800  1.0  0.0271
  C  C563  1  0.243000  0.126600  0.882600  1.0  0.3974
  C  C564  1  0.265100  0.104500  0.926400  1.0  -0.1508
  C  C565  1  0.322200  0.150100  0.990500  1.0  -0.064
  C  C566  1  0.359300  0.215600  0.008200  1.0  -0.0931
  C  C567  1  0.342900  0.234600  0.959400  1.0  -0.1035
  C  C568  1  0.204500  0.212500  0.754500  1.0  -0.037
  C  C569  1  0.129500  0.178200  0.706900  1.0  -0.0093
  C  C570  1  0.081100  0.120600  0.647300  1.0  -0.0409
  C  C571  1  0.016000  0.104500  0.618100  1.0  -0.127
  C  C572  1  0.997600  0.150200  0.649300  1.0  -0.0982
  C  C573  1  0.046100  0.208000  0.709200  1.0  -0.0968
  C  C574  1  0.112400  0.222500  0.738200  1.0  -0.1935
  C  C575  1  0.931700  0.938500  0.807500  1.0  0.204
  C  C576  1  0.923300  0.965700  0.759300  1.0  -0.0045
  C  C577  1  0.955200  0.978400  0.723400  1.0  0.3163
  C  C578  1  0.934300  0.003700  0.683000  1.0  -0.155
  C  C579  1  0.882600  0.017600  0.677000  1.0  -0.075
  C  C580  1  0.850400  0.005000  0.712800  1.0  -0.0575
  C  C581  1  0.871400  0.978300  0.753600  1.0  -0.1139
  C  C582  1  0.010400  0.918100  0.873100  1.0  -0.048
  C  C583  1  0.082100  0.938300  0.909900  1.0  0.1119
  C  C584  1  0.105800  0.902400  0.879200  1.0  -0.1557
  C  C585  1  0.174200  0.922100  0.914700  1.0  -0.077
  C  C586  1  0.214700  0.975900  0.978500  1.0  -0.0803
  C  C587  1  0.189500  0.012200  0.008800  1.0  -0.0962
  C  C588  1  0.122300  0.992900  0.973800  1.0  -0.1683
  C  C589  1  0.979200  0.727100  0.100700  1.0  0.061
  C  C590  1  0.986200  0.688900  0.135200  1.0  0.0739
  C  C591  1  0.900400  0.702900  0.063600  1.0  0.0518
  C  C592  1  0.020100  0.807000  0.151800  1.0  0.074
  C  C593  1  0.000400  0.719600  0.049200  1.0  0.0522
  C  C594  1  0.889500  0.471700  0.979300  1.0  0.2582
  C  C595  1  0.936800  0.500400  0.050300  1.0  0.0069
  C  C596  1  0.960400  0.564900  0.096600  1.0  0.1375
  C  C597  1  0.005000  0.590100  0.163600  1.0  -0.1831
  C  C598  1  0.026700  0.549800  0.183100  1.0  -0.0951
  C  C599  1  0.002100  0.484800  0.136200  1.0  -0.084
  C  C600  1  0.956500  0.459400  0.068300  1.0  -0.1194
  C  C601  1  0.850500  0.495800  0.892800  1.0  0.0124
  C  C602  1  0.812800  0.532500  0.880600  1.0  0.0582
  C  C603  1  0.823700  0.586000  0.871100  1.0  -0.0799
  C  C604  1  0.776900  0.607600  0.861200  1.0  -0.0812
  C  C605  1  0.718700  0.573200  0.860500  1.0  -0.0658
  C  C606  1  0.707600  0.518900  0.870700  1.0  -0.0851
  C  C607  1  0.754200  0.496900  0.880000  1.0  -0.1161
  C  C608  1  0.853700  0.776000  0.215700  1.0  0.1687
  C  C609  1  0.805200  0.739600  0.141000  1.0  0.0611
  C  C610  1  0.818900  0.715100  0.091500  1.0  0.3019
  C  C611  1  0.772100  0.681900  0.023000  1.0  -0.2236
  C  C612  1  0.707400  0.674300  0.006500  1.0  -0.0766
  C  C613  1  0.693100  0.698900  0.055000  1.0  -0.0885
  C  C614  1  0.742200  0.731600  0.124400  1.0  -0.0964
  C  C615  1  0.940100  0.785900  0.299700  1.0  -0.0403
  C  C616  1  0.990100  0.765400  0.318800  1.0  0.1482
  C  C617  1  0.053300  0.803400  0.332200  1.0  -0.1378
  C  C618  1  0.100200  0.784300  0.350600  1.0  -0.0524
  C  C619  1  0.083800  0.725900  0.354600  1.0  -0.0822
  C  C620  1  0.019900  0.687500  0.341700  1.0  -0.1159
  C  C621  1  0.973300  0.707500  0.323600  1.0  -0.0913
  C  C622  1  0.226100  0.858700  0.273600  1.0  0.2188
  C  C623  1  0.189700  0.896800  0.286600  1.0  0.0262
  C  C624  1  0.126600  0.882600  0.243000  1.0  0.4002
  C  C625  1  0.104500  0.926400  0.265100  1.0  -0.1593
  C  C626  1  0.150100  0.990500  0.322200  1.0  -0.0685
  C  C627  1  0.215600  0.008200  0.359300  1.0  -0.0933
  C  C628  1  0.234600  0.959400  0.342900  1.0  -0.1076
  C  C629  1  0.212500  0.754500  0.204500  1.0  -0.0339
  C  C630  1  0.178200  0.706900  0.129500  1.0  -0.0136
  C  C631  1  0.120600  0.647300  0.081100  1.0  -0.0426
  C  C632  1  0.104500  0.618100  0.016000  1.0  -0.1208
  C  C633  1  0.150200  0.649300  0.997600  1.0  -0.0966
  C  C634  1  0.208000  0.709200  0.046100  1.0  -0.0977
  C  C635  1  0.222500  0.738200  0.112400  1.0  -0.197
  C  C636  1  0.938500  0.807500  0.931700  1.0  0.2042
  C  C637  1  0.965700  0.759300  0.923300  1.0  1e-04
  C  C638  1  0.978400  0.723400  0.955200  1.0  0.3149
  C  C639  1  0.003700  0.683000  0.934300  1.0  -0.1584
  C  C640  1  0.017600  0.677000  0.882600  1.0  -0.077
  C  C641  1  0.005000  0.712800  0.850400  1.0  -0.0582
  C  C642  1  0.978300  0.753600  0.871400  1.0  -0.1124
  C  C643  1  0.918100  0.873100  0.010400  1.0  -0.0461
  C  C644  1  0.938300  0.909900  0.082100  1.0  0.1115
  C  C645  1  0.902400  0.879200  0.105800  1.0  -0.1581
  C  C646  1  0.922100  0.914700  0.174200  1.0  -0.0795
  C  C647  1  0.975900  0.978500  0.214700  1.0  -0.0805
  C  C648  1  0.012200  0.008800  0.189500  1.0  -0.1002
  C  C649  1  0.992900  0.973800  0.122300  1.0  -0.17
  C  C650  1  0.727100  0.100700  0.979200  1.0  0.0623
  C  C651  1  0.688900  0.135200  0.986200  1.0  0.0773
  C  C652  1  0.702900  0.063600  0.900400  1.0  0.0482
  C  C653  1  0.807000  0.151800  0.020100  1.0  0.0754
  C  C654  1  0.719600  0.049200  0.000400  1.0  0.0488
  C  C655  1  0.471700  0.979300  0.889500  1.0  0.2574
  C  C656  1  0.500400  0.050300  0.936800  1.0  0.0066
  C  C657  1  0.564900  0.096600  0.960400  1.0  0.1363
  C  C658  1  0.590100  0.163600  0.005000  1.0  -0.1806
  C  C659  1  0.549800  0.183100  0.026700  1.0  -0.0978
  C  C660  1  0.484800  0.136200  0.002100  1.0  -0.0869
  C  C661  1  0.459400  0.068300  0.956500  1.0  -0.1165
  C  C662  1  0.495800  0.892800  0.850500  1.0  0.0137
  C  C663  1  0.532500  0.880600  0.812800  1.0  0.0619
  C  C664  1  0.586000  0.871100  0.823700  1.0  -0.082
  C  C665  1  0.607600  0.861200  0.776900  1.0  -0.0851
  C  C666  1  0.573200  0.860500  0.718700  1.0  -0.067
  C  C667  1  0.518900  0.870700  0.707600  1.0  -0.0817
  C  C668  1  0.496900  0.880000  0.754200  1.0  -0.1151
  C  C669  1  0.776000  0.215700  0.853700  1.0  0.1706
  C  C670  1  0.739600  0.141000  0.805200  1.0  0.0631
  C  C671  1  0.715100  0.091500  0.818900  1.0  0.3018
  C  C672  1  0.681900  0.023000  0.772100  1.0  -0.2229
  C  C673  1  0.674300  0.006500  0.707400  1.0  -0.0788
  C  C674  1  0.698900  0.055000  0.693100  1.0  -0.0784
  C  C675  1  0.731600  0.124400  0.742200  1.0  -0.0903
  C  C676  1  0.785900  0.299700  0.940100  1.0  -0.0447
  C  C677  1  0.765400  0.318800  0.990100  1.0  0.1511
  C  C678  1  0.803400  0.332200  0.053300  1.0  -0.1399
  C  C679  1  0.784300  0.350600  0.100200  1.0  -0.0514
  C  C680  1  0.725900  0.354600  0.083800  1.0  -0.0791
  C  C681  1  0.687500  0.341700  0.019900  1.0  -0.1184
  C  C682  1  0.707500  0.323600  0.973300  1.0  -0.0877
  C  C683  1  0.858700  0.273600  0.226100  1.0  0.216
  C  C684  1  0.896800  0.286600  0.189700  1.0  0.0229
  C  C685  1  0.882600  0.243000  0.126600  1.0  0.3986
  C  C686  1  0.926400  0.265100  0.104500  1.0  -0.153
  C  C687  1  0.990500  0.322200  0.150100  1.0  -0.0667
  C  C688  1  0.008200  0.359300  0.215600  1.0  -0.0917
  C  C689  1  0.959400  0.342900  0.234600  1.0  -0.1041
  C  C690  1  0.754500  0.204500  0.212500  1.0  -0.0323
  C  C691  1  0.706900  0.129500  0.178200  1.0  -0.0083
  C  C692  1  0.647300  0.081100  0.120600  1.0  -0.0398
  C  C693  1  0.618100  0.016000  0.104500  1.0  -0.1247
  C  C694  1  0.649300  0.997600  0.150200  1.0  -0.0957
  C  C695  1  0.709200  0.046100  0.208000  1.0  -0.096
  C  C696  1  0.738200  0.112400  0.222500  1.0  -0.1957
  C  C697  1  0.807500  0.931700  0.938500  1.0  0.205
  C  C698  1  0.759300  0.923300  0.965700  1.0  -0.0007
  C  C699  1  0.723400  0.955200  0.978400  1.0  0.3186
  C  C700  1  0.683000  0.934300  0.003700  1.0  -0.1556
  C  C701  1  0.677000  0.882600  0.017600  1.0  -0.0722
  C  C702  1  0.712800  0.850400  0.005000  1.0  -0.0548
  C  C703  1  0.753600  0.871400  0.978300  1.0  -0.1107
  C  C704  1  0.873100  0.010400  0.918100  1.0  -0.0456
  C  C705  1  0.909900  0.082100  0.938300  1.0  0.1133
  C  C706  1  0.879200  0.105800  0.902400  1.0  -0.1518
  C  C707  1  0.914700  0.174200  0.922100  1.0  -0.0727
  C  C708  1  0.978500  0.214700  0.975900  1.0  -0.0794
  C  C709  1  0.008800  0.189500  0.012200  1.0  -0.0998
  C  C710  1  0.973800  0.122300  0.992900  1.0  -0.1689
  N  N711  1  0.352600  0.453300  0.997100  1.0  -0.3971
  N  N712  1  0.389400  0.729100  0.243700  1.0  -0.3576
  N  N713  1  0.698300  0.708400  0.310700  1.0  -0.4034
  N  N714  1  0.465300  0.496400  0.357600  1.0  -0.3858
  N  N715  1  0.511200  0.464500  0.876200  1.0  0.8519
  N  N716  1  0.391300  0.254700  0.736100  1.0  0.8551
  N  N717  1  0.487200  0.339100  0.949100  1.0  0.6956
  N  N718  1  0.204800  0.305600  0.212200  1.0  0.6529
  N  N719  1  0.997100  0.352600  0.453300  1.0  -0.4008
  N  N720  1  0.243700  0.389400  0.729100  1.0  -0.357
  N  N721  1  0.310700  0.698300  0.708400  1.0  -0.4014
  N  N722  1  0.357600  0.465300  0.496400  1.0  -0.3844
  N  N723  1  0.876200  0.511200  0.464500  1.0  0.8498
  N  N724  1  0.736100  0.391300  0.254700  1.0  0.8573
  N  N725  1  0.949100  0.487200  0.339100  1.0  0.6965
  N  N726  1  0.212200  0.204800  0.305600  1.0  0.6517
  N  N727  1  0.453300  0.997100  0.352600  1.0  -0.3991
  N  N728  1  0.729100  0.243700  0.389400  1.0  -0.3573
  N  N729  1  0.708400  0.310700  0.698300  1.0  -0.4014
  N  N730  1  0.496400  0.357600  0.465300  1.0  -0.3867
  N  N731  1  0.464500  0.876200  0.511200  1.0  0.8567
  N  N732  1  0.254700  0.736100  0.391300  1.0  0.8583
  N  N733  1  0.339100  0.949100  0.487200  1.0  0.6987
  N  N734  1  0.305600  0.212200  0.204800  1.0  0.6524
  N  N735  1  0.953300  0.852600  0.497100  1.0  -0.4007
  N  N736  1  0.229100  0.889400  0.743700  1.0  -0.3593
  N  N737  1  0.208400  0.198300  0.810700  1.0  -0.402
  N  N738  1  0.996400  0.965300  0.857600  1.0  -0.3834
  N  N739  1  0.964500  0.011200  0.376200  1.0  0.8514
  N  N740  1  0.754700  0.891300  0.236100  1.0  0.8574
  N  N741  1  0.839100  0.987200  0.449100  1.0  0.6969
  N  N742  1  0.805600  0.704800  0.712200  1.0  0.6519
  N  N743  1  0.852600  0.497100  0.953300  1.0  -0.4005
  N  N744  1  0.889400  0.743700  0.229100  1.0  -0.3565
  N  N745  1  0.198300  0.810700  0.208400  1.0  -0.4016
  N  N746  1  0.965300  0.857600  0.996400  1.0  -0.3872
  N  N747  1  0.011200  0.376200  0.964500  1.0  0.8525
  N  N748  1  0.891300  0.236100  0.754700  1.0  0.8551
  N  N749  1  0.987200  0.449100  0.839100  1.0  0.6943
  N  N750  1  0.704800  0.712200  0.805600  1.0  0.6527
  N  N751  1  0.497100  0.953300  0.852600  1.0  -0.3975
  N  N752  1  0.743700  0.229100  0.889400  1.0  -0.3574
  N  N753  1  0.810700  0.208400  0.198300  1.0  -0.4013
  N  N754  1  0.857600  0.996400  0.965300  1.0  -0.3853
  N  N755  1  0.376200  0.964500  0.011200  1.0  0.8556
  N  N756  1  0.236100  0.754700  0.891300  1.0  0.8603
  N  N757  1  0.449100  0.839100  0.987200  1.0  0.6973
  N  N758  1  0.712200  0.805600  0.704800  1.0  0.6515
  O  O759  1  0.458500  0.588500  0.119600  1.0  -0.3889
  O  O760  1  0.383600  0.613300  0.228200  1.0  -0.285
  O  O761  1  0.586800  0.694200  0.322100  1.0  -0.3439
  O  O762  1  0.479100  0.509100  0.246500  1.0  -0.4331
  O  O763  1  0.388800  0.426500  0.924700  1.0  -0.6203
  O  O764  1  0.343500  0.768300  0.307100  1.0  -0.5979
  O  O765  1  0.780400  0.816800  0.358400  1.0  -0.5996
  O  O766  1  0.391000  0.388500  0.313900  1.0  -0.6531
  O  O767  1  0.520700  0.432000  0.904300  1.0  -0.5904
  O  O768  1  0.451700  0.452700  0.841300  1.0  -0.647
  O  O769  1  0.557600  0.524000  0.899900  1.0  -0.5906
  O  O770  1  0.341200  0.230700  0.742400  1.0  -0.6275
  O  O771  1  0.426500  0.318100  0.760500  1.0  -0.6202
  O  O772  1  0.396600  0.212900  0.693700  1.0  -0.4752
  O  O773  1  0.469200  0.308900  0.889000  1.0  -0.5684
  O  O774  1  0.462100  0.371400  0.972800  1.0  -0.6423
  O  O775  1  0.520100  0.322400  0.987800  1.0  -0.5499
  O  O776  1  0.261500  0.355400  0.246700  1.0  -0.596
  O  O777  1  0.190000  0.262700  0.232100  1.0  -0.6085
  O  O778  1  0.158900  0.315600  0.181800  1.0  -0.5469
  O  O779  1  0.119600  0.458500  0.588500  1.0  -0.3858
  O  O780  1  0.228200  0.383600  0.613300  1.0  -0.2828
  O  O781  1  0.322100  0.586800  0.694200  1.0  -0.3448
  O  O782  1  0.246500  0.479100  0.509100  1.0  -0.435
  O  O783  1  0.924700  0.388800  0.426500  1.0  -0.6203
  O  O784  1  0.307100  0.343500  0.768300  1.0  -0.5972
  O  O785  1  0.358400  0.780400  0.816800  1.0  -0.5996
  O  O786  1  0.313900  0.391000  0.388500  1.0  -0.6544
  O  O787  1  0.904300  0.520700  0.432000  1.0  -0.589
  O  O788  1  0.841300  0.451700  0.452700  1.0  -0.651
  O  O789  1  0.899900  0.557600  0.524000  1.0  -0.5914
  O  O790  1  0.742400  0.341200  0.230700  1.0  -0.6254
  O  O791  1  0.760500  0.426500  0.318100  1.0  -0.6237
  O  O792  1  0.693700  0.396600  0.212900  1.0  -0.4731
  O  O793  1  0.889000  0.469200  0.308900  1.0  -0.5743
  O  O794  1  0.972800  0.462100  0.371400  1.0  -0.6401
  O  O795  1  0.987800  0.520100  0.322400  1.0  -0.549
  O  O796  1  0.246700  0.261500  0.355400  1.0  -0.5954
  O  O797  1  0.232100  0.190000  0.262700  1.0  -0.6097
  O  O798  1  0.181800  0.158900  0.315600  1.0  -0.5475
  O  O799  1  0.588500  0.119600  0.458500  1.0  -0.3873
  O  O800  1  0.613300  0.228200  0.383600  1.0  -0.2826
  O  O801  1  0.694200  0.322100  0.586800  1.0  -0.3461
  O  O802  1  0.509100  0.246500  0.479100  1.0  -0.4338
  O  O803  1  0.426500  0.924700  0.388800  1.0  -0.6202
  O  O804  1  0.768300  0.307100  0.343500  1.0  -0.599
  O  O805  1  0.816800  0.358400  0.780400  1.0  -0.5994
  O  O806  1  0.388500  0.313900  0.391000  1.0  -0.653
  O  O807  1  0.432000  0.904300  0.520700  1.0  -0.5899
  O  O808  1  0.452700  0.841300  0.451700  1.0  -0.6542
  O  O809  1  0.524000  0.899900  0.557600  1.0  -0.5919
  O  O810  1  0.230700  0.742400  0.341200  1.0  -0.6282
  O  O811  1  0.318100  0.760500  0.426500  1.0  -0.6219
  O  O812  1  0.212900  0.693700  0.396600  1.0  -0.4765
  O  O813  1  0.308900  0.889000  0.469200  1.0  -0.5708
  O  O814  1  0.371400  0.972800  0.462100  1.0  -0.6412
  O  O815  1  0.322400  0.987800  0.520100  1.0  -0.5486
  O  O816  1  0.355400  0.246700  0.261500  1.0  -0.5952
  O  O817  1  0.262700  0.232100  0.190000  1.0  -0.6079
  O  O818  1  0.315600  0.181800  0.158900  1.0  -0.5484
  O  O819  1  0.088500  0.958500  0.619600  1.0  -0.3889
  O  O820  1  0.113300  0.883600  0.728200  1.0  -0.2836
  O  O821  1  0.194200  0.086800  0.822100  1.0  -0.3475
  O  O822  1  0.009100  0.979100  0.746500  1.0  -0.4364
  O  O823  1  0.926500  0.888800  0.424700  1.0  -0.6189
  O  O824  1  0.268300  0.843500  0.807100  1.0  -0.6
  O  O825  1  0.316800  0.280400  0.858400  1.0  -0.6002
  O  O826  1  0.888500  0.891000  0.813900  1.0  -0.6529
  O  O827  1  0.932000  0.020700  0.404300  1.0  -0.59
  O  O828  1  0.952700  0.951700  0.341300  1.0  -0.6511
  O  O829  1  0.024000  0.057600  0.399900  1.0  -0.5922
  O  O830  1  0.730700  0.841200  0.242400  1.0  -0.6249
  O  O831  1  0.818100  0.926500  0.260500  1.0  -0.6228
  O  O832  1  0.712900  0.896600  0.193700  1.0  -0.472
  O  O833  1  0.808900  0.969200  0.389000  1.0  -0.5695
  O  O834  1  0.871400  0.962100  0.472800  1.0  -0.6402
  O  O835  1  0.822400  0.020100  0.487800  1.0  -0.5473
  O  O836  1  0.855400  0.761500  0.746700  1.0  -0.5962
  O  O837  1  0.762700  0.690000  0.732100  1.0  -0.61
  O  O838  1  0.815600  0.658900  0.681800  1.0  -0.5456
  O  O839  1  0.958500  0.619600  0.088500  1.0  -0.3854
  O  O840  1  0.883600  0.728200  0.113300  1.0  -0.2825
  O  O841  1  0.086800  0.822100  0.194200  1.0  -0.3438
  O  O842  1  0.979100  0.746500  0.009100  1.0  -0.4343
  O  O843  1  0.888800  0.424700  0.926500  1.0  -0.6199
  O  O844  1  0.843500  0.807100  0.268300  1.0  -0.5959
  O  O845  1  0.280400  0.858400  0.316800  1.0  -0.6008
  O  O846  1  0.891000  0.813900  0.888500  1.0  -0.6527
  O  O847  1  0.020700  0.404300  0.932000  1.0  -0.5907
  O  O848  1  0.951700  0.341300  0.952700  1.0  -0.649
  O  O849  1  0.057600  0.399900  0.024000  1.0  -0.5927
  O  O850  1  0.841200  0.242400  0.730700  1.0  -0.6279
  O  O851  1  0.926500  0.260500  0.818100  1.0  -0.6202
  O  O852  1  0.896600  0.193700  0.712900  1.0  -0.4736
  O  O853  1  0.969200  0.389000  0.808900  1.0  -0.573
  O  O854  1  0.962100  0.472800  0.871400  1.0  -0.6422
  O  O855  1  0.020100  0.487800  0.822400  1.0  -0.5481
  O  O856  1  0.761500  0.746700  0.855400  1.0  -0.5947
  O  O857  1  0.690000  0.732100  0.762700  1.0  -0.6079
  O  O858  1  0.658900  0.681800  0.815600  1.0  -0.5492
  O  O859  1  0.619600  0.088500  0.958500  1.0  -0.3869
  O  O860  1  0.728200  0.113300  0.883600  1.0  -0.2843
  O  O861  1  0.822100  0.194200  0.086800  1.0  -0.3437
  O  O862  1  0.746500  0.009100  0.979100  1.0  -0.4302
  O  O863  1  0.424700  0.926500  0.888800  1.0  -0.6211
  O  O864  1  0.807100  0.268300  0.843500  1.0  -0.5993
  O  O865  1  0.858400  0.316800  0.280400  1.0  -0.597
  O  O866  1  0.813900  0.888500  0.891000  1.0  -0.6546
  O  O867  1  0.404300  0.932000  0.020700  1.0  -0.5882
  O  O868  1  0.341300  0.952700  0.951700  1.0  -0.6537
  O  O869  1  0.399900  0.024000  0.057600  1.0  -0.5886
  O  O870  1  0.242400  0.730700  0.841200  1.0  -0.6285
  O  O871  1  0.260500  0.818100  0.926500  1.0  -0.621
  O  O872  1  0.193700  0.712900  0.896600  1.0  -0.4705
  O  O873  1  0.389000  0.808900  0.969200  1.0  -0.5706
  O  O874  1  0.472800  0.871400  0.962100  1.0  -0.6423
  O  O875  1  0.487800  0.822400  0.020100  1.0  -0.5504
  O  O876  1  0.746700  0.855400  0.761500  1.0  -0.5954
  O  O877  1  0.732100  0.762700  0.690000  1.0  -0.6089
  O  O878  1  0.681800  0.815600  0.658900  1.0  -0.546
