# generated using pymatgen
data_Tb4H168C183(N2O5)12
_symmetry_space_group_name_H-M   'P 1'
_cell_length_a   24.21980000
_cell_length_b   24.22480000
_cell_length_c   24.22480000
_cell_angle_alpha   70.52460000
_cell_angle_beta   70.53300000
_cell_angle_gamma   109.46700000
_symmetry_Int_Tables_number   1
_chemical_formula_structural   Tb4H168C183(N2O5)12
_chemical_formula_sum   'Tb8 H336 C366 N48 O120'
_cell_volume   10941.87881754
_cell_formula_units_Z   2
loop_
 _symmetry_equiv_pos_site_id
 _symmetry_equiv_pos_as_xyz
  1  'x, y, z'
loop_
 _atom_site_type_symbol
 _atom_site_label
 _atom_site_symmetry_multiplicity
 _atom_site_fract_x
 _atom_site_fract_y
 _atom_site_fract_z
 _atom_site_occupancy
 _atom_site_charge
  Tb  Tb1  1  0.648270  0.500080  0.951710  1.0  2.2306
  Tb  Tb2  1  0.599980  0.951710  0.548210  1.0  2.2319
  Tb  Tb3  1  0.148190  0.548210  0.500080  1.0  2.2284
  Tb  Tb4  1  0.099980  0.451790  0.048290  1.0  2.2311
  Tb  Tb5  1  0.648190  0.499920  0.451790  1.0  2.2302
  Tb  Tb6  1  0.148270  0.048290  0.499920  1.0  2.2288
  Tb  Tb7  1  0.696590  0.000000  0.000000  1.0  2.2289
  Tb  Tb8  1  0.196590  0.000000  0.000000  1.0  2.2289
  H  H9  1  0.508200  0.544600  0.130000  1.0  0.2906
  H  H10  1  0.279100  0.499500  0.315900  1.0  0.2496
  H  H11  1  0.326600  0.647700  0.990700  1.0  0.3087
  H  H12  1  0.474600  0.835200  0.030300  1.0  0.2947
  H  H13  1  0.328200  0.537800  0.137300  1.0  0.0936
  H  H14  1  0.333900  0.526400  0.202700  1.0  0.0894
  H  H15  1  0.464900  0.686900  0.143000  1.0  0.0791
  H  H16  1  0.465600  0.618700  0.156700  1.0  0.0836
  H  H17  1  0.378700  0.701900  0.109700  1.0  0.0905
  H  H18  1  0.325700  0.636700  0.181000  1.0  0.0764
  H  H19  1  0.419000  0.656400  0.027600  1.0  0.0797
  H  H20  1  0.473100  0.641600  0.041600  1.0  0.0785
  H  H21  1  0.294200  0.435800  0.169100  1.0  0.1296
  H  H22  1  0.264200  0.321700  0.196600  1.0  0.1372
  H  H23  1  0.350900  0.308800  0.135700  1.0  0.1
  H  H24  1  0.461700  0.387000  0.087300  1.0  0.1138
  H  H25  1  0.627000  0.606600  0.024300  1.0  0.0942
  H  H26  1  0.625500  0.560400  0.088500  1.0  0.0999
  H  H27  1  0.623600  0.711700  0.011200  1.0  0.1472
  H  H28  1  0.645900  0.794500  0.040300  1.0  0.108
  H  H29  1  0.654500  0.777300  0.134100  1.0  0.113
  H  H30  1  0.645400  0.676800  0.201300  1.0  0.1302
  H  H31  1  0.619300  0.591800  0.175400  1.0  0.1259
  H  H32  1  0.504300  0.678300  0.210300  1.0  0.1296
  H  H33  1  0.530700  0.693300  0.291600  1.0  0.1195
  H  H34  1  0.445900  0.662300  0.393200  1.0  0.1162
  H  H35  1  0.337000  0.592200  0.428400  1.0  0.1078
  H  H36  1  0.155300  0.484100  0.386000  1.0  0.1216
  H  H37  1  0.160200  0.419700  0.423000  1.0  0.1224
  H  H38  1  0.167300  0.510100  0.262300  1.0  0.1386
  H  H39  1  0.148900  0.455200  0.203200  1.0  0.1066
  H  H40  1  0.145800  0.353600  0.231800  1.0  0.1193
  H  H41  1  0.158200  0.303100  0.322300  1.0  0.1327
  H  H42  1  0.177900  0.357300  0.380700  1.0  0.1317
  H  H43  1  0.254400  0.670200  0.182700  1.0  0.1305
  H  H44  1  0.168100  0.696100  0.186100  1.0  0.1334
  H  H45  1  0.090300  0.630300  0.166800  1.0  0.1069
  H  H46  1  0.129800  0.602200  0.086200  1.0  0.1058
  H  H47  1  0.283700  0.519000  0.013500  1.0  0.1043
  H  H48  1  0.288700  0.564800  0.946200  1.0  0.1121
  H  H49  1  0.373500  0.512800  0.013300  1.0  0.1188
  H  H50  1  0.484000  0.541400  0.959400  1.0  0.1024
  H  H51  1  0.560300  0.635500  0.855800  1.0  0.1267
  H  H52  1  0.524700  0.703200  0.801400  1.0  0.1386
  H  H53  1  0.413700  0.675700  0.855200  1.0  0.1216
  H  H54  1  0.534800  0.711700  0.932000  1.0  0.1246
  H  H55  1  0.634900  0.787300  0.826700  1.0  0.1381
  H  H56  1  0.701600  0.893700  0.806500  1.0  0.1162
  H  H57  1  0.669400  0.926800  0.882800  1.0  0.1237
  H  H58  1  0.502100  0.908600  0.080900  1.0  0.1117
  H  H59  1  0.505300  0.845300  0.120500  1.0  0.106
  H  H60  1  0.414400  0.759400  0.220600  1.0  0.131
  H  H61  1  0.300600  0.704600  0.293600  1.0  0.106
  H  H62  1  0.231000  0.738200  0.264200  1.0  0.1256
  H  H63  1  0.277700  0.830000  0.158300  1.0  0.1366
  H  H64  1  0.390200  0.884000  0.085400  1.0  0.1275
  H  H65  1  0.638200  0.130000  0.325400  1.0  0.2905
  H  H66  1  0.595000  0.315900  0.184600  1.0  0.2517
  H  H67  1  0.317300  0.990700  0.361600  1.0  0.312
  H  H68  1  0.504900  0.030300  0.134500  1.0  0.2947
  H  H69  1  0.465500  0.137300  0.324900  1.0  0.093
  H  H70  1  0.536600  0.202700  0.270900  1.0  0.0915
  H  H71  1  0.607900  0.143000  0.170100  1.0  0.0801
  H  H72  1  0.622300  0.156700  0.224600  1.0  0.0829
  H  H73  1  0.488400  0.109700  0.188400  1.0  0.0886
  H  H74  1  0.506700  0.181000  0.182300  1.0  0.075
  H  H75  1  0.446600  0.027600  0.316000  1.0  0.0785
  H  H76  1  0.514700  0.041600  0.316800  1.0  0.079
  H  H77  1  0.463300  0.169100  0.395100  1.0  0.1274
  H  H78  1  0.460800  0.196600  0.481700  1.0  0.1369
  H  H79  1  0.486600  0.135700  0.555500  1.0  0.1014
  H  H80  1  0.549000  0.087300  0.525700  1.0  0.1141
  H  H81  1  0.651300  0.024300  0.369100  1.0  0.0949
  H  H82  1  0.714000  0.088500  0.351100  1.0  0.102
  H  H83  1  0.634800  0.011200  0.277100  1.0  0.146
  H  H84  1  0.686200  0.040300  0.165200  1.0  0.106
  H  H85  1  0.788600  0.134100  0.088600  1.0  0.1152
  H  H86  1  0.846700  0.201300  0.121900  1.0  0.1296
  H  H87  1  0.794700  0.175400  0.232800  1.0  0.1257
  H  H88  1  0.714600  0.210300  0.111400  1.0  0.1292
  H  H89  1  0.822300  0.291600  0.015100  1.0  0.1204
  H  H90  1  0.839100  0.393200  0.944500  1.0  0.1163
  H  H91  1  0.765400  0.428400  0.979400  1.0  0.1084
  H  H92  1  0.541300  0.386000  0.129900  1.0  0.1222
  H  H93  1  0.583200  0.423000  0.157300  1.0  0.1232
  H  H94  1  0.429600  0.262300  0.227600  1.0  0.1405
  H  H95  1  0.352100  0.203200  0.341600  1.0  0.1058
  H  H96  1  0.377600  0.231800  0.414600  1.0  0.1204
  H  H97  1  0.480500  0.322300  0.374600  1.0  0.1315
  H  H98  1  0.558600  0.380700  0.262000  1.0  0.1309
  H  H99  1  0.437100  0.182700  0.147100  1.0  0.1291
  H  H100  1  0.354200  0.186100  0.117800  1.0  0.1333
  H  H101  1  0.257100  0.166800  0.202900  1.0  0.1037
  H  H102  1  0.216000  0.086200  0.311600  1.0  0.1066
  H  H103  1  0.297200  0.013500  0.467500  1.0  0.1028
  H  H104  1  0.234900  0.946200  0.489000  1.0  0.1132
  H  H105  1  0.386800  0.013300  0.473900  1.0  0.118
  H  H106  1  0.443400  0.959400  0.499200  1.0  0.1027
  H  H107  1  0.416100  0.855800  0.508700  1.0  0.1269
  H  H108  1  0.326100  0.801400  0.495400  1.0  0.139
  H  H109  1  0.268900  0.855200  0.469100  1.0  0.1217
  H  H110  1  0.466800  0.932000  0.356300  1.0  0.1242
  H  H111  1  0.461600  0.826700  0.386000  1.0  0.1381
  H  H112  1  0.508100  0.806500  0.299800  1.0  0.1172
  H  H113  1  0.552200  0.882800  0.190400  1.0  0.1234
  H  H114  1  0.583000  0.080900  0.010500  1.0  0.1088
  H  H115  1  0.625800  0.120500  0.034200  1.0  0.1082
  H  H116  1  0.635000  0.220600  0.020000  1.0  0.1314
  H  H117  1  0.594200  0.293600  0.001800  1.0  0.1088
  H  H118  1  0.495200  0.264200  0.997600  1.0  0.1257
  H  H119  1  0.436000  0.158300  0.011700  1.0  0.1367
  H  H120  1  0.475600  0.085400  0.030600  1.0  0.1269
  H  H121  1  0.963600  0.325400  0.544600  1.0  0.2887
  H  H122  1  0.779600  0.184600  0.499500  1.0  0.2508
  H  H123  1  0.678900  0.361600  0.647700  1.0  0.3087
  H  H124  1  0.639400  0.134500  0.835200  1.0  0.2957
  H  H125  1  0.790400  0.324900  0.537800  1.0  0.0939
  H  H126  1  0.807500  0.270900  0.526400  1.0  0.0912
  H  H127  1  0.778000  0.170100  0.686900  1.0  0.0789
  H  H128  1  0.846900  0.224600  0.618700  1.0  0.0865
  H  H129  1  0.676800  0.188400  0.701900  1.0  0.0894
  H  H130  1  0.689000  0.182300  0.636700  1.0  0.0756
  H  H131  1  0.762600  0.316000  0.656400  1.0  0.0785
  H  H132  1  0.831500  0.316800  0.641600  1.0  0.0779
  H  H133  1  0.858400  0.395100  0.435800  1.0  0.1271
  H  H134  1  0.942500  0.481700  0.321700  1.0  0.1363
  H  H135  1  0.042100  0.555500  0.308800  1.0  0.1003
  H  H136  1  0.074700  0.525700  0.387000  1.0  0.1138
  H  H137  1  0.020400  0.369100  0.606600  1.0  0.0926
  H  H138  1  0.065100  0.351100  0.560400  1.0  0.0996
  H  H139  1  0.911900  0.277100  0.711700  1.0  0.146
  H  H140  1  0.851400  0.165200  0.794500  1.0  0.1065
  H  H141  1  0.877200  0.088600  0.777300  1.0  0.1147
  H  H142  1  0.968600  0.121900  0.676800  1.0  0.1302
  H  H143  1  0.027500  0.232800  0.591800  1.0  0.1262
  H  H144  1  0.826000  0.111400  0.678300  1.0  0.1305
  H  H145  1  0.837400  0.015100  0.693300  1.0  0.1181
  H  H146  1  0.783600  0.944500  0.662300  1.0  0.1176
  H  H147  1  0.744800  0.979400  0.592200  1.0  0.1095
  H  H148  1  0.671200  0.129900  0.484100  1.0  0.1214
  H  H149  1  0.740500  0.157300  0.419700  1.0  0.1232
  H  H150  1  0.657200  0.227600  0.510100  1.0  0.1387
  H  H151  1  0.693700  0.341600  0.455200  1.0  0.1063
  H  H152  1  0.792200  0.414600  0.353600  1.0  0.121
  H  H153  1  0.855100  0.374600  0.303100  1.0  0.1323
  H  H154  1  0.820600  0.262000  0.357300  1.0  0.1304
  H  H155  1  0.584200  0.147100  0.670200  1.0  0.1295
  H  H156  1  0.472000  0.117800  0.696100  1.0  0.1345
  H  H157  1  0.460000  0.202900  0.630300  1.0  0.1029
  H  H158  1  0.527600  0.311600  0.602200  1.0  0.1057
  H  H159  1  0.764700  0.467500  0.519000  1.0  0.1051
  H  H160  1  0.723900  0.489000  0.564800  1.0  0.1137
  H  H161  1  0.860700  0.473900  0.512800  1.0  0.1176
  H  H162  1  0.942600  0.499200  0.541400  1.0  0.1051
  H  H163  1  0.924800  0.508700  0.635500  1.0  0.126
  H  H164  1  0.821500  0.495400  0.703200  1.0  0.1395
  H  H165  1  0.738000  0.469100  0.675700  1.0  0.122
  H  H166  1  0.823100  0.356300  0.711700  1.0  0.1253
  H  H167  1  0.847600  0.386000  0.787300  1.0  0.1384
  H  H168  1  0.807900  0.299800  0.893700  1.0  0.117
  H  H169  1  0.742600  0.190400  0.926800  1.0  0.1235
  H  H170  1  0.593500  0.010500  0.908600  1.0  0.1064
  H  H171  1  0.660000  0.034200  0.845300  1.0  0.1111
  H  H172  1  0.655000  0.020000  0.759400  1.0  0.1342
  H  H173  1  0.596000  0.001800  0.704600  1.0  0.1066
  H  H174  1  0.492800  0.997600  0.738200  1.0  0.1263
  H  H175  1  0.447700  0.011700  0.830000  1.0  0.14
  H  H176  1  0.506200  0.030600  0.884000  1.0  0.1291
  H  H177  1  0.138200  0.674600  0.870000  1.0  0.2893
  H  H178  1  0.095000  0.815400  0.684100  1.0  0.2503
  H  H179  1  0.817300  0.638400  0.009300  1.0  0.3084
  H  H180  1  0.004900  0.865500  0.969700  1.0  0.2963
  H  H181  1  0.965500  0.675100  0.862700  1.0  0.0932
  H  H182  1  0.036600  0.729100  0.797300  1.0  0.0917
  H  H183  1  0.107900  0.829900  0.857000  1.0  0.0782
  H  H184  1  0.122300  0.775400  0.843300  1.0  0.0863
  H  H185  1  0.988400  0.811600  0.890300  1.0  0.0889
  H  H186  1  0.006700  0.817700  0.819000  1.0  0.076
  H  H187  1  0.946600  0.684000  0.972400  1.0  0.079
  H  H188  1  0.014700  0.683200  0.958400  1.0  0.0785
  H  H189  1  0.963300  0.604900  0.830900  1.0  0.1272
  H  H190  1  0.960800  0.518300  0.803400  1.0  0.1362
  H  H191  1  0.986600  0.444500  0.864300  1.0  0.0999
  H  H192  1  0.049000  0.474300  0.912700  1.0  0.1139
  H  H193  1  0.151300  0.630900  0.975700  1.0  0.0926
  H  H194  1  0.214000  0.648900  0.911500  1.0  0.0997
  H  H195  1  0.134800  0.722900  0.988800  1.0  0.146
  H  H196  1  0.186200  0.834800  0.959700  1.0  0.1064
  H  H197  1  0.288600  0.911400  0.865900  1.0  0.1141
  H  H198  1  0.346700  0.878100  0.798700  1.0  0.1299
  H  H199  1  0.294700  0.767200  0.824600  1.0  0.126
  H  H200  1  0.214600  0.888600  0.789700  1.0  0.1308
  H  H201  1  0.322300  0.984900  0.708400  1.0  0.1182
  H  H202  1  0.339100  0.055500  0.606800  1.0  0.117
  H  H203  1  0.265400  0.020600  0.571600  1.0  0.1095
  H  H204  1  0.041300  0.870100  0.614000  1.0  0.1213
  H  H205  1  0.083200  0.842700  0.577000  1.0  0.1233
  H  H206  1  0.929600  0.772400  0.737700  1.0  0.1388
  H  H207  1  0.852100  0.658400  0.796800  1.0  0.1064
  H  H208  1  0.877600  0.585400  0.768200  1.0  0.1212
  H  H209  1  0.980500  0.625400  0.677700  1.0  0.1321
  H  H210  1  0.058600  0.738000  0.619300  1.0  0.1306
  H  H211  1  0.937100  0.852900  0.817300  1.0  0.1293
  H  H212  1  0.854200  0.882200  0.813900  1.0  0.134
  H  H213  1  0.757100  0.797100  0.833200  1.0  0.1012
  H  H214  1  0.716000  0.688400  0.913800  1.0  0.106
  H  H215  1  0.797200  0.532500  0.986500  1.0  0.1052
  H  H216  1  0.734900  0.511000  0.053800  1.0  0.1139
  H  H217  1  0.886800  0.526100  0.986700  1.0  0.1174
  H  H218  1  0.943400  0.500800  0.040600  1.0  0.105
  H  H219  1  0.916100  0.491300  0.144200  1.0  0.1264
  H  H220  1  0.826100  0.504600  0.198600  1.0  0.1397
  H  H221  1  0.768900  0.530900  0.144800  1.0  0.1217
  H  H222  1  0.966800  0.643700  0.068000  1.0  0.1253
  H  H223  1  0.961600  0.614000  0.173300  1.0  0.138
  H  H224  1  0.008100  0.700200  0.193500  1.0  0.1172
  H  H225  1  0.052200  0.809600  0.117200  1.0  0.123
  H  H226  1  0.083000  0.989500  0.919100  1.0  0.107
  H  H227  1  0.125800  0.965800  0.879500  1.0  0.1103
  H  H228  1  0.135000  0.980000  0.779400  1.0  0.1341
  H  H229  1  0.094200  0.998200  0.706400  1.0  0.1066
  H  H230  1  0.995200  0.002400  0.735800  1.0  0.1261
  H  H231  1  0.936000  0.988300  0.841700  1.0  0.1397
  H  H232  1  0.975600  0.969400  0.914600  1.0  0.1281
  H  H233  1  0.463600  0.455400  0.674600  1.0  0.2907
  H  H234  1  0.279600  0.500500  0.815400  1.0  0.2496
  H  H235  1  0.178900  0.352300  0.638400  1.0  0.3089
  H  H236  1  0.139400  0.164800  0.865500  1.0  0.2945
  H  H237  1  0.290400  0.462200  0.675100  1.0  0.0944
  H  H238  1  0.307500  0.473600  0.729100  1.0  0.0888
  H  H239  1  0.278000  0.313100  0.829900  1.0  0.0788
  H  H240  1  0.346900  0.381300  0.775400  1.0  0.0834
  H  H241  1  0.176800  0.298100  0.811600  1.0  0.091
  H  H242  1  0.189000  0.363300  0.817700  1.0  0.0763
  H  H243  1  0.262600  0.343600  0.684000  1.0  0.0783
  H  H244  1  0.331500  0.358400  0.683200  1.0  0.0784
  H  H245  1  0.358400  0.564200  0.604900  1.0  0.1295
  H  H246  1  0.442500  0.678300  0.518300  1.0  0.1374
  H  H247  1  0.542100  0.691200  0.444500  1.0  0.1003
  H  H248  1  0.574700  0.613000  0.474300  1.0  0.1139
  H  H249  1  0.520400  0.393400  0.630900  1.0  0.0935
  H  H250  1  0.565100  0.439600  0.648900  1.0  0.0996
  H  H251  1  0.411900  0.288300  0.722900  1.0  0.1469
  H  H252  1  0.351400  0.205500  0.834800  1.0  0.1079
  H  H253  1  0.377200  0.222700  0.911400  1.0  0.1138
  H  H254  1  0.468600  0.323200  0.878100  1.0  0.13
  H  H255  1  0.527500  0.408200  0.767200  1.0  0.1258
  H  H256  1  0.326000  0.321700  0.888600  1.0  0.1297
  H  H257  1  0.337400  0.306700  0.984900  1.0  0.1198
  H  H258  1  0.283600  0.337700  0.055500  1.0  0.1165
  H  H259  1  0.244800  0.407800  0.020600  1.0  0.1077
  H  H260  1  0.171200  0.515900  0.870100  1.0  0.1214
  H  H261  1  0.240500  0.580300  0.842700  1.0  0.1211
  H  H262  1  0.157200  0.489900  0.772400  1.0  0.1384
  H  H263  1  0.193700  0.544800  0.658400  1.0  0.1068
  H  H264  1  0.292200  0.646400  0.585400  1.0  0.1189
  H  H265  1  0.355100  0.696900  0.625400  1.0  0.1318
  H  H266  1  0.320600  0.642700  0.738000  1.0  0.1318
  H  H267  1  0.084200  0.329800  0.852900  1.0  0.1305
  H  H268  1  0.972000  0.303900  0.882200  1.0  0.1335
  H  H269  1  0.960000  0.369700  0.797100  1.0  0.105
  H  H270  1  0.027600  0.397800  0.688400  1.0  0.1059
  H  H271  1  0.264700  0.481000  0.532500  1.0  0.1038
  H  H272  1  0.223900  0.435200  0.511000  1.0  0.1118
  H  H273  1  0.360700  0.487200  0.526100  1.0  0.1196
  H  H274  1  0.442600  0.458600  0.500800  1.0  0.1029
  H  H275  1  0.424800  0.364500  0.491300  1.0  0.1267
  H  H276  1  0.321500  0.296800  0.504600  1.0  0.1386
  H  H277  1  0.238000  0.324300  0.530900  1.0  0.1213
  H  H278  1  0.323100  0.288300  0.643700  1.0  0.1245
  H  H279  1  0.347600  0.212700  0.614000  1.0  0.1362
  H  H280  1  0.307900  0.106300  0.700200  1.0  0.1163
  H  H281  1  0.242600  0.073200  0.809600  1.0  0.1236
  H  H282  1  0.093500  0.091400  0.989500  1.0  0.11
  H  H283  1  0.160000  0.154700  0.965800  1.0  0.1059
  H  H284  1  0.155000  0.240600  0.980000  1.0  0.1311
  H  H285  1  0.096000  0.295400  0.998200  1.0  0.1061
  H  H286  1  0.992800  0.261800  0.002400  1.0  0.1254
  H  H287  1  0.947700  0.170000  0.988300  1.0  0.1363
  H  H288  1  0.006200  0.116000  0.969400  1.0  0.128
  H  H289  1  0.008200  0.870000  0.455400  1.0  0.2908
  H  H290  1  0.779100  0.684100  0.500500  1.0  0.2512
  H  H291  1  0.826600  0.009300  0.352300  1.0  0.31
  H  H292  1  0.974600  0.969700  0.164800  1.0  0.2944
  H  H293  1  0.828200  0.862700  0.462200  1.0  0.0932
  H  H294  1  0.833900  0.797300  0.473600  1.0  0.0912
  H  H295  1  0.964900  0.857000  0.313100  1.0  0.0799
  H  H296  1  0.965600  0.843300  0.381300  1.0  0.0829
  H  H297  1  0.878700  0.890300  0.298100  1.0  0.0894
  H  H298  1  0.825700  0.819000  0.363300  1.0  0.0756
  H  H299  1  0.919000  0.972400  0.343600  1.0  0.0779
  H  H300  1  0.973100  0.958400  0.358400  1.0  0.0786
  H  H301  1  0.794200  0.830900  0.564200  1.0  0.1268
  H  H302  1  0.764200  0.803400  0.678300  1.0  0.137
  H  H303  1  0.850900  0.864300  0.691200  1.0  0.1015
  H  H304  1  0.961700  0.912700  0.613000  1.0  0.1134
  H  H305  1  0.127000  0.975700  0.393400  1.0  0.094
  H  H306  1  0.125500  0.911500  0.439600  1.0  0.1017
  H  H307  1  0.123600  0.988800  0.288300  1.0  0.1466
  H  H308  1  0.145900  0.959700  0.205500  1.0  0.1065
  H  H309  1  0.154500  0.865900  0.222700  1.0  0.1153
  H  H310  1  0.145400  0.798700  0.323200  1.0  0.1297
  H  H311  1  0.119300  0.824600  0.408200  1.0  0.1255
  H  H312  1  0.004300  0.789700  0.321700  1.0  0.1293
  H  H313  1  0.030700  0.708400  0.306700  1.0  0.1203
  H  H314  1  0.945900  0.606800  0.337700  1.0  0.1163
  H  H315  1  0.837000  0.571600  0.407800  1.0  0.1084
  H  H316  1  0.655300  0.614000  0.515900  1.0  0.1222
  H  H317  1  0.660200  0.577000  0.580300  1.0  0.1241
  H  H318  1  0.667300  0.737700  0.489900  1.0  0.1403
  H  H319  1  0.648900  0.796800  0.544800  1.0  0.1058
  H  H320  1  0.645800  0.768200  0.646400  1.0  0.1201
  H  H321  1  0.658200  0.677700  0.696900  1.0  0.1312
  H  H322  1  0.677900  0.619300  0.642700  1.0  0.1313
  H  H323  1  0.754400  0.817300  0.329800  1.0  0.1292
  H  H324  1  0.668100  0.813900  0.303900  1.0  0.1335
  H  H325  1  0.590300  0.833200  0.369700  1.0  0.1014
  H  H326  1  0.629800  0.913800  0.397800  1.0  0.1064
  H  H327  1  0.783700  0.986500  0.481000  1.0  0.104
  H  H328  1  0.788700  0.053800  0.435200  1.0  0.1133
  H  H329  1  0.873500  0.986700  0.487200  1.0  0.118
  H  H330  1  0.984000  0.040600  0.458600  1.0  0.1024
  H  H331  1  0.060300  0.144200  0.364500  1.0  0.1267
  H  H332  1  0.024700  0.198600  0.296800  1.0  0.1392
  H  H333  1  0.913700  0.144800  0.324300  1.0  0.1217
  H  H334  1  0.034800  0.068000  0.288300  1.0  0.1238
  H  H335  1  0.134900  0.173300  0.212700  1.0  0.1361
  H  H336  1  0.201600  0.193500  0.106300  1.0  0.117
  H  H337  1  0.169400  0.117200  0.073200  1.0  0.1234
  H  H338  1  0.002100  0.919100  0.091400  1.0  0.1087
  H  H339  1  0.005300  0.879500  0.154700  1.0  0.1078
  H  H340  1  0.914400  0.779400  0.240600  1.0  0.1314
  H  H341  1  0.800600  0.706400  0.295400  1.0  0.1089
  H  H342  1  0.731000  0.735800  0.261800  1.0  0.1256
  H  H343  1  0.777700  0.841700  0.170000  1.0  0.1368
  H  H344  1  0.890200  0.914600  0.116000  1.0  0.1274
  C  C345  1  0.398070  0.626870  0.124460  1.0  0.1024
  C  C346  1  0.359200  0.549800  0.153800  1.0  0.0034
  C  C347  1  0.437000  0.638900  0.161000  1.0  0.0521
  C  C348  1  0.353200  0.652900  0.133300  1.0  0.0203
  C  C349  1  0.444300  0.660800  0.051200  1.0  0.015
  C  C350  1  0.525000  0.503500  0.078700  1.0  0.6261
  C  C351  1  0.447400  0.458100  0.106500  1.0  -0.0726
  C  C352  1  0.392600  0.467200  0.136300  1.0  0.2248
  C  C353  1  0.326800  0.422900  0.159800  1.0  -0.1503
  C  C354  1  0.308900  0.357200  0.169700  1.0  -0.1122
  C  C355  1  0.361200  0.348600  0.137400  1.0  -0.0736
  C  C356  1  0.428400  0.396200  0.107300  1.0  -0.1078
  C  C357  1  0.605400  0.586300  0.073000  1.0  -0.0204
  C  C358  1  0.620050  0.642590  0.090590  1.0  0.0825
  C  C359  1  0.627510  0.704220  0.049680  1.0  -0.1618
  C  C360  1  0.640660  0.753280  0.067300  1.0  -0.0519
  C  C361  1  0.646380  0.743380  0.123040  1.0  -0.0889
  C  C362  1  0.640000  0.683200  0.163900  1.0  -0.1215
  C  C363  1  0.625550  0.633250  0.147400  1.0  -0.0679
  C  C364  1  0.273200  0.543400  0.370900  1.0  0.3489
  C  C365  1  0.348600  0.590900  0.341900  1.0  -0.0763
  C  C366  1  0.403400  0.620300  0.276800  1.0  0.2152
  C  C367  1  0.470700  0.659900  0.254600  1.0  -0.1914
  C  C368  1  0.485900  0.671000  0.302300  1.0  -0.0873
  C  C369  1  0.435500  0.649400  0.364100  1.0  -0.073
  C  C370  1  0.369800  0.609000  0.384300  1.0  -0.079
  C  C371  1  0.178400  0.458800  0.379900  1.0  -0.0356
  C  C372  1  0.174130  0.439080  0.328410  1.0  0.0893
  C  C373  1  0.165620  0.468620  0.274670  1.0  -0.1405
  C  C374  1  0.154820  0.435640  0.239380  1.0  -0.061
  C  C375  1  0.152610  0.374610  0.256680  1.0  -0.0643
  C  C376  1  0.160370  0.344770  0.310060  1.0  -0.0651
  C  C377  1  0.171650  0.377080  0.344830  1.0  -0.1258
  C  C378  1  0.229200  0.582100  0.049000  1.0  0.3987
  C  C379  1  0.211360  0.606120  0.094740  1.0  -0.0266
  C  C380  1  0.250370  0.632340  0.121230  1.0  0.307
  C  C381  1  0.230960  0.658820  0.160940  1.0  -0.1645
  C  C382  1  0.175960  0.668720  0.168740  1.0  -0.1062
  C  C383  1  0.133840  0.636580  0.149860  1.0  -0.0927
  C  C384  1  0.154200  0.613300  0.107200  1.0  -0.1316
  C  C385  1  0.306400  0.565000  0.976700  1.0  -0.0774
  C  C386  1  0.380700  0.591470  0.939870  1.0  0.1054
  C  C387  1  0.403490  0.551250  0.970780  1.0  -0.1832
  C  C388  1  0.469540  0.568620  0.938500  1.0  -0.0462
  C  C389  1  0.515300  0.624600  0.876400  1.0  -0.1347
  C  C390  1  0.494300  0.665200  0.844100  1.0  -0.126
  C  C391  1  0.427700  0.648180  0.876580  1.0  -0.0834
  C  C392  1  0.563800  0.875500  0.008500  1.0  0.5287
  C  C393  1  0.582100  0.841800  0.959920  1.0  -0.1126
  C  C394  1  0.545600  0.777250  0.967580  1.0  0.2071
  C  C395  1  0.562620  0.755400  0.921400  1.0  -0.1529
  C  C396  1  0.622200  0.800000  0.858900  1.0  -0.1305
  C  C397  1  0.661100  0.863300  0.847200  1.0  -0.1154
  C  C398  1  0.641400  0.882800  0.894600  1.0  -0.0546
  C  C399  1  0.483600  0.860700  0.096600  1.0  0.0555
  C  C400  1  0.415200  0.828790  0.143890  1.0  0.1082
  C  C401  1  0.387200  0.773640  0.207840  1.0  -0.2397
  C  C402  1  0.319250  0.741220  0.251170  1.0  -0.0582
  C  C403  1  0.277200  0.761200  0.233800  1.0  -0.0747
  C  C404  1  0.304900  0.815600  0.170900  1.0  -0.1017
  C  C405  1  0.372100  0.847700  0.127700  1.0  -0.1254
  C  C406  1  0.522530  0.124460  0.248670  1.0  0.102
  C  C407  1  0.513000  0.153800  0.296400  1.0  0.0027
  C  C408  1  0.598000  0.161000  0.200100  1.0  0.0516
  C  C409  1  0.486500  0.133300  0.213800  1.0  0.0245
  C  C410  1  0.495500  0.051200  0.288000  1.0  0.01
  C  C411  1  0.603700  0.078700  0.417800  1.0  0.6272
  C  C412  1  0.553900  0.106500  0.435400  1.0  -0.0733
  C  C413  1  0.528900  0.136300  0.396500  1.0  0.2254
  C  C414  1  0.486600  0.159800  0.417300  1.0  -0.1475
  C  C415  1  0.478600  0.169700  0.473100  1.0  -0.1114
  C  C416  1  0.498600  0.137400  0.514000  1.0  -0.0721
  C  C417  1  0.535700  0.107300  0.496500  1.0  -0.1094
  C  C418  1  0.678400  0.073000  0.340700  1.0  -0.0261
  C  C419  1  0.710640  0.090590  0.266820  1.0  0.0812
  C  C420  1  0.677190  0.049680  0.246100  1.0  -0.1547
  C  C421  1  0.707960  0.067300  0.179420  1.0  -0.0523
  C  C422  1  0.769420  0.123040  0.133580  1.0  -0.0892
  C  C423  1  0.803900  0.163900  0.152900  1.0  -0.1253
  C  C424  1  0.772950  0.147400  0.219350  1.0  -0.0688
  C  C425  1  0.644100  0.370900  0.085700  1.0  0.3502
  C  C426  1  0.690500  0.341900  0.067200  1.0  -0.0752
  C  C427  1  0.680200  0.276800  0.102900  1.0  0.2155
  C  C428  1  0.725300  0.254600  0.085500  1.0  -0.1948
  C  C429  1  0.788200  0.302300  0.026700  1.0  -0.09
  C  C430  1  0.799600  0.364100  0.986500  1.0  -0.0756
  C  C431  1  0.754100  0.384300  0.006700  1.0  -0.0813
  C  C432  1  0.558300  0.379900  0.161300  1.0  -0.0365
  C  C433  1  0.502540  0.328410  0.232510  1.0  0.0879
  C  C434  1  0.440290  0.274670  0.256710  1.0  -0.1377
  C  C435  1  0.394200  0.239380  0.324980  1.0  -0.0595
  C  C436  1  0.409290  0.256680  0.368710  1.0  -0.0678
  C  C437  1  0.470430  0.310060  0.345170  1.0  -0.0648
  C  C438  1  0.516480  0.344830  0.278090  1.0  -0.1192
  C  C439  1  0.278200  0.049000  0.368900  1.0  0.3987
  C  C440  1  0.306100  0.094740  0.299140  1.0  -0.0264
  C  C441  1  0.371600  0.121230  0.246430  1.0  0.3076
  C  C442  1  0.391900  0.160940  0.180240  1.0  -0.1668
  C  C443  1  0.344700  0.168740  0.162540  1.0  -0.1042
  C  C444  1  0.283700  0.149860  0.213560  1.0  -0.0899
  C  C445  1  0.261400  0.107200  0.279500  1.0  -0.1308
  C  C446  1  0.283100  0.976700  0.458300  1.0  -0.0744
  C  C447  1  0.320570  0.939870  0.468660  1.0  0.1062
  C  C448  1  0.374270  0.970780  0.477970  1.0  -0.1815
  C  C449  1  0.408040  0.938500  0.492880  1.0  -0.0435
  C  C450  1  0.391700  0.876400  0.499000  1.0  -0.131
  C  C451  1  0.338400  0.844100  0.490700  1.0  -0.1323
  C  C452  1  0.304280  0.876580  0.475240  1.0  -0.0873
  C  C453  1  0.572300  0.008500  0.116000  1.0  0.5315
  C  C454  1  0.542020  0.959920  0.198280  1.0  -0.1128
  C  C455  1  0.513180  0.967580  0.255170  1.0  0.2046
  C  C456  1  0.484020  0.921400  0.323200  1.0  -0.1526
  C  C457  1  0.481100  0.858900  0.341100  1.0  -0.1308
  C  C458  1  0.508300  0.847200  0.289500  1.0  -0.1136
  C  C459  1  0.536000  0.894600  0.222600  1.0  -0.0525
  C  C460  1  0.580200  0.096600  0.042700  1.0  0.0543
  C  C461  1  0.559090  0.143890  0.027320  1.0  0.1037
  C  C462  1  0.595040  0.207840  0.018520  1.0  -0.2409
  C  C463  1  0.570420  0.251170  0.007610  1.0  -0.0592
  C  C464  1  0.511000  0.233800  0.005000  1.0  -0.0718
  C  C465  1  0.475800  0.170900  0.013500  1.0  -0.0962
  C  C466  1  0.499800  0.127700  0.024600  1.0  -0.1263
  C  C467  1  0.771200  0.248670  0.626870  1.0  0.1026
  C  C468  1  0.809400  0.296400  0.549800  1.0  0.0015
  C  C469  1  0.798100  0.200100  0.638900  1.0  0.044
  C  C470  1  0.700300  0.213800  0.652900  1.0  0.027
  C  C471  1  0.783500  0.288000  0.660800  1.0  0.0121
  C  C472  1  0.021500  0.417800  0.503500  1.0  0.6245
  C  C473  1  0.989300  0.435400  0.458100  1.0  -0.073
  C  C474  1  0.925400  0.396500  0.467200  1.0  0.2244
  C  C475  1  0.903900  0.417300  0.422900  1.0  -0.15
  C  C476  1  0.951700  0.473100  0.357200  1.0  -0.112
  C  C477  1  0.012600  0.514000  0.348600  1.0  -0.0742
  C  C478  1  0.032200  0.496500  0.396200  1.0  -0.1054
  C  C479  1  0.019100  0.340700  0.586300  1.0  -0.0212
  C  C480  1  0.977460  0.266820  0.642590  1.0  0.0816
  C  C481  1  0.923290  0.246100  0.704220  1.0  -0.158
  C  C482  1  0.887380  0.179420  0.753280  1.0  -0.0513
  C  C483  1  0.903000  0.133580  0.743380  1.0  -0.0904
  C  C484  1  0.956800  0.152900  0.683200  1.0  -0.1249
  C  C485  1  0.992300  0.219350  0.633250  1.0  -0.0672
  C  C486  1  0.729800  0.085700  0.543400  1.0  0.3467
  C  C487  1  0.757700  0.067200  0.590900  1.0  -0.0756
  C  C488  1  0.783100  0.102900  0.620300  1.0  0.218
  C  C489  1  0.810800  0.085500  0.659900  1.0  -0.1879
  C  C490  1  0.814900  0.026700  0.671000  1.0  -0.0853
  C  C491  1  0.786100  0.986500  0.649400  1.0  -0.0748
  C  C492  1  0.760800  0.006700  0.609000  1.0  -0.0775
  C  C493  1  0.719600  0.161300  0.458800  1.0  -0.04
  C  C494  1  0.735050  0.232510  0.439080  1.0  0.0869
  C  C495  1  0.697000  0.256710  0.468620  1.0  -0.1362
  C  C496  1  0.719180  0.324980  0.435640  1.0  -0.0608
  C  C497  1  0.778000  0.368710  0.374610  1.0  -0.0664
  C  C498  1  0.815600  0.345170  0.344770  1.0  -0.0646
  C  C499  1  0.794570  0.278090  0.377080  1.0  -0.1191
  C  C500  1  0.647100  0.368900  0.582100  1.0  0.4
  C  C501  1  0.605240  0.299140  0.606120  1.0  -0.0273
  C  C502  1  0.618030  0.246430  0.632340  1.0  0.307
  C  C503  1  0.572140  0.180240  0.658820  1.0  -0.1649
  C  C504  1  0.507240  0.162540  0.668720  1.0  -0.1075
  C  C505  1  0.497260  0.213560  0.636580  1.0  -0.0901
  C  C506  1  0.540900  0.279500  0.613300  1.0  -0.1318
  C  C507  1  0.741400  0.458300  0.565000  1.0  -0.0744
  C  C508  1  0.789230  0.468660  0.591470  1.0  0.106
  C  C509  1  0.852240  0.477970  0.551250  1.0  -0.18
  C  C510  1  0.900920  0.492880  0.568620  1.0  -0.0442
  C  C511  1  0.890700  0.499000  0.624600  1.0  -0.1288
  C  C512  1  0.829100  0.490700  0.665200  1.0  -0.1298
  C  C513  1  0.779520  0.475240  0.648180  1.0  -0.081
  C  C514  1  0.688300  0.116000  0.875500  1.0  0.5301
  C  C515  1  0.740300  0.198280  0.841800  1.0  -0.1121
  C  C516  1  0.768350  0.255170  0.777250  1.0  0.2059
  C  C517  1  0.807220  0.323200  0.755400  1.0  -0.1509
  C  C518  1  0.822200  0.341100  0.800000  1.0  -0.1363
  C  C519  1  0.797800  0.289500  0.863300  1.0  -0.1122
  C  C520  1  0.758600  0.222600  0.882800  1.0  -0.0523
  C  C521  1  0.622900  0.042700  0.860700  1.0  0.0549
  C  C522  1  0.586410  0.027320  0.828790  1.0  0.1075
  C  C523  1  0.613560  0.018520  0.773640  1.0  -0.2449
  C  C524  1  0.578030  0.007610  0.741220  1.0  -0.0603
  C  C525  1  0.516000  0.005000  0.761200  1.0  -0.0737
  C  C526  1  0.489300  0.013500  0.815600  1.0  -0.0992
  C  C527  1  0.524400  0.024600  0.847700  1.0  -0.1242
  C  C528  1  0.022530  0.751330  0.875540  1.0  0.1023
  C  C529  1  0.013000  0.703600  0.846200  1.0  0.0028
  C  C530  1  0.098000  0.799900  0.839000  1.0  0.0453
  C  C531  1  0.986500  0.786200  0.866700  1.0  0.0274
  C  C532  1  0.995500  0.712000  0.948800  1.0  0.0125
  C  C533  1  0.103700  0.582200  0.921300  1.0  0.6246
  C  C534  1  0.053900  0.564600  0.893500  1.0  -0.0728
  C  C535  1  0.028900  0.603500  0.863700  1.0  0.2238
  C  C536  1  0.986600  0.582700  0.840200  1.0  -0.1492
  C  C537  1  0.978600  0.526900  0.830300  1.0  -0.1119
  C  C538  1  0.998600  0.486000  0.862600  1.0  -0.0748
  C  C539  1  0.035700  0.503500  0.892700  1.0  -0.1056
  C  C540  1  0.178400  0.659300  0.927000  1.0  -0.023
  C  C541  1  0.210640  0.733180  0.909410  1.0  0.082
  C  C542  1  0.177190  0.753900  0.950320  1.0  -0.1582
  C  C543  1  0.207960  0.820580  0.932700  1.0  -0.051
  C  C544  1  0.269420  0.866420  0.876960  1.0  -0.0904
  C  C545  1  0.303900  0.847100  0.836100  1.0  -0.1245
  C  C546  1  0.272950  0.780650  0.852600  1.0  -0.0678
  C  C547  1  0.144100  0.914300  0.629100  1.0  0.3467
  C  C548  1  0.190500  0.932800  0.658100  1.0  -0.0755
  C  C549  1  0.180200  0.897100  0.723200  1.0  0.2178
  C  C550  1  0.225300  0.914500  0.745400  1.0  -0.1878
  C  C551  1  0.288200  0.973300  0.697700  1.0  -0.0859
  C  C552  1  0.299600  0.013500  0.635900  1.0  -0.074
  C  C553  1  0.254100  0.993300  0.615700  1.0  -0.0779
  C  C554  1  0.058300  0.838700  0.620100  1.0  -0.0396
  C  C555  1  0.002540  0.767490  0.671590  1.0  0.0864
  C  C556  1  0.940290  0.743290  0.725330  1.0  -0.1366
  C  C557  1  0.894200  0.675020  0.760620  1.0  -0.0602
  C  C558  1  0.909290  0.631290  0.743320  1.0  -0.0665
  C  C559  1  0.970430  0.654830  0.689940  1.0  -0.0651
  C  C560  1  0.016480  0.721910  0.655170  1.0  -0.1199
  C  C561  1  0.778200  0.631100  0.951000  1.0  0.3999
  C  C562  1  0.806100  0.700860  0.905260  1.0  -0.0273
  C  C563  1  0.871600  0.753570  0.878770  1.0  0.307
  C  C564  1  0.891900  0.819760  0.839060  1.0  -0.1649
  C  C565  1  0.844700  0.837460  0.831260  1.0  -0.1084
  C  C566  1  0.783700  0.786440  0.850140  1.0  -0.0902
  C  C567  1  0.761400  0.720500  0.892800  1.0  -0.1319
  C  C568  1  0.783100  0.541700  0.023300  1.0  -0.0748
  C  C569  1  0.820570  0.531340  0.060130  1.0  0.1071
  C  C570  1  0.874270  0.522030  0.029220  1.0  -0.1789
  C  C571  1  0.908040  0.507120  0.061500  1.0  -0.0441
  C  C572  1  0.891700  0.501000  0.123600  1.0  -0.1299
  C  C573  1  0.838400  0.509300  0.155900  1.0  -0.1295
  C  C574  1  0.804280  0.524760  0.123420  1.0  -0.0808
  C  C575  1  0.072300  0.884000  0.991500  1.0  0.5306
  C  C576  1  0.042020  0.801720  0.040080  1.0  -0.1125
  C  C577  1  0.013180  0.744830  0.032420  1.0  0.2055
  C  C578  1  0.984020  0.676800  0.078600  1.0  -0.1511
  C  C579  1  0.981100  0.658900  0.141100  1.0  -0.1341
  C  C580  1  0.008300  0.710500  0.152800  1.0  -0.1121
  C  C581  1  0.036000  0.777400  0.105400  1.0  -0.0516
  C  C582  1  0.080200  0.957300  0.903400  1.0  0.0549
  C  C583  1  0.059090  0.972680  0.856110  1.0  0.1081
  C  C584  1  0.095040  0.981480  0.792160  1.0  -0.2437
  C  C585  1  0.070420  0.992390  0.748830  1.0  -0.0589
  C  C586  1  0.011000  0.995000  0.766200  1.0  -0.0715
  C  C587  1  0.975800  0.986500  0.829100  1.0  -0.0999
  C  C588  1  0.999800  0.975400  0.872300  1.0  -0.1247
  C  C589  1  0.271200  0.373130  0.751330  1.0  0.1025
  C  C590  1  0.309400  0.450200  0.703600  1.0  0.0038
  C  C591  1  0.298100  0.361100  0.799900  1.0  0.0508
  C  C592  1  0.200300  0.347100  0.786200  1.0  0.0182
  C  C593  1  0.283500  0.339200  0.712000  1.0  0.0129
  C  C594  1  0.521500  0.496500  0.582200  1.0  0.6275
  C  C595  1  0.489300  0.541900  0.564600  1.0  -0.0735
  C  C596  1  0.425400  0.532800  0.603500  1.0  0.2253
  C  C597  1  0.403900  0.577100  0.582700  1.0  -0.1494
  C  C598  1  0.451700  0.642800  0.526900  1.0  -0.1114
  C  C599  1  0.512600  0.651400  0.486000  1.0  -0.0725
  C  C600  1  0.532200  0.603800  0.503500  1.0  -0.1077
  C  C601  1  0.519100  0.413700  0.659300  1.0  -0.0205
  C  C602  1  0.477460  0.357410  0.733180  1.0  0.0829
  C  C603  1  0.423290  0.295780  0.753900  1.0  -0.1608
  C  C604  1  0.387380  0.246720  0.820580  1.0  -0.052
  C  C605  1  0.403000  0.256620  0.866420  1.0  -0.088
  C  C606  1  0.456800  0.316800  0.847100  1.0  -0.1215
  C  C607  1  0.492300  0.366750  0.780650  1.0  -0.0671
  C  C608  1  0.229800  0.456600  0.914300  1.0  0.3484
  C  C609  1  0.257700  0.409100  0.932800  1.0  -0.0764
  C  C610  1  0.283100  0.379700  0.897100  1.0  0.2158
  C  C611  1  0.310800  0.340100  0.914500  1.0  -0.191
  C  C612  1  0.314900  0.329000  0.973300  1.0  -0.0872
  C  C613  1  0.286100  0.350600  0.013500  1.0  -0.0726
  C  C614  1  0.260800  0.391000  0.993300  1.0  -0.0787
  C  C615  1  0.219600  0.541200  0.838700  1.0  -0.0366
  C  C616  1  0.235050  0.560920  0.767490  1.0  0.0891
  C  C617  1  0.197000  0.531380  0.743290  1.0  -0.1395
  C  C618  1  0.219180  0.564360  0.675020  1.0  -0.0612
  C  C619  1  0.278000  0.625390  0.631290  1.0  -0.0632
  C  C620  1  0.315600  0.655230  0.654830  1.0  -0.0629
  C  C621  1  0.294570  0.622920  0.721910  1.0  -0.1245
  C  C622  1  0.147100  0.417900  0.631100  1.0  0.3991
  C  C623  1  0.105240  0.393880  0.700860  1.0  -0.0273
  C  C624  1  0.118030  0.367660  0.753570  1.0  0.3059
  C  C625  1  0.072140  0.341180  0.819760  1.0  -0.1649
  C  C626  1  0.007240  0.331280  0.837460  1.0  -0.1055
  C  C627  1  0.997260  0.363420  0.786440  1.0  -0.0926
  C  C628  1  0.040900  0.386700  0.720500  1.0  -0.1316
  C  C629  1  0.241400  0.435000  0.541700  1.0  -0.0772
  C  C630  1  0.289230  0.408530  0.531340  1.0  0.1056
  C  C631  1  0.352240  0.448750  0.522030  1.0  -0.183
  C  C632  1  0.400920  0.431380  0.507120  1.0  -0.0468
  C  C633  1  0.390700  0.375400  0.501000  1.0  -0.1339
  C  C634  1  0.329100  0.334800  0.509300  1.0  -0.1269
  C  C635  1  0.279520  0.351820  0.524760  1.0  -0.0841
  C  C636  1  0.188300  0.124500  0.884000  1.0  0.5294
  C  C637  1  0.240300  0.158200  0.801720  1.0  -0.1127
  C  C638  1  0.268350  0.222750  0.744830  1.0  0.2062
  C  C639  1  0.307220  0.244600  0.676800  1.0  -0.1525
  C  C640  1  0.322200  0.200000  0.658900  1.0  -0.1305
  C  C641  1  0.297800  0.136700  0.710500  1.0  -0.1151
  C  C642  1  0.258600  0.117200  0.777400  1.0  -0.0542
  C  C643  1  0.122900  0.139300  0.957300  1.0  0.0559
  C  C644  1  0.086410  0.171210  0.972680  1.0  0.1077
  C  C645  1  0.113560  0.226360  0.981480  1.0  -0.2394
  C  C646  1  0.078030  0.258780  0.992390  1.0  -0.0575
  C  C647  1  0.016000  0.238800  0.995000  1.0  -0.0742
  C  C648  1  0.989300  0.184400  0.986500  1.0  -0.1001
  C  C649  1  0.024400  0.152300  0.975400  1.0  -0.1252
  C  C650  1  0.898070  0.875540  0.373130  1.0  0.1017
  C  C651  1  0.859200  0.846200  0.450200  1.0  0.0025
  C  C652  1  0.937000  0.839000  0.361100  1.0  0.0517
  C  C653  1  0.853200  0.866700  0.347100  1.0  0.0251
  C  C654  1  0.944300  0.948800  0.339200  1.0  0.0106
  C  C655  1  0.025000  0.921300  0.496500  1.0  0.6265
  C  C656  1  0.947400  0.893500  0.541900  1.0  -0.0725
  C  C657  1  0.892600  0.863700  0.532800  1.0  0.2258
  C  C658  1  0.826800  0.840200  0.577100  1.0  -0.148
  C  C659  1  0.808900  0.830300  0.642800  1.0  -0.1113
  C  C660  1  0.861200  0.862600  0.651400  1.0  -0.0718
  C  C661  1  0.928400  0.892700  0.603800  1.0  -0.1094
  C  C662  1  0.105400  0.927000  0.413700  1.0  -0.0243
  C  C663  1  0.120050  0.909410  0.357410  1.0  0.081
  C  C664  1  0.127510  0.950320  0.295780  1.0  -0.1557
  C  C665  1  0.140660  0.932700  0.246720  1.0  -0.0512
  C  C666  1  0.146380  0.876960  0.256620  1.0  -0.0888
  C  C667  1  0.140000  0.836100  0.316800  1.0  -0.1241
  C  C668  1  0.125550  0.852600  0.366750  1.0  -0.0699
  C  C669  1  0.773200  0.629100  0.456600  1.0  0.3505
  C  C670  1  0.848600  0.658100  0.409100  1.0  -0.0759
  C  C671  1  0.903400  0.723200  0.379700  1.0  0.2149
  C  C672  1  0.970700  0.745400  0.340100  1.0  -0.1944
  C  C673  1  0.985900  0.697700  0.329000  1.0  -0.0904
  C  C674  1  0.935500  0.635900  0.350600  1.0  -0.0754
  C  C675  1  0.869800  0.615700  0.391000  1.0  -0.0818
  C  C676  1  0.678400  0.620100  0.541200  1.0  -0.0356
  C  C677  1  0.674130  0.671590  0.560920  1.0  0.0867
  C  C678  1  0.665620  0.725330  0.531380  1.0  -0.1378
  C  C679  1  0.654820  0.760620  0.564360  1.0  -0.0595
  C  C680  1  0.652610  0.743320  0.625390  1.0  -0.0671
  C  C681  1  0.660370  0.689940  0.655230  1.0  -0.0649
  C  C682  1  0.671650  0.655170  0.622920  1.0  -0.119
  C  C683  1  0.729200  0.951000  0.417900  1.0  0.3979
  C  C684  1  0.711360  0.905260  0.393880  1.0  -0.0263
  C  C685  1  0.750370  0.878770  0.367660  1.0  0.3084
  C  C686  1  0.730960  0.839060  0.341180  1.0  -0.1674
  C  C687  1  0.675960  0.831260  0.331280  1.0  -0.1037
  C  C688  1  0.633840  0.850140  0.363420  1.0  -0.0894
  C  C689  1  0.654200  0.892800  0.386700  1.0  -0.131
  C  C690  1  0.806400  0.023300  0.435000  1.0  -0.0738
  C  C691  1  0.880700  0.060130  0.408530  1.0  0.1047
  C  C692  1  0.903490  0.029220  0.448750  1.0  -0.1827
  C  C693  1  0.969540  0.061500  0.431380  1.0  -0.0442
  C  C694  1  0.015300  0.123600  0.375400  1.0  -0.1301
  C  C695  1  0.994300  0.155900  0.334800  1.0  -0.1315
  C  C696  1  0.927700  0.123420  0.351820  1.0  -0.0879
  C  C697  1  0.063800  0.991500  0.124500  1.0  0.5319
  C  C698  1  0.082100  0.040080  0.158200  1.0  -0.1128
  C  C699  1  0.045600  0.032420  0.222750  1.0  0.2057
  C  C700  1  0.062620  0.078600  0.244600  1.0  -0.1528
  C  C701  1  0.122200  0.141100  0.200000  1.0  -0.1313
  C  C702  1  0.161100  0.152800  0.136700  1.0  -0.1135
  C  C703  1  0.141400  0.105400  0.117200  1.0  -0.0528
  C  C704  1  0.983600  0.903400  0.139300  1.0  0.0541
  C  C705  1  0.915200  0.856110  0.171210  1.0  0.1033
  C  C706  1  0.887200  0.792160  0.226360  1.0  -0.2436
  C  C707  1  0.819250  0.748830  0.258780  1.0  -0.0614
  C  C708  1  0.777200  0.766200  0.238800  1.0  -0.0729
  C  C709  1  0.804900  0.829100  0.184400  1.0  -0.0972
  C  C710  1  0.872100  0.872300  0.152300  1.0  -0.127
  N  N711  1  0.539100  0.544000  0.100000  1.0  -0.3186
  N  N712  1  0.251300  0.501100  0.347800  1.0  -0.3711
  N  N713  1  0.294900  0.608900  0.003200  1.0  -0.391
  N  N714  1  0.502800  0.853600  0.041500  1.0  -0.4641
  N  N715  1  0.530100  0.406000  0.963500  1.0  0.838
  N  N716  1  0.736000  0.473800  0.870800  1.0  0.8472
  N  N717  1  0.672010  0.615010  0.842780  1.0  0.8376
  N  N718  1  0.690280  0.910060  0.113620  1.0  0.8205
  N  N719  1  0.639100  0.100000  0.356000  1.0  -0.316
  N  N720  1  0.599100  0.347800  0.151100  1.0  -0.37
  N  N721  1  0.298100  0.003200  0.387900  1.0  -0.3942
  N  N722  1  0.544300  0.041500  0.104900  1.0  -0.4622
  N  N723  1  0.493600  0.963500  0.630500  1.0  0.8345
  N  N724  1  0.606800  0.870800  0.655400  1.0  0.8476
  N  N725  1  0.514790  0.842780  0.542210  1.0  0.8343
  N  N726  1  0.803900  0.113620  0.976320  1.0  0.8178
  N  N727  1  0.995100  0.356000  0.544000  1.0  -0.317
  N  N728  1  0.750200  0.151100  0.501100  1.0  -0.3684
  N  N729  1  0.686000  0.387900  0.608900  1.0  -0.3914
  N  N730  1  0.649200  0.104900  0.853600  1.0  -0.4619
  N  N731  1  0.124100  0.630500  0.406000  1.0  0.8337
  N  N732  1  0.262200  0.655400  0.473800  1.0  0.8479
  N  N733  1  0.057000  0.542210  0.615010  1.0  0.8353
  N  N734  1  0.780220  0.976320  0.910060  1.0  0.8172
  N  N735  1  0.139100  0.644000  0.900000  1.0  -0.3173
  N  N736  1  0.099100  0.848900  0.652200  1.0  -0.368
  N  N737  1  0.798100  0.612100  0.996800  1.0  -0.3913
  N  N738  1  0.044300  0.895100  0.958500  1.0  -0.4618
  N  N739  1  0.993600  0.369500  0.036500  1.0  0.8336
  N  N740  1  0.106800  0.344600  0.129200  1.0  0.8469
  N  N741  1  0.014790  0.457790  0.157220  1.0  0.835
  N  N742  1  0.303900  0.023680  0.886380  1.0  0.8166
  N  N743  1  0.495100  0.456000  0.644000  1.0  -0.3181
  N  N744  1  0.250200  0.498900  0.848900  1.0  -0.371
  N  N745  1  0.186000  0.391100  0.612100  1.0  -0.3905
  N  N746  1  0.149200  0.146400  0.895100  1.0  -0.4647
  N  N747  1  0.624100  0.594000  0.369500  1.0  0.8382
  N  N748  1  0.762200  0.526200  0.344600  1.0  0.847
  N  N749  1  0.557000  0.384990  0.457790  1.0  0.8373
  N  N750  1  0.280220  0.089940  0.023680  1.0  0.8208
  N  N751  1  0.039100  0.900000  0.456000  1.0  -0.3159
  N  N752  1  0.751300  0.652200  0.498900  1.0  -0.37
  N  N753  1  0.794900  0.996800  0.391100  1.0  -0.3935
  N  N754  1  0.002800  0.958500  0.146400  1.0  -0.4624
  N  N755  1  0.030100  0.036500  0.594000  1.0  0.8345
  N  N756  1  0.236000  0.129200  0.526200  1.0  0.8485
  N  N757  1  0.172010  0.157220  0.384990  1.0  0.8352
  N  N758  1  0.190280  0.886380  0.089940  1.0  0.8184
  O  O759  1  0.415300  0.532100  0.128600  1.0  -0.3677
  O  O760  1  0.382800  0.604970  0.234170  1.0  -0.3351
  O  O761  1  0.308100  0.629800  0.105100  1.0  -0.3461
  O  O762  1  0.486970  0.736340  0.029330  1.0  -0.3976
  O  O763  1  0.568030  0.496650  0.040860  1.0  -0.5985
  O  O764  1  0.227980  0.539840  0.424400  1.0  -0.6026
  O  O765  1  0.185960  0.539790  0.040110  1.0  -0.6354
  O  O766  1  0.611530  0.920720  0.997230  1.0  -0.5951
  O  O767  1  0.558950  0.467100  0.920350  1.0  -0.619
  O  O768  1  0.549780  0.386580  0.003540  1.0  -0.647
  O  O769  1  0.472700  0.364900  0.977000  1.0  -0.5174
  O  O770  1  0.757560  0.511920  0.891940  1.0  -0.6696
  O  O771  1  0.674900  0.443600  0.889200  1.0  -0.6121
  O  O772  1  0.779430  0.475430  0.822240  1.0  -0.4981
  O  O773  1  0.706150  0.586450  0.831500  1.0  -0.6288
  O  O774  1  0.635020  0.598530  0.903370  1.0  -0.7038
  O  O775  1  0.688760  0.671160  0.796780  1.0  -0.4855
  O  O776  1  0.647270  0.889580  0.097070  1.0  -0.5916
  O  O777  1  0.731440  0.971380  0.084160  1.0  -0.6158
  O  O778  1  0.696400  0.869000  0.155000  1.0  -0.5503
  O  O779  1  0.543900  0.128600  0.339300  1.0  -0.3674
  O  O780  1  0.616970  0.234170  0.160860  1.0  -0.3338
  O  O781  1  0.413200  0.105100  0.265100  1.0  -0.3471
  O  O782  1  0.516300  0.029330  0.234330  1.0  -0.3976
  O  O783  1  0.608890  0.040860  0.462490  1.0  -0.6
  O  O784  1  0.652380  0.424400  0.035760  1.0  -0.6048
  O  O785  1  0.226070  0.040110  0.420100  1.0  -0.6346
  O  O786  1  0.608760  0.997230  0.082050  1.0  -0.5986
  O  O787  1  0.479300  0.920350  0.612550  1.0  -0.619
  O  O788  1  0.553320  0.003540  0.609880  1.0  -0.6421
  O  O789  1  0.449700  0.977000  0.658100  1.0  -0.5172
  O  O790  1  0.649500  0.891940  0.596140  1.0  -0.6687
  O  O791  1  0.564100  0.889200  0.667200  1.0  -0.6143
  O  O792  1  0.601670  0.822240  0.702330  1.0  -0.498
  O  O793  1  0.537650  0.831500  0.582050  1.0  -0.6299
  O  O794  1  0.538390  0.903370  0.498100  1.0  -0.7004
  O  O795  1  0.485540  0.796780  0.532060  1.0  -0.485
  O  O796  1  0.744340  0.097070  0.013350  1.0  -0.5901
  O  O797  1  0.815600  0.084160  0.944460  1.0  -0.5952
  O  O798  1  0.851400  0.155000  0.976000  1.0  -0.5498
  O  O799  1  0.883200  0.339300  0.532100  1.0  -0.3677
  O  O800  1  0.777830  0.160860  0.604970  1.0  -0.335
  O  O801  1  0.678300  0.265100  0.629800  1.0  -0.3459
  O  O802  1  0.750630  0.234330  0.736340  1.0  -0.3976
  O  O803  1  0.071380  0.462490  0.496650  1.0  -0.6003
  O  O804  1  0.688140  0.035760  0.539840  1.0  -0.6025
  O  O805  1  0.646170  0.420100  0.539790  1.0  -0.636
  O  O806  1  0.690810  0.082050  0.920720  1.0  -0.6063
  O  O807  1  0.091850  0.612550  0.467100  1.0  -0.617
  O  O808  1  0.163200  0.609880  0.386580  1.0  -0.6456
  O  O809  1  0.107800  0.658100  0.364900  1.0  -0.5195
  O  O810  1  0.245640  0.596140  0.511920  1.0  -0.6684
  O  O811  1  0.231300  0.667200  0.443600  1.0  -0.6147
  O  O812  1  0.304000  0.702330  0.475430  1.0  -0.4999
  O  O813  1  0.119700  0.582050  0.586450  1.0  -0.6286
  O  O814  1  0.036490  0.498100  0.598530  1.0  -0.7003
  O  O815  1  0.017600  0.532060  0.671160  1.0  -0.4827
  O  O816  1  0.757690  0.013350  0.889580  1.0  -0.5892
  O  O817  1  0.760060  0.944460  0.971380  1.0  -0.6071
  O  O818  1  0.827400  0.976000  0.869000  1.0  -0.5497
  O  O819  1  0.043900  0.660700  0.871400  1.0  -0.367
  O  O820  1  0.116970  0.839140  0.765830  1.0  -0.3345
  O  O821  1  0.913200  0.734900  0.894900  1.0  -0.3453
  O  O822  1  0.016300  0.765670  0.970670  1.0  -0.3977
  O  O823  1  0.108890  0.537510  0.959140  1.0  -0.5992
  O  O824  1  0.152380  0.964240  0.575600  1.0  -0.6016
  O  O825  1  0.726070  0.579900  0.959890  1.0  -0.6364
  O  O826  1  0.108760  0.917950  0.002770  1.0  -0.5983
  O  O827  1  0.979300  0.387450  0.079650  1.0  -0.6142
  O  O828  1  0.053320  0.390120  0.996460  1.0  -0.6461
  O  O829  1  0.949700  0.341900  0.023000  1.0  -0.5199
  O  O830  1  0.149500  0.403860  0.108060  1.0  -0.6693
  O  O831  1  0.064100  0.332800  0.110800  1.0  -0.6154
  O  O832  1  0.101670  0.297670  0.177760  1.0  -0.4973
  O  O833  1  0.037650  0.417950  0.168500  1.0  -0.6284
  O  O834  1  0.038390  0.501900  0.096630  1.0  -0.701
  O  O835  1  0.985540  0.467940  0.203220  1.0  -0.4827
  O  O836  1  0.244340  0.986650  0.902930  1.0  -0.5904
  O  O837  1  0.315600  0.055540  0.915840  1.0  -0.599
  O  O838  1  0.351400  0.024000  0.845000  1.0  -0.5494
  O  O839  1  0.383200  0.467900  0.660700  1.0  -0.3684
  O  O840  1  0.277830  0.395030  0.839140  1.0  -0.3349
  O  O841  1  0.178300  0.370200  0.734900  1.0  -0.3478
  O  O842  1  0.250630  0.263660  0.765670  1.0  -0.3991
  O  O843  1  0.571380  0.503350  0.537510  1.0  -0.5982
  O  O844  1  0.188140  0.460160  0.964240  1.0  -0.6023
  O  O845  1  0.146170  0.460210  0.579900  1.0  -0.6356
  O  O846  1  0.190810  0.079280  0.917950  1.0  -0.6053
  O  O847  1  0.591850  0.532900  0.387450  1.0  -0.6203
  O  O848  1  0.663200  0.613420  0.390120  1.0  -0.6471
  O  O849  1  0.607800  0.635100  0.341900  1.0  -0.5162
  O  O850  1  0.745640  0.488080  0.403860  1.0  -0.671
  O  O851  1  0.731300  0.556400  0.332800  1.0  -0.6123
  O  O852  1  0.804000  0.524570  0.297670  1.0  -0.4981
  O  O853  1  0.619700  0.413550  0.417950  1.0  -0.6282
  O  O854  1  0.536490  0.401470  0.501900  1.0  -0.7038
  O  O855  1  0.517600  0.328840  0.467940  1.0  -0.4859
  O  O856  1  0.257690  0.110420  0.986650  1.0  -0.5915
  O  O857  1  0.260060  0.028620  0.055540  1.0  -0.6095
  O  O858  1  0.327400  0.131000  0.024000  1.0  -0.5485
  O  O859  1  0.915300  0.871400  0.467900  1.0  -0.3675
  O  O860  1  0.882800  0.765830  0.395030  1.0  -0.3345
  O  O861  1  0.808100  0.894900  0.370200  1.0  -0.3475
  O  O862  1  0.986970  0.970670  0.263660  1.0  -0.3986
  O  O863  1  0.068030  0.959140  0.503350  1.0  -0.6009
  O  O864  1  0.727980  0.575600  0.460160  1.0  -0.6044
  O  O865  1  0.685960  0.959890  0.460210  1.0  -0.6348
  O  O866  1  0.111530  0.002770  0.079280  1.0  -0.5959
  O  O867  1  0.058950  0.079650  0.532900  1.0  -0.6198
  O  O868  1  0.049780  0.996460  0.613420  1.0  -0.6423
  O  O869  1  0.972700  0.023000  0.635100  1.0  -0.5183
  O  O870  1  0.257560  0.108060  0.488080  1.0  -0.6695
  O  O871  1  0.174900  0.110800  0.556400  1.0  -0.6146
  O  O872  1  0.279430  0.177760  0.524570  1.0  -0.5001
  O  O873  1  0.206150  0.168500  0.413550  1.0  -0.6298
  O  O874  1  0.135020  0.096630  0.401470  1.0  -0.6987
  O  O875  1  0.188760  0.203220  0.328840  1.0  -0.4852
  O  O876  1  0.147270  0.902930  0.110420  1.0  -0.5902
  O  O877  1  0.231440  0.915840  0.028620  1.0  -0.6117
  O  O878  1  0.196400  0.845000  0.131000  1.0  -0.5499
