# generated using pymatgen
data_Er4H168C183(N2O5)12
_symmetry_space_group_name_H-M   'P 1'
_cell_length_a   24.12050000
_cell_length_b   24.12050000
_cell_length_c   24.12050000
_cell_angle_alpha   109.46100000
_cell_angle_beta   109.46100000
_cell_angle_gamma   109.46100000
_symmetry_Int_Tables_number   1
_chemical_formula_structural   Er4H168C183(N2O5)12
_chemical_formula_sum   'Er8 H336 C366 N48 O120'
_cell_volume   10806.90316309
_cell_formula_units_Z   2
loop_
 _symmetry_equiv_pos_site_id
 _symmetry_equiv_pos_as_xyz
  1  'x, y, z'
loop_
 _atom_site_type_symbol
 _atom_site_label
 _atom_site_symmetry_multiplicity
 _atom_site_fract_x
 _atom_site_fract_y
 _atom_site_fract_z
 _atom_site_occupancy
 _atom_site_charge
  Er  Er1  1  0.401520  0.352070  0.852070  1.0  1.3152
  Er  Er2  1  0.852070  0.401520  0.352070  1.0  1.3169
  Er  Er3  1  0.352070  0.852070  0.401520  1.0  1.3231
  Er  Er4  1  0.852070  0.901520  0.352070  1.0  1.317
  Er  Er5  1  0.901520  0.352070  0.852070  1.0  1.3151
  Er  Er6  1  0.352070  0.852070  0.901520  1.0  1.3234
  Er  Er7  1  0.302830  0.302830  0.302830  1.0  1.3222
  Er  Er8  1  0.802830  0.802830  0.802830  1.0  1.3222
  H  H9  1  0.349000  0.476800  0.027300  1.0  0.2609
  H  H10  1  0.390000  0.715300  0.212200  1.0  0.2891
  H  H11  1  0.668500  0.676100  0.308000  1.0  0.2607
  H  H12  1  0.482500  0.526200  0.352900  1.0  0.238
  H  H13  1  0.464600  0.664800  0.192000  1.0  0.0926
  H  H14  1  0.534500  0.667300  0.208700  1.0  0.0868
  H  H15  1  0.377600  0.536400  0.153300  1.0  0.086
  H  H16  1  0.393200  0.535300  0.221600  1.0  0.0781
  H  H17  1  0.513700  0.635600  0.330500  1.0  0.0882
  H  H18  1  0.503700  0.689200  0.311500  1.0  0.0881
  H  H19  1  0.546900  0.572800  0.235300  1.0  0.105
  H  H20  1  0.477300  0.520000  0.168100  1.0  0.0852
  H  H21  1  0.523400  0.704000  0.133600  1.0  0.1222
  H  H22  1  0.540700  0.730200  0.057400  1.0  0.107
  H  H23  1  0.516800  0.647000  0.956900  1.0  0.1174
  H  H24  1  0.434900  0.545100  0.924100  1.0  0.1123
  H  H25  1  0.291700  0.361600  0.934000  1.0  0.0866
  H  H26  1  0.358100  0.372700  0.989400  1.0  0.1063
  H  H27  1  0.356700  0.364500  0.086600  1.0  0.1402
  H  H28  1  0.314200  0.374000  0.159800  1.0  0.121
  H  H29  1  0.205300  0.353900  0.120800  1.0  0.1276
  H  H30  1  0.148700  0.347700  0.019200  1.0  0.1326
  H  H31  1  0.209000  0.380000  0.969200  1.0  0.1379
  H  H32  1  0.283600  0.500100  0.172900  1.0  0.1244
  H  H33  1  0.179800  0.470500  0.165000  1.0  0.131
  H  H34  1  0.161200  0.553700  0.218900  1.0  0.112
  H  H35  1  0.233100  0.660100  0.249700  1.0  0.0959
  H  H36  1  0.427800  0.845100  0.287600  1.0  0.0964
  H  H37  1  0.472200  0.828800  0.337500  1.0  0.097
  H  H38  1  0.572000  0.833300  0.334900  1.0  0.1273
  H  H39  1  0.638600  0.836600  0.286000  1.0  0.1219
  H  H40  1  0.613300  0.853400  0.194600  1.0  0.1345
  H  H41  1  0.514500  0.855400  0.146500  1.0  0.1282
  H  H42  1  0.438600  0.829900  0.182200  1.0  0.1322
  H  H43  1  0.574100  0.736500  0.426300  1.0  0.1178
  H  H44  1  0.645700  0.839600  0.525500  1.0  0.1405
  H  H45  1  0.746900  0.911100  0.539400  1.0  0.1263
  H  H46  1  0.782100  0.870800  0.466800  1.0  0.1138
  H  H47  1  0.772200  0.708700  0.283900  1.0  0.1056
  H  H48  1  0.717900  0.717700  0.235000  1.0  0.1074
  H  H49  1  0.622300  0.627000  0.140500  1.0  0.1302
  H  H50  1  0.561600  0.514900  0.061600  1.0  0.1098
  H  H51  1  0.576400  0.437400  0.091300  1.0  0.1358
  H  H52  1  0.684600  0.478200  0.178700  1.0  0.1351
  H  H53  1  0.740300  0.588500  0.262600  1.0  0.1343
  H  H54  1  0.537200  0.466400  0.184600  1.0  0.1259
  H  H55  1  0.535800  0.363900  0.153800  1.0  0.1281
  H  H56  1  0.494500  0.305000  0.197600  1.0  0.0797
  H  H57  1  0.449100  0.331100  0.258900  1.0  0.1145
  H  H58  1  0.368300  0.483400  0.348500  1.0  0.09
  H  H59  1  0.424000  0.493700  0.414200  1.0  0.0985
  H  H60  1  0.361800  0.578100  0.347600  1.0  0.1321
  H  H61  1  0.403300  0.692100  0.388300  1.0  0.1255
  H  H62  1  0.498200  0.767200  0.491600  1.0  0.1255
  H  H63  1  0.545200  0.727100  0.558200  1.0  0.1323
  H  H64  1  0.523400  0.617400  0.504000  1.0  0.1461
  H  H65  1  0.027300  0.349000  0.476800  1.0  0.2621
  H  H66  1  0.212200  0.390000  0.715300  1.0  0.2867
  H  H67  1  0.308000  0.668500  0.676100  1.0  0.2621
  H  H68  1  0.352900  0.482500  0.526200  1.0  0.238
  H  H69  1  0.192000  0.464600  0.664800  1.0  0.0941
  H  H70  1  0.208700  0.534500  0.667300  1.0  0.0882
  H  H71  1  0.153300  0.377600  0.536400  1.0  0.0872
  H  H72  1  0.221600  0.393200  0.535300  1.0  0.0757
  H  H73  1  0.330500  0.513700  0.635600  1.0  0.0865
  H  H74  1  0.311500  0.503700  0.689200  1.0  0.0886
  H  H75  1  0.235300  0.546900  0.572800  1.0  0.0993
  H  H76  1  0.168100  0.477300  0.520000  1.0  0.0828
  H  H77  1  0.133600  0.523400  0.704000  1.0  0.1226
  H  H78  1  0.057400  0.540700  0.730200  1.0  0.1053
  H  H79  1  0.956900  0.516800  0.647000  1.0  0.1179
  H  H80  1  0.924100  0.434900  0.545100  1.0  0.1132
  H  H81  1  0.934000  0.291700  0.361600  1.0  0.0859
  H  H82  1  0.989400  0.358100  0.372700  1.0  0.1003
  H  H83  1  0.086600  0.356700  0.364500  1.0  0.1358
  H  H84  1  0.159800  0.314200  0.374000  1.0  0.1193
  H  H85  1  0.120800  0.205300  0.353900  1.0  0.1273
  H  H86  1  0.019200  0.148700  0.347700  1.0  0.1307
  H  H87  1  0.969200  0.209000  0.380000  1.0  0.1378
  H  H88  1  0.172900  0.283600  0.500100  1.0  0.1257
  H  H89  1  0.165000  0.179800  0.470500  1.0  0.1289
  H  H90  1  0.218900  0.161200  0.553700  1.0  0.1122
  H  H91  1  0.249700  0.233100  0.660100  1.0  0.097
  H  H92  1  0.287600  0.427800  0.845100  1.0  0.0956
  H  H93  1  0.337500  0.472200  0.828800  1.0  0.0958
  H  H94  1  0.334900  0.572000  0.833300  1.0  0.1269
  H  H95  1  0.286000  0.638600  0.836600  1.0  0.1215
  H  H96  1  0.194600  0.613300  0.853400  1.0  0.1338
  H  H97  1  0.146500  0.514500  0.855400  1.0  0.1282
  H  H98  1  0.182200  0.438600  0.829900  1.0  0.1308
  H  H99  1  0.426300  0.574100  0.736500  1.0  0.1195
  H  H100  1  0.525500  0.645700  0.839600  1.0  0.1408
  H  H101  1  0.539400  0.746900  0.911100  1.0  0.1257
  H  H102  1  0.466800  0.782100  0.870800  1.0  0.1144
  H  H103  1  0.283900  0.772200  0.708700  1.0  0.1139
  H  H104  1  0.235000  0.717900  0.717700  1.0  0.1088
  H  H105  1  0.140500  0.622300  0.627000  1.0  0.1296
  H  H106  1  0.061600  0.561600  0.514900  1.0  0.1087
  H  H107  1  0.091300  0.576400  0.437400  1.0  0.1353
  H  H108  1  0.178700  0.684600  0.478200  1.0  0.1344
  H  H109  1  0.262600  0.740300  0.588500  1.0  0.1337
  H  H110  1  0.184600  0.537200  0.466400  1.0  0.1278
  H  H111  1  0.153800  0.535800  0.363900  1.0  0.1305
  H  H112  1  0.197600  0.494500  0.305000  1.0  0.0802
  H  H113  1  0.258900  0.449100  0.331100  1.0  0.1133
  H  H114  1  0.348500  0.368300  0.483400  1.0  0.0917
  H  H115  1  0.414200  0.424000  0.493700  1.0  0.1019
  H  H116  1  0.347600  0.361800  0.578100  1.0  0.1327
  H  H117  1  0.388300  0.403300  0.692100  1.0  0.1247
  H  H118  1  0.491600  0.498200  0.767200  1.0  0.1246
  H  H119  1  0.558200  0.545200  0.727100  1.0  0.1329
  H  H120  1  0.504000  0.523400  0.617400  1.0  0.1471
  H  H121  1  0.476800  0.027300  0.349000  1.0  0.2629
  H  H122  1  0.715300  0.212200  0.390000  1.0  0.2882
  H  H123  1  0.676100  0.308000  0.668500  1.0  0.2643
  H  H124  1  0.526200  0.352900  0.482500  1.0  0.2389
  H  H125  1  0.664800  0.192000  0.464600  1.0  0.0921
  H  H126  1  0.667300  0.208700  0.534500  1.0  0.0884
  H  H127  1  0.536400  0.153300  0.377600  1.0  0.0873
  H  H128  1  0.535300  0.221600  0.393200  1.0  0.073
  H  H129  1  0.635600  0.330500  0.513700  1.0  0.0855
  H  H130  1  0.689200  0.311500  0.503700  1.0  0.0876
  H  H131  1  0.572800  0.235300  0.546900  1.0  0.1002
  H  H132  1  0.520000  0.168100  0.477300  1.0  0.0845
  H  H133  1  0.704000  0.133600  0.523400  1.0  0.1226
  H  H134  1  0.730200  0.057400  0.540700  1.0  0.107
  H  H135  1  0.647000  0.956900  0.516800  1.0  0.1185
  H  H136  1  0.545100  0.924100  0.434900  1.0  0.1135
  H  H137  1  0.361600  0.934000  0.291700  1.0  0.0858
  H  H138  1  0.372700  0.989400  0.358100  1.0  0.1003
  H  H139  1  0.364500  0.086600  0.356700  1.0  0.1372
  H  H140  1  0.374000  0.159800  0.314200  1.0  0.1206
  H  H141  1  0.353900  0.120800  0.205300  1.0  0.1273
  H  H142  1  0.347700  0.019200  0.148700  1.0  0.1316
  H  H143  1  0.380000  0.969200  0.209000  1.0  0.1372
  H  H144  1  0.500100  0.172900  0.283600  1.0  0.1251
  H  H145  1  0.470500  0.165000  0.179800  1.0  0.1304
  H  H146  1  0.553700  0.218900  0.161200  1.0  0.1136
  H  H147  1  0.660100  0.249700  0.233100  1.0  0.0953
  H  H148  1  0.845100  0.287600  0.427800  1.0  0.0941
  H  H149  1  0.828800  0.337500  0.472200  1.0  0.0991
  H  H150  1  0.833300  0.334900  0.572000  1.0  0.127
  H  H151  1  0.836600  0.286000  0.638600  1.0  0.1194
  H  H152  1  0.853400  0.194600  0.613300  1.0  0.1349
  H  H153  1  0.855400  0.146500  0.514500  1.0  0.1269
  H  H154  1  0.829900  0.182200  0.438600  1.0  0.1314
  H  H155  1  0.736500  0.426300  0.574100  1.0  0.1177
  H  H156  1  0.839600  0.525500  0.645700  1.0  0.1385
  H  H157  1  0.911100  0.539400  0.746900  1.0  0.1266
  H  H158  1  0.870800  0.466800  0.782100  1.0  0.1144
  H  H159  1  0.708700  0.283900  0.772200  1.0  0.1119
  H  H160  1  0.717700  0.235000  0.717900  1.0  0.108
  H  H161  1  0.627000  0.140500  0.622300  1.0  0.1302
  H  H162  1  0.514900  0.061600  0.561600  1.0  0.1122
  H  H163  1  0.437400  0.091300  0.576400  1.0  0.136
  H  H164  1  0.478200  0.178700  0.684600  1.0  0.1345
  H  H165  1  0.588500  0.262600  0.740300  1.0  0.1332
  H  H166  1  0.466400  0.184600  0.537200  1.0  0.1275
  H  H167  1  0.363900  0.153800  0.535800  1.0  0.1291
  H  H168  1  0.305000  0.197600  0.494500  1.0  0.0795
  H  H169  1  0.331100  0.258900  0.449100  1.0  0.1134
  H  H170  1  0.483400  0.348500  0.368300  1.0  0.0899
  H  H171  1  0.493700  0.414200  0.424000  1.0  0.1005
  H  H172  1  0.578100  0.347600  0.361800  1.0  0.1312
  H  H173  1  0.692100  0.388300  0.403300  1.0  0.1249
  H  H174  1  0.767200  0.491600  0.498200  1.0  0.1242
  H  H175  1  0.727100  0.558200  0.545200  1.0  0.1316
  H  H176  1  0.617400  0.504000  0.523400  1.0  0.1465
  H  H177  1  0.976800  0.849000  0.527300  1.0  0.2608
  H  H178  1  0.215300  0.890000  0.712200  1.0  0.2897
  H  H179  1  0.176100  0.168500  0.808000  1.0  0.2619
  H  H180  1  0.026200  0.982500  0.852900  1.0  0.2378
  H  H181  1  0.164800  0.964600  0.692000  1.0  0.0895
  H  H182  1  0.167300  0.034500  0.708700  1.0  0.0874
  H  H183  1  0.036400  0.877600  0.653300  1.0  0.0847
  H  H184  1  0.035300  0.893200  0.721600  1.0  0.0767
  H  H185  1  0.135600  0.013700  0.830500  1.0  0.0868
  H  H186  1  0.189200  0.003700  0.811500  1.0  0.0846
  H  H187  1  0.072800  0.046900  0.735300  1.0  0.1013
  H  H188  1  0.020000  0.977300  0.668100  1.0  0.0853
  H  H189  1  0.204000  0.023400  0.633600  1.0  0.1217
  H  H190  1  0.230200  0.040700  0.557400  1.0  0.1064
  H  H191  1  0.147000  0.016800  0.456900  1.0  0.1175
  H  H192  1  0.045100  0.934900  0.424100  1.0  0.1124
  H  H193  1  0.861600  0.791700  0.434000  1.0  0.0835
  H  H194  1  0.872700  0.858100  0.489400  1.0  0.1011
  H  H195  1  0.864500  0.856700  0.586600  1.0  0.1362
  H  H196  1  0.874000  0.814200  0.659800  1.0  0.121
  H  H197  1  0.853900  0.705300  0.620800  1.0  0.1272
  H  H198  1  0.847700  0.648700  0.519200  1.0  0.1321
  H  H199  1  0.880000  0.709000  0.469200  1.0  0.1382
  H  H200  1  0.000100  0.783600  0.672900  1.0  0.1258
  H  H201  1  0.970500  0.679800  0.665000  1.0  0.1296
  H  H202  1  0.053700  0.661200  0.718900  1.0  0.1112
  H  H203  1  0.160100  0.733100  0.749700  1.0  0.0975
  H  H204  1  0.345100  0.927800  0.787600  1.0  0.0943
  H  H205  1  0.328800  0.972200  0.837500  1.0  0.0971
  H  H206  1  0.333333  0.072000  0.834900  1.0  0.1265
  H  H207  1  0.336600  0.138600  0.786000  1.0  0.1204
  H  H208  1  0.353400  0.113300  0.694600  1.0  0.1342
  H  H209  1  0.355400  0.014500  0.646500  1.0  0.1281
  H  H210  1  0.329900  0.938600  0.682200  1.0  0.1307
  H  H211  1  0.236500  0.074100  0.926300  1.0  0.1176
  H  H212  1  0.339600  0.145700  0.025500  1.0  0.1405
  H  H213  1  0.411100  0.246900  0.039400  1.0  0.1254
  H  H214  1  0.370800  0.282100  0.966800  1.0  0.1149
  H  H215  1  0.208700  0.272200  0.783900  1.0  0.1155
  H  H216  1  0.217700  0.217900  0.735000  1.0  0.1089
  H  H217  1  0.127000  0.122300  0.640500  1.0  0.13
  H  H218  1  0.014900  0.061600  0.561600  1.0  0.1099
  H  H219  1  0.937400  0.076400  0.591300  1.0  0.1348
  H  H220  1  0.978200  0.184600  0.678700  1.0  0.1338
  H  H221  1  0.088500  0.240300  0.762600  1.0  0.1333
  H  H222  1  0.966400  0.037200  0.684600  1.0  0.1262
  H  H223  1  0.863900  0.035800  0.653800  1.0  0.1283
  H  H224  1  0.805000  0.994500  0.697600  1.0  0.0826
  H  H225  1  0.831100  0.949100  0.758900  1.0  0.114
  H  H226  1  0.983400  0.868300  0.848500  1.0  0.0915
  H  H227  1  0.993700  0.924000  0.914200  1.0  0.0984
  H  H228  1  0.078100  0.861800  0.847600  1.0  0.1331
  H  H229  1  0.192100  0.903300  0.888300  1.0  0.1253
  H  H230  1  0.267200  0.998200  0.991600  1.0  0.1256
  H  H231  1  0.227100  0.045200  0.058200  1.0  0.1319
  H  H232  1  0.117400  0.023400  0.004000  1.0  0.1464
  H  H233  1  0.849000  0.527300  0.976800  1.0  0.2617
  H  H234  1  0.890000  0.712200  0.215300  1.0  0.2902
  H  H235  1  0.168500  0.808000  0.176100  1.0  0.2631
  H  H236  1  0.982500  0.852900  0.026200  1.0  0.2384
  H  H237  1  0.964600  0.692000  0.164800  1.0  0.0934
  H  H238  1  0.034500  0.708700  0.167300  1.0  0.0854
  H  H239  1  0.877600  0.653300  0.036400  1.0  0.0886
  H  H240  1  0.893200  0.721600  0.035300  1.0  0.0762
  H  H241  1  0.013700  0.830500  0.135600  1.0  0.0866
  H  H242  1  0.003700  0.811500  0.189200  1.0  0.0878
  H  H243  1  0.046900  0.735300  0.072800  1.0  0.1001
  H  H244  1  0.977300  0.668100  0.020000  1.0  0.0862
  H  H245  1  0.023400  0.633600  0.204000  1.0  0.1235
  H  H246  1  0.040700  0.557400  0.230200  1.0  0.1057
  H  H247  1  0.016800  0.456900  0.147000  1.0  0.1179
  H  H248  1  0.934900  0.424100  0.045100  1.0  0.114
  H  H249  1  0.791700  0.434000  0.861600  1.0  0.0872
  H  H250  1  0.858100  0.489400  0.872700  1.0  0.0995
  H  H251  1  0.856700  0.586600  0.864500  1.0  0.1354
  H  H252  1  0.814200  0.659800  0.874000  1.0  0.1193
  H  H253  1  0.705300  0.620800  0.853900  1.0  0.1275
  H  H254  1  0.648700  0.519200  0.847700  1.0  0.1308
  H  H255  1  0.709000  0.469200  0.880000  1.0  0.1368
  H  H256  1  0.783600  0.672900  0.000100  1.0  0.1256
  H  H257  1  0.679800  0.665000  0.970500  1.0  0.1291
  H  H258  1  0.661200  0.718900  0.053700  1.0  0.1149
  H  H259  1  0.733100  0.749700  0.160100  1.0  0.0964
  H  H260  1  0.927800  0.787600  0.345100  1.0  0.0955
  H  H261  1  0.972200  0.837500  0.328800  1.0  0.0981
  H  H262  1  0.072000  0.834900  0.333333  1.0  0.1282
  H  H263  1  0.138600  0.786000  0.336600  1.0  0.1198
  H  H264  1  0.113300  0.694600  0.353400  1.0  0.1353
  H  H265  1  0.014500  0.646500  0.355400  1.0  0.128
  H  H266  1  0.938600  0.682200  0.329900  1.0  0.131
  H  H267  1  0.074100  0.926300  0.236500  1.0  0.1195
  H  H268  1  0.145700  0.025500  0.339600  1.0  0.1394
  H  H269  1  0.246900  0.039400  0.411100  1.0  0.1258
  H  H270  1  0.282100  0.966800  0.370800  1.0  0.1154
  H  H271  1  0.272200  0.783900  0.208700  1.0  0.1112
  H  H272  1  0.217900  0.735000  0.217700  1.0  0.1085
  H  H273  1  0.122300  0.640500  0.127000  1.0  0.1291
  H  H274  1  0.061600  0.561600  0.014900  1.0  0.1105
  H  H275  1  0.076400  0.591300  0.937400  1.0  0.1349
  H  H276  1  0.184600  0.678700  0.978200  1.0  0.1343
  H  H277  1  0.240300  0.762600  0.088500  1.0  0.1339
  H  H278  1  0.037200  0.684600  0.966400  1.0  0.1269
  H  H279  1  0.035800  0.653800  0.863900  1.0  0.1292
  H  H280  1  0.994500  0.697600  0.805000  1.0  0.0793
  H  H281  1  0.949100  0.758900  0.831100  1.0  0.113
  H  H282  1  0.868300  0.848500  0.983400  1.0  0.0904
  H  H283  1  0.924000  0.914200  0.993700  1.0  0.0992
  H  H284  1  0.861800  0.847600  0.078100  1.0  0.1315
  H  H285  1  0.903300  0.888300  0.192100  1.0  0.1253
  H  H286  1  0.998200  0.991600  0.267200  1.0  0.1238
  H  H287  1  0.045200  0.058200  0.227100  1.0  0.1325
  H  H288  1  0.023400  0.004000  0.117400  1.0  0.1472
  H  H289  1  0.527300  0.976800  0.849000  1.0  0.2625
  H  H290  1  0.712200  0.215300  0.890000  1.0  0.2871
  H  H291  1  0.808000  0.176100  0.168500  1.0  0.2626
  H  H292  1  0.852900  0.026200  0.982500  1.0  0.2379
  H  H293  1  0.692000  0.164800  0.964600  1.0  0.095
  H  H294  1  0.708700  0.167300  0.034500  1.0  0.0889
  H  H295  1  0.653300  0.036400  0.877600  1.0  0.0848
  H  H296  1  0.721600  0.035300  0.893200  1.0  0.0761
  H  H297  1  0.830500  0.135600  0.013700  1.0  0.087
  H  H298  1  0.811500  0.189200  0.003700  1.0  0.0881
  H  H299  1  0.735300  0.072800  0.046900  1.0  0.1009
  H  H300  1  0.668100  0.020000  0.977300  1.0  0.0852
  H  H301  1  0.633600  0.204000  0.023400  1.0  0.1221
  H  H302  1  0.557400  0.230200  0.040700  1.0  0.1071
  H  H303  1  0.456900  0.147000  0.016800  1.0  0.118
  H  H304  1  0.424100  0.045100  0.934900  1.0  0.1131
  H  H305  1  0.434000  0.861600  0.791700  1.0  0.0869
  H  H306  1  0.489400  0.872700  0.858100  1.0  0.1007
  H  H307  1  0.586600  0.864500  0.856700  1.0  0.1364
  H  H308  1  0.659800  0.874000  0.814200  1.0  0.1237
  H  H309  1  0.620800  0.853900  0.705300  1.0  0.127
  H  H310  1  0.519200  0.847700  0.648700  1.0  0.1311
  H  H311  1  0.469200  0.880000  0.709000  1.0  0.1388
  H  H312  1  0.672900  0.000100  0.783600  1.0  0.1254
  H  H313  1  0.665000  0.970500  0.679800  1.0  0.1308
  H  H314  1  0.718900  0.053700  0.661200  1.0  0.1112
  H  H315  1  0.749700  0.160100  0.733100  1.0  0.0954
  H  H316  1  0.787600  0.345100  0.927800  1.0  0.0949
  H  H317  1  0.837500  0.328800  0.972200  1.0  0.1011
  H  H318  1  0.834900  0.333333  0.072000  1.0  0.1297
  H  H319  1  0.786000  0.336600  0.138600  1.0  0.1203
  H  H320  1  0.694600  0.353400  0.113300  1.0  0.1355
  H  H321  1  0.646500  0.355400  0.014500  1.0  0.1305
  H  H322  1  0.682200  0.329900  0.938600  1.0  0.1319
  H  H323  1  0.926300  0.236500  0.074100  1.0  0.1179
  H  H324  1  0.025500  0.339600  0.145700  1.0  0.1379
  H  H325  1  0.039400  0.411100  0.246900  1.0  0.127
  H  H326  1  0.966800  0.370800  0.282100  1.0  0.1146
  H  H327  1  0.783900  0.208700  0.272200  1.0  0.1115
  H  H328  1  0.735000  0.217700  0.217900  1.0  0.1082
  H  H329  1  0.640500  0.127000  0.122300  1.0  0.1304
  H  H330  1  0.561600  0.014900  0.061600  1.0  0.1112
  H  H331  1  0.591300  0.937400  0.076400  1.0  0.1375
  H  H332  1  0.678700  0.978200  0.184600  1.0  0.135
  H  H333  1  0.762600  0.088500  0.240300  1.0  0.1344
  H  H334  1  0.684600  0.966400  0.037200  1.0  0.1271
  H  H335  1  0.653800  0.863900  0.035800  1.0  0.1289
  H  H336  1  0.697600  0.805000  0.994500  1.0  0.08
  H  H337  1  0.758900  0.831100  0.949100  1.0  0.113
  H  H338  1  0.848500  0.983400  0.868300  1.0  0.0903
  H  H339  1  0.914200  0.993700  0.924000  1.0  0.0961
  H  H340  1  0.847600  0.078100  0.861800  1.0  0.1315
  H  H341  1  0.888300  0.192100  0.903300  1.0  0.1244
  H  H342  1  0.991600  0.267200  0.998200  1.0  0.1249
  H  H343  1  0.058200  0.227100  0.045200  1.0  0.1329
  H  H344  1  0.004000  0.117400  0.023400  1.0  0.1463
  C  C345  1  0.476000  0.601600  0.227300  1.0  0.0854
  C  C346  1  0.486500  0.637400  0.189400  1.0  -0.0267
  C  C347  1  0.402800  0.564200  0.202300  1.0  0.0225
  C  C348  1  0.519300  0.656600  0.303300  1.0  0.0766
  C  C349  1  0.498200  0.550000  0.216500  1.0  0.0629
  C  C350  1  0.395500  0.477300  0.977000  1.0  0.4116
  C  C351  1  0.445800  0.550700  0.008700  1.0  -0.0636
  C  C352  1  0.472100  0.604300  0.071000  1.0  0.3033
  C  C353  1  0.507500  0.670000  0.090200  1.0  -0.1697
  C  C354  1  0.519200  0.684800  0.045700  1.0  -0.081
  C  C355  1  0.501500  0.637800  0.985300  1.0  -0.0777
  C  C356  1  0.459700  0.576600  0.970400  1.0  -0.1108
  C  C357  1  0.325500  0.388200  0.981900  1.0  0.0409
  C  C358  1  0.290900  0.378800  0.024100  1.0  0.1027
  C  C359  1  0.318700  0.369800  0.077600  1.0  -0.1407
  C  C360  1  0.290100  0.368500  0.117400  1.0  -0.091
  C  C361  1  0.226500  0.359400  0.095600  1.0  -0.0631
  C  C362  1  0.193900  0.358400  0.037100  1.0  -0.0863
  C  C363  1  0.228300  0.373200  0.005000  1.0  -0.1104
  C  C364  1  0.356800  0.732800  0.278000  1.0  0.5324
  C  C365  1  0.308700  0.650700  0.247400  1.0  -0.0017
  C  C366  1  0.319300  0.599100  0.221200  1.0  0.3
  C  C367  1  0.273400  0.533500  0.191100  1.0  -0.11
  C  C368  1  0.212800  0.516000  0.187300  1.0  -0.0713
  C  C369  1  0.200100  0.563700  0.215300  1.0  -0.0548
  C  C370  1  0.246500  0.627900  0.238500  1.0  -0.0725
  C  C371  1  0.447700  0.816500  0.290300  1.0  -0.0482
  C  C372  1  0.495300  0.824000  0.260100  1.0  0.1228
  C  C373  1  0.557600  0.832000  0.293300  1.0  -0.1262
  C  C374  1  0.599200  0.838400  0.266600  1.0  -0.0865
  C  C375  1  0.583800  0.847100  0.211800  1.0  -0.086
  C  C376  1  0.524300  0.846500  0.182200  1.0  -0.1098
  C  C377  1  0.480300  0.833200  0.204700  1.0  -0.0847
  C  C378  1  0.728700  0.773800  0.351700  1.0  0.4909
  C  C379  1  0.693900  0.787800  0.394400  1.0  0.0034
  C  C380  1  0.630300  0.749600  0.383100  1.0  0.3406
  C  C381  1  0.614800  0.766500  0.432700  1.0  -0.1613
  C  C382  1  0.657700  0.826900  0.492300  1.0  -0.1022
  C  C383  1  0.718400  0.867700  0.501500  1.0  -0.0748
  C  C384  1  0.737500  0.845600  0.455900  1.0  -0.0891
  C  C385  1  0.724300  0.693900  0.259900  1.0  -0.0552
  C  C386  1  0.683700  0.618700  0.212500  1.0  0.1391
  C  C387  1  0.632400  0.596400  0.150800  1.0  -0.1731
  C  C388  1  0.595800  0.529700  0.104400  1.0  -0.0864
  C  C389  1  0.607900  0.483500  0.118400  1.0  -0.0971
  C  C390  1  0.668000  0.507000  0.174000  1.0  -0.1232
  C  C391  1  0.702600  0.573200  0.222000  1.0  -0.0952
  C  C392  1  0.434500  0.436500  0.311200  1.0  0.5579
  C  C393  1  0.458400  0.415200  0.258500  1.0  -0.0028
  C  C394  1  0.482800  0.448800  0.229300  1.0  0.2588
  C  C395  1  0.516000  0.436000  0.196300  1.0  -0.1346
  C  C396  1  0.517900  0.378400  0.180600  1.0  -0.0719
  C  C397  1  0.492700  0.344600  0.206300  1.0  -0.0816
  C  C398  1  0.464800  0.359800  0.243000  1.0  -0.1864
  C  C399  1  0.416700  0.507600  0.380300  1.0  0.0374
  C  C400  1  0.444800  0.588100  0.416000  1.0  0.0692
  C  C401  1  0.404200  0.609500  0.386000  1.0  -0.0763
  C  C402  1  0.426400  0.676400  0.412700  1.0  -0.0693
  C  C403  1  0.481600  0.720800  0.474500  1.0  -0.0863
  C  C404  1  0.513600  0.698200  0.512200  1.0  -0.0931
  C  C405  1  0.498000  0.632400  0.481100  1.0  -0.0413
  C  C406  1  0.227300  0.476000  0.601600  1.0  0.0858
  C  C407  1  0.189400  0.486500  0.637400  1.0  -0.0318
  C  C408  1  0.202300  0.402800  0.564200  1.0  0.0219
  C  C409  1  0.303300  0.519300  0.656600  1.0  0.0825
  C  C410  1  0.216500  0.498200  0.550000  1.0  0.0639
  C  C411  1  0.977000  0.395500  0.477300  1.0  0.4125
  C  C412  1  0.008700  0.445800  0.550700  1.0  -0.0644
  C  C413  1  0.071000  0.472100  0.604300  1.0  0.3033
  C  C414  1  0.090200  0.507500  0.670000  1.0  -0.1742
  C  C415  1  0.045700  0.519200  0.684800  1.0  -0.078
  C  C416  1  0.985300  0.501500  0.637800  1.0  -0.0784
  C  C417  1  0.970400  0.459700  0.576600  1.0  -0.1091
  C  C418  1  0.981900  0.325500  0.388200  1.0  0.0434
  C  C419  1  0.024100  0.290900  0.378800  1.0  0.1037
  C  C420  1  0.077600  0.318700  0.369800  1.0  -0.1333
  C  C421  1  0.117400  0.290100  0.368500  1.0  -0.0926
  C  C422  1  0.095600  0.226500  0.359400  1.0  -0.0675
  C  C423  1  0.037100  0.193900  0.358400  1.0  -0.0871
  C  C424  1  0.005000  0.228300  0.373200  1.0  -0.1129
  C  C425  1  0.278000  0.356800  0.732800  1.0  0.5335
  C  C426  1  0.247400  0.308700  0.650700  1.0  -0.0025
  C  C427  1  0.221200  0.319300  0.599100  1.0  0.2993
  C  C428  1  0.191100  0.273400  0.533500  1.0  -0.112
  C  C429  1  0.187300  0.212800  0.516000  1.0  -0.0653
  C  C430  1  0.215300  0.200100  0.563700  1.0  -0.0567
  C  C431  1  0.238500  0.246500  0.627900  1.0  -0.0717
  C  C432  1  0.290300  0.447700  0.816500  1.0  -0.0506
  C  C433  1  0.260100  0.495300  0.824000  1.0  0.1233
  C  C434  1  0.293300  0.557600  0.832000  1.0  -0.129
  C  C435  1  0.266600  0.599200  0.838400  1.0  -0.0855
  C  C436  1  0.211800  0.583800  0.847100  1.0  -0.0862
  C  C437  1  0.182200  0.524300  0.846500  1.0  -0.1091
  C  C438  1  0.204700  0.480300  0.833200  1.0  -0.0849
  C  C439  1  0.351700  0.728700  0.773800  1.0  0.4895
  C  C440  1  0.394400  0.693900  0.787800  1.0  -1e-04
  C  C441  1  0.383100  0.630300  0.749600  1.0  0.34
  C  C442  1  0.432700  0.614800  0.766500  1.0  -0.1601
  C  C443  1  0.492300  0.657700  0.826900  1.0  -0.1053
  C  C444  1  0.501500  0.718400  0.867700  1.0  -0.0775
  C  C445  1  0.455900  0.737500  0.845600  1.0  -0.0929
  C  C446  1  0.259900  0.724300  0.693900  1.0  -0.0526
  C  C447  1  0.212500  0.683700  0.618700  1.0  0.1382
  C  C448  1  0.150800  0.632400  0.596400  1.0  -0.1728
  C  C449  1  0.104400  0.595800  0.529700  1.0  -0.0883
  C  C450  1  0.118400  0.607900  0.483500  1.0  -0.1008
  C  C451  1  0.174000  0.668000  0.507000  1.0  -0.126
  C  C452  1  0.222000  0.702600  0.573200  1.0  -0.0997
  C  C453  1  0.311200  0.434500  0.436500  1.0  0.5619
  C  C454  1  0.258500  0.458400  0.415200  1.0  -0.0037
  C  C455  1  0.229300  0.482800  0.448800  1.0  0.2606
  C  C456  1  0.196300  0.516000  0.436000  1.0  -0.1342
  C  C457  1  0.180600  0.517900  0.378400  1.0  -0.0745
  C  C458  1  0.206300  0.492700  0.344600  1.0  -0.0823
  C  C459  1  0.243000  0.464800  0.359800  1.0  -0.1928
  C  C460  1  0.380300  0.416700  0.507600  1.0  0.0366
  C  C461  1  0.416000  0.444800  0.588100  1.0  0.0696
  C  C462  1  0.386000  0.404200  0.609500  1.0  -0.0725
  C  C463  1  0.412700  0.426400  0.676400  1.0  -0.0628
  C  C464  1  0.474500  0.481600  0.720800  1.0  -0.0823
  C  C465  1  0.512200  0.513600  0.698200  1.0  -0.0958
  C  C466  1  0.481100  0.498000  0.632400  1.0  -0.0462
  C  C467  1  0.601600  0.227300  0.476000  1.0  0.0865
  C  C468  1  0.637400  0.189400  0.486500  1.0  -0.0275
  C  C469  1  0.564200  0.202300  0.402800  1.0  0.0276
  C  C470  1  0.656600  0.303300  0.519300  1.0  0.0838
  C  C471  1  0.550000  0.216500  0.498200  1.0  0.06
  C  C472  1  0.477300  0.977000  0.395500  1.0  0.4125
  C  C473  1  0.550700  0.008700  0.445800  1.0  -0.0704
  C  C474  1  0.604300  0.071000  0.472100  1.0  0.3016
  C  C475  1  0.670000  0.090200  0.507500  1.0  -0.1724
  C  C476  1  0.684800  0.045700  0.519200  1.0  -0.0773
  C  C477  1  0.637800  0.985300  0.501500  1.0  -0.0778
  C  C478  1  0.576600  0.970400  0.459700  1.0  -0.1131
  C  C479  1  0.388200  0.981900  0.325500  1.0  0.0439
  C  C480  1  0.378800  0.024100  0.290900  1.0  0.103
  C  C481  1  0.369800  0.077600  0.318700  1.0  -0.1339
  C  C482  1  0.368500  0.117400  0.290100  1.0  -0.0945
  C  C483  1  0.359400  0.095600  0.226500  1.0  -0.0643
  C  C484  1  0.358400  0.037100  0.193900  1.0  -0.0873
  C  C485  1  0.373200  0.005000  0.228300  1.0  -0.113
  C  C486  1  0.732800  0.278000  0.356800  1.0  0.5347
  C  C487  1  0.650700  0.247400  0.308700  1.0  -0.0067
  C  C488  1  0.599100  0.221200  0.319300  1.0  0.3011
  C  C489  1  0.533500  0.191100  0.273400  1.0  -0.1085
  C  C490  1  0.516000  0.187300  0.212800  1.0  -0.0667
  C  C491  1  0.563700  0.215300  0.200100  1.0  -0.0542
  C  C492  1  0.627900  0.238500  0.246500  1.0  -0.0738
  C  C493  1  0.816500  0.290300  0.447700  1.0  -0.0504
  C  C494  1  0.824000  0.260100  0.495300  1.0  0.1254
  C  C495  1  0.832000  0.293300  0.557600  1.0  -0.1244
  C  C496  1  0.838400  0.266600  0.599200  1.0  -0.0825
  C  C497  1  0.847100  0.211800  0.583800  1.0  -0.0838
  C  C498  1  0.846500  0.182200  0.524300  1.0  -0.1083
  C  C499  1  0.833200  0.204700  0.480300  1.0  -0.093
  C  C500  1  0.773800  0.351700  0.728700  1.0  0.4922
  C  C501  1  0.787800  0.394400  0.693900  1.0  0.0022
  C  C502  1  0.749600  0.383100  0.630300  1.0  0.3404
  C  C503  1  0.766500  0.432700  0.614800  1.0  -0.1621
  C  C504  1  0.826900  0.492300  0.657700  1.0  -0.1003
  C  C505  1  0.867700  0.501500  0.718400  1.0  -0.0755
  C  C506  1  0.845600  0.455900  0.737500  1.0  -0.0888
  C  C507  1  0.693900  0.259900  0.724300  1.0  -0.0582
  C  C508  1  0.618700  0.212500  0.683700  1.0  0.1386
  C  C509  1  0.596400  0.150800  0.632400  1.0  -0.1776
  C  C510  1  0.529700  0.104400  0.595800  1.0  -0.0884
  C  C511  1  0.483500  0.118400  0.607900  1.0  -0.1013
  C  C512  1  0.507000  0.174000  0.668000  1.0  -0.1234
  C  C513  1  0.573200  0.222000  0.702600  1.0  -0.1006
  C  C514  1  0.436500  0.311200  0.434500  1.0  0.5621
  C  C515  1  0.415200  0.258500  0.458400  1.0  0.0017
  C  C516  1  0.448800  0.229300  0.482800  1.0  0.2601
  C  C517  1  0.436000  0.196300  0.516000  1.0  -0.1383
  C  C518  1  0.378400  0.180600  0.517900  1.0  -0.0729
  C  C519  1  0.344600  0.206300  0.492700  1.0  -0.0852
  C  C520  1  0.359800  0.243000  0.464800  1.0  -0.1919
  C  C521  1  0.507600  0.380300  0.416700  1.0  0.037
  C  C522  1  0.588100  0.416000  0.444800  1.0  0.0701
  C  C523  1  0.609500  0.386000  0.404200  1.0  -0.0782
  C  C524  1  0.676400  0.412700  0.426400  1.0  -0.0686
  C  C525  1  0.720800  0.474500  0.481600  1.0  -0.0816
  C  C526  1  0.698200  0.512200  0.513600  1.0  -0.0984
  C  C527  1  0.632400  0.481100  0.498000  1.0  -0.0433
  C  C528  1  0.101600  0.976000  0.727300  1.0  0.0853
  C  C529  1  0.137400  0.986500  0.689400  1.0  -0.0268
  C  C530  1  0.064200  0.902800  0.702300  1.0  0.0254
  C  C531  1  0.156600  0.019300  0.803300  1.0  0.0809
  C  C532  1  0.050000  0.998200  0.716500  1.0  0.0643
  C  C533  1  0.977300  0.895500  0.477000  1.0  0.411
  C  C534  1  0.050700  0.945800  0.508700  1.0  -0.0697
  C  C535  1  0.104300  0.972100  0.571000  1.0  0.3031
  C  C536  1  0.170000  0.007500  0.590200  1.0  -0.1726
  C  C537  1  0.184800  0.019200  0.545700  1.0  -0.0791
  C  C538  1  0.137800  0.001500  0.485300  1.0  -0.0773
  C  C539  1  0.076600  0.959700  0.470400  1.0  -0.112
  C  C540  1  0.888200  0.825500  0.481900  1.0  0.0437
  C  C541  1  0.878800  0.790900  0.524100  1.0  0.1028
  C  C542  1  0.869800  0.818700  0.577600  1.0  -0.1359
  C  C543  1  0.868500  0.790100  0.617400  1.0  -0.0916
  C  C544  1  0.859400  0.726500  0.595600  1.0  -0.0629
  C  C545  1  0.858400  0.693900  0.537100  1.0  -0.0886
  C  C546  1  0.873200  0.728300  0.505000  1.0  -0.1143
  C  C547  1  0.232800  0.856800  0.778000  1.0  0.5341
  C  C548  1  0.150700  0.808700  0.747400  1.0  -0.0037
  C  C549  1  0.099100  0.819300  0.721200  1.0  0.2994
  C  C550  1  0.033500  0.773400  0.691100  1.0  -0.1117
  C  C551  1  0.016000  0.712800  0.687300  1.0  -0.0682
  C  C552  1  0.063700  0.700100  0.715300  1.0  -0.0559
  C  C553  1  0.127900  0.746500  0.738500  1.0  -0.0742
  C  C554  1  0.316500  0.947700  0.790300  1.0  -0.0497
  C  C555  1  0.324000  0.995300  0.760100  1.0  0.1244
  C  C556  1  0.332000  0.057600  0.793300  1.0  -0.127
  C  C557  1  0.338400  0.099200  0.766600  1.0  -0.0849
  C  C558  1  0.347100  0.083800  0.711800  1.0  -0.0829
  C  C559  1  0.346500  0.024300  0.682200  1.0  -0.1075
  C  C560  1  0.333200  0.980300  0.704700  1.0  -0.089
  C  C561  1  0.273800  0.228700  0.851700  1.0  0.4918
  C  C562  1  0.287800  0.193900  0.894400  1.0  0.0043
  C  C563  1  0.249600  0.130300  0.883100  1.0  0.3405
  C  C564  1  0.266500  0.114800  0.932700  1.0  -0.1602
  C  C565  1  0.326900  0.157700  0.992300  1.0  -0.1001
  C  C566  1  0.367700  0.218400  0.001500  1.0  -0.0769
  C  C567  1  0.345600  0.237500  0.955900  1.0  -0.0912
  C  C568  1  0.193900  0.224300  0.759900  1.0  -0.0553
  C  C569  1  0.118700  0.183700  0.712500  1.0  0.1382
  C  C570  1  0.096400  0.132400  0.650800  1.0  -0.174
  C  C571  1  0.029700  0.095800  0.604400  1.0  -0.0887
  C  C572  1  0.983500  0.107900  0.618400  1.0  -0.101
  C  C573  1  0.007000  0.168000  0.674000  1.0  -0.1278
  C  C574  1  0.073200  0.202600  0.722000  1.0  -0.0979
  C  C575  1  0.936500  0.934500  0.811200  1.0  0.5599
  C  C576  1  0.915200  0.958400  0.758500  1.0  -1e-04
  C  C577  1  0.948800  0.982800  0.729300  1.0  0.2589
  C  C578  1  0.936000  0.016000  0.696300  1.0  -0.1362
  C  C579  1  0.878400  0.017900  0.680600  1.0  -0.0712
  C  C580  1  0.844600  0.992700  0.706300  1.0  -0.0863
  C  C581  1  0.859800  0.964800  0.743000  1.0  -0.1908
  C  C582  1  0.007600  0.916700  0.880300  1.0  0.0379
  C  C583  1  0.088100  0.944800  0.916000  1.0  0.0658
  C  C584  1  0.109500  0.904200  0.886000  1.0  -0.0797
  C  C585  1  0.176400  0.926400  0.912700  1.0  -0.0683
  C  C586  1  0.220800  0.981600  0.974500  1.0  -0.084
  C  C587  1  0.198200  0.013600  0.012200  1.0  -0.0914
  C  C588  1  0.132400  0.998000  0.981100  1.0  -0.0439
  C  C589  1  0.976000  0.727300  0.101600  1.0  0.0859
  C  C590  1  0.986500  0.689400  0.137400  1.0  -0.0288
  C  C591  1  0.902800  0.702300  0.064200  1.0  0.0178
  C  C592  1  0.019300  0.803300  0.156600  1.0  0.0825
  C  C593  1  0.998200  0.716500  0.050000  1.0  0.0635
  C  C594  1  0.895500  0.477000  0.977300  1.0  0.4133
  C  C595  1  0.945800  0.508700  0.050700  1.0  -0.0629
  C  C596  1  0.972100  0.571000  0.104300  1.0  0.3048
  C  C597  1  0.007500  0.590200  0.170000  1.0  -0.1689
  C  C598  1  0.019200  0.545700  0.184800  1.0  -0.0775
  C  C599  1  0.001500  0.485300  0.137800  1.0  -0.0773
  C  C600  1  0.959700  0.470400  0.076600  1.0  -0.1101
  C  C601  1  0.825500  0.481900  0.888200  1.0  0.0396
  C  C602  1  0.790900  0.524100  0.878800  1.0  0.1038
  C  C603  1  0.818700  0.577600  0.869800  1.0  -0.1333
  C  C604  1  0.790100  0.617400  0.868500  1.0  -0.0927
  C  C605  1  0.726500  0.595600  0.859400  1.0  -0.0679
  C  C606  1  0.693900  0.537100  0.858400  1.0  -0.0885
  C  C607  1  0.728300  0.505000  0.873200  1.0  -0.1125
  C  C608  1  0.856800  0.778000  0.232800  1.0  0.5326
  C  C609  1  0.808700  0.747400  0.150700  1.0  -0.0057
  C  C610  1  0.819300  0.721200  0.099100  1.0  0.3005
  C  C611  1  0.773400  0.691100  0.033500  1.0  -0.1119
  C  C612  1  0.712800  0.687300  0.016000  1.0  -0.0661
  C  C613  1  0.700100  0.715300  0.063700  1.0  -0.0564
  C  C614  1  0.746500  0.738500  0.127900  1.0  -0.0717
  C  C615  1  0.947700  0.790300  0.316500  1.0  -0.0486
  C  C616  1  0.995300  0.760100  0.324000  1.0  0.1223
  C  C617  1  0.057600  0.793300  0.332000  1.0  -0.1283
  C  C618  1  0.099200  0.766600  0.338400  1.0  -0.0869
  C  C619  1  0.083800  0.711800  0.347100  1.0  -0.0886
  C  C620  1  0.024300  0.682200  0.346500  1.0  -0.1078
  C  C621  1  0.980300  0.704700  0.333200  1.0  -0.0858
  C  C622  1  0.228700  0.851700  0.273800  1.0  0.4902
  C  C623  1  0.193900  0.894400  0.287800  1.0  0.003
  C  C624  1  0.130300  0.883100  0.249600  1.0  0.3392
  C  C625  1  0.114800  0.932700  0.266500  1.0  -0.1611
  C  C626  1  0.157700  0.992300  0.326900  1.0  -0.1029
  C  C627  1  0.218400  0.001500  0.367700  1.0  -0.0759
  C  C628  1  0.237500  0.955900  0.345600  1.0  -0.0936
  C  C629  1  0.224300  0.759900  0.193900  1.0  -0.0544
  C  C630  1  0.183700  0.712500  0.118700  1.0  0.139
  C  C631  1  0.132400  0.650800  0.096400  1.0  -0.175
  C  C632  1  0.095800  0.604400  0.029700  1.0  -0.0863
  C  C633  1  0.107900  0.618400  0.983500  1.0  -0.0971
  C  C634  1  0.168000  0.674000  0.007000  1.0  -0.1235
  C  C635  1  0.202600  0.722000  0.073200  1.0  -0.1011
  C  C636  1  0.934500  0.811200  0.936500  1.0  0.559
  C  C637  1  0.958400  0.758500  0.915200  1.0  -0.0023
  C  C638  1  0.982800  0.729300  0.948800  1.0  0.2599
  C  C639  1  0.016000  0.696300  0.936000  1.0  -0.137
  C  C640  1  0.017900  0.680600  0.878400  1.0  -0.0746
  C  C641  1  0.992700  0.706300  0.844600  1.0  -0.0799
  C  C642  1  0.964800  0.743000  0.859800  1.0  -0.1937
  C  C643  1  0.916700  0.880300  0.007600  1.0  0.0372
  C  C644  1  0.944800  0.916000  0.088100  1.0  0.0696
  C  C645  1  0.904200  0.886000  0.109500  1.0  -0.0779
  C  C646  1  0.926400  0.912700  0.176400  1.0  -0.0688
  C  C647  1  0.981600  0.974500  0.220800  1.0  -0.0802
  C  C648  1  0.013600  0.012200  0.198200  1.0  -0.098
  C  C649  1  0.998000  0.981100  0.132400  1.0  -0.0449
  C  C650  1  0.727300  0.101600  0.976000  1.0  0.0865
  C  C651  1  0.689400  0.137400  0.986500  1.0  -0.0274
  C  C652  1  0.702300  0.064200  0.902800  1.0  0.027
  C  C653  1  0.803300  0.156600  0.019300  1.0  0.0794
  C  C654  1  0.716500  0.050000  0.998200  1.0  0.061
  C  C655  1  0.477000  0.977300  0.895500  1.0  0.4122
  C  C656  1  0.508700  0.050700  0.945800  1.0  -0.0625
  C  C657  1  0.571000  0.104300  0.972100  1.0  0.3008
  C  C658  1  0.590200  0.170000  0.007500  1.0  -0.1706
  C  C659  1  0.545700  0.184800  0.019200  1.0  -0.0835
  C  C660  1  0.485300  0.137800  0.001500  1.0  -0.0781
  C  C661  1  0.470400  0.076600  0.959700  1.0  -0.1113
  C  C662  1  0.481900  0.888200  0.825500  1.0  0.0436
  C  C663  1  0.524100  0.878800  0.790900  1.0  0.1016
  C  C664  1  0.577600  0.869800  0.818700  1.0  -0.135
  C  C665  1  0.617400  0.868500  0.790100  1.0  -0.0939
  C  C666  1  0.595600  0.859400  0.726500  1.0  -0.0641
  C  C667  1  0.537100  0.858400  0.693900  1.0  -0.0856
  C  C668  1  0.505000  0.873200  0.728300  1.0  -0.1063
  C  C669  1  0.778000  0.232800  0.856800  1.0  0.5344
  C  C670  1  0.747400  0.150700  0.808700  1.0  -0.0025
  C  C671  1  0.721200  0.099100  0.819300  1.0  0.2999
  C  C672  1  0.691100  0.033500  0.773400  1.0  -0.1088
  C  C673  1  0.687300  0.016000  0.712800  1.0  -0.069
  C  C674  1  0.715300  0.063700  0.700100  1.0  -0.0537
  C  C675  1  0.738500  0.127900  0.746500  1.0  -0.0697
  C  C676  1  0.790300  0.316500  0.947700  1.0  -0.0504
  C  C677  1  0.760100  0.324000  0.995300  1.0  0.1236
  C  C678  1  0.793300  0.332000  0.057600  1.0  -0.1319
  C  C679  1  0.766600  0.338400  0.099200  1.0  -0.0862
  C  C680  1  0.711800  0.347100  0.083800  1.0  -0.0826
  C  C681  1  0.682200  0.346500  0.024300  1.0  -0.1116
  C  C682  1  0.704700  0.333200  0.980300  1.0  -0.0878
  C  C683  1  0.851700  0.273800  0.228700  1.0  0.4908
  C  C684  1  0.894400  0.287800  0.193900  1.0  0.0018
  C  C685  1  0.883100  0.249600  0.130300  1.0  0.3404
  C  C686  1  0.932700  0.266500  0.114800  1.0  -0.1594
  C  C687  1  0.992300  0.326900  0.157700  1.0  -0.1015
  C  C688  1  0.001500  0.367700  0.218400  1.0  -0.0775
  C  C689  1  0.955900  0.345600  0.237500  1.0  -0.0886
  C  C690  1  0.759900  0.193900  0.224300  1.0  -0.0544
  C  C691  1  0.712500  0.118700  0.183700  1.0  0.1385
  C  C692  1  0.650800  0.096400  0.132400  1.0  -0.1749
  C  C693  1  0.604400  0.029700  0.095800  1.0  -0.0894
  C  C694  1  0.618400  0.983500  0.107900  1.0  -0.1004
  C  C695  1  0.674000  0.007000  0.168000  1.0  -0.1232
  C  C696  1  0.722000  0.073200  0.202600  1.0  -0.097
  C  C697  1  0.811200  0.936500  0.934500  1.0  0.5608
  C  C698  1  0.758500  0.915200  0.958400  1.0  0.0025
  C  C699  1  0.729300  0.948800  0.982800  1.0  0.2622
  C  C700  1  0.696300  0.936000  0.016000  1.0  -0.1379
  C  C701  1  0.680600  0.878400  0.017900  1.0  -0.0738
  C  C702  1  0.706300  0.844600  0.992700  1.0  -0.0793
  C  C703  1  0.743000  0.859800  0.964800  1.0  -0.1901
  C  C704  1  0.880300  0.007600  0.916700  1.0  0.0372
  C  C705  1  0.916000  0.088100  0.944800  1.0  0.0702
  C  C706  1  0.886000  0.109500  0.904200  1.0  -0.076
  C  C707  1  0.912700  0.176400  0.926400  1.0  -0.0679
  C  C708  1  0.974500  0.220800  0.981600  1.0  -0.0817
  C  C709  1  0.012200  0.198200  0.013600  1.0  -0.0954
  C  C710  1  0.981100  0.132400  0.998000  1.0  -0.0402
  N  N711  1  0.355000  0.449800  0.999100  1.0  -0.3548
  N  N712  1  0.395400  0.744600  0.248600  1.0  -0.3501
  N  N713  1  0.699000  0.707400  0.308000  1.0  -0.3803
  N  N714  1  0.449100  0.493000  0.347500  1.0  -0.4481
  N  N715  1  0.508600  0.466300  0.873100  1.0  0.8014
  N  N716  1  0.392700  0.262400  0.736300  1.0  0.856
  N  N717  1  0.482700  0.327800  0.943900  1.0  0.8349
  N  N718  1  0.194900  0.310500  0.221400  1.0  0.8388
  N  N719  1  0.999100  0.355000  0.449800  1.0  -0.3546
  N  N720  1  0.248600  0.395400  0.744600  1.0  -0.3509
  N  N721  1  0.308000  0.699000  0.707400  1.0  -0.3791
  N  N722  1  0.347500  0.449100  0.493000  1.0  -0.4496
  N  N723  1  0.873100  0.508600  0.466300  1.0  0.8034
  N  N724  1  0.736300  0.392700  0.262400  1.0  0.8551
  N  N725  1  0.943900  0.482700  0.327800  1.0  0.8375
  N  N726  1  0.221400  0.194900  0.310500  1.0  0.8398
  N  N727  1  0.449800  0.999100  0.355000  1.0  -0.353
  N  N728  1  0.744600  0.248600  0.395400  1.0  -0.3518
  N  N729  1  0.707400  0.308000  0.699000  1.0  -0.3812
  N  N730  1  0.493000  0.347500  0.449100  1.0  -0.4509
  N  N731  1  0.466300  0.873100  0.508600  1.0  0.8049
  N  N732  1  0.262400  0.736300  0.392700  1.0  0.8536
  N  N733  1  0.327800  0.943900  0.482700  1.0  0.8352
  N  N734  1  0.310500  0.221400  0.194900  1.0  0.8395
  N  N735  1  0.949800  0.855000  0.499100  1.0  -0.3542
  N  N736  1  0.244600  0.895400  0.748600  1.0  -0.3513
  N  N737  1  0.207400  0.199000  0.808000  1.0  -0.3806
  N  N738  1  0.993000  0.949100  0.847500  1.0  -0.4491
  N  N739  1  0.966300  0.008600  0.373100  1.0  0.8041
  N  N740  1  0.762400  0.892700  0.236300  1.0  0.8541
  N  N741  1  0.827800  0.982700  0.443900  1.0  0.8365
  N  N742  1  0.810500  0.694900  0.721400  1.0  0.8403
  N  N743  1  0.855000  0.499100  0.949800  1.0  -0.3531
  N  N744  1  0.895400  0.748600  0.244600  1.0  -0.351
  N  N745  1  0.199000  0.808000  0.207400  1.0  -0.3816
  N  N746  1  0.949100  0.847500  0.993000  1.0  -0.4504
  N  N747  1  0.008600  0.373100  0.966300  1.0  0.8024
  N  N748  1  0.892700  0.236300  0.762400  1.0  0.8541
  N  N749  1  0.982700  0.443900  0.827800  1.0  0.8359
  N  N750  1  0.694900  0.721400  0.810500  1.0  0.8391
  N  N751  1  0.499100  0.949800  0.855000  1.0  -0.3539
  N  N752  1  0.748600  0.244600  0.895400  1.0  -0.3505
  N  N753  1  0.808000  0.207400  0.199000  1.0  -0.3791
  N  N754  1  0.847500  0.993000  0.949100  1.0  -0.4493
  N  N755  1  0.373100  0.966300  0.008600  1.0  0.8052
  N  N756  1  0.236300  0.762400  0.892700  1.0  0.8544
  N  N757  1  0.443900  0.827800  0.982700  1.0  0.8344
  N  N758  1  0.721400  0.810500  0.694900  1.0  0.8411
  O  O759  1  0.455300  0.583600  0.113900  1.0  -0.3888
  O  O760  1  0.383600  0.619900  0.225800  1.0  -0.3412
  O  O761  1  0.589200  0.690800  0.322800  1.0  -0.2493
  O  O762  1  0.480400  0.511700  0.246800  1.0  -0.2775
  O  O763  1  0.395200  0.432500  0.930000  1.0  -0.6819
  O  O764  1  0.348200  0.772700  0.314200  1.0  -0.6098
  O  O765  1  0.777800  0.818800  0.356300  1.0  -0.6332
  O  O766  1  0.390300  0.385100  0.307200  1.0  -0.6555
  O  O767  1  0.519700  0.439600  0.909400  1.0  -0.6049
  O  O768  1  0.447400  0.450200  0.837300  1.0  -0.6453
  O  O769  1  0.554400  0.519900  0.886200  1.0  -0.4393
  O  O770  1  0.352500  0.240900  0.755400  1.0  -0.586
  O  O771  1  0.437700  0.324800  0.770200  1.0  -0.6232
  O  O772  1  0.393200  0.222300  0.687400  1.0  -0.5649
  O  O773  1  0.461900  0.295700  0.881300  1.0  -0.6277
  O  O774  1  0.460600  0.366400  0.964300  1.0  -0.5967
  O  O775  1  0.522500  0.319800  0.984700  1.0  -0.5436
  O  O776  1  0.255200  0.352700  0.242500  1.0  -0.6046
  O  O777  1  0.185000  0.267700  0.241100  1.0  -0.597
  O  O778  1  0.148500  0.321500  0.194400  1.0  -0.4749
  O  O779  1  0.113900  0.455300  0.583600  1.0  -0.3881
  O  O780  1  0.225800  0.383600  0.619900  1.0  -0.3422
  O  O781  1  0.322800  0.589200  0.690800  1.0  -0.2502
  O  O782  1  0.246800  0.480400  0.511700  1.0  -0.2806
  O  O783  1  0.930000  0.395200  0.432500  1.0  -0.6808
  O  O784  1  0.314200  0.348200  0.772700  1.0  -0.6088
  O  O785  1  0.356300  0.777800  0.818800  1.0  -0.6336
  O  O786  1  0.307200  0.390300  0.385100  1.0  -0.6582
  O  O787  1  0.909400  0.519700  0.439600  1.0  -0.6085
  O  O788  1  0.837300  0.447400  0.450200  1.0  -0.6455
  O  O789  1  0.886200  0.554400  0.519900  1.0  -0.4364
  O  O790  1  0.755400  0.352500  0.240900  1.0  -0.5822
  O  O791  1  0.770200  0.437700  0.324800  1.0  -0.6256
  O  O792  1  0.687400  0.393200  0.222300  1.0  -0.5608
  O  O793  1  0.881300  0.461900  0.295700  1.0  -0.6299
  O  O794  1  0.964300  0.460600  0.366400  1.0  -0.5971
  O  O795  1  0.984700  0.522500  0.319800  1.0  -0.5451
  O  O796  1  0.242500  0.255200  0.352700  1.0  -0.6048
  O  O797  1  0.241100  0.185000  0.267700  1.0  -0.599
  O  O798  1  0.194400  0.148500  0.321500  1.0  -0.4721
  O  O799  1  0.583600  0.113900  0.455300  1.0  -0.3917
  O  O800  1  0.619900  0.225800  0.383600  1.0  -0.3417
  O  O801  1  0.690800  0.322800  0.589200  1.0  -0.2524
  O  O802  1  0.511700  0.246800  0.480400  1.0  -0.2768
  O  O803  1  0.432500  0.930000  0.395200  1.0  -0.6825
  O  O804  1  0.772700  0.314200  0.348200  1.0  -0.6091
  O  O805  1  0.818800  0.356300  0.777800  1.0  -0.6323
  O  O806  1  0.385100  0.307200  0.390300  1.0  -0.6566
  O  O807  1  0.439600  0.909400  0.519700  1.0  -0.6074
  O  O808  1  0.450200  0.837300  0.447400  1.0  -0.6475
  O  O809  1  0.519900  0.886200  0.554400  1.0  -0.4388
  O  O810  1  0.240900  0.755400  0.352500  1.0  -0.5836
  O  O811  1  0.324800  0.770200  0.437700  1.0  -0.6265
  O  O812  1  0.222300  0.687400  0.393200  1.0  -0.5619
  O  O813  1  0.295700  0.881300  0.461900  1.0  -0.6316
  O  O814  1  0.366400  0.964300  0.460600  1.0  -0.596
  O  O815  1  0.319800  0.984700  0.522500  1.0  -0.5393
  O  O816  1  0.352700  0.242500  0.255200  1.0  -0.6051
  O  O817  1  0.267700  0.241100  0.185000  1.0  -0.5989
  O  O818  1  0.321500  0.194400  0.148500  1.0  -0.4733
  O  O819  1  0.083600  0.955300  0.613900  1.0  -0.3903
  O  O820  1  0.119900  0.883600  0.725800  1.0  -0.3411
  O  O821  1  0.190800  0.089200  0.822800  1.0  -0.2516
  O  O822  1  0.011700  0.980400  0.746800  1.0  -0.277
  O  O823  1  0.932500  0.895200  0.430000  1.0  -0.68
  O  O824  1  0.272700  0.848200  0.814200  1.0  -0.6092
  O  O825  1  0.318800  0.277800  0.856300  1.0  -0.6333
  O  O826  1  0.885100  0.890300  0.807200  1.0  -0.6576
  O  O827  1  0.939600  0.019700  0.409400  1.0  -0.6088
  O  O828  1  0.950200  0.947400  0.337300  1.0  -0.6474
  O  O829  1  0.019900  0.054400  0.386200  1.0  -0.4384
  O  O830  1  0.740900  0.852500  0.255400  1.0  -0.5841
  O  O831  1  0.824800  0.937700  0.270200  1.0  -0.6254
  O  O832  1  0.722300  0.893200  0.187400  1.0  -0.5636
  O  O833  1  0.795700  0.961900  0.381300  1.0  -0.6261
  O  O834  1  0.866400  0.960600  0.464300  1.0  -0.5961
  O  O835  1  0.819800  0.022500  0.484700  1.0  -0.5409
  O  O836  1  0.852700  0.755200  0.742500  1.0  -0.6056
  O  O837  1  0.767700  0.685000  0.741100  1.0  -0.5984
  O  O838  1  0.821500  0.648500  0.694400  1.0  -0.4701
  O  O839  1  0.955300  0.613900  0.083600  1.0  -0.3897
  O  O840  1  0.883600  0.725800  0.119900  1.0  -0.3409
  O  O841  1  0.089200  0.822800  0.190800  1.0  -0.2507
  O  O842  1  0.980400  0.746800  0.011700  1.0  -0.2777
  O  O843  1  0.895200  0.430000  0.932500  1.0  -0.6811
  O  O844  1  0.848200  0.814200  0.272700  1.0  -0.6101
  O  O845  1  0.277800  0.856300  0.318800  1.0  -0.6327
  O  O846  1  0.890300  0.807200  0.885100  1.0  -0.6553
  O  O847  1  0.019700  0.409400  0.939600  1.0  -0.6051
  O  O848  1  0.947400  0.337300  0.950200  1.0  -0.6453
  O  O849  1  0.054400  0.386200  0.019900  1.0  -0.4376
  O  O850  1  0.852500  0.255400  0.740900  1.0  -0.584
  O  O851  1  0.937700  0.270200  0.824800  1.0  -0.6229
  O  O852  1  0.893200  0.187400  0.722300  1.0  -0.5617
  O  O853  1  0.961900  0.381300  0.795700  1.0  -0.6327
  O  O854  1  0.960600  0.464300  0.866400  1.0  -0.598
  O  O855  1  0.022500  0.484700  0.819800  1.0  -0.5456
  O  O856  1  0.755200  0.742500  0.852700  1.0  -0.6044
  O  O857  1  0.685000  0.741100  0.767700  1.0  -0.5938
  O  O858  1  0.648500  0.694400  0.821500  1.0  -0.4725
  O  O859  1  0.613900  0.083600  0.955300  1.0  -0.3881
  O  O860  1  0.725800  0.119900  0.883600  1.0  -0.3422
  O  O861  1  0.822800  0.190800  0.089200  1.0  -0.2516
  O  O862  1  0.746800  0.011700  0.980400  1.0  -0.275
  O  O863  1  0.430000  0.932500  0.895200  1.0  -0.6815
  O  O864  1  0.814200  0.272700  0.848200  1.0  -0.6086
  O  O865  1  0.856300  0.318800  0.277800  1.0  -0.6327
  O  O866  1  0.807200  0.885100  0.890300  1.0  -0.6562
  O  O867  1  0.409400  0.939600  0.019700  1.0  -0.6077
  O  O868  1  0.337300  0.950200  0.947400  1.0  -0.6469
  O  O869  1  0.386200  0.019900  0.054400  1.0  -0.4393
  O  O870  1  0.255400  0.740900  0.852500  1.0  -0.5846
  O  O871  1  0.270200  0.824800  0.937700  1.0  -0.6275
  O  O872  1  0.187400  0.722300  0.893200  1.0  -0.5615
  O  O873  1  0.381300  0.795700  0.961900  1.0  -0.631
  O  O874  1  0.464300  0.866400  0.960600  1.0  -0.5963
  O  O875  1  0.484700  0.819800  0.022500  1.0  -0.5435
  O  O876  1  0.742500  0.852700  0.755200  1.0  -0.6054
  O  O877  1  0.741100  0.767700  0.685000  1.0  -0.599
  O  O878  1  0.694400  0.821500  0.648500  1.0  -0.4702
