# generated using pymatgen
data_Cu11P2H228W18C152(N57O23)2
_symmetry_space_group_name_H-M   'P 1'
_cell_length_a   21.86300000
_cell_length_b   26.74550000
_cell_length_c   36.74100000
_cell_angle_alpha   109.61700000
_cell_angle_beta   90.00000000
_cell_angle_gamma   114.12500000
_symmetry_Int_Tables_number   1
_chemical_formula_structural   Cu11P2H228W18C152(N57O23)2
_chemical_formula_sum   'Cu22 P4 H456 W36 C304 N228 O92'
_cell_volume   18232.47766424
_cell_formula_units_Z   2
loop_
 _symmetry_equiv_pos_site_id
 _symmetry_equiv_pos_as_xyz
  1  'x, y, z'
loop_
 _atom_site_type_symbol
 _atom_site_label
 _atom_site_symmetry_multiplicity
 _atom_site_fract_x
 _atom_site_fract_y
 _atom_site_fract_z
 _atom_site_occupancy
 _atom_site_charge
  Cu  Cu1  1  0.157140  0.843240  0.334660  1.0  0.5097
  Cu  Cu2  1  0.842860  0.156760  0.665340  1.0  0.51
  Cu  Cu3  1  0.220590  0.813240  0.525120  1.0  0.5039
  Cu  Cu4  1  0.686100  0.843240  0.834660  1.0  0.5098
  Cu  Cu5  1  0.690130  0.835880  0.607660  1.0  0.3252
  Cu  Cu6  1  0.849810  0.160080  0.193560  1.0  0.7553
  Cu  Cu7  1  0.518170  0.498800  0.218010  1.0  0.4549
  Cu  Cu8  1  0.309870  0.164120  0.392340  1.0  0.3225
  Cu  Cu9  1  0.000000  0.500000  0.000000  1.0  0.4911
  Cu  Cu10  1  0.150190  0.839920  0.806440  1.0  0.7541
  Cu  Cu11  1  0.019370  0.501200  0.281990  1.0  0.4546
  Cu  Cu12  1  0.980630  0.498800  0.718010  1.0  0.455
  Cu  Cu13  1  0.592650  0.813240  0.025120  1.0  0.5036
  Cu  Cu14  1  0.500000  0.500000  0.500000  1.0  0.4911
  Cu  Cu15  1  0.145750  0.835880  0.107660  1.0  0.3237
  Cu  Cu16  1  0.313900  0.156760  0.165340  1.0  0.5098
  Cu  Cu17  1  0.310270  0.160080  0.693560  1.0  0.7542
  Cu  Cu18  1  0.779410  0.186760  0.474880  1.0  0.5036
  Cu  Cu19  1  0.689730  0.839920  0.306440  1.0  0.7551
  Cu  Cu20  1  0.407350  0.186760  0.974880  1.0  0.5042
  Cu  Cu21  1  0.854250  0.164120  0.892340  1.0  0.3225
  Cu  Cu22  1  0.481830  0.501200  0.781990  1.0  0.4547
  P  P23  1  0.495710  0.986620  0.693440  1.0  1.6191
  P  P24  1  0.509090  0.013380  0.806560  1.0  1.6195
  P  P25  1  0.490910  0.986620  0.193440  1.0  1.6187
  P  P26  1  0.504290  0.013380  0.306560  1.0  1.6191
  H  H27  1  0.654300  0.584600  0.199100  1.0  0.0538
  H  H28  1  0.288100  0.028400  0.102800  1.0  0.0555
  H  H29  1  0.718800  0.319400  0.809500  1.0  0.0729
  H  H30  1  0.603600  0.395400  0.612400  1.0  0.0717
  H  H31  1  0.280500  0.668000  0.758100  1.0  0.0785
  H  H32  1  0.385900  0.467400  0.356600  1.0  0.05
  H  H33  1  0.153900  0.129400  0.405000  1.0  0.0943
  H  H34  1  0.837700  0.351000  0.155500  1.0  0.0573
  H  H35  1  0.156200  0.717000  0.897100  1.0  0.0659
  H  H36  1  0.815700  0.921200  0.164400  1.0  0.0791
  H  H37  1  0.184300  0.078800  0.835600  1.0  0.079
  H  H38  1  0.439200  0.283000  0.602900  1.0  0.0648
  H  H39  1  0.964900  0.572200  0.579600  1.0  0.0828
  H  H40  1  0.489300  0.028200  0.975600  1.0  0.0774
  H  H41  1  0.663400  0.647800  0.693800  1.0  0.0885
  H  H42  1  0.069700  0.415400  0.300900  1.0  0.054
  H  H43  1  0.384700  0.836600  0.426900  1.0  0.0858
  H  H44  1  0.533200  0.669800  0.994800  1.0  0.0882
  H  H45  1  0.902200  0.013200  0.361900  1.0  0.0605
  H  H46  1  0.930300  0.584600  0.699100  1.0  0.0543
  H  H47  1  0.430700  0.738000  0.899800  1.0  0.0743
  H  H48  1  0.895500  0.562000  0.182300  1.0  0.0645
  H  H49  1  0.611000  0.030400  0.007900  1.0  0.0896
  H  H50  1  0.778200  0.960600  0.675100  1.0  0.0695
  H  H51  1  0.255300  0.259600  0.392200  1.0  0.0753
  H  H52  1  0.865500  0.944800  0.978100  1.0  0.0661
  H  H53  1  0.050000  0.866800  0.630700  1.0  0.0744
  H  H54  1  0.134500  0.055200  0.021900  1.0  0.0651
  H  H55  1  0.916900  0.440600  0.409500  1.0  0.057
  H  H56  1  0.092500  0.986200  0.938700  1.0  0.0865
  H  H57  1  0.162300  0.649000  0.844500  1.0  0.0568
  H  H58  1  0.776200  0.183200  0.265800  1.0  0.106
  H  H59  1  0.104700  0.814800  0.578100  1.0  0.0851
  H  H60  1  0.753000  0.209800  0.720800  1.0  0.0877
  H  H61  1  0.335500  0.057800  0.912300  1.0  0.0803
  H  H62  1  0.030300  0.090600  0.726400  1.0  0.0579
  H  H63  1  0.532100  0.893200  0.011800  1.0  0.1
  H  H64  1  0.463400  0.217800  0.903900  1.0  0.0657
  H  H65  1  0.413300  0.546400  0.202800  1.0  0.0837
  H  H66  1  0.816600  0.030600  0.186800  1.0  0.0844
  H  H67  1  0.423300  0.689400  0.751400  1.0  0.0722
  H  H68  1  0.785500  0.694000  0.650500  1.0  0.089
  H  H69  1  0.979100  0.062400  0.791600  1.0  0.0647
  H  H70  1  0.324600  0.385600  0.384900  1.0  0.0837
  H  H71  1  0.835400  0.417800  0.457500  1.0  0.1013
  H  H72  1  0.990400  0.042200  0.327500  1.0  0.0679
  H  H73  1  0.392700  0.427800  0.920400  1.0  0.0819
  H  H74  1  0.693200  0.291600  0.287500  1.0  0.0676
  H  H75  1  0.336700  0.637800  0.804200  1.0  0.0907
  H  H76  1  0.428500  0.367200  0.719900  1.0  0.0758
  H  H77  1  0.472700  0.723800  0.233400  1.0  0.0644
  H  H78  1  0.945600  0.064600  0.401100  1.0  0.0638
  H  H79  1  0.978700  0.837800  0.204500  1.0  0.0767
  H  H80  1  0.360100  0.486400  0.458500  1.0  0.0883
  H  H81  1  0.167100  0.063400  0.520400  1.0  0.0601
  H  H82  1  0.017400  0.025200  0.223700  1.0  0.0777
  H  H83  1  0.639900  0.513600  0.541500  1.0  0.0883
  H  H84  1  0.793300  0.793400  0.805900  1.0  0.0597
  H  H85  1  0.576700  0.310600  0.248600  1.0  0.0732
  H  H86  1  0.053700  0.993000  0.497300  1.0  0.0698
  H  H87  1  0.011400  0.986400  0.354800  1.0  0.082
  H  H88  1  0.061000  0.385600  0.884900  1.0  0.0824
  H  H89  1  0.503800  0.288000  0.340900  1.0  0.0827
  H  H90  1  0.466800  0.330200  0.005200  1.0  0.0874
  H  H91  1  0.948200  0.957800  0.172500  1.0  0.0668
  H  H92  1  0.361100  0.893200  0.511800  1.0  0.1002
  H  H93  1  0.336600  0.352200  0.306200  1.0  0.0869
  H  H94  1  0.100800  0.534000  0.218200  1.0  0.0664
  H  H95  1  0.868500  0.345600  0.073300  1.0  0.0406
  H  H96  1  0.733900  0.310600  0.748600  1.0  0.0719
  H  H97  1  0.259700  0.971600  0.397200  1.0  0.0557
  H  H98  1  0.462100  0.635000  0.173000  1.0  0.0843
  H  H99  1  0.638900  0.106800  0.488200  1.0  0.0995
  H  H100  1  0.073200  0.958400  0.044100  1.0  0.087
  H  H101  1  0.822700  0.013200  0.002900  1.0  0.0609
  H  H102  1  0.290400  0.097800  0.009400  1.0  0.0678
  H  H103  1  0.048100  0.983800  0.435400  1.0  0.0704
  H  H104  1  0.938700  0.367200  0.219900  1.0  0.0768
  H  H105  1  0.455400  0.137000  0.147000  1.0  0.0943
  H  H106  1  0.519900  0.679000  0.679800  1.0  0.0561
  H  H107  1  0.172900  0.635000  0.673000  1.0  0.0849
  H  H108  1  0.681600  0.137000  0.647000  1.0  0.0944
  H  H109  1  0.975500  0.129400  0.905000  1.0  0.0941
  H  H110  1  0.893700  0.986200  0.438700  1.0  0.0862
  H  H111  1  0.945500  0.137400  0.802900  1.0  0.0671
  H  H112  1  0.764800  0.258400  0.090900  1.0  0.0612
  H  H113  1  0.103700  0.936600  0.979600  1.0  0.0586
  H  H114  1  0.709600  0.902200  0.990600  1.0  0.0682
  H  H115  1  0.754400  0.217800  0.403900  1.0  0.0661
  H  H116  1  0.284800  0.816200  0.809900  1.0  0.0706
  H  H117  1  0.967700  0.899600  0.636600  1.0  0.0671
  H  H118  1  0.300200  0.733400  0.331800  1.0  0.0664
  H  H119  1  0.527400  0.479200  0.977300  1.0  0.0602
  H  H120  1  0.795300  0.334600  0.058200  1.0  0.0565
  H  H121  1  0.468600  0.183800  0.690100  1.0  0.0709
  H  H122  1  0.527200  0.699800  0.142400  1.0  0.0699
  H  H123  1  0.974100  0.170200  0.243200  1.0  0.0711
  H  H124  1  0.985800  0.380800  0.842200  1.0  0.0512
  H  H125  1  0.791800  0.395400  0.112400  1.0  0.0708
  H  H126  1  0.566800  0.266600  0.168200  1.0  0.0677
  H  H127  1  0.307300  0.738000  0.399800  1.0  0.0739
  H  H128  1  0.803900  0.829800  0.256800  1.0  0.0733
  H  H129  1  0.015600  0.352200  0.806200  1.0  0.0861
  H  H130  1  0.513300  0.351000  0.655500  1.0  0.0576
  H  H131  1  0.539600  0.593800  0.461500  1.0  0.0678
  H  H132  1  0.535500  0.260600  0.289000  1.0  0.0804
  H  H133  1  0.174200  0.093200  0.627200  1.0  0.0912
  H  H134  1  0.057100  0.304200  0.811500  1.0  0.0896
  H  H135  1  0.266100  0.689400  0.251400  1.0  0.0727
  H  H136  1  0.843800  0.283000  0.102900  1.0  0.0651
  H  H137  1  0.166500  0.590800  0.146700  1.0  0.0916
  H  H138  1  0.950000  0.133200  0.369300  1.0  0.076
  H  H139  1  0.257700  0.617400  0.716700  1.0  0.0815
  H  H140  1  0.719500  0.332000  0.241900  1.0  0.0789
  H  H141  1  0.914600  0.941600  0.217200  1.0  0.0701
  H  H142  1  0.121900  0.754000  0.851800  1.0  0.0954
  H  H143  1  0.201000  0.636600  0.223500  1.0  0.0748
  H  H144  1  0.506400  0.741600  0.409100  1.0  0.0589
  H  H145  1  0.582100  0.989000  0.964100  1.0  0.0933
  H  H146  1  0.561300  0.425200  0.998900  1.0  0.0892
  H  H147  1  0.908500  0.694000  0.150500  1.0  0.0907
  H  H148  1  0.951900  0.016200  0.564600  1.0  0.0713
  H  H149  1  0.663300  0.362200  0.195800  1.0  0.0898
  H  H150  1  0.935700  0.983800  0.935400  1.0  0.0713
  H  H151  1  0.258600  0.911200  0.883800  1.0  0.0733
  H  H152  1  0.396000  0.623200  0.627600  1.0  0.0912
  H  H153  1  0.183200  0.133200  0.869300  1.0  0.0756
  H  H154  1  0.508900  0.749200  0.170100  1.0  0.0801
  H  H155  1  0.037100  0.629200  0.057600  1.0  0.0424
  H  H156  1  0.856500  0.100400  0.731600  1.0  0.1159
  H  H157  1  0.460700  0.665400  0.441800  1.0  0.056
  H  H158  1  0.833500  0.409200  0.853300  1.0  0.0915
  H  H159  1  0.881600  0.956400  0.744500  1.0  0.0745
  H  H160  1  0.389000  0.969600  0.992100  1.0  0.089
  H  H161  1  0.583600  0.344800  0.845700  1.0  0.0809
  H  H162  1  0.761800  0.328600  0.139000  1.0  0.0678
  H  H163  1  0.345700  0.415400  0.800900  1.0  0.0539
  H  H164  1  0.289900  0.185200  0.921900  1.0  0.0856
  H  H165  1  0.942900  0.695800  0.188500  1.0  0.09
  H  H166  1  0.048200  0.520800  0.522700  1.0  0.0614
  H  H167  1  0.417900  0.011000  0.035900  1.0  0.0911
  H  H168  1  0.433200  0.671400  0.361000  1.0  0.068
  H  H169  1  0.715200  0.183800  0.190100  1.0  0.0708
  H  H170  1  0.699800  0.266600  0.668200  1.0  0.0671
  H  H171  1  0.078800  0.618000  0.593900  1.0  0.0574
  H  H172  1  0.024500  0.870600  0.095000  1.0  0.0935
  H  H173  1  0.131500  0.654400  0.926700  1.0  0.0457
  H  H174  1  0.235200  0.741600  0.909100  1.0  0.0598
  H  H175  1  0.918500  0.532600  0.143400  1.0  0.0493
  H  H176  1  0.772800  0.376800  0.872400  1.0  0.0922
  H  H177  1  0.133100  0.546400  0.702800  1.0  0.0836
  H  H178  1  0.665700  0.709200  0.240800  1.0  0.0761
  H  H179  1  0.461100  0.971800  0.524400  1.0  0.0772
  H  H180  1  0.472800  0.300200  0.857600  1.0  0.0715
  H  H181  1  0.247100  0.304200  0.311500  1.0  0.0892
  H  H182  1  0.032300  0.100400  0.363400  1.0  0.071
  H  H183  1  0.607300  0.572200  0.079600  1.0  0.0814
  H  H184  1  0.522900  0.654400  0.426700  1.0  0.0413
  H  H185  1  0.014200  0.619200  0.157800  1.0  0.0502
  H  H186  1  0.301100  0.637800  0.304200  1.0  0.0899
  H  H187  1  0.437800  0.357200  0.166600  1.0  0.1124
  H  H188  1  0.827100  0.365000  0.327000  1.0  0.0832
  H  H189  1  0.614100  0.532600  0.643400  1.0  0.0498
  H  H190  1  0.068100  0.100400  0.863400  1.0  0.0701
  H  H191  1  0.575700  0.409200  0.353300  1.0  0.0914
  H  H192  1  0.919000  0.093200  0.127200  1.0  0.0907
  H  H193  1  0.359300  0.727600  0.831900  1.0  0.0735
  H  H194  1  0.007800  0.025200  0.723700  1.0  0.0777
  H  H195  1  0.238200  0.671400  0.861000  1.0  0.0686
  H  H196  1  0.060700  0.007000  0.002700  1.0  0.0705
  H  H197  1  0.043500  0.709200  0.740800  1.0  0.0756
  H  H198  1  0.306800  0.708400  0.712500  1.0  0.072
  H  H199  1  0.060300  0.090600  0.226400  1.0  0.0576
  H  H200  1  0.208200  0.604600  0.887600  1.0  0.0697
  H  H201  1  0.537900  0.365000  0.827000  1.0  0.0843
  H  H202  1  0.491100  0.250800  0.829900  1.0  0.0809
  H  H203  1  0.761200  0.344800  0.345700  1.0  0.0815
  H  H204  1  0.277700  0.942200  0.587700  1.0  0.0799
  H  H205  1  0.433200  0.733400  0.831800  1.0  0.0669
  H  H206  1  0.545600  0.509800  0.066400  1.0  0.0909
  H  H207  1  0.054200  0.593800  0.961500  1.0  0.0664
  H  H208  1  0.725100  0.260600  0.789000  1.0  0.0792
  H  H209  1  0.435100  0.833800  0.884600  1.0  0.0808
  H  H210  1  0.654000  0.709800  0.785100  1.0  0.0897
  H  H211  1  0.106300  0.013800  0.561300  1.0  0.0868
  H  H212  1  0.592100  0.629200  0.557600  1.0  0.042
  H  H213  1  0.538800  0.575800  0.025100  1.0  0.0703
  H  H214  1  0.513700  0.506200  0.868500  1.0  0.0707
  H  H215  1  0.477100  0.345600  0.573300  1.0  0.0444
  H  H216  1  0.191900  0.137400  0.302900  1.0  0.0667
  H  H217  1  0.118400  0.043600  0.255500  1.0  0.0756
  H  H218  1  0.101700  0.124800  0.791000  1.0  0.0671
  H  H219  1  0.025900  0.829800  0.756800  1.0  0.0733
  H  H220  1  0.845000  0.197200  0.818200  1.0  0.0989
  H  H221  1  0.496200  0.712000  0.659100  1.0  0.0826
  H  H222  1  0.825800  0.906800  0.372800  1.0  0.0897
  H  H223  1  0.962900  0.370800  0.942400  1.0  0.0433
  H  H224  1  0.303100  0.641200  0.347500  1.0  0.1019
  H  H225  1  0.967500  0.964600  0.603200  1.0  0.0789
  H  H226  1  0.827400  0.300200  0.357600  1.0  0.0713
  H  H227  1  0.417600  0.582200  0.042500  1.0  0.1016
  H  H228  1  0.571500  0.632800  0.280100  1.0  0.0763
  H  H229  1  0.399400  0.680600  0.690500  1.0  0.0731
  H  H230  1  0.548100  0.163400  0.073100  1.0  0.0864
  H  H231  1  0.167600  0.103400  0.114300  1.0  0.0873
  H  H232  1  0.956500  0.290800  0.259200  1.0  0.0768
  H  H233  1  0.675400  0.614400  0.615100  1.0  0.082
  H  H234  1  0.215800  0.712000  0.159100  1.0  0.0832
  H  H235  1  0.593000  0.816800  0.234200  1.0  0.106
  H  H236  1  0.586700  0.453600  0.797200  1.0  0.0819
  H  H237  1  0.543100  0.060800  0.520400  1.0  0.0585
  H  H238  1  0.584400  0.471800  0.429600  1.0  0.1
  H  H239  1  0.168400  0.032000  0.954500  1.0  0.0808
  H  H240  1  0.359700  0.617400  0.216700  1.0  0.0816
  H  H241  1  0.601300  0.166200  0.615400  1.0  0.0817
  H  H242  1  0.992500  0.506200  0.368500  1.0  0.0698
  H  H243  1  0.612500  0.332000  0.741900  1.0  0.0783
  H  H244  1  0.935800  0.103400  0.614300  1.0  0.0866
  H  H245  1  0.227200  0.623200  0.127600  1.0  0.0906
  H  H246  1  0.531400  0.816200  0.309900  1.0  0.0709
  H  H247  1  0.863600  0.032000  0.454500  1.0  0.0799
  H  H248  1  0.067000  0.462200  0.760400  1.0  0.0824
  H  H249  1  0.007500  0.493800  0.631500  1.0  0.0734
  H  H250  1  0.566800  0.328600  0.639000  1.0  0.0688
  H  H251  1  0.631400  0.452600  0.210800  1.0  0.0833
  H  H252  1  0.032500  0.035400  0.396800  1.0  0.0801
  H  H253  1  0.752900  0.695800  0.688500  1.0  0.0908
  H  H254  1  0.172600  0.699800  0.642400  1.0  0.0718
  H  H255  1  0.354200  0.187000  0.092300  1.0  0.0622
  H  H256  1  0.873700  0.513600  0.041500  1.0  0.088
  H  H257  1  0.831600  0.968000  0.045500  1.0  0.0802
  H  H258  1  0.167200  0.813000  0.407700  1.0  0.0639
  H  H259  1  0.338100  0.641200  0.847500  1.0  0.1028
  H  H260  1  0.318400  0.863000  0.353000  1.0  0.094
  H  H261  1  0.664500  0.942200  0.087700  1.0  0.0805
  H  H262  1  0.190500  0.013200  0.502900  1.0  0.0585
  H  H263  1  0.784200  0.288000  0.840900  1.0  0.0826
  H  H264  1  0.079300  0.944800  0.478100  1.0  0.0649
  H  H265  1  0.631700  0.272400  0.668100  1.0  0.0743
  H  H266  1  0.887400  0.471800  0.929600  1.0  0.1019
  H  H267  1  0.939000  0.614400  0.115100  1.0  0.082
  H  H268  1  0.645800  0.813000  0.907700  1.0  0.0634
  H  H269  1  0.035800  0.490200  0.433600  1.0  0.0905
  H  H270  1  0.435600  0.636600  0.723500  1.0  0.0737
  H  H271  1  0.482300  0.939200  0.979600  1.0  0.0592
  H  H272  1  0.933000  0.537800  0.239600  1.0  0.082
  H  H273  1  0.368300  0.727600  0.331900  1.0  0.0773
  H  H274  1  0.114800  0.041600  0.455900  1.0  0.0851
  H  H275  1  0.396400  0.604600  0.387600  1.0  0.0701
  H  H276  1  0.569300  0.262000  0.100200  1.0  0.0746
  H  H277  1  0.919400  0.357200  0.666667  1.0  0.1116
  H  H278  1  0.722300  0.057800  0.412300  1.0  0.0806
  H  H279  1  0.140900  0.162200  0.295500  1.0  0.0766
  H  H280  1  0.064200  0.896600  0.385700  1.0  0.0863
  H  H281  1  0.196100  0.170200  0.743200  1.0  0.071
  H  H282  1  0.346000  0.290200  0.214900  1.0  0.0905
  H  H283  1  0.383000  0.749800  0.397400  1.0  0.0661
  H  H284  1  0.119600  0.401600  0.859700  1.0  0.0748
  H  H285  1  0.085400  0.058400  0.782800  1.0  0.0702
  H  H286  1  0.995700  0.740400  0.107800  1.0  0.0752
  H  H287  1  0.460400  0.406200  0.538500  1.0  0.068
  H  H288  1  0.182400  0.960600  0.175100  1.0  0.0694
  H  H289  1  0.880400  0.598400  0.140300  1.0  0.0738
  H  H290  1  0.083100  0.559400  0.590500  1.0  0.058
  H  H291  1  0.112600  0.528200  0.070400  1.0  0.1008
  H  H292  1  0.480100  0.321000  0.320200  1.0  0.0545
  H  H293  1  0.035100  0.427800  0.420400  1.0  0.0788
  H  H294  1  0.647800  0.802800  0.681800  1.0  0.0986
  H  H295  1  0.051800  0.042200  0.827500  1.0  0.0678
  H  H296  1  0.710100  0.814800  0.078100  1.0  0.0853
  H  H297  1  0.367900  0.246000  0.648200  1.0  0.0957
  H  H298  1  0.976900  0.875200  0.709000  1.0  0.0693
  H  H299  1  0.486300  0.493800  0.131500  1.0  0.0704
  H  H300  1  0.799000  0.363400  0.776500  1.0  0.0734
  H  H301  1  0.456800  0.209800  0.220800  1.0  0.0879
  H  H302  1  0.395000  0.380800  0.342200  1.0  0.0507
  H  H303  1  0.183400  0.969400  0.813200  1.0  0.0839
  H  H304  1  0.951800  0.479200  0.477300  1.0  0.0603
  H  H305  1  0.809500  0.986800  0.497100  1.0  0.0607
  H  H306  1  0.881000  0.935400  0.098900  1.0  0.0632
  H  H307  1  0.566800  0.466000  0.281800  1.0  0.0664
  H  H308  1  0.920700  0.055200  0.521900  1.0  0.0658
  H  H309  1  0.025000  0.013600  0.145200  1.0  0.0824
  H  H310  1  0.816800  0.866800  0.130700  1.0  0.0743
  H  H311  1  0.467900  0.106800  0.988200  1.0  0.0997
  H  H312  1  0.564400  0.363400  0.276500  1.0  0.0734
  H  H313  1  0.944200  0.290200  0.714900  1.0  0.0905
  H  H314  1  0.000100  0.793400  0.305900  1.0  0.0607
  H  H315  1  0.527300  0.276200  0.766600  1.0  0.0652
  H  H316  1  0.406900  0.989000  0.464100  1.0  0.0927
  H  H317  1  0.027000  0.941600  0.717200  1.0  0.069
  H  H318  1  0.604800  0.537800  0.739600  1.0  0.0824
  H  H319  1  0.021300  0.162200  0.795500  1.0  0.0767
  H  H320  1  0.562200  0.642800  0.833400  1.0  0.1117
  H  H321  1  0.863400  0.330200  0.505200  1.0  0.0877
  H  H322  1  0.454400  0.490200  0.933600  1.0  0.0901
  H  H323  1  0.104500  0.438000  0.817700  1.0  0.0652
  H  H324  1  0.605000  0.619200  0.657800  1.0  0.0512
  H  H325  1  0.206700  0.206600  0.194100  1.0  0.0573
  H  H326  1  0.159100  0.679000  0.179800  1.0  0.0538
  H  H327  1  0.177300  0.986800  0.997100  1.0  0.0584
  H  H328  1  0.604000  0.376800  0.372400  1.0  0.09
  H  H329  1  0.982600  0.974800  0.776300  1.0  0.0774
  H  H330  1  0.840900  0.321000  0.820200  1.0  0.0566
  H  H331  1  0.097800  0.986800  0.638100  1.0  0.0621
  H  H332  1  0.251100  0.723800  0.733400  1.0  0.0651
  H  H333  1  0.178800  0.547400  0.289200  1.0  0.0835
  H  H334  1  0.136600  0.669800  0.494800  1.0  0.0878
  H  H335  1  0.401600  0.708400  0.212500  1.0  0.0685
  H  H336  1  0.539200  0.618000  0.093900  1.0  0.0573
  H  H337  1  0.999900  0.206600  0.694100  1.0  0.0582
  H  H338  1  0.896300  0.063400  0.020400  1.0  0.0601
  H  H339  1  0.821200  0.452600  0.710800  1.0  0.0842
  H  H340  1  0.846100  0.870600  0.595000  1.0  0.0936
  H  H341  1  0.204700  0.665400  0.941800  1.0  0.0555
  H  H342  1  0.544600  0.863000  0.853000  1.0  0.0943
  H  H343  1  0.023100  0.124800  0.291000  1.0  0.0677
  H  H344  1  0.536600  0.782200  0.096100  1.0  0.065
  H  H345  1  0.889000  0.986800  0.138100  1.0  0.0619
  H  H346  1  0.451900  0.836600  0.926900  1.0  0.0859
  H  H347  1  0.866900  0.453600  0.297200  1.0  0.0831
  H  H348  1  0.560800  0.717000  0.397100  1.0  0.0631
  H  H349  1  0.461200  0.424200  0.974900  1.0  0.0707
  H  H350  1  0.387500  0.668000  0.258100  1.0  0.0785
  H  H351  1  0.064300  0.016200  0.064600  1.0  0.0701
  H  H352  1  0.921200  0.382000  0.406100  1.0  0.0556
  H  H353  1  0.131600  0.584000  0.872600  1.0  0.0534
  H  H354  1  0.868400  0.416000  0.127400  1.0  0.0552
  H  H355  1  0.939300  0.993000  0.997300  1.0  0.0702
  H  H356  1  0.282000  0.401600  0.359700  1.0  0.0753
  H  H357  1  0.080600  0.642800  0.333400  1.0  0.1129
  H  H358  1  0.523700  0.440600  0.909500  1.0  0.0571
  H  H359  1  0.164600  0.582200  0.542500  1.0  0.1031
  H  H360  1  0.020900  0.937600  0.208400  1.0  0.0653
  H  H361  1  0.415600  0.528200  0.570400  1.0  0.1
  H  H362  1  0.192600  0.902200  0.490600  1.0  0.0688
  H  H363  1  0.334300  0.290800  0.759200  1.0  0.0759
  H  H364  1  0.564900  0.166200  0.115400  1.0  0.0813
  H  H365  1  0.493600  0.258400  0.590900  1.0  0.0608
  H  H366  1  0.486700  0.649000  0.344500  1.0  0.0559
  H  H367  1  0.984400  0.647800  0.193800  1.0  0.0888
  H  H368  1  0.945800  0.406200  0.038500  1.0  0.0682
  H  H369  1  0.054500  0.862600  0.197100  1.0  0.0663
  H  H370  1  0.143500  0.899600  0.268400  1.0  0.1162
  H  H371  1  0.817600  0.039400  0.824900  1.0  0.0697
  H  H372  1  0.240300  0.749200  0.670100  1.0  0.0803
  H  H373  1  0.416400  0.655200  0.154300  1.0  0.0818
  H  H374  1  0.472600  0.520800  0.022700  1.0  0.0612
  H  H375  1  0.368600  0.547400  0.789200  1.0  0.0834
  H  H376  1  0.419400  0.030400  0.507900  1.0  0.0896
  H  H377  1  0.004300  0.259600  0.892200  1.0  0.0749
  H  H378  1  0.939700  0.909400  0.773600  1.0  0.0584
  H  H379  1  0.136400  0.968000  0.545500  1.0  0.0801
  H  H380  1  0.740300  0.028400  0.602800  1.0  0.0544
  H  H381  1  0.894500  0.078800  0.335600  1.0  0.0793
  H  H382  1  0.898300  0.875200  0.209000  1.0  0.0695
  H  H383  1  0.899200  0.466000  0.781800  1.0  0.0668
  H  H384  1  0.832900  0.936600  0.479600  1.0  0.0588
  H  H385  1  0.807400  0.097800  0.509400  1.0  0.0687
  H  H386  1  0.155000  0.802800  0.181800  1.0  0.099
  H  H387  1  0.407000  0.183200  0.765800  1.0  0.1063
  H  H388  1  0.692700  0.262000  0.600200  1.0  0.0749
  H  H389  1  0.946300  0.007000  0.502700  1.0  0.0702
  H  H390  1  0.859100  0.837800  0.704500  1.0  0.0772
  H  H391  1  0.091500  0.306000  0.849500  1.0  0.0875
  H  H392  1  0.580600  0.969600  0.492100  1.0  0.0887
  H  H393  1  0.136100  0.574800  0.501100  1.0  0.0903
  H  H394  1  0.510700  0.971800  0.024400  1.0  0.0772
  H  H395  1  0.964200  0.509800  0.566400  1.0  0.0896
  H  H396  1  0.347400  0.088800  0.616200  1.0  0.0736
  H  H397  1  0.632100  0.754000  0.351800  1.0  0.0952
  H  H398  1  0.105500  0.921200  0.664400  1.0  0.0782
  H  H399  1  0.214500  0.306000  0.349500  1.0  0.0893
  H  H400  1  0.126300  0.486400  0.958500  1.0  0.0878
  H  H401  1  0.973000  0.058400  0.282800  1.0  0.0718
  H  H402  1  0.247000  0.790200  0.279200  1.0  0.0874
  H  H403  1  0.786000  0.969400  0.313200  1.0  0.0839
  H  H404  1  0.274900  0.739400  0.211000  1.0  0.0799
  H  H405  1  0.111000  0.013200  0.861900  1.0  0.0599
  H  H406  1  0.748900  0.276200  0.266600  1.0  0.0642
  H  H407  1  0.054400  0.935400  0.598900  1.0  0.063
  H  H408  1  0.992200  0.974800  0.276300  1.0  0.0773
  H  H409  1  0.083300  0.062400  0.291600  1.0  0.0637
  H  H410  1  0.615300  0.163400  0.573100  1.0  0.087
  H  H411  1  0.582400  0.417800  0.957500  1.0  0.1028
  H  H412  1  0.832400  0.896600  0.885700  1.0  0.0866
  H  H413  1  0.744700  0.740400  0.607800  1.0  0.0765
  H  H414  1  0.543200  0.790200  0.779200  1.0  0.0887
  H  H415  1  0.925200  0.043600  0.755500  1.0  0.0737
  H  H416  1  0.352200  0.197200  0.318200  1.0  0.0995
  H  H417  1  0.759700  0.250800  0.329900  1.0  0.0802
  H  H418  1  0.832800  0.187000  0.592300  1.0  0.0628
  H  H419  1  0.969700  0.909400  0.273600  1.0  0.0583
  H  H420  1  0.238800  0.655200  0.654300  1.0  0.0805
  H  H421  1  0.661900  0.358800  0.152500  1.0  0.1019
  H  H422  1  0.438700  0.574800  0.001100  1.0  0.0904
  H  H423  1  0.640300  0.382600  0.783300  1.0  0.0805
  H  H424  1  0.245600  0.782200  0.596100  1.0  0.065
  H  H425  1  0.863900  0.425200  0.498900  1.0  0.0916
  H  H426  1  0.756100  0.899600  0.768400  1.0  0.1158
  H  H427  1  0.931900  0.899600  0.136600  1.0  0.0678
  H  H428  1  0.640700  0.272400  0.168100  1.0  0.0776
  H  H429  1  0.711900  0.971600  0.897200  1.0  0.053
  H  H430  1  0.214000  0.030600  0.686800  1.0  0.0846
  H  H431  1  0.395200  0.462200  0.260400  1.0  0.082
  H  H432  1  0.895300  0.185200  0.421900  1.0  0.0851
  H  H433  1  0.741400  0.088800  0.116200  1.0  0.0742
  H  H434  1  0.433200  0.534000  0.718200  1.0  0.0672
  H  H435  1  0.037000  0.575800  0.525100  1.0  0.0694
  H  H436  1  0.009600  0.957800  0.672500  1.0  0.0663
  H  H437  1  0.464500  0.739400  0.711000  1.0  0.0804
  H  H438  1  0.407900  0.370800  0.442400  1.0  0.0436
  H  H439  1  0.424300  0.590800  0.646700  1.0  0.0916
  H  H440  1  0.698900  0.362200  0.695800  1.0  0.0901
  H  H441  1  0.975000  0.986400  0.854800  1.0  0.0822
  H  H442  1  0.119000  0.064600  0.901100  1.0  0.0635
  H  H443  1  0.666500  0.562000  0.682300  1.0  0.0652
  H  H444  1  0.963000  0.424200  0.474900  1.0  0.0701
  H  H445  1  0.460800  0.382000  0.906100  1.0  0.0553
  H  H446  1  0.074800  0.956400  0.244500  1.0  0.0768
  H  H447  1  0.452400  0.584000  0.372600  1.0  0.0539
  H  H448  1  0.718000  0.598400  0.640300  1.0  0.0742
  H  H449  1  0.916700  0.937600  0.708400  1.0  0.0662
  H  H450  1  0.061300  0.632800  0.780100  1.0  0.0757
  H  H451  1  0.926800  0.041600  0.955900  1.0  0.0853
  H  H452  1  0.988600  0.013600  0.645200  1.0  0.0827
  H  H453  1  0.598400  0.291600  0.787500  1.0  0.0694
  H  H454  1  0.633200  0.250200  0.102600  1.0  0.069
  H  H455  1  0.366800  0.749800  0.897400  1.0  0.0666
  H  H456  1  0.002900  0.035400  0.896800  1.0  0.0799
  H  H457  1  0.281200  0.680600  0.190500  1.0  0.0733
  H  H458  1  0.223800  0.816800  0.734200  1.0  0.1062
  H  H459  1  0.878100  0.246000  0.148200  1.0  0.0962
  H  H460  1  0.398700  0.833800  0.384600  1.0  0.0804
  H  H461  1  0.517700  0.060800  0.020400  1.0  0.0587
  H  H462  1  0.221800  0.039400  0.324900  1.0  0.0698
  H  H463  1  0.696900  0.358800  0.652500  1.0  0.1012
  H  H464  1  0.476300  0.559400  0.090500  1.0  0.0575
  H  H465  1  0.539300  0.334600  0.558200  1.0  0.0561
  H  H466  1  0.907500  0.013800  0.061300  1.0  0.0872
  H  H467  1  0.617000  0.250200  0.602600  1.0  0.0669
  H  H468  1  0.885200  0.958400  0.544100  1.0  0.0874
  H  H469  1  0.547600  0.416000  0.627400  1.0  0.0552
  H  H470  1  0.456900  0.939200  0.479600  1.0  0.0597
  H  H471  1  0.081000  0.906800  0.872800  1.0  0.0914
  H  H472  1  0.652600  0.911200  0.383800  1.0  0.0738
  H  H473  1  0.333500  0.438000  0.317700  1.0  0.0634
  H  H474  1  0.997100  0.964600  0.103200  1.0  0.0805
  H  H475  1  0.243900  0.100400  0.231600  1.0  0.1136
  H  H476  1  0.808100  0.862600  0.697100  1.0  0.0667
  H  H477  1  0.055800  0.709800  0.285100  1.0  0.0907
  H  H478  1  0.538900  0.028200  0.475600  1.0  0.0778
  H  H479  1  0.600600  0.319400  0.309500  1.0  0.0743
  H  H480  1  0.742300  0.382600  0.283300  1.0  0.0817
  H  H481  1  0.593100  0.011000  0.535900  1.0  0.0914
  H  H482  1  0.081500  0.467400  0.856600  1.0  0.0499
  W  W483  1  0.404570  0.088480  0.814330  1.0  1.2514
  W  W484  1  0.390030  0.056840  0.706410  1.0  2.0977
  W  W485  1  0.477640  0.040600  0.620660  1.0  1.2346
  W  W486  1  0.434700  0.859320  0.780490  1.0  1.2304
  W  W487  1  0.589790  0.166980  0.826660  1.0  1.2499
  W  W488  1  0.437040  0.959400  0.879340  1.0  1.2318
  W  W489  1  0.402930  0.893540  0.599320  1.0  1.2699
  W  W490  1  0.575380  0.140680  0.719510  1.0  1.2317
  W  W491  1  0.683870  0.091800  0.815090  1.0  1.2511
  W  W492  1  0.422810  0.833020  0.673340  1.0  1.2476
  W  W493  1  0.572210  0.966320  0.609840  1.0  1.3483
  W  W494  1  0.424620  0.859320  0.280490  1.0  1.2298
  W  W495  1  0.333190  0.943160  0.793590  1.0  2.0991
  W  W496  1  0.395390  0.067480  0.207480  1.0  1.2717
  W  W497  1  0.592070  0.908200  0.684910  1.0  1.2501
  W  W498  1  0.407930  0.091800  0.315090  1.0  1.2513
  W  W499  1  0.672090  0.067480  0.707480  1.0  1.2707
  W  W500  1  0.509390  0.106460  0.900680  1.0  1.2729
  W  W501  1  0.327910  0.932520  0.292520  1.0  1.2707
  W  W502  1  0.522360  0.959400  0.379340  1.0  1.231
  W  W503  1  0.683910  0.088480  0.314330  1.0  1.2521
  W  W504  1  0.597070  0.106460  0.400680  1.0  1.2731
  W  W505  1  0.577190  0.166980  0.326660  1.0  1.2492
  W  W506  1  0.565300  0.140680  0.219510  1.0  1.2311
  W  W507  1  0.609970  0.943160  0.293590  1.0  2.097
  W  W508  1  0.427790  0.033680  0.390160  1.0  1.3518
  W  W509  1  0.666810  0.056840  0.206410  1.0  2.0967
  W  W510  1  0.604610  0.932520  0.792520  1.0  1.272
  W  W511  1  0.410210  0.833020  0.173340  1.0  1.2469
  W  W512  1  0.605890  0.033680  0.890160  1.0  1.3517
  W  W513  1  0.316090  0.911520  0.685670  1.0  1.251
  W  W514  1  0.316130  0.908200  0.184910  1.0  1.253
  W  W515  1  0.562960  0.040600  0.120660  1.0  1.2333
  W  W516  1  0.394110  0.966320  0.109840  1.0  1.3499
  W  W517  1  0.490610  0.893540  0.099320  1.0  1.2695
  W  W518  1  0.595430  0.911520  0.185670  1.0  1.2516
  C  C519  1  0.620400  0.569200  0.177800  1.0  0.2628
  C  C520  1  0.591000  0.009600  0.509100  1.0  -0.0055
  C  C521  1  0.618500  0.717000  0.778200  1.0  0.251
  C  C522  1  0.895800  0.986200  0.985100  1.0  -0.1274
  C  C523  1  0.159100  0.686600  0.520400  1.0  0.0821
  C  C524  1  0.072300  0.376600  0.858700  1.0  -0.1398
  C  C525  1  0.209600  0.185200  0.208900  1.0  0.2285
  C  C526  1  0.132400  0.978200  0.985800  1.0  -0.102
  C  C527  1  0.778500  0.080400  0.110900  1.0  0.2309
  C  C528  1  0.550900  0.617000  0.566800  1.0  0.2086
  C  C529  1  0.523800  0.463600  0.285600  1.0  0.2256
  C  C530  1  0.165800  0.764800  0.845900  1.0  0.1274
  C  C531  1  0.215100  0.965600  0.399600  1.0  0.27
  C  C532  1  0.857200  0.049600  0.840900  1.0  0.2446
  C  C533  1  0.301900  0.080400  0.610900  1.0  0.2294
  C  C534  1  0.110700  0.781000  0.168500  1.0  0.2577
  C  C535  1  0.396800  0.215000  0.770600  1.0  0.1175
  C  C536  1  0.936700  0.053600  0.373000  1.0  -0.1722
  C  C537  1  0.977200  0.934400  0.258500  1.0  -0.1253
  C  C538  1  0.259500  0.692000  0.715600  1.0  -0.1683
  C  C539  1  0.221500  0.919600  0.889100  1.0  0.2295
  C  C540  1  0.480400  0.681200  0.669800  1.0  -0.1564
  C  C541  1  0.401000  0.235200  0.654100  1.0  0.1277
  C  C542  1  0.986800  0.550000  0.585200  1.0  0.0258
  C  C543  1  0.746400  0.202400  0.176200  1.0  0.2709
  C  C544  1  0.472100  0.666200  0.368600  1.0  -0.1909
  C  C545  1  0.507500  0.425600  0.542400  1.0  0.1277
  C  C546  1  0.845800  0.978200  0.485800  1.0  -0.1016
  C  C547  1  0.863200  0.008800  0.051700  1.0  -0.0079
  C  C548  1  0.611700  0.820600  0.899200  1.0  0.2802
  C  C549  1  0.552600  0.303200  0.299200  1.0  -0.1468
  C  C550  1  0.909600  0.913200  0.229400  1.0  -0.0841
  C  C551  1  0.445700  0.575000  0.224400  1.0  0.1346
  C  C552  1  0.998700  0.941000  0.644200  1.0  -0.1584
  C  C553  1  0.379600  0.430800  0.822200  1.0  0.2595
  C  C554  1  0.154200  0.021800  0.514200  1.0  -0.1022
  C  C555  1  0.782500  0.253000  0.423900  1.0  0.2432
  C  C556  1  0.487100  0.023400  0.000700  1.0  -0.1104
  C  C557  1  0.867600  0.021800  0.014200  1.0  -0.1025
  C  C558  1  0.799200  0.318800  0.830200  1.0  -0.1596
  C  C559  1  0.529500  0.747000  0.076100  1.0  0.2428
  C  C560  1  0.673400  0.912000  0.995100  1.0  0.2696
  C  C561  1  0.527900  0.333800  0.631400  1.0  -0.1909
  C  C562  1  0.526000  0.364000  0.574900  1.0  0.008
  C  C563  1  0.456200  0.591800  0.028800  1.0  -0.0777
  C  C564  1  0.029200  0.928400  0.230700  1.0  -0.1769
  C  C565  1  0.796800  0.239000  0.724300  1.0  0.1657
  C  C566  1  0.773000  0.321000  0.766900  1.0  0.0105
  C  C567  1  0.517100  0.575600  0.079700  1.0  -0.1113
  C  C568  1  0.125400  0.916600  0.882300  1.0  0.1398
  C  C569  1  0.918100  0.425600  0.042400  1.0  0.1271
  C  C570  1  0.186300  0.076600  0.106600  1.0  0.1335
  C  C571  1  0.116900  0.053600  0.873000  1.0  -0.1734
  C  C572  1  0.644600  0.617200  0.668100  1.0  -0.0962
  C  C573  1  0.807600  0.950400  0.659100  1.0  0.2453
  C  C574  1  0.543800  0.408200  0.971200  1.0  -0.0782
  C  C575  1  0.447400  0.696800  0.700800  1.0  -0.1476
  C  C576  1  0.418600  0.009600  0.009100  1.0  -0.008
  C  C577  1  0.104300  0.560800  0.073800  1.0  0.0993
  C  C578  1  0.355400  0.382800  0.331900  1.0  -0.0984
  C  C579  1  0.474000  0.636000  0.425100  1.0  0.0085
  C  C580  1  0.197800  0.719600  0.887300  1.0  0.0151
  C  C581  1  0.001300  0.059000  0.355800  1.0  -0.1565
  C  C582  1  0.889300  0.219000  0.831500  1.0  0.2604
  C  C583  1  0.027400  0.382800  0.831900  1.0  -0.0959
  C  C584  1  0.058500  0.575600  0.579700  1.0  -0.1134
  C  C585  1  0.492500  0.574400  0.457600  1.0  0.1254
  C  C586  1  0.452700  0.817400  0.899500  1.0  0.0123
  C  C587  1  0.834200  0.235200  0.154100  1.0  0.1296
  C  C588  1  0.093900  0.999200  0.448900  1.0  0.0213
  C  C589  1  0.784900  0.034400  0.600400  1.0  0.2712
  C  C590  1  0.915800  0.274800  0.268200  1.0  0.246
  C  C591  1  0.854400  0.991200  0.448300  1.0  -0.0064
  C  C592  1  0.199500  0.055400  0.705100  1.0  0.1174
  C  C593  1  0.709700  0.152800  0.630800  1.0  0.123
  C  C594  1  0.051200  0.430800  0.322200  1.0  0.2609
  C  C595  1  0.030600  0.463000  0.773200  1.0  0.1227
  C  C596  1  0.972600  0.617200  0.168100  1.0  -0.0987
  C  C597  1  0.948800  0.569200  0.677800  1.0  0.26
  C  C598  1  0.974000  0.250400  0.870600  1.0  0.1585
  C  C599  1  0.941500  0.424400  0.420300  1.0  -0.1108
  C  C600  1  0.899200  0.928400  0.730700  1.0  -0.177
  C  C601  1  0.993400  0.028600  0.869300  1.0  -0.0282
  C  C602  1  0.249500  0.034400  0.100400  1.0  0.272
  C  C603  1  0.449100  0.383000  0.433200  1.0  0.2095
  C  C604  1  0.554300  0.425000  0.775600  1.0  0.1345
  C  C605  1  0.890300  0.076600  0.606600  1.0  0.1345
  C  C606  1  0.288700  0.654600  0.329100  1.0  -0.0404
  C  C607  1  0.698100  0.919600  0.389100  1.0  0.2307
  C  C608  1  0.970800  0.071600  0.769300  1.0  -0.1784
  C  C609  1  0.468800  0.479800  0.857800  1.0  0.1317
  C  C610  1  0.687000  0.921200  0.092000  1.0  0.2351
  C  C611  1  0.145600  0.008800  0.551700  1.0  -0.0084
  C  C612  1  0.751200  0.350800  0.266200  1.0  0.0009
  C  C613  1  0.536300  0.023400  0.500700  1.0  -0.1103
  C  C614  1  0.634100  0.345400  0.170900  1.0  -0.042
  C  C615  1  0.365900  0.654600  0.829100  1.0  -0.0407
  C  C616  1  0.790400  0.814800  0.791100  1.0  0.2285
  C  C617  1  0.253600  0.797600  0.823800  1.0  0.2701
  C  C618  1  0.654400  0.245200  0.612600  1.0  -0.1336
  C  C619  1  0.543500  0.439200  0.426200  1.0  0.0999
  C  C620  1  0.472500  0.313400  0.979600  1.0  0.0799
  C  C621  1  0.531200  0.520200  0.142200  1.0  0.13
  C  C622  1  0.939800  0.463600  0.785600  1.0  0.2252
  C  C623  1  0.409000  0.990400  0.490900  1.0  -0.005
  C  C624  1  0.400400  0.649200  0.233800  1.0  0.0007
  C  C625  1  0.628100  0.562200  0.669600  1.0  -0.034
  C  C626  1  0.527500  0.686600  0.020400  1.0  0.0818
  C  C627  1  0.396900  0.518400  0.456200  1.0  0.2582
  C  C628  1  0.673500  0.281200  0.657100  1.0  -0.1351
  C  C629  1  0.456000  0.202400  0.676200  1.0  0.27
  C  C630  1  0.208800  0.083400  0.617700  1.0  0.1389
  C  C631  1  0.238600  0.912000  0.495100  1.0  0.2708
  C  C632  1  0.437300  0.622600  0.636900  1.0  -0.1613
  C  C633  1  0.185300  0.622600  0.136900  1.0  -0.1625
  C  C634  1  0.957200  0.934400  0.758500  1.0  -0.1259
  C  C635  1  0.098500  0.717000  0.278200  1.0  0.2519
  C  C636  1  0.546400  0.331600  0.825200  1.0  -0.1426
  C  C637  1  0.090400  0.086800  0.770600  1.0  -0.0919
  C  C638  1  0.345600  0.754800  0.387400  1.0  -0.1311
  C  C639  1  0.141100  0.852000  0.586700  1.0  0.1108
  C  C640  1  0.228400  0.126800  0.229300  1.0  0.1129
  C  C641  1  0.289100  0.148000  0.913300  1.0  0.1124
  C  C642  1  0.581400  0.990400  0.990900  1.0  -0.0022
  C  C643  1  0.276400  0.250400  0.370600  1.0  0.1581
  C  C644  1  0.364700  0.817400  0.399500  1.0  0.0137
  C  C645  1  0.443100  0.152800  0.130800  1.0  0.1224
  C  C646  1  0.003600  0.913200  0.729400  1.0  -0.0845
  C  C647  1  0.057100  0.900000  0.116100  1.0  0.1109
  C  C648  1  0.831100  0.421800  0.695900  1.0  0.1486
  C  C649  1  0.818200  0.215000  0.270600  1.0  0.1181
  C  C650  1  0.484200  0.369200  0.172000  1.0  0.1283
  C  C651  1  0.442200  0.239000  0.224300  1.0  0.1669
  C  C652  1  0.556900  0.847200  0.869200  1.0  0.1221
  C  C653  1  0.557800  0.761000  0.775700  1.0  0.1679
  C  C654  1  0.136800  0.991200  0.948300  1.0  -0.0075
  C  C655  1  0.842900  0.900000  0.616100  1.0  0.1114
  C  C656  1  0.942900  0.100000  0.883900  1.0  0.1125
  C  C657  1  0.909600  0.013800  0.514900  1.0  -0.1276
  C  C658  1  0.519600  0.318800  0.330200  1.0  -0.1571
  C  C659  1  0.827200  0.382400  0.111700  1.0  -0.1956
  C  C660  1  0.436800  0.450000  0.914800  1.0  0.0258
  C  C661  1  0.452000  0.679000  0.733100  1.0  0.0098
  C  C662  1  0.791100  0.179400  0.600800  1.0  0.2806
  C  C663  1  0.512900  0.976600  0.999300  1.0  -0.1105
  C  C664  1  0.256900  0.312800  0.339300  1.0  -0.041
  C  C665  1  0.060100  0.868200  0.765500  1.0  0.1642
  C  C666  1  0.194100  0.666200  0.868600  1.0  -0.1929
  C  C667  1  0.898400  0.126800  0.729300  1.0  0.1139
  C  C668  1  0.562700  0.377400  0.363100  1.0  -0.1645
  C  C669  1  0.101600  0.873200  0.270700  1.0  0.112
  C  C670  1  0.964800  0.971400  0.630700  1.0  -0.0271
  C  C671  1  0.326500  0.718800  0.342900  1.0  -0.1383
  C  C672  1  0.024400  0.814800  0.291100  1.0  0.2262
  C  C673  1  0.670300  0.781000  0.668500  1.0  0.2598
  C  C674  1  0.934100  0.562200  0.169600  1.0  -0.0359
  C  C675  1  0.013200  0.450000  0.414800  1.0  0.0241
  C  C676  1  0.142800  0.950400  0.159100  1.0  0.2448
  C  C677  1  0.042800  0.065600  0.241500  1.0  -0.1238
  C  C678  1  0.883100  0.946400  0.127000  1.0  -0.1703
  C  C679  1  0.996400  0.086800  0.270600  1.0  -0.0865
  C  C680  1  0.864400  0.408200  0.471200  1.0  -0.0769
  C  C681  1  0.842300  0.866600  0.716400  1.0  -0.0057
  C  C682  1  0.248800  0.649200  0.733800  1.0  0.0016
  C  C683  1  0.129300  0.575000  0.724400  1.0  0.1332
  C  C684  1  0.432500  0.692000  0.215600  1.0  -0.1686
  C  C685  1  0.874600  0.083400  0.117700  1.0  0.1391
  C  C686  1  0.771600  0.873200  0.770700  1.0  0.1127
  C  C687  1  0.135600  0.591800  0.528800  1.0  -0.0768
  C  C688  1  0.084200  0.725200  0.731800  1.0  0.246
  C  C689  1  0.912000  0.094800  0.363400  1.0  -0.0445
  C  C690  1  0.191900  0.131800  0.734500  1.0  0.1675
  C  C691  1  0.456500  0.560800  0.573800  1.0  0.0989
  C  C692  1  0.182800  0.094800  0.863400  1.0  -0.0426
  C  C693  1  0.590700  0.421800  0.195900  1.0  0.149
  C  C694  1  0.858900  0.148000  0.413300  1.0  0.1127
  C  C695  1  0.750500  0.965600  0.899600  1.0  0.2696
  C  C696  1  0.115000  0.630800  0.328000  1.0  0.1275
  C  C697  1  0.497600  0.563000  0.036200  1.0  -0.1254
  C  C698  1  0.785200  0.331600  0.325200  1.0  -0.1402
  C  C699  1  0.409300  0.578200  0.804100  1.0  0.1503
  C  C700  1  0.800500  0.944600  0.294900  1.0  0.116
  C  C701  1  0.063300  0.946400  0.627000  1.0  -0.1714
  C  C702  1  0.530200  0.622000  0.265600  1.0  0.2621
  C  C703  1  0.743100  0.687200  0.660700  1.0  -0.0414
  C  C704  1  0.878500  0.481600  0.043800  1.0  0.2572
  C  C705  1  0.463700  0.976600  0.499300  1.0  -0.1112
  C  C706  1  0.895700  0.439200  0.926200  1.0  0.099
  C  C707  1  0.547300  0.182600  0.100500  1.0  0.0131
  C  C708  1  0.563200  0.550000  0.085200  1.0  0.0235
  C  C709  1  0.934600  0.437000  0.463800  1.0  -0.1274
  C  C710  1  0.814700  0.377400  0.863100  1.0  -0.1639
  C  C711  1  0.870700  0.425000  0.275600  1.0  0.1351
  C  C712  1  0.144100  0.944600  0.794900  1.0  0.1174
  C  C713  1  0.227000  0.679000  0.233100  1.0  0.01
  C  C714  1  0.576500  0.906000  0.006600  1.0  0.1065
  C  C715  1  0.838000  0.364000  0.074900  1.0  0.0077
  C  C716  1  0.162000  0.636000  0.925100  1.0  0.0082
  C  C717  1  0.088000  0.905200  0.636600  1.0  -0.0437
  C  C718  1  0.927700  0.623400  0.141300  1.0  -0.1399
  C  C719  1  0.208900  0.820600  0.399200  1.0  0.2796
  C  C720  1  0.026000  0.749600  0.129400  1.0  0.1555
  C  C721  1  0.060200  0.536400  0.214400  1.0  0.2258
  C  C722  1  0.590800  0.245200  0.112600  1.0  -0.1343
  C  C723  1  0.817200  0.905200  0.136600  1.0  -0.0436
  C  C724  1  0.100800  0.071600  0.269300  1.0  -0.1786
  C  C725  1  0.359000  0.274800  0.768200  1.0  0.2461
  C  C726  1  0.908200  0.378000  0.234400  1.0  0.2609
  C  C727  1  0.515800  0.630800  0.828000  1.0  0.1282
  C  C728  1  0.740500  0.308000  0.284400  1.0  -0.1719
  C  C729  1  0.599000  0.764800  0.345900  1.0  0.1293
  C  C730  1  0.091800  0.622000  0.765600  1.0  0.2606
  C  C731  1  0.521800  0.719600  0.387300  1.0  0.017
  C  C732  1  0.801400  0.284600  0.331700  1.0  -0.024
  C  C733  1  0.544000  0.797600  0.323800  1.0  0.2714
  C  C734  1  0.192400  0.049600  0.340900  1.0  0.2443
  C  C735  1  0.567500  0.308000  0.784400  1.0  -0.1701
  C  C736  1  0.805900  0.333800  0.131400  1.0  -0.1892
  C  C737  1  0.104200  0.013800  0.014900  1.0  -0.1271
  C  C738  1  0.022800  0.065600  0.741500  1.0  -0.1243
  C  C739  1  0.933900  0.383000  0.933200  1.0  0.2105
  C  C740  1  0.409200  0.754800  0.887400  1.0  -0.1326
  C  C741  1  0.392300  0.718800  0.842900  1.0  -0.137
  C  C742  1  0.761400  0.088000  0.504900  1.0  0.2708
  C  C743  1  0.326600  0.088000  0.004900  1.0  0.2709
  C  C744  1  0.381500  0.283000  0.221800  1.0  0.2497
  C  C745  1  0.198600  0.715400  0.668300  1.0  -0.0215
  C  C746  1  0.371900  0.437800  0.330400  1.0  -0.0374
  C  C747  1  0.066100  0.617000  0.066800  1.0  0.2081
  C  C748  1  0.989000  0.520200  0.642200  1.0  0.1312
  C  C749  1  0.057700  0.059000  0.855800  1.0  -0.1567
  C  C750  1  0.750600  0.303200  0.799200  1.0  -0.1469
  C  C751  1  0.290300  0.847200  0.369200  1.0  0.1219
  C  C752  1  0.055900  0.312800  0.839300  1.0  -0.0434
  C  C753  1  0.695700  0.623400  0.641300  1.0  -0.1404
  C  C754  1  0.109700  0.923400  0.393400  1.0  0.1343
  C  C755  1  0.975700  0.133400  0.783600  1.0  -0.0069
  C  C756  1  0.024300  0.866600  0.216400  1.0  -0.0061
  C  C757  1  0.599600  0.350800  0.766200  1.0  0.0022
  C  C758  1  0.885000  0.369200  0.672000  1.0  0.1264
  C  C759  1  0.313000  0.078800  0.908000  1.0  0.2374
  C  C760  1  0.939900  0.131800  0.234500  1.0  0.1679
  C  C761  1  0.905300  0.999200  0.948900  1.0  0.0209
  C  C762  1  0.711300  0.345400  0.670900  1.0  -0.0427
  C  C763  1  0.901500  0.283000  0.721800  1.0  0.25
  C  C764  1  0.214800  0.668400  0.674800  1.0  -0.1405
  C  C765  1  0.482900  0.424400  0.920300  1.0  -0.1118
  C  C766  1  0.203200  0.761000  0.275700  1.0  0.168
  C  C767  1  0.181800  0.785000  0.729400  1.0  0.118
  C  C768  1  0.121500  0.518400  0.956200  1.0  0.2585
  C  C769  1  0.723600  0.749600  0.629400  1.0  0.1539
  C  C770  1  0.168900  0.578200  0.304100  1.0  0.1491
  C  C771  1  0.453600  0.668400  0.174800  1.0  -0.1416
  C  C772  1  0.502400  0.437000  0.963800  1.0  -0.1259
  C  C773  1  0.217500  0.747000  0.576100  1.0  0.2431
  C  C774  1  0.469800  0.378000  0.734400  1.0  0.2607
  C  C775  1  0.969400  0.537000  0.226800  1.0  0.1211
  C  C776  1  0.944100  0.687200  0.160700  1.0  -0.0404
  C  C777  1  0.791200  0.916600  0.382300  1.0  0.1388
  C  C778  1  0.329700  0.219000  0.331500  1.0  0.2575
  C  C779  1  0.478200  0.280400  0.612700  1.0  0.0175
  C  C780  1  0.065900  0.437800  0.830400  1.0  -0.0358
  C  C781  1  0.329500  0.906000  0.506600  1.0  0.1071
  C  C782  1  0.802200  0.280400  0.112700  1.0  0.0187
  C  C783  1  0.011000  0.479800  0.357800  1.0  0.1296
  C  C784  1  0.808100  0.868200  0.265500  1.0  0.1646
  C  C785  1  0.765800  0.078800  0.408000  1.0  0.2349
  C  C786  1  0.444800  0.617600  0.388300  1.0  -0.1954
  C  C787  1  0.855900  0.055400  0.205100  1.0  0.1155
  C  C788  1  0.567600  0.537000  0.726800  1.0  0.1227
  C  C789  1  0.157700  0.133400  0.283600  1.0  -0.0065
  C  C790  1  0.157100  0.100000  0.383900  1.0  0.1106
  C  C791  1  0.234200  0.921200  0.592000  1.0  0.2346
  C  C792  1  0.432400  0.463000  0.273200  1.0  0.1217
  C  C793  1  0.813700  0.923400  0.893400  1.0  0.1338
  C  C794  1  0.603100  0.481600  0.543800  1.0  0.257
  C  C795  1  0.641000  0.725200  0.231800  1.0  0.2459
  C  C796  1  0.470500  0.253000  0.923900  1.0  0.2454
  C  C797  1  0.975600  0.185200  0.708900  1.0  0.227
  C  C798  1  0.548000  0.321000  0.266900  1.0  0.0099
  C  C799  1  0.555200  0.382400  0.611700  1.0  -0.1968
  C  C800  1  0.090400  0.986200  0.485100  1.0  -0.1261
  C  C801  1  0.476200  0.536400  0.714400  1.0  0.2261
  C  C802  1  0.249400  0.696800  0.200800  1.0  -0.1495
  C  C803  1  0.670500  0.094000  0.493400  1.0  0.107
  C  C804  1  0.388300  0.179400  0.100800  1.0  0.2787
  C  C805  1  0.065400  0.563000  0.536200  1.0  -0.1261
  C  C806  1  0.006600  0.971400  0.130700  1.0  -0.0271
  C  C807  1  0.094700  0.000800  0.051100  1.0  0.0202
  C  C808  1  0.607700  0.281200  0.157100  1.0  -0.1354
  C  C809  1  0.035200  0.028600  0.369300  1.0  -0.0287
  C  C810  1  0.840900  0.313400  0.479600  1.0  0.0805
  C  C811  1  0.906100  0.000800  0.551100  1.0  0.0206
  C  C812  1  0.172800  0.617600  0.888300  1.0  -0.1961
  C  C813  1  0.603200  0.785000  0.229400  1.0  0.1177
  C  C814  1  0.081900  0.574400  0.957600  1.0  0.1258
  C  C815  1  0.516800  0.715400  0.168300  1.0  -0.0215
  C  C816  1  0.635300  0.182600  0.600500  1.0  0.0126
  C  C817  1  0.200800  0.681200  0.169800  1.0  -0.1579
  C  C818  1  0.423500  0.094000  0.993400  1.0  0.1085
  C  C819  1  0.710900  0.852000  0.086700  1.0  0.1107
  C  C820  1  0.942300  0.941000  0.144200  1.0  -0.1564
  C  C821  1  0.483200  0.284600  0.831700  1.0  -0.0238
  C  C822  1  0.304300  0.376600  0.358700  1.0  -0.14
  N  N823  1  0.538400  0.748600  0.357400  1.0  0.1011
  N  N824  1  0.563000  0.677400  0.753000  1.0  -0.4058
  N  N825  1  0.611200  0.448000  0.560700  1.0  -0.4007
  N  N826  1  0.270100  0.105400  0.637900  1.0  -0.415
  N  N827  1  0.461600  0.251400  0.642600  1.0  0.0959
  N  N828  1  0.266500  0.770000  0.842900  1.0  -0.3639
  N  N829  1  0.850900  0.909000  0.256700  1.0  -0.0736
  N  N830  1  0.656000  0.048200  0.504300  1.0  0.127
  N  N831  1  0.158500  0.025800  0.078000  1.0  0.1749
  N  N832  1  0.821800  0.374800  0.257800  1.0  0.163
  N  N833  1  0.155200  0.658600  0.769400  1.0  -0.384
  N  N834  1  0.907400  0.213800  0.864900  1.0  -0.4413
  N  N835  1  0.333700  0.135600  0.927000  1.0  -0.3523
  N  N836  1  0.842200  0.045400  0.082600  1.0  0.1636
  N  N837  1  0.892900  0.950400  0.636100  1.0  0.1327
  N  N838  1  0.826500  0.819000  0.758400  1.0  -0.4111
  N  N839  1  0.071400  0.532400  0.970200  1.0  -0.3973
  N  N840  1  0.201200  0.695000  0.578100  1.0  -0.382
  N  N841  1  0.754200  0.843000  0.797500  1.0  -0.3854
  N  N842  1  0.460900  0.348000  0.404200  1.0  -0.3591
  N  N843  1  0.789800  0.251400  0.142600  1.0  0.1004
  N  N844  1  0.202100  0.946000  0.618300  1.0  -0.4236
  N  N845  1  0.183400  0.666800  0.338900  1.0  -0.3317
  N  N846  1  0.505500  0.551000  0.686400  1.0  -0.3785
  N  N847  1  0.344000  0.951800  0.495700  1.0  0.1266
  N  N848  1  0.494500  0.449000  0.313600  1.0  -0.3796
  N  N849  1  0.477500  0.170800  0.106300  1.0  0.1534
  N  N850  1  0.493800  0.695000  0.078100  1.0  -0.3815
  N  N851  1  0.022600  0.450800  0.376000  1.0  0.1048
  N  N852  1  0.840800  0.266800  0.301800  1.0  0.1278
  N  N853  1  0.926400  0.433000  0.261000  1.0  -0.398
  N  N854  1  0.115300  0.964600  0.775100  1.0  -0.4245
  N  N855  1  0.884700  0.035400  0.224900  1.0  -0.423
  N  N856  1  0.632300  0.583800  0.147600  1.0  -0.3988
  N  N857  1  0.166100  0.658000  0.540800  1.0  0.1445
  N  N858  1  0.443300  0.187000  0.084300  1.0  -0.4051
  N  N859  1  0.798800  0.305000  0.421900  1.0  -0.3821
  N  N860  1  0.849300  0.964600  0.275100  1.0  -0.4245
  N  N861  1  0.693300  0.170800  0.606300  1.0  0.1534
  N  N862  1  0.799900  0.996400  0.575900  1.0  -0.3838
  N  N863  1  0.392200  0.048200  0.004300  1.0  0.1293
  N  N864  1  0.735000  0.955800  0.422500  1.0  -0.3794
  N  N865  1  0.150700  0.035400  0.724900  1.0  -0.4239
  N  N866  1  0.279800  0.271200  0.343700  1.0  0.1566
  N  N867  1  0.539100  0.652000  0.595800  1.0  -0.362
  N  N868  1  0.284600  0.955400  0.489200  1.0  -0.3008
  N  N869  1  0.132700  0.587400  0.939500  1.0  0.1579
  N  N870  1  0.539000  0.467600  0.529800  1.0  -0.396
  N  N871  1  0.839900  0.085000  0.623100  1.0  -0.4164
  N  N872  1  0.936600  0.256000  0.818400  1.0  -0.3825
  N  N873  1  0.729900  0.894600  0.362100  1.0  -0.4155
  N  N874  1  0.243300  0.101600  0.886200  1.0  0.1386
  N  N875  1  0.159200  0.733200  0.698200  1.0  0.1287
  N  N876  1  0.680600  0.744000  0.681600  1.0  -0.3823
  N  N877  1  0.784300  0.368200  0.675600  1.0  0.0839
  N  N878  1  0.532700  0.427000  0.192700  1.0  -0.4578
  N  N879  1  0.319400  0.256000  0.318400  1.0  -0.3826
  N  N880  1  0.870200  0.987000  0.663800  1.0  -0.4143
  N  N881  1  0.951500  0.583800  0.647600  1.0  -0.3977
  N  N882  1  0.508100  0.342000  0.959200  1.0  0.1467
  N  N883  1  0.114400  0.677400  0.253000  1.0  -0.4077
  N  N884  1  0.116800  0.987000  0.163800  1.0  -0.4135
  N  N885  1  0.393800  0.201600  0.675100  1.0  -0.3965
  N  N886  1  0.200100  0.003600  0.424100  1.0  -0.3877
  N  N887  1  0.048500  0.416200  0.352400  1.0  -0.3942
  N  N888  1  0.447000  0.625200  0.242200  1.0  0.1626
  N  N889  1  0.196500  0.996400  0.075900  1.0  -0.3846
  N  N890  1  0.496500  0.230000  0.657100  1.0  -0.3624
  N  N891  1  0.133200  0.611200  0.101600  1.0  0.0211
  N  N892  1  0.223400  0.839600  0.370200  1.0  -0.4263
  N  N893  1  0.522000  0.388800  0.398400  1.0  0.0206
  N  N894  1  0.941900  0.091000  0.243300  1.0  -0.0749
  N  N895  1  0.522500  0.829200  0.893700  1.0  0.1524
  N  N896  1  0.987100  0.475200  0.762800  1.0  -0.2438
  N  N897  1  0.516600  0.333200  0.161100  1.0  -0.3314
  N  N898  1  0.227500  0.114600  0.713100  1.0  -0.2816
  N  N899  1  0.478000  0.611200  0.601600  1.0  0.021
  N  N900  1  0.454700  0.587400  0.439500  1.0  0.161
  N  N901  1  0.467300  0.573000  0.807300  1.0  -0.458
  N  N902  1  0.105700  0.573000  0.307300  1.0  -0.4591
  N  N903  1  0.506600  0.433000  0.761000  1.0  -0.3989
  N  N904  1  0.901300  0.304000  0.300400  1.0  -0.3882
  N  N905  1  0.437000  0.322600  0.247000  1.0  -0.4071
  N  N906  1  0.754900  0.915000  0.876900  1.0  -0.4158
  N  N907  1  0.432900  0.450800  0.306100  1.0  -0.0406
  N  N908  1  0.844800  0.341400  0.230600  1.0  -0.3824
  N  N909  1  0.192200  0.798400  0.824900  1.0  -0.3988
  N  N910  1  0.416100  0.631800  0.824400  1.0  0.0849
  N  N911  1  0.616200  0.839600  0.870200  1.0  -0.4262
  N  N912  1  0.887100  0.348000  0.904200  1.0  -0.3598
  N  N913  1  0.073600  0.567000  0.739000  1.0  -0.3982
  N  N914  1  0.496600  0.341400  0.730600  1.0  -0.3829
  N  N915  1  0.803500  0.003600  0.924100  1.0  -0.3868
  N  N916  1  0.164700  0.894600  0.862100  1.0  -0.4158
  N  N917  1  0.733500  0.230000  0.157100  1.0  -0.3632
  N  N918  1  0.188300  0.142200  0.249000  1.0  0.0094
  N  N919  1  0.810300  0.254600  0.458000  1.0  -0.4115
  N  N920  1  0.183900  0.707400  0.254000  1.0  0.1299
  N  N921  1  0.888400  0.102800  0.869200  1.0  -0.4334
  N  N922  1  0.836800  0.448000  0.060700  1.0  -0.3977
  N  N923  1  0.503400  0.658600  0.269400  1.0  -0.3827
  N  N924  1  0.306700  0.829200  0.393700  1.0  0.152
  N  N925  1  0.779200  0.044200  0.077500  1.0  -0.3776
  N  N926  1  0.833900  0.342000  0.459200  1.0  0.1466
  N  N927  1  0.571800  0.549200  0.124000  1.0  0.1054
  N  N928  1  0.129800  0.013000  0.336200  1.0  -0.4133
  N  N929  1  0.149100  0.091000  0.743300  1.0  -0.0737
  N  N930  1  0.112900  0.652000  0.095800  1.0  -0.3608
  N  N931  1  0.157800  0.954600  0.917400  1.0  0.1623
  N  N932  1  0.928600  0.467600  0.029800  1.0  -0.3966
  N  N933  1  0.189700  0.745400  0.542000  1.0  -0.412
  N  N934  1  0.245800  0.157000  0.202500  1.0  -0.3862
  N  N935  1  0.555700  0.745400  0.042000  1.0  -0.4128
  N  N936  1  0.885600  0.322600  0.747000  1.0  -0.4065
  N  N937  1  0.835300  0.105400  0.137900  1.0  -0.415
  N  N938  1  0.693600  0.786200  0.635100  1.0  -0.4358
  N  N939  1  0.506200  0.305000  0.921900  1.0  -0.383
  N  N940  1  0.092600  0.786200  0.135100  1.0  -0.4378
  N  N941  1  0.797900  0.054000  0.381700  1.0  -0.4237
  N  N942  1  0.351800  0.217600  0.747900  1.0  -0.4268
  N  N943  1  0.057500  0.950400  0.136100  1.0  0.1335
  N  N944  1  0.017900  0.450800  0.806100  1.0  -0.0414
  N  N945  1  0.264000  0.881000  0.509000  1.0  -0.4123
  N  N946  1  0.553000  0.374800  0.757800  1.0  0.1611
  N  N947  1  0.743700  0.187000  0.584300  1.0  -0.4054
  N  N948  1  0.132700  0.974200  0.422000  1.0  0.1743
  N  N949  1  0.954500  0.449000  0.813600  1.0  -0.3792
  N  N950  1  0.027000  0.469000  0.322700  1.0  -0.35
  N  N951  1  0.982100  0.549200  0.193900  1.0  -0.0407
  N  N952  1  0.617000  0.881000  0.009000  1.0  -0.4115
  N  N953  1  0.866800  0.388800  0.898400  1.0  0.0241
  N  N954  1  0.816600  0.333200  0.661100  1.0  -0.3296
  N  N955  1  0.402700  0.304000  0.800400  1.0  -0.3883
  N  N956  1  0.503500  0.563600  0.550600  1.0  -0.3873
  N  N957  1  0.442000  0.469000  0.822700  1.0  -0.351
  N  N958  1  0.491900  0.658000  0.040800  1.0  0.1445
  N  N959  1  0.953900  0.142200  0.749000  1.0  0.009
  N  N960  1  0.367700  0.416200  0.852400  1.0  -0.3955
  N  N961  1  0.556700  0.813000  0.915700  1.0  -0.405
  N  N962  1  0.214400  0.102800  0.369200  1.0  -0.4347
  N  N963  1  0.796800  0.954600  0.417400  1.0  0.1624
  N  N964  1  0.063400  0.744000  0.181600  1.0  -0.3824
  N  N965  1  0.939900  0.436400  0.949400  1.0  -0.3873
  N  N966  1  0.203200  0.045400  0.582600  1.0  0.1628
  N  N967  1  0.198100  0.864400  0.573000  1.0  -0.3524
  N  N968  1  0.801900  0.135600  0.427000  1.0  -0.3523
  N  N969  1  0.715400  0.044600  0.510800  1.0  -0.3028
  N  N970  1  0.558000  0.531000  0.177300  1.0  -0.3525
  N  N971  1  0.785600  0.897200  0.630800  1.0  -0.4337
  N  N972  1  0.845600  0.229600  0.707400  1.0  -0.3703
  N  N973  1  0.045500  0.551000  0.186400  1.0  -0.3783
  N  N974  1  0.088800  0.843000  0.297500  1.0  -0.3855
  N  N975  1  0.772500  0.885400  0.286900  1.0  -0.2779
  N  N976  1  0.511900  0.524800  0.737200  1.0  -0.2415
  N  N977  1  0.583900  0.368200  0.175600  1.0  0.0832
  N  N978  1  0.306400  0.213800  0.364900  1.0  -0.4393
  N  N979  1  0.496500  0.436400  0.449400  1.0  -0.3871
  N  N980  1  0.743900  0.946000  0.118300  1.0  -0.4245
  N  N981  1  0.567100  0.549200  0.693900  1.0  -0.0395
  N  N982  1  0.811700  0.857800  0.751000  1.0  0.0085
  N  N983  1  0.008600  0.728800  0.156300  1.0  0.1562
  N  N984  1  0.163200  0.552000  0.939300  1.0  -0.4017
  N  N985  1  0.488100  0.475200  0.262800  1.0  -0.2446
  N  N986  1  0.265000  0.044200  0.577500  1.0  -0.3789
  N  N987  1  0.607800  0.951800  0.995700  1.0  0.1262
  N  N988  1  0.329200  0.044600  0.010800  1.0  -0.3031
  N  N989  1  0.154400  0.770400  0.292600  1.0  -0.3721
  N  N990  1  0.807800  0.201600  0.175100  1.0  -0.3951
  N  N991  1  0.012900  0.524800  0.237200  1.0  -0.2416
  N  N992  1  0.007500  0.181000  0.741600  1.0  -0.4153
  N  N993  1  0.384000  0.229600  0.207400  1.0  -0.3716
  N  N994  1  0.648200  0.782400  0.252100  1.0  -0.426
  N  N995  1  0.720200  0.728800  0.656300  1.0  0.1559
  N  N996  1  0.493400  0.567000  0.239000  1.0  -0.3961
  N  N997  1  0.111600  0.897200  0.130800  1.0  -0.434
  N  N998  1  0.256300  0.813000  0.415700  1.0  -0.4062
  N  N999  1  0.991400  0.271200  0.843700  1.0  0.1566
  N  N1000  1  0.942500  0.049600  0.863900  1.0  0.1325
  N  N1001  1  0.210200  0.748600  0.857400  1.0  0.0956
  N  N1002  1  0.160100  0.915000  0.376900  1.0  -0.4147
  N  N1003  1  0.736000  0.119000  0.491000  1.0  -0.4147
  N  N1004  1  0.597300  0.696000  0.199600  1.0  -0.3894
  N  N1005  1  0.816100  0.292600  0.746000  1.0  0.1307
  N  N1006  1  0.776600  0.160400  0.629800  1.0  -0.4257
  N  N1007  1  0.256100  0.054000  0.881700  1.0  -0.4244
  N  N1008  1  0.141700  0.898400  0.613800  1.0  0.1399
  N  N1009  1  0.883200  0.013000  0.836200  1.0  -0.4149
  N  N1010  1  0.867300  0.025800  0.578000  1.0  0.1747
  N  N1011  1  0.444300  0.254600  0.958000  1.0  -0.4122
  N  N1012  1  0.841500  0.974200  0.922000  1.0  0.1742
  N  N1013  1  0.428200  0.450800  0.876000  1.0  0.1048
  N  N1014  1  0.666300  0.864400  0.073000  1.0  -0.3527
  N  N1015  1  0.383000  0.119000  0.991000  1.0  -0.4144
  N  N1016  1  0.606200  0.798400  0.324900  1.0  -0.3978
  N  N1017  1  0.426000  0.266800  0.801800  1.0  0.1298
  N  N1018  1  0.046100  0.857800  0.251000  1.0  0.0094
  N  N1019  1  0.977400  0.549200  0.624000  1.0  0.1051
  N  N1020  1  0.616000  0.770400  0.792600  1.0  -0.3711
  N  N1021  1  0.245100  0.085000  0.123100  1.0  -0.4158
  N  N1022  1  0.178200  0.625200  0.742200  1.0  0.1606
  N  N1023  1  0.483400  0.666800  0.838900  1.0  -0.3308
  N  N1024  1  0.107100  0.049600  0.363900  1.0  0.1333
  N  N1025  1  0.911200  0.157000  0.702500  1.0  -0.3854
  N  N1026  1  0.756700  0.898400  0.113800  1.0  0.1401
  N  N1027  1  0.858300  0.101600  0.386200  1.0  0.137
  N  N1028  1  0.545300  0.412600  0.560500  1.0  0.1596
  N  N1029  1  0.388800  0.552000  0.439300  1.0  -0.3982
  N  N1030  1  0.383800  0.160400  0.129800  1.0  -0.4262
  N  N1031  1  0.973000  0.531000  0.677300  1.0  -0.3528
  N  N1032  1  0.173500  0.181000  0.241600  1.0  -0.4133
  N  N1033  1  0.215700  0.631800  0.324400  1.0  0.0841
  N  N1034  1  0.867300  0.412600  0.060500  1.0  0.1601
  N  N1035  1  0.058100  0.909000  0.756700  1.0  -0.0728
  N  N1036  1  0.220800  0.955800  0.922500  1.0  -0.38
  N  N1037  1  0.670800  0.955400  0.989200  1.0  -0.3019
  N  N1038  1  0.060100  0.563600  0.050600  1.0  -0.3873
  N  N1039  1  0.574000  0.733200  0.198200  1.0  0.1269
  N  N1040  1  0.461000  0.532400  0.470200  1.0  -0.3962
  N  N1041  1  0.112900  0.885400  0.786900  1.0  -0.2784
  N  N1042  1  0.992500  0.819000  0.258400  1.0  -0.414
  N  N1043  1  0.887100  0.114600  0.213100  1.0  -0.2798
  N  N1044  1  0.894300  0.427000  0.692700  1.0  -0.4564
  N  N1045  1  0.134200  0.782400  0.752100  1.0  -0.4272
  N  N1046  1  0.476500  0.292600  0.246000  1.0  0.13
  N  N1047  1  0.098700  0.696000  0.699600  1.0  -0.3895
  N  N1048  1  0.503500  0.770000  0.342900  1.0  -0.3635
  N  N1049  1  0.865800  0.217600  0.247900  1.0  -0.4252
  N  N1050  1  0.523500  0.707400  0.754000  1.0  0.1301
  O  O1051  1  0.569000  0.149000  0.873000  1.0  -0.643
  O  O1052  1  0.660000  0.135000  0.711300  1.0  -0.7609
  O  O1053  1  0.383700  0.065800  0.759200  1.0  -0.745
  O  O1054  1  0.423700  0.081400  0.363300  1.0  -0.6957
  O  O1055  1  0.597400  0.158000  0.773500  1.0  -0.6422
  O  O1056  1  0.431000  0.851000  0.127000  1.0  -0.6435
  O  O1057  1  0.633000  0.030200  0.652900  1.0  -0.6871
  O  O1058  1  0.432000  0.935800  0.198400  1.0  -0.8473
  O  O1059  1  0.420000  0.851000  0.627000  1.0  -0.6433
  O  O1060  1  0.252500  0.898800  0.796900  1.0  -0.7218
  O  O1061  1  0.475000  0.135000  0.211300  1.0  -0.7599
  O  O1062  1  0.487900  0.902800  0.580100  1.0  -0.6486
  O  O1063  1  0.632100  0.115400  0.223700  1.0  -0.7127
  O  O1064  1  0.439400  0.842000  0.726500  1.0  -0.6416
  O  O1065  1  0.483300  0.115400  0.723700  1.0  -0.7128
  O  O1066  1  0.580000  0.149000  0.373000  1.0  -0.6432
  O  O1067  1  0.586300  0.957000  0.344500  1.0  -0.7197
  O  O1068  1  0.658500  0.009600  0.794200  1.0  -0.6787
  O  O1069  1  0.685700  0.092600  0.763600  1.0  -0.6718
  O  O1070  1  0.312500  0.983000  0.690000  1.0  -0.7039
  O  O1071  1  0.747500  0.101200  0.203100  1.0  -0.7226
  O  O1072  1  0.616300  0.934200  0.240800  1.0  -0.7446
  O  O1073  1  0.545400  0.018000  0.596700  1.0  -0.6582
  O  O1074  1  0.648900  0.990400  0.705800  1.0  -0.6797
  O  O1075  1  0.367000  0.969800  0.347100  1.0  -0.688
  O  O1076  1  0.559600  0.989800  0.206800  1.0  -0.8236
  O  O1077  1  0.505500  0.862600  0.187200  1.0  -0.6769
  O  O1078  1  0.351100  0.009600  0.294200  1.0  -0.68
  O  O1079  1  0.670500  0.983000  0.190000  1.0  -0.7032
  O  O1080  1  0.545500  0.101000  0.663300  1.0  -0.675
  O  O1081  1  0.489900  0.976600  0.648200  1.0  -0.7269
  O  O1082  1  0.516700  0.884600  0.276300  1.0  -0.7126
  O  O1083  1  0.512100  0.097200  0.419900  1.0  -0.6406
  O  O1084  1  0.486700  0.976600  0.148200  1.0  -0.7269
  O  O1085  1  0.569800  0.010200  0.293200  1.0  -0.8234
  O  O1086  1  0.511800  0.836200  0.667400  1.0  -0.673
  O  O1087  1  0.402600  0.842000  0.226500  1.0  -0.6416
  O  O1088  1  0.439100  0.094400  0.863900  1.0  -0.6486
  O  O1089  1  0.496200  0.064200  0.301600  1.0  -0.8472
  O  O1090  1  0.454600  0.982000  0.403300  1.0  -0.6569
  O  O1091  1  0.314300  0.907400  0.236400  1.0  -0.6715
  O  O1092  1  0.675600  0.163800  0.832600  1.0  -0.6716
  O  O1093  1  0.410400  0.961400  0.589700  1.0  -0.6965
  O  O1094  1  0.589600  0.038600  0.410300  1.0  -0.6965
  O  O1095  1  0.341500  0.990400  0.205800  1.0  -0.6806
  O  O1096  1  0.558600  0.044400  0.714100  1.0  -0.7948
  O  O1097  1  0.317900  0.934200  0.740800  1.0  -0.7463
  O  O1098  1  0.629300  0.043000  0.155500  1.0  -0.7218
  O  O1099  1  0.682100  0.065800  0.259200  1.0  -0.7439
  O  O1100  1  0.551000  0.961400  0.089700  1.0  -0.6964
  O  O1101  1  0.472600  0.018000  0.096700  1.0  -0.6576
  O  O1102  1  0.342300  0.918600  0.136700  1.0  -0.6928
  O  O1103  1  0.576300  0.918600  0.636700  1.0  -0.6924
  O  O1104  1  0.454500  0.899000  0.336700  1.0  -0.6736
  O  O1105  1  0.655300  0.094400  0.363900  1.0  -0.6485
  O  O1106  1  0.514200  0.955600  0.785900  1.0  -0.7921
  O  O1107  1  0.414900  0.902800  0.080100  1.0  -0.6495
  O  O1108  1  0.568000  0.064200  0.801600  1.0  -0.8471
  O  O1109  1  0.440400  0.010200  0.793200  1.0  -0.8219
  O  O1110  1  0.642900  0.137400  0.312800  1.0  -0.6765
  O  O1111  1  0.397200  0.030200  0.152900  1.0  -0.6878
  O  O1112  1  0.657700  0.081400  0.863300  1.0  -0.696
  O  O1113  1  0.344700  0.905600  0.636100  1.0  -0.6479
  O  O1114  1  0.687500  0.017000  0.310000  1.0  -0.7027
  O  O1115  1  0.585100  0.097200  0.919900  1.0  -0.6404
  O  O1116  1  0.513300  0.023400  0.851800  1.0  -0.7271
  O  O1117  1  0.527400  0.982000  0.903300  1.0  -0.6577
  O  O1118  1  0.441400  0.955600  0.285900  1.0  -0.7929
  O  O1119  1  0.367900  0.884600  0.776300  1.0  -0.7126
  O  O1120  1  0.510100  0.023400  0.351800  1.0  -0.7273
  O  O1121  1  0.353700  0.101200  0.703100  1.0  -0.7216
  O  O1122  1  0.430200  0.989800  0.706800  1.0  -0.8223
  O  O1123  1  0.488200  0.163800  0.332600  1.0  -0.6723
  O  O1124  1  0.560600  0.158000  0.273500  1.0  -0.6423
  O  O1125  1  0.560900  0.905600  0.136100  1.0  -0.648
  O  O1126  1  0.494500  0.137400  0.812800  1.0  -0.6761
  O  O1127  1  0.646300  0.898800  0.296900  1.0  -0.7224
  O  O1128  1  0.449000  0.038600  0.910300  1.0  -0.6965
  O  O1129  1  0.329500  0.017000  0.810000  1.0  -0.7032
  O  O1130  1  0.602800  0.969800  0.847100  1.0  -0.6882
  O  O1131  1  0.357100  0.862600  0.687200  1.0  -0.6763
  O  O1132  1  0.555500  0.101000  0.163300  1.0  -0.6745
  O  O1133  1  0.485800  0.044400  0.214100  1.0  -0.793
  O  O1134  1  0.340000  0.865000  0.288700  1.0  -0.7603
  O  O1135  1  0.370700  0.957000  0.844500  1.0  -0.7205
  O  O1136  1  0.406900  0.092600  0.263600  1.0  -0.6707
  O  O1137  1  0.324400  0.836200  0.167400  1.0  -0.6736
  O  O1138  1  0.525000  0.865000  0.788700  1.0  -0.7614
  O  O1139  1  0.503800  0.935800  0.698400  1.0  -0.8471
  O  O1140  1  0.413700  0.043000  0.655500  1.0  -0.7221
  O  O1141  1  0.444500  0.899000  0.836700  1.0  -0.6739
  O  O1142  1  0.593100  0.907400  0.736400  1.0  -0.6718
