# generated using pymatgen
data_Cd3H36C48(N5O7)2
_symmetry_space_group_name_H-M   'P 1'
_cell_length_a   29.59550000
_cell_length_b   29.59550000
_cell_length_c   29.59550000
_cell_angle_alpha   90.00000000
_cell_angle_beta   90.00000000
_cell_angle_gamma   90.00000000
_symmetry_Int_Tables_number   1
_chemical_formula_structural   Cd3H36C48(N5O7)2
_chemical_formula_sum   'Cd36 H432 C576 N120 O168'
_cell_volume   25922.50963811
_cell_formula_units_Z   12
loop_
 _symmetry_equiv_pos_site_id
 _symmetry_equiv_pos_as_xyz
  1  'x, y, z'
loop_
 _atom_site_type_symbol
 _atom_site_label
 _atom_site_symmetry_multiplicity
 _atom_site_fract_x
 _atom_site_fract_y
 _atom_site_fract_z
 _atom_site_occupancy
 _atom_site_charge
  Cd  Cd1  1  0.973930  0.228130  0.752070  1.0  1.074
  Cd  Cd2  1  0.776070  0.997930  0.521870  1.0  1.0767
  Cd  Cd3  1  0.223930  0.497930  0.978130  1.0  1.0751
  Cd  Cd4  1  0.526070  0.771870  0.252070  1.0  1.0764
  Cd  Cd5  1  0.978130  0.223930  0.497930  1.0  1.0745
  Cd  Cd6  1  0.747930  0.026070  0.728130  1.0  1.0759
  Cd  Cd7  1  0.247930  0.473930  0.271870  1.0  1.0741
  Cd  Cd8  1  0.563240  0.375000  0.186760  1.0  0.9348
  Cd  Cd9  1  0.473930  0.271870  0.247930  1.0  1.0747
  Cd  Cd10  1  0.997930  0.521870  0.776070  1.0  1.0705
  Cd  Cd11  1  0.723930  0.002070  0.021870  1.0  1.0756
  Cd  Cd12  1  0.625000  0.686760  0.936760  1.0  0.9393
  Cd  Cd13  1  0.228130  0.752070  0.973930  1.0  1.0707
  Cd  Cd14  1  0.502070  0.478130  0.276070  1.0  1.0693
  Cd  Cd15  1  0.021870  0.723930  0.002070  1.0  1.0744
  Cd  Cd16  1  0.813240  0.063240  0.125000  1.0  0.9358
  Cd  Cd17  1  0.686760  0.936760  0.625000  1.0  0.9376
  Cd  Cd18  1  0.026070  0.728130  0.747930  1.0  1.0755
  Cd  Cd19  1  0.125000  0.813240  0.063240  1.0  0.939
  Cd  Cd20  1  0.478130  0.276070  0.502070  1.0  1.0768
  Cd  Cd21  1  0.002070  0.021870  0.723930  1.0  1.071
  Cd  Cd22  1  0.728130  0.747930  0.026070  1.0  1.0713
  Cd  Cd23  1  0.771870  0.252070  0.526070  1.0  1.0711
  Cd  Cd24  1  0.521870  0.776070  0.997930  1.0  1.0757
  Cd  Cd25  1  0.276070  0.502070  0.478130  1.0  1.0762
  Cd  Cd26  1  0.875000  0.313240  0.436760  1.0  0.939
  Cd  Cd27  1  0.186760  0.563240  0.375000  1.0  0.9373
  Cd  Cd28  1  0.271870  0.247930  0.473930  1.0  1.0699
  Cd  Cd29  1  0.752070  0.973930  0.228130  1.0  1.0744
  Cd  Cd30  1  0.436760  0.875000  0.313240  1.0  0.936
  Cd  Cd31  1  0.063240  0.125000  0.813240  1.0  0.9349
  Cd  Cd32  1  0.936760  0.625000  0.686760  1.0  0.9364
  Cd  Cd33  1  0.375000  0.186760  0.563240  1.0  0.9393
  Cd  Cd34  1  0.497930  0.978130  0.223930  1.0  1.0688
  Cd  Cd35  1  0.313240  0.436760  0.875000  1.0  0.936
  Cd  Cd36  1  0.252070  0.526070  0.771870  1.0  1.0762
  H  H37  1  0.932400  0.047100  0.190200  1.0  0.0807
  H  H38  1  0.722500  0.112100  0.344700  1.0  0.1171
  H  H39  1  0.360100  0.795200  0.303000  1.0  0.0914
  H  H40  1  0.309800  0.067600  0.547100  1.0  0.0804
  H  H41  1  0.074900  0.627200  0.158800  1.0  0.0593
  H  H42  1  0.481800  0.759400  0.470800  1.0  0.0727
  H  H43  1  0.809800  0.432400  0.452900  1.0  0.0811
  H  H44  1  0.995500  0.331900  0.635500  1.0  0.1052
  H  H45  1  0.998000  0.692100  0.595800  1.0  0.0824
  H  H46  1  0.887900  0.844700  0.777500  1.0  0.1177
  H  H47  1  0.610100  0.947000  0.545200  1.0  0.0932
  H  H48  1  0.790000  0.180500  0.269100  1.0  0.1005
  H  H49  1  0.110100  0.553000  0.454800  1.0  0.09
  H  H50  1  0.748100  0.433500  0.517900  1.0  0.0781
  H  H51  1  0.917700  0.710900  0.629000  1.0  0.0861
  H  H52  1  0.668100  0.135500  0.504500  1.0  0.1061
  H  H53  1  0.596900  0.949900  0.280400  1.0  0.0782
  H  H54  1  0.425100  0.372800  0.658800  1.0  0.0596
  H  H55  1  0.572700  0.620100  0.200500  1.0  0.0893
  H  H56  1  0.795100  0.898800  0.627300  1.0  0.1052
  H  H57  1  0.530400  0.300100  0.346900  1.0  0.0781
  H  H58  1  0.729000  0.830400  0.437300  1.0  0.0728
  H  H59  1  0.303000  0.360100  0.795200  1.0  0.0926
  H  H60  1  0.824900  0.408800  0.622800  1.0  0.0596
  H  H61  1  0.732100  0.183500  0.998100  1.0  0.0767
  H  H62  1  0.853900  0.143700  0.779500  1.0  0.1169
  H  H63  1  0.521000  0.187300  0.080400  1.0  0.0702
  H  H64  1  0.449900  0.219600  0.403100  1.0  0.077
  H  H65  1  0.029500  0.106300  0.603900  1.0  0.1187
  H  H66  1  0.622700  0.648800  0.045100  1.0  0.1053
  H  H67  1  0.187300  0.080400  0.521000  1.0  0.0697
  H  H68  1  0.364500  0.495500  0.168100  1.0  0.1082
  H  H69  1  0.748000  0.845800  0.557900  1.0  0.0788
  H  H70  1  0.777500  0.887900  0.844700  1.0  0.1169
  H  H71  1  0.700500  0.927300  0.379900  1.0  0.0888
  H  H72  1  0.135500  0.504500  0.668100  1.0  0.1074
  H  H73  1  0.704700  0.448700  0.437800  1.0  0.0688
  H  H74  1  0.330400  0.062700  0.271000  1.0  0.0711
  H  H75  1  0.549500  0.129900  0.177300  1.0  0.0905
  H  H76  1  0.096900  0.550100  0.719600  1.0  0.0771
  H  H77  1  0.550100  0.719600  0.096900  1.0  0.0771
  H  H78  1  0.245500  0.614500  0.081900  1.0  0.1071
  H  H79  1  0.198700  0.954700  0.812200  1.0  0.0684
  H  H80  1  0.595800  0.998000  0.692100  1.0  0.081
  H  H81  1  0.404200  0.498000  0.807900  1.0  0.0803
  H  H82  1  0.980900  0.930500  0.040000  1.0  0.0989
  H  H83  1  0.066500  0.482100  0.248100  1.0  0.0733
  H  H84  1  0.675600  0.156700  0.180900  1.0  0.0995
  H  H85  1  0.698700  0.545300  0.187800  1.0  0.0702
  H  H86  1  0.927300  0.379900  0.700500  1.0  0.0898
  H  H87  1  0.933500  0.982100  0.251900  1.0  0.0743
  H  H88  1  0.495500  0.168100  0.364500  1.0  0.1053
  H  H89  1  0.021000  0.312700  0.919600  1.0  0.0723
  H  H90  1  0.606300  0.896100  0.970500  1.0  0.1199
  H  H91  1  0.322700  0.450500  0.629900  1.0  0.0888
  H  H92  1  0.803000  0.139900  0.204800  1.0  0.0927
  H  H93  1  0.872700  0.204900  0.398800  1.0  0.1043
  H  H94  1  0.001900  0.232100  0.316500  1.0  0.0769
  H  H95  1  0.581900  0.254500  0.385500  1.0  0.1048
  H  H96  1  0.681200  0.008200  0.464900  1.0  0.0916
  H  H97  1  0.846900  0.969600  0.699900  1.0  0.0776
  H  H98  1  0.387900  0.655300  0.222500  1.0  0.1171
  H  H99  1  0.830400  0.437300  0.729000  1.0  0.0715
  H  H100  1  0.856300  0.279500  0.646100  1.0  0.1193
  H  H101  1  0.220500  0.353900  0.356300  1.0  0.1191
  H  H102  1  0.344700  0.722500  0.112100  1.0  0.1178
  H  H103  1  0.710000  0.819500  0.769100  1.0  0.1002
  H  H104  1  0.094700  0.362100  0.527500  1.0  0.1168
  H  H105  1  0.687800  0.801300  0.454700  1.0  0.0688
  H  H106  1  0.801300  0.454700  0.687800  1.0  0.0674
  H  H107  1  0.594700  0.137900  0.472500  1.0  0.1161
  H  H108  1  0.646100  0.856300  0.279500  1.0  0.1183
  H  H109  1  0.795300  0.551300  0.937800  1.0  0.068
  H  H110  1  0.332300  0.379000  0.960900  1.0  0.0875
  H  H111  1  0.432400  0.452900  0.809800  1.0  0.0806
  H  H112  1  0.498100  0.767900  0.816500  1.0  0.0763
  H  H113  1  0.271000  0.330400  0.062700  1.0  0.0743
  H  H114  1  0.148800  0.454900  0.377300  1.0  0.1037
  H  H115  1  0.621000  0.460900  0.167700  1.0  0.0887
  H  H116  1  0.454800  0.110100  0.553000  1.0  0.0919
  H  H117  1  0.960900  0.332300  0.379000  1.0  0.0895
  H  H118  1  0.529500  0.393700  0.396100  1.0  0.119
  H  H119  1  0.614500  0.081900  0.245500  1.0  0.1081
  H  H120  1  0.818800  0.991800  0.964900  1.0  0.0921
  H  H121  1  0.680900  0.824400  0.843300  1.0  0.0966
  H  H122  1  0.797100  0.182400  0.059800  1.0  0.0801
  H  H123  1  0.372700  0.295100  0.601200  1.0  0.1042
  H  H124  1  0.949900  0.280400  0.596900  1.0  0.0774
  H  H125  1  0.517900  0.748100  0.433500  1.0  0.0786
  H  H126  1  0.822700  0.049500  0.370100  1.0  0.0893
  H  H127  1  0.454900  0.377300  0.148800  1.0  0.1053
  H  H128  1  0.403100  0.449900  0.219600  1.0  0.0779
  H  H129  1  0.591200  0.122800  0.675100  1.0  0.0583
  H  H130  1  0.501900  0.267900  0.683500  1.0  0.0772
  H  H131  1  0.045200  0.889900  0.053000  1.0  0.0912
  H  H132  1  0.741800  0.068800  0.285100  1.0  0.0931
  H  H133  1  0.182400  0.059800  0.797100  1.0  0.0806
  H  H134  1  0.658800  0.425100  0.372800  1.0  0.0583
  H  H135  1  0.122800  0.675100  0.591200  1.0  0.0582
  H  H136  1  0.389900  0.447000  0.954800  1.0  0.0927
  H  H137  1  0.580400  0.979000  0.812700  1.0  0.0741
  H  H138  1  0.769100  0.710000  0.819500  1.0  0.0983
  H  H139  1  0.860100  0.704800  0.697000  1.0  0.0902
  H  H140  1  0.289100  0.129000  0.582300  1.0  0.0887
  H  H141  1  0.789100  0.371000  0.417700  1.0  0.0891
  H  H142  1  0.879900  0.799500  0.072700  1.0  0.0898
  H  H143  1  0.210000  0.680500  0.230900  1.0  0.1007
  H  H144  1  0.745500  0.885500  0.918100  1.0  0.107
  H  H145  1  0.930500  0.040000  0.980900  1.0  0.0995
  H  H146  1  0.699900  0.846900  0.969600  1.0  0.0773
  H  H147  1  0.220800  0.009400  0.768200  1.0  0.0755
  H  H148  1  0.122700  0.851200  0.954900  1.0  0.1044
  H  H149  1  0.408800  0.622800  0.824900  1.0  0.0579
  H  H150  1  0.062700  0.271000  0.330400  1.0  0.0673
  H  H151  1  0.047100  0.190200  0.932400  1.0  0.0828
  H  H152  1  0.731800  0.779200  0.509400  1.0  0.0699
  H  H153  1  0.430500  0.460000  0.019100  1.0  0.0999
  H  H154  1  0.277500  0.612100  0.155300  1.0  0.1173
  H  H155  1  0.862100  0.972500  0.905300  1.0  0.1177
  H  H156  1  0.155300  0.277500  0.612100  1.0  0.1181
  H  H157  1  0.318800  0.508200  0.035100  1.0  0.0923
  H  H158  1  0.137900  0.472500  0.594700  1.0  0.1171
  H  H159  1  0.780400  0.903100  0.050100  1.0  0.0795
  H  H160  1  0.948700  0.062200  0.295300  1.0  0.0678
  H  H161  1  0.904200  0.002000  0.192100  1.0  0.0818
  H  H162  1  0.004500  0.831900  0.864500  1.0  0.1052
  H  H163  1  0.370100  0.822700  0.049500  1.0  0.0889
  H  H164  1  0.192100  0.904200  0.002000  1.0  0.0785
  H  H165  1  0.183500  0.998100  0.732100  1.0  0.0785
  H  H166  1  0.574900  0.872800  0.841200  1.0  0.0588
  H  H167  1  0.190200  0.932400  0.047100  1.0  0.0799
  H  H168  1  0.372800  0.658800  0.425100  1.0  0.0576
  H  H169  1  0.285100  0.741800  0.068800  1.0  0.094
  H  H170  1  0.319500  0.730900  0.290000  1.0  0.0988
  H  H171  1  0.680500  0.230900  0.210000  1.0  0.0984
  H  H172  1  0.627200  0.158800  0.074900  1.0  0.0578
  H  H173  1  0.490600  0.231800  0.720800  1.0  0.0739
  H  H174  1  0.204700  0.051300  0.562200  1.0  0.0692
  H  H175  1  0.702900  0.817600  0.559800  1.0  0.0803
  H  H176  1  0.393700  0.396100  0.529500  1.0  0.1188
  H  H177  1  0.331900  0.635500  0.995500  1.0  0.1062
  H  H178  1  0.896100  0.970500  0.606300  1.0  0.1188
  H  H179  1  0.540000  0.519100  0.069500  1.0  0.0991
  H  H180  1  0.919600  0.021000  0.312700  1.0  0.0736
  H  H181  1  0.767900  0.816500  0.498100  1.0  0.0791
  H  H182  1  0.669600  0.562700  0.229000  1.0  0.0708
  H  H183  1  0.127200  0.341200  0.925100  1.0  0.0587
  H  H184  1  0.324400  0.656700  0.319100  1.0  0.0977
  H  H185  1  0.175600  0.343300  0.819100  1.0  0.099
  H  H186  1  0.279200  0.990600  0.268200  1.0  0.0725
  H  H187  1  0.379000  0.960900  0.332300  1.0  0.0897
  H  H188  1  0.654200  0.442100  0.248000  1.0  0.0811
  H  H189  1  0.448700  0.437800  0.704700  1.0  0.0696
  H  H190  1  0.168100  0.364500  0.495500  1.0  0.1063
  H  H191  1  0.545200  0.610100  0.947000  1.0  0.0881
  H  H192  1  0.082300  0.210900  0.871000  1.0  0.0883
  H  H193  1  0.960000  0.480900  0.569500  1.0  0.0989
  H  H194  1  0.508200  0.035100  0.318800  1.0  0.0933
  H  H195  1  0.371000  0.417700  0.789100  1.0  0.0877
  H  H196  1  0.812700  0.580400  0.979000  1.0  0.0679
  H  H197  1  0.504500  0.668100  0.135500  1.0  0.105
  H  H198  1  0.937300  0.771000  0.169600  1.0  0.0705
  H  H199  1  0.240600  0.970800  0.018200  1.0  0.0715
  H  H200  1  0.230900  0.210000  0.680500  1.0  0.0994
  H  H201  1  0.377200  0.324900  0.091200  1.0  0.0582
  H  H202  1  0.629000  0.917700  0.710900  1.0  0.0872
  H  H203  1  0.480900  0.569500  0.960000  1.0  0.0988
  H  H204  1  0.180900  0.675600  0.156700  1.0  0.0967
  H  H205  1  0.251900  0.933500  0.982100  1.0  0.0796
  H  H206  1  0.280400  0.596900  0.949900  1.0  0.0783
  H  H207  1  0.259400  0.029200  0.518200  1.0  0.0717
  H  H208  1  0.248000  0.654200  0.442100  1.0  0.0769
  H  H209  1  0.970500  0.606300  0.896100  1.0  0.1192
  H  H210  1  0.832300  0.121000  0.039100  1.0  0.0873
  H  H211  1  0.143700  0.779500  0.853900  1.0  0.12
  H  H212  1  0.930900  0.406700  0.574400  1.0  0.0978
  H  H213  1  0.844700  0.777500  0.887900  1.0  0.1179
  H  H214  1  0.129000  0.582300  0.289100  1.0  0.0881
  H  H215  1  0.871000  0.082300  0.210900  1.0  0.0881
  H  H216  1  0.795200  0.303000  0.360100  1.0  0.0922
  H  H217  1  0.430900  0.093300  0.425600  1.0  0.0972
  H  H218  1  0.979000  0.812700  0.580400  1.0  0.0725
  H  H219  1  0.002000  0.192100  0.904200  1.0  0.0828
  H  H220  1  0.379900  0.700500  0.927300  1.0  0.0896
  H  H221  1  0.620100  0.200500  0.572700  1.0  0.0897
  H  H222  1  0.872800  0.841200  0.574900  1.0  0.0577
  H  H223  1  0.845800  0.557900  0.748000  1.0  0.0817
  H  H224  1  0.491800  0.535100  0.181200  1.0  0.0918
  H  H225  1  0.248100  0.066500  0.482100  1.0  0.0788
  H  H226  1  0.362100  0.527500  0.094700  1.0  0.1179
  H  H227  1  0.819100  0.175600  0.343300  1.0  0.0972
  H  H228  1  0.241800  0.431200  0.714900  1.0  0.0903
  H  H229  1  0.981800  0.740600  0.529200  1.0  0.0746
  H  H230  1  0.127300  0.704900  0.101200  1.0  0.1041
  H  H231  1  0.454700  0.687800  0.801300  1.0  0.0693
  H  H232  1  0.682400  0.440200  0.202900  1.0  0.0809
  H  H233  1  0.405300  0.637900  0.027500  1.0  0.117
  H  H234  1  0.316500  0.001900  0.232100  1.0  0.077
  H  H235  1  0.187800  0.698700  0.545300  1.0  0.0693
  H  H236  1  0.710900  0.629000  0.917700  1.0  0.0887
  H  H237  1  0.502000  0.307900  0.095800  1.0  0.0819
  H  H238  1  0.622800  0.824900  0.408800  1.0  0.0592
  H  H239  1  0.603900  0.029500  0.106300  1.0  0.1192
  H  H240  1  0.990600  0.268200  0.279200  1.0  0.0743
  H  H241  1  0.258200  0.568800  0.214900  1.0  0.0918
  H  H242  1  0.545300  0.187800  0.698700  1.0  0.0697
  H  H243  1  0.498000  0.807900  0.404200  1.0  0.0815
  H  H244  1  0.648800  0.045100  0.622700  1.0  0.1041
  H  H245  1  0.120100  0.299500  0.427300  1.0  0.0901
  H  H246  1  0.231800  0.720800  0.490600  1.0  0.0736
  H  H247  1  0.418100  0.754500  0.114500  1.0  0.1049
  H  H248  1  0.254500  0.385500  0.581900  1.0  0.1067
  H  H249  1  0.535100  0.181200  0.491800  1.0  0.0937
  H  H250  1  0.812200  0.198700  0.954700  1.0  0.0694
  H  H251  1  0.307900  0.095800  0.502000  1.0  0.078
  H  H252  1  0.081900  0.245500  0.614500  1.0  0.1047
  H  H253  1  0.452900  0.809800  0.432400  1.0  0.0811
  H  H254  1  0.906700  0.925600  0.069100  1.0  0.0976
  H  H255  1  0.029200  0.518200  0.259400  1.0  0.0711
  H  H256  1  0.343300  0.819100  0.175600  1.0  0.0983
  H  H257  1  0.154200  0.057900  0.752000  1.0  0.08
  H  H258  1  0.396100  0.529500  0.393700  1.0  0.1198
  H  H259  1  0.030400  0.199900  0.653100  1.0  0.0782
  H  H260  1  0.229000  0.669600  0.562700  1.0  0.0732
  H  H261  1  0.210900  0.871000  0.082300  1.0  0.0895
  H  H262  1  0.697000  0.860100  0.704800  1.0  0.0916
  H  H263  1  0.204800  0.803000  0.139900  1.0  0.092
  H  H264  1  0.095800  0.502000  0.307900  1.0  0.0828
  H  H265  1  0.692100  0.595800  0.998000  1.0  0.0777
  H  H266  1  0.569100  0.593300  0.074400  1.0  0.098
  H  H267  1  0.040000  0.980900  0.930500  1.0  0.0995
  H  H268  1  0.799500  0.072700  0.879900  1.0  0.089
  H  H269  1  0.545100  0.877300  0.351200  1.0  0.105
  H  H270  1  0.559800  0.702900  0.817600  1.0  0.0809
  H  H271  1  0.301300  0.045300  0.312200  1.0  0.0697
  H  H272  1  0.440200  0.202900  0.682400  1.0  0.082
  H  H273  1  0.931200  0.785100  0.758200  1.0  0.0933
  H  H274  1  0.027500  0.405300  0.637900  1.0  0.1175
  H  H275  1  0.690200  0.567600  0.952900  1.0  0.0789
  H  H276  1  0.017900  0.751900  0.566500  1.0  0.0817
  H  H277  1  0.714900  0.241800  0.431200  1.0  0.0941
  H  H278  1  0.204900  0.398800  0.872700  1.0  0.1054
  H  H279  1  0.539100  0.667700  0.879000  1.0  0.0897
  H  H280  1  0.518200  0.259400  0.029200  1.0  0.0743
  H  H281  1  0.991800  0.964900  0.818800  1.0  0.0934
  H  H282  1  0.720800  0.490600  0.231800  1.0  0.0742
  H  H283  1  0.942100  0.252000  0.345800  1.0  0.0835
  H  H284  1  0.637900  0.027500  0.405300  1.0  0.1183
  H  H285  1  0.918100  0.745500  0.885500  1.0  0.1042
  H  H286  1  0.843300  0.680900  0.824400  1.0  0.0984
  H  H287  1  0.779200  0.509400  0.731800  1.0  0.0729
  H  H288  1  0.800100  0.153100  0.469600  1.0  0.0778
  H  H289  1  0.008200  0.464900  0.681200  1.0  0.0936
  H  H290  1  0.816500  0.498100  0.767900  1.0  0.0785
  H  H291  1  0.057900  0.752000  0.154200  1.0  0.0811
  H  H292  1  0.824400  0.843300  0.680900  1.0  0.0982
  H  H293  1  0.112100  0.344700  0.722500  1.0  0.1165
  H  H294  1  0.290000  0.319500  0.730900  1.0  0.1005
  H  H295  1  0.547100  0.309800  0.067600  1.0  0.082
  H  H296  1  0.053000  0.045200  0.889900  1.0  0.0907
  H  H297  1  0.593300  0.074400  0.569100  1.0  0.0977
  H  H298  1  0.267900  0.683500  0.501900  1.0  0.0806
  H  H299  1  0.819500  0.769100  0.710000  1.0  0.0978
  H  H300  1  0.346900  0.530400  0.300100  1.0  0.078
  H  H301  1  0.431200  0.714900  0.241800  1.0  0.0939
  H  H302  1  0.317600  0.940200  0.297100  1.0  0.0816
  H  H303  1  0.667700  0.879000  0.539100  1.0  0.0855
  H  H304  1  0.877200  0.175100  0.908800  1.0  0.058
  H  H305  1  0.312700  0.919600  0.021000  1.0  0.0701
  H  H306  1  0.807900  0.404200  0.498000  1.0  0.0778
  H  H307  1  0.954700  0.812200  0.198700  1.0  0.0714
  H  H308  1  0.319100  0.324400  0.656700  1.0  0.0973
  H  H309  1  0.460900  0.167700  0.621000  1.0  0.0885
  H  H310  1  0.954800  0.389900  0.447000  1.0  0.0883
  H  H311  1  0.905300  0.862100  0.972500  1.0  0.1168
  H  H312  1  0.050100  0.780400  0.903100  1.0  0.0779
  H  H313  1  0.566500  0.017900  0.751900  1.0  0.0752
  H  H314  1  0.470800  0.481800  0.759400  1.0  0.075
  H  H315  1  0.450500  0.629900  0.322700  1.0  0.089
  H  H316  1  0.719600  0.096900  0.550100  1.0  0.0789
  H  H317  1  0.019100  0.430500  0.460000  1.0  0.0982
  H  H318  1  0.952900  0.690200  0.567600  1.0  0.0814
  H  H319  1  0.442100  0.248000  0.654200  1.0  0.0833
  H  H320  1  0.908800  0.877200  0.175100  1.0  0.0583
  H  H321  1  0.300100  0.346900  0.530400  1.0  0.0788
  H  H322  1  0.519100  0.069500  0.540000  1.0  0.0991
  H  H323  1  0.529200  0.981800  0.740600  1.0  0.0731
  H  H324  1  0.509400  0.731800  0.779200  1.0  0.0753
  H  H325  1  0.101200  0.127300  0.704900  1.0  0.1042
  H  H326  1  0.049500  0.370100  0.822700  1.0  0.0897
  H  H327  1  0.356300  0.220500  0.353900  1.0  0.1189
  H  H328  1  0.851200  0.954900  0.122700  1.0  0.1038
  H  H329  1  0.175100  0.908800  0.877200  1.0  0.0585
  H  H330  1  0.197000  0.639900  0.295200  1.0  0.0909
  H  H331  1  0.106300  0.603900  0.029500  1.0  0.1179
  H  H332  1  0.351200  0.545100  0.877300  1.0  0.1039
  H  H333  1  0.479000  0.687300  0.419600  1.0  0.0713
  H  H334  1  0.324900  0.091200  0.377200  1.0  0.0591
  H  H335  1  0.653100  0.030400  0.199900  1.0  0.0774
  H  H336  1  0.643700  0.720500  0.146100  1.0  0.1194
  H  H337  1  0.295100  0.601200  0.372700  1.0  0.1051
  H  H338  1  0.068800  0.285100  0.741800  1.0  0.0938
  H  H339  1  0.433500  0.517900  0.748100  1.0  0.0741
  H  H340  1  0.460000  0.019100  0.430500  1.0  0.0993
  H  H341  1  0.156700  0.180900  0.675600  1.0  0.0973
  H  H342  1  0.759400  0.470800  0.481800  1.0  0.0742
  H  H343  1  0.252000  0.345800  0.942100  1.0  0.0783
  H  H344  1  0.169600  0.937300  0.771000  1.0  0.0697
  H  H345  1  0.200500  0.572700  0.620100  1.0  0.0887
  H  H346  1  0.232100  0.316500  0.001900  1.0  0.0781
  H  H347  1  0.181200  0.491800  0.535100  1.0  0.092
  H  H348  1  0.469600  0.800100  0.153100  1.0  0.0784
  H  H349  1  0.551300  0.937800  0.795300  1.0  0.0691
  H  H350  1  0.427300  0.120100  0.299500  1.0  0.0886
  H  H351  1  0.419600  0.479000  0.687300  1.0  0.0725
  H  H352  1  0.417700  0.789100  0.371000  1.0  0.0858
  H  H353  1  0.482100  0.248100  0.066500  1.0  0.0775
  H  H354  1  0.740600  0.529200  0.981800  1.0  0.0704
  H  H355  1  0.768200  0.220800  0.009400  1.0  0.0741
  H  H356  1  0.103900  0.470500  0.893700  1.0  0.1186
  H  H357  1  0.998100  0.732100  0.183500  1.0  0.0766
  H  H358  1  0.557900  0.748000  0.845800  1.0  0.0832
  H  H359  1  0.675100  0.591200  0.122800  1.0  0.0592
  H  H360  1  0.730900  0.290000  0.319500  1.0  0.0981
  H  H361  1  0.553000  0.454800  0.110100  1.0  0.0913
  H  H362  1  0.385500  0.581900  0.254500  1.0  0.1073
  H  H363  1  0.567600  0.952900  0.690200  1.0  0.0797
  H  H364  1  0.629900  0.322700  0.450500  1.0  0.0899
  H  H365  1  0.177300  0.549500  0.129900  1.0  0.0894
  H  H366  1  0.751900  0.566500  0.017900  1.0  0.0791
  H  H367  1  0.051300  0.562200  0.204700  1.0  0.0651
  H  H368  1  0.889900  0.053000  0.045200  1.0  0.0907
  H  H369  1  0.970800  0.018200  0.240600  1.0  0.0725
  H  H370  1  0.704900  0.101200  0.127300  1.0  0.1049
  H  H371  1  0.841200  0.574900  0.872800  1.0  0.0582
  H  H372  1  0.091200  0.377200  0.324900  1.0  0.058
  H  H373  1  0.074400  0.569100  0.593300  1.0  0.0975
  H  H374  1  0.069100  0.906700  0.925600  1.0  0.0977
  H  H375  1  0.655300  0.222500  0.387900  1.0  0.1173
  H  H376  1  0.219600  0.403100  0.449900  1.0  0.0792
  H  H377  1  0.268200  0.279200  0.990600  1.0  0.0691
  H  H378  1  0.114500  0.418100  0.754500  1.0  0.1082
  H  H379  1  0.377300  0.148800  0.454900  1.0  0.1051
  H  H380  1  0.312200  0.301300  0.045300  1.0  0.0699
  H  H381  1  0.831900  0.864500  0.004500  1.0  0.1066
  H  H382  1  0.139900  0.204800  0.803000  1.0  0.0914
  H  H383  1  0.214900  0.258200  0.568800  1.0  0.0936
  H  H384  1  0.018200  0.240600  0.970800  1.0  0.0722
  H  H385  1  0.635500  0.995500  0.331900  1.0  0.1078
  H  H386  1  0.062200  0.295300  0.948700  1.0  0.0717
  H  H387  1  0.752000  0.154200  0.057900  1.0  0.0774
  H  H388  1  0.969600  0.699900  0.846900  1.0  0.0784
  H  H389  1  0.437800  0.704700  0.448700  1.0  0.0696
  H  H390  1  0.771000  0.169600  0.937300  1.0  0.0731
  H  H391  1  0.398800  0.872700  0.204900  1.0  0.1045
  H  H392  1  0.864500  0.004500  0.831900  1.0  0.1083
  H  H393  1  0.925600  0.069100  0.906700  1.0  0.0994
  H  H394  1  0.612100  0.155300  0.277500  1.0  0.1169
  H  H395  1  0.167700  0.621000  0.460900  1.0  0.0851
  H  H396  1  0.720500  0.146100  0.643700  1.0  0.1188
  H  H397  1  0.779500  0.853900  0.143700  1.0  0.1187
  H  H398  1  0.562700  0.229000  0.669600  1.0  0.0677
  H  H399  1  0.885500  0.918100  0.745500  1.0  0.1076
  H  H400  1  0.080400  0.521000  0.187300  1.0  0.0719
  H  H401  1  0.341200  0.925100  0.127200  1.0  0.0581
  H  H402  1  0.683500  0.501900  0.267900  1.0  0.0755
  H  H403  1  0.817600  0.559800  0.702900  1.0  0.0802
  H  H404  1  0.297100  0.317600  0.940200  1.0  0.0796
  H  H405  1  0.146100  0.643700  0.720500  1.0  0.1199
  H  H406  1  0.950500  0.870100  0.677300  1.0  0.0889
  H  H407  1  0.870100  0.677300  0.950500  1.0  0.0896
  H  H408  1  0.758200  0.931200  0.785100  1.0  0.0919
  H  H409  1  0.954900  0.122700  0.851200  1.0  0.1058
  H  H410  1  0.180500  0.269100  0.790000  1.0  0.0982
  H  H411  1  0.470500  0.893700  0.103900  1.0  0.1198
  H  H412  1  0.568800  0.214900  0.258200  1.0  0.0931
  H  H413  1  0.601200  0.372700  0.295100  1.0  0.105
  H  H414  1  0.754500  0.114500  0.418100  1.0  0.107
  H  H415  1  0.893700  0.103900  0.470500  1.0  0.1204
  H  H416  1  0.295300  0.948700  0.062200  1.0  0.065
  H  H417  1  0.925100  0.127200  0.341200  1.0  0.0595
  H  H418  1  0.972500  0.905300  0.862100  1.0  0.1174
  H  H419  1  0.072700  0.879900  0.799500  1.0  0.0884
  H  H420  1  0.093300  0.425600  0.430900  1.0  0.0977
  H  H421  1  0.279500  0.646100  0.856300  1.0  0.1188
  H  H422  1  0.569500  0.960000  0.480900  1.0  0.1
  H  H423  1  0.045100  0.622700  0.648800  1.0  0.1051
  H  H424  1  0.059800  0.797100  0.182400  1.0  0.0817
  H  H425  1  0.199900  0.653100  0.030400  1.0  0.078
  H  H426  1  0.785100  0.758200  0.931200  1.0  0.0939
  H  H427  1  0.269100  0.790000  0.180500  1.0  0.0984
  H  H428  1  0.067600  0.547100  0.309800  1.0  0.08
  H  H429  1  0.704800  0.697000  0.860100  1.0  0.0915
  H  H430  1  0.527500  0.094700  0.362100  1.0  0.1174
  H  H431  1  0.153100  0.469600  0.800100  1.0  0.0771
  H  H432  1  0.158800  0.074900  0.627200  1.0  0.0587
  H  H433  1  0.295200  0.197000  0.639900  1.0  0.0925
  H  H434  1  0.425600  0.430900  0.093300  1.0  0.0985
  H  H435  1  0.069500  0.540000  0.519100  1.0  0.0985
  H  H436  1  0.687300  0.419600  0.479000  1.0  0.0727
  H  H437  1  0.121000  0.039100  0.832300  1.0  0.0883
  H  H438  1  0.345800  0.942100  0.252000  1.0  0.0812
  H  H439  1  0.406700  0.574400  0.930900  1.0  0.0974
  H  H440  1  0.472500  0.594700  0.137900  1.0  0.117
  H  H441  1  0.045300  0.312200  0.301300  1.0  0.0694
  H  H442  1  0.574400  0.930900  0.406700  1.0  0.0981
  H  H443  1  0.947000  0.545200  0.610100  1.0  0.0903
  H  H444  1  0.627300  0.795100  0.898800  1.0  0.1045
  H  H445  1  0.129900  0.177300  0.549500  1.0  0.089
  H  H446  1  0.964900  0.818800  0.991800  1.0  0.0944
  H  H447  1  0.677300  0.950500  0.870100  1.0  0.0895
  H  H448  1  0.940200  0.297100  0.317600  1.0  0.0795
  H  H449  1  0.009400  0.768200  0.220800  1.0  0.0755
  H  H450  1  0.898800  0.627300  0.795100  1.0  0.1046
  H  H451  1  0.202900  0.682400  0.440200  1.0  0.081
  H  H452  1  0.582300  0.289100  0.129000  1.0  0.0891
  H  H453  1  0.903100  0.050100  0.780400  1.0  0.078
  H  H454  1  0.877300  0.351200  0.545100  1.0  0.105
  H  H455  1  0.879000  0.539100  0.667700  1.0  0.0885
  H  H456  1  0.464900  0.681200  0.008200  1.0  0.0934
  H  H457  1  0.035100  0.318800  0.508200  1.0  0.0934
  H  H458  1  0.639900  0.295200  0.197000  1.0  0.0902
  H  H459  1  0.656700  0.319100  0.324400  1.0  0.0981
  H  H460  1  0.562200  0.204700  0.051300  1.0  0.0703
  H  H461  1  0.937800  0.795300  0.551300  1.0  0.0714
  H  H462  1  0.039100  0.832300  0.121000  1.0  0.0886
  H  H463  1  0.353900  0.356300  0.220500  1.0  0.1195
  H  H464  1  0.437300  0.729000  0.830400  1.0  0.0684
  H  H465  1  0.299500  0.427300  0.120100  1.0  0.0902
  H  H466  1  0.447000  0.954800  0.389900  1.0  0.0913
  H  H467  1  0.222500  0.387900  0.655300  1.0  0.1169
  H  H468  1  0.982100  0.251900  0.933500  1.0  0.0792
  C  C469  1  0.275000  0.334100  0.544300  1.0  0.0691
  C  C470  1  0.119400  0.420000  0.555200  1.0  0.1698
  C  C471  1  0.824300  0.101500  0.826400  1.0  -0.1215
  C  C472  1  0.414200  0.472100  0.790500  1.0  -0.1589
  C  C473  1  0.225000  0.665900  0.044300  1.0  0.0698
  C  C474  1  0.572100  0.601400  0.044100  1.0  -0.0397
  C  C475  1  0.610800  0.975200  0.559100  1.0  0.1465
  C  C476  1  0.580300  0.474900  0.221400  1.0  0.6908
  C  C477  1  0.540700  0.212800  0.074700  1.0  0.0205
  C  C478  1  0.334700  0.156600  0.374300  1.0  -0.0962
  C  C479  1  0.155200  0.569600  0.119900  1.0  -0.0905
  C  C480  1  0.982000  0.482800  0.547200  1.0  -0.2232
  C  C481  1  0.061200  0.514000  0.253600  1.0  -0.2135
  C  C482  1  0.851400  0.677900  0.794100  1.0  -0.0406
  C  C483  1  0.612900  0.133900  0.655300  1.0  -0.086
  C  C484  1  0.894900  0.002400  0.824300  1.0  -0.1312
  C  C485  1  0.790500  0.414200  0.472100  1.0  -0.1603
  C  C486  1  0.232800  0.232000  0.702800  1.0  -0.2226
  C  C487  1  0.702000  0.926700  0.291800  1.0  0.6446
  C  C488  1  0.626100  0.946200  0.727500  1.0  0.046
  C  C489  1  0.794300  0.915900  0.025000  1.0  0.0683
  C  C490  1  0.714500  0.065700  0.269800  1.0  0.1197
  C  C491  1  0.730200  0.214500  0.434300  1.0  0.1206
  C  C492  1  0.584100  0.975000  0.294300  1.0  0.069
  C  C493  1  0.100700  0.866300  0.971500  1.0  -0.0568
  C  C494  1  0.974900  0.278600  0.419700  1.0  0.6994
  C  C495  1  0.724900  0.669700  0.971400  1.0  0.6941
  C  C496  1  0.664200  0.459500  0.222100  1.0  -0.1612
  C  C497  1  0.323300  0.599900  0.794700  1.0  0.6262
  C  C498  1  0.971400  0.724900  0.669700  1.0  0.6964
  C  C499  1  0.656600  0.125700  0.665300  1.0  -0.0954
  C  C500  1  0.712800  0.425300  0.459300  1.0  0.0217
  C  C501  1  0.247600  0.644900  0.074300  1.0  -0.13
  C  C502  1  0.640200  0.911700  0.800200  1.0  0.6039
  C  C503  1  0.553800  0.272500  0.126100  1.0  0.0472
  C  C504  1  0.176700  0.548000  0.041800  1.0  0.6436
  C  C505  1  0.565700  0.230200  0.285500  1.0  0.1211
  C  C506  1  0.126100  0.553800  0.272500  1.0  0.0479
  C  C507  1  0.810200  0.851200  0.137800  1.0  -0.0518
  C  C508  1  0.180400  0.594800  0.630100  1.0  -0.0913
  C  C509  1  0.426700  0.208200  0.298000  1.0  0.6468
  C  C510  1  0.830000  0.869400  0.805200  1.0  0.1701
  C  C511  1  0.222100  0.664200  0.459500  1.0  -0.1635
  C  C512  1  0.202800  0.267200  0.768000  1.0  -0.2247
  C  C513  1  0.464500  0.519800  0.184300  1.0  0.1185
  C  C514  1  0.905200  0.369900  0.680400  1.0  -0.0888
  C  C515  1  0.746400  0.561200  0.986000  1.0  -0.2133
  C  C516  1  0.915900  0.025000  0.794300  1.0  0.0698
  C  C517  1  0.866500  0.840400  0.800100  1.0  -0.1792
  C  C518  1  0.721400  0.919700  0.525100  1.0  0.692
  C  C519  1  0.156400  0.619700  0.598900  1.0  0.0696
  C  C520  1  0.625700  0.834700  0.343400  1.0  -0.0911
  C  C521  1  0.630100  0.180400  0.594800  1.0  -0.0904
  C  C522  1  0.585800  0.972100  0.709500  1.0  -0.1585
  C  C523  1  0.777900  0.164200  0.040500  1.0  -0.1628
  C  C524  1  0.612200  0.898800  0.939800  1.0  -0.0401
  C  C525  1  0.655300  0.612900  0.133900  1.0  -0.0839
  C  C526  1  0.900100  0.205300  0.823300  1.0  0.618
  C  C527  1  0.344700  0.112900  0.366100  1.0  -0.0853
  C  C528  1  0.221500  0.383700  0.850700  1.0  -0.0588
  C  C529  1  0.175300  0.962800  0.790700  1.0  0.023
  C  C530  1  0.883700  0.649300  0.778500  1.0  -0.0555
  C  C531  1  0.573300  0.455300  0.349900  1.0  0.6187
  C  C532  1  0.175700  0.394900  0.497600  1.0  -0.1313
  C  C533  1  0.205900  0.351400  0.822100  1.0  -0.0409
  C  C534  1  0.800100  0.866500  0.840400  1.0  -0.1799
  C  C535  1  0.600700  0.633700  0.028500  1.0  -0.0578
  C  C536  1  0.911700  0.800200  0.640200  1.0  0.6066
  C  C537  1  0.037200  0.290700  0.324700  1.0  0.0225
  C  C538  1  0.725200  0.860800  0.690900  1.0  0.1433
  C  C539  1  0.601500  0.673600  0.175700  1.0  -0.1161
  C  C540  1  0.090400  0.383500  0.550100  1.0  -0.1776
  C  C541  1  0.926700  0.544700  0.849900  1.0  0.621
  C  C542  1  0.094800  0.869900  0.819600  1.0  -0.088
  C  C543  1  0.699800  0.359800  0.411700  1.0  0.6005
  C  C544  1  0.955700  0.725000  0.834100  1.0  0.0682
  C  C545  1  0.398600  0.544100  0.927900  1.0  -0.0432
  C  C546  1  0.809100  0.274800  0.360800  1.0  0.1466
  C  C547  1  0.705700  0.084100  0.525000  1.0  0.0703
  C  C548  1  0.264000  0.311200  0.996400  1.0  -0.2108
  C  C549  1  0.290700  0.324700  0.037200  1.0  0.0188
  C  C550  1  0.873900  0.053800  0.227500  1.0  0.0457
  C  C551  1  0.855100  0.925700  0.747600  1.0  -0.1312
  C  C552  1  0.525000  0.705700  0.084100  1.0  0.069
  C  C553  1  0.272500  0.126100  0.553800  1.0  0.0472
  C  C554  1  0.330000  0.630600  0.194800  1.0  0.1692
  C  C555  1  0.898800  0.939800  0.612200  1.0  -0.0446
  C  C556  1  0.214500  0.434300  0.730200  1.0  0.1212
  C  C557  1  0.294300  0.584100  0.975000  1.0  0.0671
  C  C558  1  0.324300  0.398500  0.173600  1.0  -0.1221
  C  C559  1  0.387100  0.633900  0.844700  1.0  -0.0873
  C  C560  1  0.208200  0.298000  0.426700  1.0  0.6404
  C  C561  1  0.278500  0.616300  0.350700  1.0  -0.0563
  C  C562  1  0.116100  0.362900  0.905300  1.0  -0.0885
  C  C563  1  0.326400  0.675700  0.898500  1.0  -0.1254
  C  C564  1  0.383700  0.850700  0.221500  1.0  -0.0565
  C  C565  1  0.601200  0.060200  0.112200  1.0  -0.0441
  C  C566  1  0.040700  0.287200  0.925300  1.0  0.0165
  C  C567  1  0.175700  0.601500  0.673600  1.0  -0.124
  C  C568  1  0.736800  0.201800  0.233500  1.0  0.1952
  C  C569  1  0.483500  0.048200  0.486800  1.0  0.1989
  C  C570  1  0.675300  0.537200  0.209300  1.0  0.0224
  C  C571  1  0.514000  0.253600  0.061200  1.0  -0.2093
  C  C572  1  0.619700  0.598900  0.156400  1.0  0.0701
  C  C573  1  0.688800  0.496400  0.236000  1.0  -0.2105
  C  C574  1  0.880600  0.920000  0.944800  1.0  0.1689
  C  C575  1  0.659600  0.199900  0.366500  1.0  -0.1784
  C  C576  1  0.277900  0.335800  0.959500  1.0  -0.1613
  C  C577  1  0.798000  0.073300  0.791800  1.0  0.6461
  C  C578  1  0.376100  0.977500  0.303800  1.0  0.0473
  C  C579  1  0.409600  0.616500  0.050100  1.0  -0.1805
  C  C580  1  0.073300  0.791800  0.798000  1.0  0.6463
  C  C581  1  0.439800  0.887800  0.101200  1.0  -0.046
  C  C582  1  0.958200  0.676700  0.952000  1.0  0.6461
  C  C583  1  0.805200  0.830000  0.869400  1.0  0.169
  C  C584  1  0.775000  0.165900  0.455700  1.0  0.0726
  C  C585  1  0.101500  0.826400  0.824300  1.0  -0.1175
  C  C586  1  0.362900  0.905300  0.116100  1.0  -0.089
  C  C587  1  0.267200  0.768000  0.202800  1.0  -0.2216
  C  C588  1  0.133900  0.655300  0.612900  1.0  -0.091
  C  C589  1  0.763200  0.798200  0.733500  1.0  0.1962
  C  C590  1  0.550200  0.161700  0.609800  1.0  0.6035
  C  C591  1  0.794100  0.851400  0.677900  1.0  -0.0436
  C  C592  1  0.955300  0.150100  0.426700  1.0  0.6249
  C  C593  1  0.774800  0.139200  0.190900  1.0  0.1443
  C  C594  1  0.651100  0.369700  0.406400  1.0  0.068
  C  C595  1  0.701800  0.266500  0.263200  1.0  0.1943
  C  C596  1  0.028600  0.224900  0.830300  1.0  0.6989
  C  C597  1  0.291800  0.702000  0.926700  1.0  0.6404
  C  C598  1  0.246400  0.938800  0.014000  1.0  -0.2158
  C  C599  1  0.375700  0.593400  0.415300  1.0  -0.0904
  C  C600  1  0.452000  0.541800  0.323300  1.0  0.6418
  C  C601  1  0.574300  0.252400  0.355100  1.0  -0.1313
  C  C602  1  0.369400  0.694800  0.170000  1.0  0.1689
  C  C603  1  0.130100  0.319600  0.405200  1.0  -0.0889
  C  C604  1  0.644900  0.074300  0.247600  1.0  -0.1321
  C  C605  1  0.133700  0.471500  0.399300  1.0  -0.0551
  C  C606  1  0.415900  0.475000  0.205700  1.0  0.0738
  C  C607  1  0.775100  0.330300  0.471400  1.0  0.6969
  C  C608  1  0.080300  0.025100  0.778600  1.0  0.6906
  C  C609  1  0.769800  0.785500  0.934300  1.0  0.1197
  C  C610  1  0.398800  0.560200  0.387800  1.0  -0.0436
  C  C611  1  0.797200  0.767200  0.732000  1.0  -0.2303
  C  C612  1  0.164200  0.040500  0.777900  1.0  -0.16
  C  C613  1  0.383500  0.550100  0.090400  1.0  -0.1811
  C  C614  1  0.486000  0.753600  0.438800  1.0  -0.2101
  C  C615  1  0.330300  0.471400  0.775100  1.0  0.691
  C  C616  1  0.275100  0.169700  0.528600  1.0  0.6946
  C  C617  1  0.971500  0.100700  0.866300  1.0  -0.057
  C  C618  1  0.472100  0.790500  0.414200  1.0  -0.1659
  C  C619  1  0.569600  0.119900  0.155200  1.0  -0.0901
  C  C620  1  0.584700  0.875700  0.906600  1.0  -0.0973
  C  C621  1  0.940900  0.389200  0.475200  1.0  0.1503
  C  C622  1  0.794700  0.323300  0.599900  1.0  0.6228
  C  C623  1  0.233500  0.736800  0.201800  1.0  0.1992
  C  C624  1  0.224900  0.830300  0.028600  1.0  0.6954
  C  C625  1  0.541800  0.323300  0.452000  1.0  0.6416
  C  C626  1  0.017200  0.452800  0.482000  1.0  -0.2229
  C  C627  1  0.309100  0.225200  0.639200  1.0  0.1479
  C  C628  1  0.176700  0.400100  0.294700  1.0  0.6265
  C  C629  1  0.633700  0.028500  0.600700  1.0  -0.0565
  C  C630  1  0.290500  0.085800  0.527900  1.0  -0.1597
  C  C631  1  0.889200  0.024800  0.059100  1.0  0.1453
  C  C632  1  0.850700  0.221500  0.383700  1.0  -0.0564
  C  C633  1  0.535500  0.019800  0.315700  1.0  0.1188
  C  C634  1  0.366100  0.344700  0.112900  1.0  -0.0895
  C  C635  1  0.876100  0.522500  0.696200  1.0  0.0465
  C  C636  1  0.834700  0.343400  0.625700  1.0  -0.0971
  C  C637  1  0.949900  0.909600  0.883500  1.0  -0.1758
  C  C638  1  0.349900  0.573300  0.455300  1.0  0.6246
  C  C639  1  0.875700  0.906600  0.584700  1.0  -0.0922
  C  C640  1  0.221400  0.580300  0.474900  1.0  0.6942
  C  C641  1  0.996400  0.264000  0.311200  1.0  -0.2123
  C  C642  1  0.109800  0.949800  0.838300  1.0  0.6039
  C  C643  1  0.040500  0.777900  0.164200  1.0  -0.1613
  C  C644  1  0.359800  0.411700  0.699800  1.0  0.6042
  C  C645  1  0.736000  0.811200  0.503600  1.0  -0.2116
  C  C646  1  0.709300  0.824700  0.462800  1.0  0.0207
  C  C647  1  0.528500  0.899300  0.366300  1.0  -0.0557
  C  C648  1  0.462800  0.709300  0.824700  1.0  0.0232
  C  C649  1  0.074300  0.423600  0.851500  1.0  -0.1193
  C  C650  1  0.705900  0.148600  0.177900  1.0  -0.0426
  C  C651  1  0.689800  0.148800  0.637800  1.0  -0.0485
  C  C652  1  0.116500  0.449900  0.590400  1.0  -0.1795
  C  C653  1  0.022500  0.803800  0.123900  1.0  0.0472
  C  C654  1  0.125700  0.665300  0.656600  1.0  -0.0928
  C  C655  1  0.939800  0.612200  0.898800  1.0  -0.0487
  C  C656  1  0.205700  0.415900  0.475000  1.0  0.0688
  C  C657  1  0.355100  0.574300  0.252400  1.0  -0.1312
  C  C658  1  0.405300  0.383900  0.637100  1.0  -0.085
  C  C659  1  0.555200  0.119400  0.420000  1.0  0.168
  C  C660  1  0.919700  0.525100  0.721400  1.0  0.6904
  C  C661  1  0.883500  0.949900  0.909600  1.0  -0.1817
  C  C662  1  0.425300  0.459300  0.712800  1.0  0.0214
  C  C663  1  0.665300  0.656600  0.125700  1.0  -0.0954
  C  C664  1  0.159600  0.300100  0.633500  1.0  -0.1782
  C  C665  1  0.843600  0.119700  0.901100  1.0  0.0682
  C  C666  1  0.482000  0.017200  0.452800  1.0  -0.2308
  C  C667  1  0.369700  0.406400  0.651100  1.0  0.07
  C  C668  1  0.446200  0.772500  0.373900  1.0  0.0483
  C  C669  1  0.044700  0.650100  0.073300  1.0  0.624
  C  C670  1  0.815700  0.964500  0.980200  1.0  0.1208
  C  C671  1  0.906600  0.584700  0.875700  1.0  -0.0931
  C  C672  1  0.519800  0.184300  0.464500  1.0  0.1224
  C  C673  1  0.609800  0.550200  0.161700  1.0  0.6049
  C  C674  1  0.594800  0.630100  0.180400  1.0  -0.0898
  C  C675  1  0.650100  0.073300  0.044700  1.0  0.6255
  C  C676  1  0.419700  0.974900  0.278600  1.0  0.6892
  C  C677  1  0.477500  0.196200  0.623900  1.0  0.0462
  C  C678  1  0.869900  0.819600  0.094800  1.0  -0.0899
  C  C679  1  0.901100  0.843600  0.119700  1.0  0.0698
  C  C680  1  0.369900  0.680400  0.905200  1.0  -0.0895
  C  C681  1  0.148600  0.177900  0.705900  1.0  -0.04
  C  C682  1  0.548000  0.041800  0.176700  1.0  0.6433
  C  C683  1  0.269800  0.714500  0.065700  1.0  0.1204
  C  C684  1  0.753600  0.438800  0.486000  1.0  -0.2161
  C  C685  1  0.946200  0.727500  0.626100  1.0  0.047
  C  C686  1  0.518000  0.517200  0.047200  1.0  -0.2221
  C  C687  1  0.380100  0.844800  0.069600  1.0  -0.0877
  C  C688  1  0.225200  0.639200  0.309100  1.0  0.1442
  C  C689  1  0.069600  0.380100  0.844800  1.0  -0.0912
  C  C690  1  0.390200  0.050200  0.338300  1.0  0.6042
  C  C691  1  0.482800  0.547200  0.982000  1.0  -0.2205
  C  C692  1  0.190900  0.774800  0.139200  1.0  0.1461
  C  C693  1  0.130300  0.593600  0.151100  1.0  0.0688
  C  C694  1  0.835800  0.540500  0.722100  1.0  -0.1606
  C  C695  1  0.676700  0.099900  0.705300  1.0  0.6233
  C  C696  1  0.150100  0.426700  0.955300  1.0  0.6234
  C  C697  1  0.593600  0.151100  0.130300  1.0  0.0696
  C  C698  1  0.787200  0.574700  0.959300  1.0  0.022
  C  C699  1  0.161700  0.609800  0.550200  1.0  0.6037
  C  C700  1  0.119900  0.155200  0.569600  1.0  -0.0876
  C  C701  1  0.898500  0.326400  0.675700  1.0  -0.1156
  C  C702  1  0.601400  0.044100  0.572100  1.0  -0.0424
  C  C703  1  0.300100  0.633500  0.159600  1.0  -0.1793
  C  C704  1  0.925700  0.747600  0.855100  1.0  -0.132
  C  C705  1  0.869700  0.093600  0.348900  1.0  0.0694
  C  C706  1  0.452800  0.482000  0.017200  1.0  -0.2238
  C  C707  1  0.915300  0.124300  0.406600  1.0  -0.0964
  C  C708  1  0.616500  0.050100  0.409600  1.0  -0.1796
  C  C709  1  0.528600  0.275100  0.169700  1.0  0.6957
  C  C710  1  0.733500  0.763200  0.798200  1.0  0.1964
  C  C711  1  0.455900  0.427900  0.101400  1.0  -0.0418
  C  C712  1  0.972100  0.709500  0.585800  1.0  -0.1648
  C  C713  1  0.311200  0.996400  0.264000  1.0  -0.2123
  C  C714  1  0.705300  0.676700  0.099900  1.0  0.6241
  C  C715  1  0.101200  0.439800  0.887800  1.0  -0.0441
  C  C716  1  0.025000  0.794300  0.915900  1.0  0.0692
  C  C717  1  0.550100  0.090400  0.383500  1.0  -0.1771
  C  C718  1  0.709500  0.585800  0.972100  1.0  -0.1585
  C  C719  1  0.455700  0.775000  0.165900  1.0  0.0683
  C  C720  1  0.189800  0.351200  0.362200  1.0  -0.0482
  C  C721  1  0.544300  0.275000  0.334100  1.0  0.0666
  C  C722  1  0.548200  0.013200  0.516500  1.0  0.1971
  C  C723  1  0.648500  0.925700  0.923600  1.0  -0.1193
  C  C724  1  0.098900  0.343600  0.380300  1.0  0.0699
  C  C725  1  0.438800  0.486000  0.753600  1.0  -0.2133
  C  C726  1  0.859800  0.088300  0.300200  1.0  0.6045
  C  C727  1  0.486800  0.483500  0.048200  1.0  0.1946
  C  C728  1  0.580000  0.055200  0.380600  1.0  0.1697
  C  C729  1  0.047200  0.518000  0.517200  1.0  -0.2226
  C  C730  1  0.866300  0.971500  0.100700  1.0  -0.0568
  C  C731  1  0.544100  0.927900  0.398600  1.0  -0.0422
  C  C732  1  0.294700  0.176700  0.400100  1.0  0.6246
  C  C733  1  0.300200  0.859800  0.088300  1.0  0.6004
  C  C734  1  0.866100  0.155300  0.887100  1.0  -0.0892
  C  C735  1  0.480200  0.684300  0.035500  1.0  0.123
  C  C736  1  0.980200  0.815700  0.964500  1.0  0.1235
  C  C737  1  0.201800  0.233500  0.736800  1.0  0.1965
  C  C738  1  0.766500  0.236800  0.298200  1.0  0.1953
  C  C739  1  0.411700  0.699800  0.359800  1.0  0.6065
  C  C740  1  0.702800  0.232800  0.232000  1.0  -0.231
  C  C741  1  0.656400  0.880300  0.401100  1.0  0.0697
  C  C742  1  0.383900  0.637100  0.405300  1.0  -0.0865
  C  C743  1  0.266500  0.263200  0.701800  1.0  0.1977
  C  C744  1  0.944800  0.880600  0.920000  1.0  0.1672
  C  C745  1  0.722100  0.835800  0.540500  1.0  -0.163
  C  C746  1  0.323300  0.452000  0.541800  1.0  0.6449
  C  C747  1  0.305200  0.670000  0.130600  1.0  0.1692
  C  C748  1  0.423600  0.851500  0.074300  1.0  -0.1245
  C  C749  1  0.205300  0.823300  0.900100  1.0  0.6248
  C  C750  1  0.887800  0.101200  0.439800  1.0  -0.0395
  C  C751  1  0.297200  0.732800  0.268000  1.0  -0.2237
  C  C752  1  0.373900  0.446200  0.772500  1.0  0.0475
  C  C753  1  0.173600  0.324300  0.398500  1.0  -0.1243
  C  C754  1  0.430400  0.619900  0.344800  1.0  -0.0905
  C  C755  1  0.471400  0.775100  0.330300  1.0  0.6994
  C  C756  1  0.474900  0.221400  0.580300  1.0  0.7002
  C  C757  1  0.785500  0.934300  0.769800  1.0  0.1198
  C  C758  1  0.633900  0.844700  0.387100  1.0  -0.0859
  C  C759  1  0.116300  0.149300  0.721500  1.0  -0.0562
  C  C760  1  0.811200  0.503600  0.736000  1.0  -0.2134
  C  C761  1  0.202000  0.573300  0.708200  1.0  0.6447
  C  C762  1  0.869400  0.805200  0.830000  1.0  0.1695
  C  C763  1  0.110800  0.524800  0.440900  1.0  0.1455
  C  C764  1  0.400100  0.294700  0.176700  1.0  0.6197
  C  C765  1  0.860800  0.690900  0.725200  1.0  0.1511
  C  C766  1  0.149300  0.721500  0.116300  1.0  -0.0564
  C  C767  1  0.986800  0.016500  0.951800  1.0  0.1977
  C  C768  1  0.851500  0.074300  0.423600  1.0  -0.1196
  C  C769  1  0.088300  0.300200  0.859800  1.0  0.6069
  C  C770  1  0.434300  0.730200  0.214500  1.0  0.1211
  C  C771  1  0.074300  0.247600  0.644900  1.0  -0.1301
  C  C772  1  0.920000  0.944800  0.880600  1.0  0.1702
  C  C773  1  0.014000  0.246400  0.938800  1.0  -0.2129
  C  C774  1  0.576400  0.351500  0.425700  1.0  -0.1232
  C  C775  1  0.619900  0.344800  0.430400  1.0  -0.0885
  C  C776  1  0.059100  0.889200  0.024800  1.0  0.1485
  C  C777  1  0.525100  0.721400  0.919700  1.0  0.6974
  C  C778  1  0.834100  0.955700  0.725000  1.0  0.0704
  C  C779  1  0.294100  0.648600  0.322100  1.0  -0.0419
  C  C780  1  0.405200  0.130100  0.319600  1.0  -0.0878
  C  C781  1  0.298000  0.426700  0.208200  1.0  0.6458
  C  C782  1  0.348900  0.869700  0.093600  1.0  0.0694
  C  C783  1  0.387800  0.398800  0.560200  1.0  -0.0409
  C  C784  1  0.639200  0.309100  0.225200  1.0  0.1517
  C  C785  1  0.380300  0.098900  0.343600  1.0  0.0694
  C  C786  1  0.319600  0.405200  0.130100  1.0  -0.0916
  C  C787  1  0.458200  0.823300  0.048000  1.0  0.6453
  C  C788  1  0.444800  0.619400  0.080000  1.0  0.1689
  C  C789  1  0.648800  0.862200  0.310200  1.0  -0.0391
  C  C790  1  0.633500  0.159600  0.300100  1.0  -0.1808
  C  C791  1  0.890200  0.449800  0.661700  1.0  0.6042
  C  C792  1  0.843400  0.874300  0.165300  1.0  -0.0939
  C  C793  1  0.680400  0.905200  0.369900  1.0  -0.0903
  C  C794  1  0.561200  0.986000  0.746400  1.0  -0.2154
  C  C795  1  0.616100  0.137100  0.094700  1.0  -0.0892
  C  C796  1  0.513200  0.983500  0.451800  1.0  0.199
  C  C797  1  0.727500  0.626100  0.946200  1.0  0.0464
  C  C798  1  0.590400  0.116500  0.449900  1.0  -0.1791
  C  C799  1  0.952000  0.958200  0.676700  1.0  0.6416
  C  C800  1  0.949800  0.838300  0.109800  1.0  0.6038
  C  C801  1  0.975000  0.294300  0.584100  1.0  0.0698
  C  C802  1  0.303800  0.376100  0.977500  1.0  0.047
  C  C803  1  0.094700  0.616100  0.137100  1.0  -0.0878
  C  C804  1  0.848900  0.630300  0.906400  1.0  0.0696
  C  C805  1  0.170000  0.369400  0.694800  1.0  0.1695
  C  C806  1  0.401100  0.656400  0.880300  1.0  0.0691
  C  C807  1  0.725000  0.834100  0.955700  1.0  0.0725
  C  C808  1  0.013200  0.516500  0.548200  1.0  0.1962
  C  C809  1  0.598900  0.156400  0.619700  1.0  0.0716
  C  C810  1  0.196200  0.623900  0.477500  1.0  0.0469
  C  C811  1  0.925300  0.040700  0.287200  1.0  0.0226
  C  C812  1  0.227500  0.873900  0.053800  1.0  0.0468
  C  C813  1  0.964500  0.980200  0.815700  1.0  0.1192
  C  C814  1  0.252400  0.355100  0.574300  1.0  -0.1308
  C  C815  1  0.747600  0.855100  0.925700  1.0  -0.1293
  C  C816  1  0.310200  0.648800  0.862200  1.0  -0.0511
  C  C817  1  0.798200  0.733500  0.763200  1.0  0.1945
  C  C818  1  0.236800  0.298200  0.766500  1.0  0.1975
  C  C819  1  0.616300  0.350700  0.278500  1.0  -0.0574
  C  C820  1  0.449800  0.661700  0.890200  1.0  0.6031
  C  C821  1  0.209300  0.675300  0.537200  1.0  0.0187
  C  C822  1  0.287200  0.925300  0.040700  1.0  0.0213
  C  C823  1  0.874300  0.165300  0.843400  1.0  -0.0936
  C  C824  1  0.955900  0.072100  0.898600  1.0  -0.041
  C  C825  1  0.165900  0.455700  0.775000  1.0  0.0715
  C  C826  1  0.574700  0.959300  0.787200  1.0  0.0197
  C  C827  1  0.425700  0.576400  0.351500  1.0  -0.1208
  C  C828  1  0.209500  0.914200  0.027900  1.0  -0.1581
  C  C829  1  0.351500  0.425700  0.576400  1.0  -0.1179
  C  C830  1  0.044300  0.225000  0.665900  1.0  0.0671
  C  C831  1  0.426700  0.955300  0.150100  1.0  0.6202
  C  C832  1  0.025100  0.778600  0.080300  1.0  0.7031
  C  C833  1  0.232000  0.702800  0.232800  1.0  -0.229
  C  C834  1  0.544700  0.849900  0.926700  1.0  0.6216
  C  C835  1  0.800200  0.640200  0.911700  1.0  0.6021
  C  C836  1  0.838300  0.109800  0.949800  1.0  0.6041
  C  C837  1  0.278600  0.419700  0.974900  1.0  0.6959
  C  C838  1  0.048000  0.458200  0.823300  1.0  0.6424
  C  C839  1  0.016500  0.951800  0.986800  1.0  0.1973
  C  C840  1  0.694800  0.170000  0.369400  1.0  0.1697
  C  C841  1  0.721500  0.116300  0.149300  1.0  -0.0565
  C  C842  1  0.148800  0.637800  0.689800  1.0  -0.0383
  C  C843  1  0.101400  0.455900  0.427900  1.0  -0.0444
  C  C844  1  0.844700  0.387100  0.633900  1.0  -0.0876
  C  C845  1  0.822100  0.205900  0.351400  1.0  -0.0426
  C  C846  1  0.934300  0.769800  0.785500  1.0  0.12
  C  C847  1  0.003600  0.764000  0.188800  1.0  -0.2132
  C  C848  1  0.862900  0.594700  0.883900  1.0  -0.0846
  C  C849  1  0.137100  0.094700  0.616100  1.0  -0.0867
  C  C850  1  0.350700  0.278500  0.616300  1.0  -0.0567
  C  C851  1  0.344800  0.430400  0.619900  1.0  -0.0913
  C  C852  1  0.085800  0.527900  0.290500  1.0  -0.1587
  C  C853  1  0.155300  0.887100  0.866100  1.0  -0.0866
  C  C854  1  0.060200  0.112200  0.601200  1.0  -0.0483
  C  C855  1  0.690900  0.725200  0.860800  1.0  0.1465
  C  C856  1  0.959500  0.277900  0.335800  1.0  -0.1599
  C  C857  1  0.684300  0.035500  0.480200  1.0  0.1197
  C  C858  1  0.019800  0.315700  0.535500  1.0  0.1216
  C  C859  1  0.619400  0.080000  0.444800  1.0  0.1681
  C  C860  1  0.982800  0.952800  0.018000  1.0  -0.2235
  C  C861  1  0.140200  0.588300  0.199800  1.0  0.6035
  C  C862  1  0.362200  0.189800  0.351200  1.0  -0.042
  C  C863  1  0.696200  0.876100  0.522500  1.0  0.0485
  C  C864  1  0.768000  0.202800  0.267200  1.0  -0.2325
  C  C865  1  0.099900  0.705300  0.676700  1.0  0.6183
  C  C866  1  0.263200  0.701800  0.266500  1.0  0.1984
  C  C867  1  0.420000  0.555200  0.119400  1.0  0.1698
  C  C868  1  0.830300  0.028600  0.224900  1.0  0.6903
  C  C869  1  0.194800  0.330000  0.630600  1.0  0.1697
  C  C870  1  0.177900  0.705900  0.148600  1.0  -0.0421
  C  C871  1  0.824700  0.462800  0.709300  1.0  0.0223
  C  C872  1  0.496400  0.236000  0.688800  1.0  -0.2152
  C  C873  1  0.675700  0.898500  0.326400  1.0  -0.1258
  C  C874  1  0.524800  0.440900  0.110800  1.0  0.1445
  C  C875  1  0.285500  0.565700  0.230200  1.0  0.1203
  C  C876  1  0.112200  0.601200  0.060200  1.0  -0.0387
  C  C877  1  0.502400  0.675700  0.105100  1.0  -0.1325
  C  C878  1  0.778600  0.080300  0.025100  1.0  0.6939
  C  C879  1  0.471500  0.399300  0.133700  1.0  -0.057
  C  C880  1  0.123900  0.022500  0.803800  1.0  0.0465
  C  C881  1  0.427900  0.101400  0.455900  1.0  -0.0397
  C  C882  1  0.791800  0.798000  0.073300  1.0  0.639
  C  C883  1  0.322100  0.294100  0.648600  1.0  -0.041
  C  C884  1  0.084700  0.624300  0.093400  1.0  -0.0971
  C  C885  1  0.983500  0.451800  0.513200  1.0  0.1974
  C  C886  1  0.018000  0.982800  0.952800  1.0  -0.2295
  C  C887  1  0.137800  0.810200  0.851200  1.0  -0.0421
  C  C888  1  0.050100  0.409600  0.616500  1.0  -0.1769
  C  C889  1  0.675700  0.105100  0.502400  1.0  -0.1314
  C  C890  1  0.938800  0.014000  0.246400  1.0  -0.213
  C  C891  1  0.048200  0.486800  0.483500  1.0  0.1948
  C  C892  1  0.451800  0.513200  0.983500  1.0  0.1936
  C  C893  1  0.673600  0.175700  0.601500  1.0  -0.1234
  C  C894  1  0.887100  0.866100  0.155300  1.0  -0.0865
  C  C895  1  0.914200  0.027900  0.209500  1.0  -0.159
  C  C896  1  0.661700  0.890200  0.449800  1.0  0.6041
  C  C897  1  0.962800  0.790700  0.175300  1.0  0.0198
  C  C898  1  0.073300  0.044700  0.650100  1.0  0.6216
  C  C899  1  0.997600  0.324300  0.605100  1.0  -0.1316
  C  C900  1  0.883900  0.862900  0.594700  1.0  -0.0861
  C  C901  1  0.772500  0.373900  0.446200  1.0  0.0459
  C  C902  1  0.699900  0.133500  0.340400  1.0  -0.1777
  C  C903  1  0.343600  0.380300  0.098900  1.0  0.069
  C  C904  1  0.844800  0.069600  0.380100  1.0  -0.0907
  C  C905  1  0.230200  0.285500  0.565700  1.0  0.1213
  C  C906  1  0.324700  0.037200  0.290700  1.0  0.0208
  C  C907  1  0.677900  0.794100  0.851400  1.0  -0.042
  C  C908  1  0.298200  0.766500  0.236800  1.0  0.1963
  C  C909  1  0.637800  0.689800  0.148800  1.0  -0.0452
  C  C910  1  0.425700  0.752400  0.144900  1.0  -0.1324
  C  C911  1  0.389200  0.475200  0.940900  1.0  0.146
  C  C912  1  0.398500  0.173600  0.324300  1.0  -0.1185
  C  C913  1  0.380600  0.580000  0.055200  1.0  0.1694
  C  C914  1  0.926700  0.291800  0.702000  1.0  0.6453
  C  C915  1  0.315700  0.535500  0.019800  1.0  0.1202
  C  C916  1  0.527900  0.290500  0.085800  1.0  -0.164
  C  C917  1  0.074700  0.540700  0.212800  1.0  0.0218
  C  C918  1  0.669700  0.971400  0.724900  1.0  0.6908
  C  C919  1  0.862200  0.310200  0.648800  1.0  -0.0446
  C  C920  1  0.537200  0.209300  0.675300  1.0  0.0192
  C  C921  1  0.906400  0.848900  0.630300  1.0  0.0709
  C  C922  1  0.767200  0.732000  0.797200  1.0  -0.2216
  C  C923  1  0.951800  0.986800  0.016500  1.0  0.1958
  C  C924  1  0.274800  0.360800  0.809100  1.0  0.1432
  C  C925  1  0.084100  0.525000  0.705700  1.0  0.0734
  C  C926  1  0.169700  0.528600  0.275100  1.0  0.6896
  C  C927  1  0.593400  0.415300  0.375700  1.0  -0.0942
  C  C928  1  0.343400  0.625700  0.834700  1.0  -0.0967
  C  C929  1  0.752400  0.144900  0.425700  1.0  -0.1303
  C  C930  1  0.055200  0.380600  0.580000  1.0  0.1674
  C  C931  1  0.415300  0.375700  0.593400  1.0  -0.0975
  C  C932  1  0.905300  0.116100  0.362900  1.0  -0.0856
  C  C933  1  0.351400  0.822100  0.205900  1.0  -0.0403
  C  C934  1  0.899300  0.366300  0.528500  1.0  -0.0573
  C  C935  1  0.574300  0.076400  0.148500  1.0  -0.1204
  C  C936  1  0.925700  0.923600  0.648500  1.0  -0.122
  C  C937  1  0.374300  0.334700  0.156600  1.0  -0.0902
  C  C938  1  0.823300  0.048000  0.458200  1.0  0.6448
  C  C939  1  0.093600  0.348900  0.869700  1.0  0.0707
  C  C940  1  0.053800  0.227500  0.873900  1.0  0.0479
  C  C941  1  0.144900  0.425700  0.752400  1.0  -0.1325
  C  C942  1  0.559100  0.610800  0.975200  1.0  0.1511
  C  C943  1  0.655200  0.930400  0.880100  1.0  -0.0909
  C  C944  1  0.236000  0.688800  0.496400  1.0  -0.2133
  C  C945  1  0.630300  0.906400  0.848900  1.0  0.0689
  C  C946  1  0.124300  0.406600  0.915300  1.0  -0.0922
  C  C947  1  0.849900  0.926700  0.544700  1.0  0.6273
  C  C948  1  0.151100  0.130300  0.593600  1.0  0.0688
  C  C949  1  0.406600  0.915300  0.124300  1.0  -0.0962
  C  C950  1  0.212800  0.074700  0.540700  1.0  0.0224
  C  C951  1  0.819600  0.094800  0.869900  1.0  -0.0909
  C  C952  1  0.732800  0.268000  0.297200  1.0  -0.2256
  C  C953  1  0.041800  0.176700  0.548000  1.0  0.6454
  C  C954  1  0.764000  0.188800  0.003600  1.0  -0.2137
  C  C955  1  0.708200  0.202000  0.573300  1.0  0.6414
  C  C956  1  0.360800  0.809100  0.274800  1.0  0.1488
  C  C957  1  0.133500  0.340400  0.699900  1.0  -0.1814
  C  C958  1  0.516500  0.548200  0.013200  1.0  0.1957
  C  C959  1  0.028500  0.600700  0.633700  1.0  -0.0571
  C  C960  1  0.459300  0.712800  0.425300  1.0  0.0187
  C  C961  1  0.093400  0.084700  0.624300  1.0  -0.0936
  C  C962  1  0.648600  0.322100  0.294100  1.0  -0.0402
  C  C963  1  0.459500  0.222100  0.664200  1.0  -0.1595
  C  C964  1  0.105100  0.502400  0.675700  1.0  -0.1296
  C  C965  1  0.119700  0.901100  0.843600  1.0  0.0702
  C  C966  1  0.670000  0.130600  0.305200  1.0  0.1696
  C  C967  1  0.952800  0.018000  0.982800  1.0  -0.2243
  C  C968  1  0.594700  0.883900  0.862900  1.0  -0.0866
  C  C969  1  0.184300  0.464500  0.519800  1.0  0.1193
  C  C970  1  0.027900  0.209500  0.914200  1.0  -0.1647
  C  C971  1  0.394900  0.497600  0.175700  1.0  -0.1305
  C  C972  1  0.826400  0.824300  0.101500  1.0  -0.1251
  C  C973  1  0.335800  0.959500  0.277900  1.0  -0.159
  C  C974  1  0.035500  0.480200  0.684300  1.0  0.1185
  C  C975  1  0.139200  0.190900  0.774800  1.0  0.149
  C  C976  1  0.165300  0.843400  0.874300  1.0  -0.0972
  C  C977  1  0.977500  0.303800  0.376100  1.0  0.0461
  C  C978  1  0.503600  0.736000  0.811200  1.0  -0.2123
  C  C979  1  0.522500  0.696200  0.876100  1.0  0.0464
  C  C980  1  0.573300  0.708200  0.202000  1.0  0.6458
  C  C981  1  0.440900  0.110800  0.524800  1.0  0.1478
  C  C982  1  0.366300  0.528500  0.899300  1.0  -0.0563
  C  C983  1  0.324300  0.605100  0.997600  1.0  -0.1298
  C  C984  1  0.024800  0.059100  0.889200  1.0  0.1456
  C  C985  1  0.199900  0.366500  0.659600  1.0  -0.1788
  C  C986  1  0.540500  0.722100  0.835800  1.0  -0.1603
  C  C987  1  0.880300  0.401100  0.656400  1.0  0.069
  C  C988  1  0.975200  0.559100  0.610800  1.0  0.1458
  C  C989  1  0.840400  0.800100  0.866500  1.0  -0.1761
  C  C990  1  0.076400  0.148500  0.574300  1.0  -0.1253
  C  C991  1  0.399300  0.133700  0.471500  1.0  -0.058
  C  C992  1  0.824300  0.894900  0.002400  1.0  -0.1301
  C  C993  1  0.475000  0.205700  0.415900  1.0  0.0698
  C  C994  1  0.927900  0.398600  0.544100  1.0  -0.0395
  C  C995  1  0.072100  0.898600  0.955900  1.0  -0.0394
  C  C996  1  0.130600  0.305200  0.670000  1.0  0.1687
  C  C997  1  0.665900  0.044300  0.225000  1.0  0.0698
  C  C998  1  0.732000  0.797200  0.767200  1.0  -0.2283
  C  C999  1  0.630600  0.194800  0.330000  1.0  0.1691
  C  C1000  1  0.959300  0.787200  0.574700  1.0  0.0202
  C  C1001  1  0.050200  0.338300  0.390200  1.0  0.6036
  C  C1002  1  0.156600  0.374300  0.334700  1.0  -0.0948
  C  C1003  1  0.649300  0.778500  0.883700  1.0  -0.0579
  C  C1004  1  0.676700  0.952000  0.958200  1.0  0.6433
  C  C1005  1  0.497600  0.175700  0.394900  1.0  -0.1314
  C  C1006  1  0.366500  0.659600  0.199900  1.0  -0.1795
  C  C1007  1  0.930400  0.880100  0.655200  1.0  -0.0898
  C  C1008  1  0.199800  0.140200  0.588300  1.0  0.601
  C  C1009  1  0.334100  0.544300  0.275000  1.0  0.072
  C  C1010  1  0.080000  0.444800  0.619400  1.0  0.1698
  C  C1011  1  0.778500  0.883700  0.649300  1.0  -0.0569
  C  C1012  1  0.547200  0.982000  0.482800  1.0  -0.2254
  C  C1013  1  0.475200  0.940900  0.389200  1.0  0.1461
  C  C1014  1  0.455300  0.349900  0.573300  1.0  0.6228
  C  C1015  1  0.790700  0.175300  0.962800  1.0  0.0194
  C  C1016  1  0.588300  0.199800  0.140200  1.0  0.6073
  C  C1017  1  0.599900  0.794700  0.323300  1.0  0.6209
  C  C1018  1  0.112900  0.366100  0.344700  1.0  -0.0856
  C  C1019  1  0.898600  0.955900  0.072100  1.0  -0.0425
  C  C1020  1  0.268000  0.297200  0.732800  1.0  -0.2229
  C  C1021  1  0.637100  0.405300  0.383900  1.0  -0.0869
  C  C1022  1  0.880100  0.655200  0.930400  1.0  -0.0893
  C  C1023  1  0.605100  0.997600  0.324300  1.0  -0.1297
  C  C1024  1  0.623900  0.477500  0.196200  1.0  0.0454
  C  C1025  1  0.986000  0.746400  0.561200  1.0  -0.2124
  C  C1026  1  0.065700  0.269800  0.714500  1.0  0.1211
  C  C1027  1  0.851200  0.137800  0.810200  1.0  -0.0402
  C  C1028  1  0.823300  0.900100  0.205300  1.0  0.623
  C  C1029  1  0.188800  0.003600  0.764000  1.0  -0.2121
  C  C1030  1  0.517200  0.047200  0.518000  1.0  -0.2234
  C  C1031  1  0.148500  0.574300  0.076400  1.0  -0.1189
  C  C1032  1  0.340400  0.699900  0.133500  1.0  -0.1768
  C  C1033  1  0.351200  0.362200  0.189800  1.0  -0.0402
  C  C1034  1  0.624300  0.093400  0.084700  1.0  -0.0936
  C  C1035  1  0.044100  0.572100  0.601400  1.0  -0.0423
  C  C1036  1  0.253600  0.061200  0.514000  1.0  -0.2133
  C  C1037  1  0.002400  0.824300  0.894900  1.0  -0.1325
  C  C1038  1  0.560200  0.387800  0.398800  1.0  -0.0508
  C  C1039  1  0.923600  0.648500  0.925700  1.0  -0.1237
  C  C1040  1  0.803800  0.123900  0.022500  1.0  0.049
  C  C1041  1  0.338300  0.390200  0.050200  1.0  0.6054
  C  C1042  1  0.406400  0.651100  0.369700  1.0  0.0717
  C  C1043  1  0.449900  0.590400  0.116500  1.0  -0.1759
  C  C1044  1  0.909600  0.883500  0.949900  1.0  -0.1803
  N  N1045  1  0.976200  0.813100  0.135800  1.0  0.0018
  N  N1046  1  0.740400  0.167600  0.201800  1.0  -0.0276
  N  N1047  1  0.582400  0.009600  0.548200  1.0  -0.0259
  N  N1048  1  0.408400  0.139600  0.513800  1.0  -0.3143
  N  N1049  1  0.813100  0.135800  0.976200  1.0  0.0032
  N  N1050  1  0.526100  0.156900  0.427000  1.0  -0.0582
  N  N1051  1  0.701800  0.759600  0.832400  1.0  -0.0283
  N  N1052  1  0.860400  0.013800  0.091600  1.0  -0.3105
  N  N1053  1  0.456100  0.488700  0.215700  1.0  -0.4152
  N  N1054  1  0.043900  0.511300  0.715700  1.0  -0.4192
  N  N1055  1  0.761300  0.206100  0.465700  1.0  -0.4161
  N  N1056  1  0.284300  0.543900  0.988700  1.0  -0.4153
  N  N1057  1  0.009600  0.548200  0.582400  1.0  -0.0281
  N  N1058  1  0.177000  0.406900  0.723900  1.0  -0.0558
  N  N1059  1  0.841600  0.263800  0.389600  1.0  -0.3128
  N  N1060  1  0.726200  0.385800  0.436900  1.0  0.0005
  N  N1061  1  0.759600  0.832400  0.701800  1.0  -0.029
  N  N1062  1  0.738700  0.793900  0.965700  1.0  -0.4166
  N  N1063  1  0.927000  0.973900  0.843100  1.0  -0.0568
  N  N1064  1  0.656900  0.073000  0.473900  1.0  -0.0593
  N  N1065  1  0.048200  0.917600  0.990400  1.0  -0.0272
  N  N1066  1  0.509600  0.951800  0.417600  1.0  -0.0262
  N  N1067  1  0.406900  0.723900  0.177000  1.0  -0.0594
  N  N1068  1  0.908400  0.360400  0.486200  1.0  -0.3142
  N  N1069  1  0.658400  0.736200  0.889600  1.0  -0.3127
  N  N1070  1  0.610400  0.341600  0.236200  1.0  -0.3127
  N  N1071  1  0.293900  0.534300  0.261300  1.0  -0.4187
  N  N1072  1  0.773800  0.614200  0.936900  1.0  0.0008
  N  N1073  1  0.965700  0.738700  0.793900  1.0  -0.4152
  N  N1074  1  0.273800  0.885800  0.063100  1.0  0.0015
  N  N1075  1  0.723900  0.177000  0.406900  1.0  -0.0557
  N  N1076  1  0.476200  0.686900  0.864200  1.0  0.0015
  N  N1077  1  0.988700  0.284300  0.543900  1.0  -0.418
  N  N1078  1  0.261300  0.293900  0.534300  1.0  -0.4188
  N  N1079  1  0.956100  0.011300  0.784300  1.0  -0.4183
  N  N1080  1  0.276100  0.677000  0.093100  1.0  -0.0556
  N  N1081  1  0.563100  0.226200  0.114200  1.0  0.0037
  N  N1082  1  0.843100  0.927000  0.973900  1.0  -0.0606
  N  N1083  1  0.548200  0.582400  0.009600  1.0  -0.0301
  N  N1084  1  0.364200  0.023800  0.313100  1.0  0.0024
  N  N1085  1  0.139600  0.513800  0.408400  1.0  -0.3098
  N  N1086  1  0.990400  0.048200  0.917600  1.0  -0.0273
  N  N1087  1  0.023800  0.313100  0.364200  1.0  0.0017
  N  N1088  1  0.091600  0.860400  0.013800  1.0  -0.3125
  N  N1089  1  0.082400  0.490400  0.451800  1.0  -0.0266
  N  N1090  1  0.793900  0.965700  0.738700  1.0  -0.4169
  N  N1091  1  0.784300  0.956100  0.011300  1.0  -0.4156
  N  N1092  1  0.332400  0.798200  0.240400  1.0  -0.0259
  N  N1093  1  0.013800  0.091600  0.860400  1.0  -0.3129
  N  N1094  1  0.011300  0.784300  0.956100  1.0  -0.4171
  N  N1095  1  0.513800  0.408400  0.139600  1.0  -0.314
  N  N1096  1  0.635800  0.523800  0.186900  1.0  0.0012
  N  N1097  1  0.593100  0.223900  0.323000  1.0  -0.0562
  N  N1098  1  0.488700  0.215700  0.456100  1.0  -0.4161
  N  N1099  1  0.343100  0.573000  0.026100  1.0  -0.0587
  N  N1100  1  0.534300  0.261300  0.293900  1.0  -0.4161
  N  N1101  1  0.298200  0.259600  0.667600  1.0  -0.0261
  N  N1102  1  0.885800  0.063100  0.273800  1.0  0.0019
  N  N1103  1  0.063100  0.273800  0.885800  1.0  0.0036
  N  N1104  1  0.263800  0.389600  0.841600  1.0  -0.3126
  N  N1105  1  0.776100  0.823000  0.906900  1.0  -0.0579
  N  N1106  1  0.385800  0.436900  0.726200  1.0  0.0016
  N  N1107  1  0.238700  0.706100  0.034300  1.0  -0.416
  N  N1108  1  0.832400  0.701800  0.759600  1.0  -0.0286
  N  N1109  1  0.614200  0.936900  0.773800  1.0  0.0024
  N  N1110  1  0.206100  0.465700  0.761300  1.0  -0.4161
  N  N1111  1  0.236200  0.610400  0.341600  1.0  -0.3117
  N  N1112  1  0.110400  0.158400  0.763800  1.0  -0.3134
  N  N1113  1  0.823000  0.906900  0.776100  1.0  -0.0571
  N  N1114  1  0.677000  0.093100  0.276100  1.0  -0.0543
  N  N1115  1  0.490400  0.451800  0.082400  1.0  -0.0276
  N  N1116  1  0.639600  0.986200  0.591600  1.0  -0.3095
  N  N1117  1  0.736200  0.889600  0.658400  1.0  -0.3107
  N  N1118  1  0.360400  0.486200  0.908400  1.0  -0.3116
  N  N1119  1  0.706100  0.034300  0.238700  1.0  -0.4171
  N  N1120  1  0.313100  0.364200  0.023800  1.0  0.0041
  N  N1121  1  0.034300  0.238700  0.706100  1.0  -0.4157
  N  N1122  1  0.240400  0.332400  0.798200  1.0  -0.0268
  N  N1123  1  0.686900  0.864200  0.476200  1.0  0.0012
  N  N1124  1  0.323000  0.593100  0.223900  1.0  -0.0577
  N  N1125  1  0.951800  0.417600  0.509600  1.0  -0.0284
  N  N1126  1  0.936900  0.773800  0.614200  1.0  0.0018
  N  N1127  1  0.486200  0.908400  0.360400  1.0  -0.3129
  N  N1128  1  0.186900  0.635800  0.523800  1.0  0.002
  N  N1129  1  0.389600  0.841600  0.263800  1.0  -0.3134
  N  N1130  1  0.763800  0.110400  0.158400  1.0  -0.3125
  N  N1131  1  0.135800  0.976200  0.813100  1.0  0.0022
  N  N1132  1  0.543900  0.988700  0.284300  1.0  -0.4189
  N  N1133  1  0.451800  0.082400  0.490400  1.0  -0.0276
  N  N1134  1  0.114200  0.563100  0.226200  1.0  0.0018
  N  N1135  1  0.156900  0.427000  0.526100  1.0  -0.0591
  N  N1136  1  0.158400  0.763800  0.110400  1.0  -0.3104
  N  N1137  1  0.864200  0.476200  0.686900  1.0  0.0015
  N  N1138  1  0.465700  0.761300  0.206100  1.0  -0.4164
  N  N1139  1  0.715700  0.043900  0.511300  1.0  -0.4124
  N  N1140  1  0.201800  0.740400  0.167600  1.0  -0.0255
  N  N1141  1  0.986200  0.591600  0.639600  1.0  -0.3146
  N  N1142  1  0.073000  0.473900  0.656900  1.0  -0.055
  N  N1143  1  0.026100  0.343100  0.573000  1.0  -0.058
  N  N1144  1  0.917600  0.990400  0.048200  1.0  -0.0249
  N  N1145  1  0.573000  0.026100  0.343100  1.0  -0.0556
  N  N1146  1  0.798200  0.240400  0.332400  1.0  -0.0278
  N  N1147  1  0.511300  0.715700  0.043900  1.0  -0.4166
  N  N1148  1  0.341600  0.236200  0.610400  1.0  -0.3118
  N  N1149  1  0.215700  0.456100  0.488700  1.0  -0.4154
  N  N1150  1  0.093100  0.276100  0.677000  1.0  -0.0586
  N  N1151  1  0.259600  0.667600  0.298200  1.0  -0.0249
  N  N1152  1  0.226200  0.114200  0.563100  1.0  0.0015
  N  N1153  1  0.667600  0.298200  0.259600  1.0  -0.031
  N  N1154  1  0.167600  0.201800  0.740400  1.0  -0.0269
  N  N1155  1  0.427000  0.526100  0.156900  1.0  -0.055
  N  N1156  1  0.436900  0.726200  0.385800  1.0  0.0023
  N  N1157  1  0.889600  0.658400  0.736200  1.0  -0.3145
  N  N1158  1  0.523800  0.186900  0.635800  1.0  0.0023
  N  N1159  1  0.223900  0.323000  0.593100  1.0  -0.0577
  N  N1160  1  0.591600  0.639600  0.986200  1.0  -0.3135
  N  N1161  1  0.417600  0.509600  0.951800  1.0  -0.0282
  N  N1162  1  0.973900  0.843100  0.927000  1.0  -0.0559
  N  N1163  1  0.473900  0.656900  0.073000  1.0  -0.0579
  N  N1164  1  0.906900  0.776100  0.823000  1.0  -0.0596
  O  O1165  1  0.687300  0.977200  0.686900  1.0  -0.6354
  O  O1166  1  0.063100  0.772800  0.062700  1.0  -0.6357
  O  O1167  1  0.103200  0.016200  0.661000  1.0  -0.4693
  O  O1168  1  0.307600  0.422000  0.248900  1.0  -0.6551
  O  O1169  1  0.240800  0.565500  0.509800  1.0  -0.6458
  O  O1170  1  0.463600  0.953800  0.163000  1.0  -0.6361
  O  O1171  1  0.464400  0.640500  0.923400  1.0  -0.5806
  O  O1172  1  0.536400  0.453800  0.337000  1.0  -0.6381
  O  O1173  1  0.937300  0.563100  0.727200  1.0  -0.635
  O  O1174  1  0.828000  0.057600  0.498900  1.0  -0.6575
  O  O1175  1  0.516200  0.839000  0.896800  1.0  -0.4707
  O  O1176  1  0.813100  0.312700  0.477200  1.0  -0.6361
  O  O1177  1  0.557300  0.297400  0.483500  1.0  -0.6705
  O  O1178  1  0.733800  0.646800  0.089000  1.0  -0.4736
  O  O1179  1  0.589000  0.766200  0.353200  1.0  -0.4748
  O  O1180  1  0.990200  0.759200  0.065500  1.0  -0.6431
  O  O1181  1  0.509800  0.240800  0.565500  1.0  -0.6422
  O  O1182  1  0.036400  0.046200  0.663000  1.0  -0.6375
  O  O1183  1  0.266500  0.452600  0.192700  1.0  -0.6677
  O  O1184  1  0.078000  0.751100  0.807600  1.0  -0.6489
  O  O1185  1  0.483500  0.557300  0.297400  1.0  -0.6709
  O  O1186  1  0.740200  0.315500  0.490800  1.0  -0.6459
  O  O1187  1  0.640500  0.923400  0.464400  1.0  -0.5799
  O  O1188  1  0.047400  0.807300  0.766500  1.0  -0.6757
  O  O1189  1  0.296200  0.213600  0.413000  1.0  -0.6323
  O  O1190  1  0.890500  0.785600  0.673400  1.0  -0.5793
  O  O1191  1  0.173400  0.609500  0.214400  1.0  -0.5807
  O  O1192  1  0.016500  0.442700  0.797400  1.0  -0.669
  O  O1193  1  0.477200  0.813100  0.312700  1.0  -0.6351
  O  O1194  1  0.807600  0.078000  0.751100  1.0  -0.6541
  O  O1195  1  0.046200  0.663000  0.036400  1.0  -0.6297
  O  O1196  1  0.922000  0.251100  0.692400  1.0  -0.6475
  O  O1197  1  0.434500  0.009800  0.259200  1.0  -0.6444
  O  O1198  1  0.087000  0.703800  0.713600  1.0  -0.6338
  O  O1199  1  0.546200  0.837000  0.963600  1.0  -0.6338
  O  O1200  1  0.609500  0.214400  0.173400  1.0  -0.5796
  O  O1201  1  0.035600  0.359500  0.423400  1.0  -0.5805
  O  O1202  1  0.192700  0.266500  0.452600  1.0  -0.6622
  O  O1203  1  0.286400  0.587000  0.796200  1.0  -0.6369
  O  O1204  1  0.953800  0.163000  0.463600  1.0  -0.632
  O  O1205  1  0.353200  0.589000  0.766200  1.0  -0.4698
  O  O1206  1  0.442400  0.501100  0.328000  1.0  -0.6467
  O  O1207  1  0.326600  0.390500  0.714400  1.0  -0.5803
  O  O1208  1  0.339000  0.603200  0.483800  1.0  -0.4761
  O  O1209  1  0.714400  0.326600  0.390500  1.0  -0.581
  O  O1210  1  0.214400  0.173400  0.609500  1.0  -0.582
  O  O1211  1  0.702600  0.983500  0.942700  1.0  -0.6665
  O  O1212  1  0.964400  0.859500  0.076600  1.0  -0.581
  O  O1213  1  0.740800  0.934500  0.490200  1.0  -0.6422
  O  O1214  1  0.009200  0.259800  0.815500  1.0  -0.641
  O  O1215  1  0.796200  0.286400  0.587000  1.0  -0.6329
  O  O1216  1  0.396800  0.983800  0.161000  1.0  -0.4696
  O  O1217  1  0.146800  0.411000  0.266200  1.0  -0.4684
  O  O1218  1  0.759200  0.065500  0.990200  1.0  -0.6425
  O  O1219  1  0.259800  0.815500  0.009200  1.0  -0.6454
  O  O1220  1  0.535600  0.140500  0.576600  1.0  -0.582
  O  O1221  1  0.509200  0.240200  0.184500  1.0  -0.6406
  O  O1222  1  0.807300  0.766500  0.047400  1.0  -0.6643
  O  O1223  1  0.977200  0.686900  0.687300  1.0  -0.6355
  O  O1224  1  0.672000  0.942400  0.998900  1.0  -0.6598
  O  O1225  1  0.437300  0.936900  0.272800  1.0  -0.6366
  O  O1226  1  0.452600  0.192700  0.266500  1.0  -0.6741
  O  O1227  1  0.703800  0.713600  0.087000  1.0  -0.6323
  O  O1228  1  0.562700  0.436900  0.227200  1.0  -0.6352
  O  O1229  1  0.853200  0.911000  0.233800  1.0  -0.4713
  O  O1230  1  0.663000  0.036400  0.046200  1.0  -0.6334
  O  O1231  1  0.203800  0.786400  0.913000  1.0  -0.6328
  O  O1232  1  0.422000  0.248900  0.307600  1.0  -0.6493
  O  O1233  1  0.936900  0.272800  0.437300  1.0  -0.6364
  O  O1234  1  0.751100  0.807600  0.078000  1.0  -0.6513
  O  O1235  1  0.001100  0.172000  0.557600  1.0  -0.6494
  O  O1236  1  0.285600  0.826600  0.109500  1.0  -0.5811
  O  O1237  1  0.786400  0.913000  0.203800  1.0  -0.6349
  O  O1238  1  0.498900  0.828000  0.057600  1.0  -0.6528
  O  O1239  1  0.826600  0.109500  0.285600  1.0  -0.5796
  O  O1240  1  0.934500  0.490200  0.740800  1.0  -0.6461
  O  O1241  1  0.359500  0.423400  0.035600  1.0  -0.5803
  O  O1242  1  0.140500  0.576600  0.535600  1.0  -0.5799
  O  O1243  1  0.172000  0.557600  0.001100  1.0  -0.6561
  O  O1244  1  0.727200  0.937300  0.563100  1.0  -0.6383
  O  O1245  1  0.272800  0.437300  0.936900  1.0  -0.6372
  O  O1246  1  0.161000  0.396800  0.983800  1.0  -0.4731
  O  O1247  1  0.983500  0.942700  0.702600  1.0  -0.6694
  O  O1248  1  0.942700  0.702600  0.983500  1.0  -0.671
  O  O1249  1  0.328000  0.442400  0.501100  1.0  -0.6548
  O  O1250  1  0.057600  0.498900  0.828000  1.0  -0.6488
  O  O1251  1  0.661000  0.103200  0.016200  1.0  -0.4742
  O  O1252  1  0.213600  0.413000  0.296200  1.0  -0.6345
  O  O1253  1  0.913000  0.203800  0.786400  1.0  -0.6322
  O  O1254  1  0.186900  0.812700  0.022800  1.0  -0.638
  O  O1255  1  0.516500  0.057300  0.202600  1.0  -0.6671
  O  O1256  1  0.603200  0.483800  0.339000  1.0  -0.4719
  O  O1257  1  0.766200  0.353200  0.589000  1.0  -0.472
  O  O1258  1  0.942400  0.998900  0.672000  1.0  -0.6463
  O  O1259  1  0.578000  0.748900  0.192400  1.0  -0.6462
  O  O1260  1  0.522800  0.313100  0.187300  1.0  -0.6366
  O  O1261  1  0.772800  0.062700  0.063100  1.0  -0.6376
  O  O1262  1  0.297400  0.483500  0.557300  1.0  -0.6644
  O  O1263  1  0.312700  0.477200  0.813100  1.0  -0.6369
  O  O1264  1  0.436900  0.227200  0.562700  1.0  -0.6352
  O  O1265  1  0.748900  0.192400  0.578000  1.0  -0.6549
  O  O1266  1  0.313100  0.187300  0.522800  1.0  -0.6366
  O  O1267  1  0.759800  0.684500  0.990800  1.0  -0.6456
  O  O1268  1  0.557600  0.001100  0.172000  1.0  -0.648
  O  O1269  1  0.109500  0.285600  0.826600  1.0  -0.5806
  O  O1270  1  0.413000  0.296200  0.213600  1.0  -0.635
  O  O1271  1  0.785600  0.673400  0.890500  1.0  -0.5823
  O  O1272  1  0.016200  0.661000  0.103200  1.0  -0.4657
  O  O1273  1  0.251100  0.692400  0.922000  1.0  -0.6518
  O  O1274  1  0.983800  0.161000  0.396800  1.0  -0.4697
  O  O1275  1  0.733500  0.952600  0.307300  1.0  -0.6692
  O  O1276  1  0.713600  0.087000  0.703800  1.0  -0.635
  O  O1277  1  0.062700  0.063100  0.772800  1.0  -0.6357
  O  O1278  1  0.797400  0.016500  0.442700  1.0  -0.6648
  O  O1279  1  0.184500  0.509200  0.240200  1.0  -0.6442
  O  O1280  1  0.896800  0.516200  0.839000  1.0  -0.4734
  O  O1281  1  0.227200  0.562700  0.436900  1.0  -0.6378
  O  O1282  1  0.390500  0.714400  0.326600  1.0  -0.5806
  O  O1283  1  0.692700  0.233500  0.547400  1.0  -0.6658
  O  O1284  1  0.248900  0.307600  0.422000  1.0  -0.6533
  O  O1285  1  0.686900  0.687300  0.977200  1.0  -0.6369
  O  O1286  1  0.673400  0.890500  0.785600  1.0  -0.5813
  O  O1287  1  0.501100  0.328000  0.442400  1.0  -0.6502
  O  O1288  1  0.576600  0.535600  0.140500  1.0  -0.5814
  O  O1289  1  0.490800  0.740200  0.315500  1.0  -0.6441
  O  O1290  1  0.202600  0.516500  0.057300  1.0  -0.6633
  O  O1291  1  0.089000  0.733800  0.646800  1.0  -0.4731
  O  O1292  1  0.963600  0.546200  0.837000  1.0  -0.6366
  O  O1293  1  0.442700  0.797400  0.016500  1.0  -0.6717
  O  O1294  1  0.490200  0.740800  0.934500  1.0  -0.6427
  O  O1295  1  0.057300  0.202600  0.516500  1.0  -0.6735
  O  O1296  1  0.837000  0.963600  0.546200  1.0  -0.6316
  O  O1297  1  0.065500  0.990200  0.759200  1.0  -0.6456
  O  O1298  1  0.009800  0.259200  0.434500  1.0  -0.644
  O  O1299  1  0.337000  0.536400  0.453800  1.0  -0.6319
  O  O1300  1  0.646800  0.089000  0.733800  1.0  -0.472
  O  O1301  1  0.423400  0.035600  0.359500  1.0  -0.5814
  O  O1302  1  0.812700  0.022800  0.186900  1.0  -0.636
  O  O1303  1  0.022800  0.186900  0.812700  1.0  -0.6365
  O  O1304  1  0.187300  0.522800  0.313100  1.0  -0.6361
  O  O1305  1  0.587000  0.796200  0.286400  1.0  -0.6309
  O  O1306  1  0.563100  0.727200  0.937300  1.0  -0.635
  O  O1307  1  0.233500  0.547400  0.692700  1.0  -0.6681
  O  O1308  1  0.859500  0.076600  0.964400  1.0  -0.5797
  O  O1309  1  0.911000  0.233800  0.853200  1.0  -0.4748
  O  O1310  1  0.684500  0.990800  0.759800  1.0  -0.6451
  O  O1311  1  0.692400  0.922000  0.251100  1.0  -0.652
  O  O1312  1  0.990800  0.759800  0.684500  1.0  -0.6429
  O  O1313  1  0.163000  0.463600  0.953800  1.0  -0.633
  O  O1314  1  0.240200  0.184500  0.509200  1.0  -0.6437
  O  O1315  1  0.411000  0.266200  0.146800  1.0  -0.4744
  O  O1316  1  0.192400  0.578000  0.748900  1.0  -0.6538
  O  O1317  1  0.815500  0.009200  0.259800  1.0  -0.646
  O  O1318  1  0.766500  0.047400  0.807300  1.0  -0.6654
  O  O1319  1  0.998900  0.672000  0.942400  1.0  -0.6504
  O  O1320  1  0.266200  0.146800  0.411000  1.0  -0.4691
  O  O1321  1  0.565500  0.509800  0.240800  1.0  -0.6466
  O  O1322  1  0.923400  0.464400  0.640500  1.0  -0.5812
  O  O1323  1  0.259200  0.434500  0.009800  1.0  -0.6428
  O  O1324  1  0.076600  0.964400  0.859500  1.0  -0.5805
  O  O1325  1  0.952600  0.307300  0.733500  1.0  -0.6733
  O  O1326  1  0.839000  0.896800  0.516200  1.0  -0.4734
  O  O1327  1  0.315500  0.490800  0.740200  1.0  -0.6431
  O  O1328  1  0.483800  0.339000  0.603200  1.0  -0.4721
  O  O1329  1  0.307300  0.733500  0.952600  1.0  -0.6644
  O  O1330  1  0.547400  0.692700  0.233500  1.0  -0.6715
  O  O1331  1  0.453800  0.337000  0.536400  1.0  -0.6305
  O  O1332  1  0.233800  0.853200  0.911000  1.0  -0.473
