# generated using pymatgen
data_Zn5H24(C9O4)4
_symmetry_space_group_name_H-M   'P 1'
_cell_length_a   26.05500000
_cell_length_b   26.05500000
_cell_length_c   35.84200000
_cell_angle_alpha   90.00000000
_cell_angle_beta   90.00000000
_cell_angle_gamma   120.00000000
_symmetry_Int_Tables_number   1
_chemical_formula_structural   Zn5H24(C9O4)4
_chemical_formula_sum   'Zn60 H288 C432 O192'
_cell_volume   21071.96431743
_cell_formula_units_Z   12
loop_
 _symmetry_equiv_pos_site_id
 _symmetry_equiv_pos_as_xyz
  1  'x, y, z'
loop_
 _atom_site_type_symbol
 _atom_site_label
 _atom_site_symmetry_multiplicity
 _atom_site_fract_x
 _atom_site_fract_y
 _atom_site_fract_z
 _atom_site_occupancy
 _atom_site_charge
  Zn  Zn1  1  0.860850  0.315150  0.944880  1.0  1.0021
  Zn  Zn2  1  0.744850  0.333100  0.964860  1.0  0.8847
  Zn  Zn3  1  0.454300  0.139150  0.944880  1.0  1.0023
  Zn  Zn4  1  0.588250  0.255150  0.964860  1.0  0.8867
  Zn  Zn5  1  0.684850  0.545700  0.944880  1.0  1.0032
  Zn  Zn6  1  0.666900  0.411750  0.964860  1.0  0.8846
  Zn  Zn7  1  0.139150  0.684850  0.444880  1.0  1.0023
  Zn  Zn8  1  0.255150  0.666900  0.464860  1.0  0.8831
  Zn  Zn9  1  0.545700  0.860850  0.444880  1.0  1.0018
  Zn  Zn10  1  0.411750  0.744850  0.464860  1.0  0.8847
  Zn  Zn11  1  0.315150  0.454300  0.444880  1.0  1.0025
  Zn  Zn12  1  0.333100  0.588250  0.464860  1.0  0.8867
  Zn  Zn13  1  0.545700  0.684850  0.555120  1.0  1.0004
  Zn  Zn14  1  0.411750  0.666900  0.535140  1.0  0.8834
  Zn  Zn15  1  0.315150  0.860850  0.555120  1.0  0.9991
  Zn  Zn16  1  0.333100  0.744850  0.535140  1.0  0.8859
  Zn  Zn17  1  0.139150  0.454300  0.555120  1.0  1.0009
  Zn  Zn18  1  0.255150  0.588250  0.535140  1.0  0.8839
  Zn  Zn19  1  0.454300  0.315150  0.055120  1.0  0.9998
  Zn  Zn20  1  0.588250  0.333100  0.035140  1.0  0.8821
  Zn  Zn21  1  0.684850  0.139150  0.055120  1.0  1.0001
  Zn  Zn22  1  0.666900  0.255150  0.035140  1.0  0.8837
  Zn  Zn23  1  0.860850  0.545700  0.055120  1.0  1.0001
  Zn  Zn24  1  0.744850  0.411750  0.035140  1.0  0.8856
  Zn  Zn25  1  0.139150  0.684850  0.055120  1.0  0.9996
  Zn  Zn26  1  0.255150  0.666900  0.035140  1.0  0.8816
  Zn  Zn27  1  0.545700  0.860850  0.055120  1.0  1.0
  Zn  Zn28  1  0.411750  0.744850  0.035140  1.0  0.8838
  Zn  Zn29  1  0.315150  0.454300  0.055120  1.0  1.0001
  Zn  Zn30  1  0.333100  0.588250  0.035140  1.0  0.8857
  Zn  Zn31  1  0.860850  0.315150  0.555120  1.0  1.0004
  Zn  Zn32  1  0.744850  0.333100  0.535140  1.0  0.8838
  Zn  Zn33  1  0.454300  0.139150  0.555120  1.0  0.9992
  Zn  Zn34  1  0.588250  0.255150  0.535140  1.0  0.8857
  Zn  Zn35  1  0.684850  0.545700  0.555120  1.0  1.0008
  Zn  Zn36  1  0.666900  0.411750  0.535140  1.0  0.8835
  Zn  Zn37  1  0.454300  0.315150  0.444880  1.0  1.002
  Zn  Zn38  1  0.588250  0.333100  0.464860  1.0  0.8832
  Zn  Zn39  1  0.684850  0.139150  0.444880  1.0  1.0022
  Zn  Zn40  1  0.666900  0.255150  0.464860  1.0  0.8847
  Zn  Zn41  1  0.860850  0.545700  0.444880  1.0  1.0029
  Zn  Zn42  1  0.744850  0.411750  0.464860  1.0  0.8866
  Zn  Zn43  1  0.545700  0.684850  0.944880  1.0  1.0023
  Zn  Zn44  1  0.411750  0.666900  0.964860  1.0  0.8846
  Zn  Zn45  1  0.315150  0.860850  0.944880  1.0  1.0022
  Zn  Zn46  1  0.333100  0.744850  0.964860  1.0  0.8867
  Zn  Zn47  1  0.139150  0.454300  0.944880  1.0  1.003
  Zn  Zn48  1  0.255150  0.588250  0.964860  1.0  0.8849
  Zn  Zn49  1  0.000000  0.339900  0.937300  1.0  0.9851
  Zn  Zn50  1  0.339900  0.000000  0.937300  1.0  0.9855
  Zn  Zn51  1  0.660100  0.660100  0.937300  1.0  0.9851
  Zn  Zn52  1  0.000000  0.660100  0.437300  1.0  0.9866
  Zn  Zn53  1  0.660100  0.000000  0.437300  1.0  0.9844
  Zn  Zn54  1  0.339900  0.339900  0.437300  1.0  0.9865
  Zn  Zn55  1  0.660100  0.660100  0.562700  1.0  0.9824
  Zn  Zn56  1  0.339900  0.000000  0.562700  1.0  0.9823
  Zn  Zn57  1  0.000000  0.339900  0.562700  1.0  0.983
  Zn  Zn58  1  0.339900  0.339900  0.062700  1.0  0.9836
  Zn  Zn59  1  0.660100  0.000000  0.062700  1.0  0.9823
  Zn  Zn60  1  0.000000  0.660100  0.062700  1.0  0.9829
  H  H61  1  0.774600  0.125400  0.957000  1.0  0.1333
  H  H62  1  0.943500  0.161400  0.945600  1.0  0.1141
  H  H63  1  0.911800  0.059400  0.948400  1.0  0.1317
  H  H64  1  0.838700  0.310200  0.830800  1.0  0.126
  H  H65  1  0.741500  0.414200  0.789600  1.0  0.1299
  H  H66  1  0.746200  0.394400  0.853300  1.0  0.1128
  H  H67  1  0.829200  0.296400  0.022300  1.0  0.129
  H  H68  1  0.865900  0.365200  0.022100  1.0  0.1212
  H  H69  1  0.814600  0.368900  0.059800  1.0  0.1295
  H  H70  1  0.779200  0.299500  0.061100  1.0  0.1541
  H  H71  1  0.955700  0.428700  0.984300  1.0  0.1164
  H  H72  1  0.955700  0.445900  0.942500  1.0  0.1252
  H  H73  1  0.350800  0.225400  0.957000  1.0  0.1327
  H  H74  1  0.217900  0.056500  0.945600  1.0  0.1138
  H  H75  1  0.147600  0.088200  0.948400  1.0  0.131
  H  H76  1  0.471500  0.161300  0.830800  1.0  0.1266
  H  H77  1  0.672700  0.258500  0.789600  1.0  0.1301
  H  H78  1  0.648200  0.253800  0.853300  1.0  0.1127
  H  H79  1  0.467200  0.170800  0.022300  1.0  0.129
  H  H80  1  0.499300  0.134100  0.022100  1.0  0.1152
  H  H81  1  0.554300  0.185400  0.059800  1.0  0.13
  H  H82  1  0.520300  0.220800  0.061100  1.0  0.1532
  H  H83  1  0.473000  0.044300  0.984300  1.0  0.1178
  H  H84  1  0.490200  0.044300  0.942500  1.0  0.1252
  H  H85  1  0.874600  0.649200  0.957000  1.0  0.1331
  H  H86  1  0.838600  0.782100  0.945600  1.0  0.1139
  H  H87  1  0.940600  0.852400  0.948400  1.0  0.133
  H  H88  1  0.689800  0.528500  0.830800  1.0  0.1269
  H  H89  1  0.585800  0.327300  0.789600  1.0  0.1293
  H  H90  1  0.605600  0.351800  0.853300  1.0  0.1121
  H  H91  1  0.703600  0.532800  0.022300  1.0  0.1253
  H  H92  1  0.634800  0.500700  0.022100  1.0  0.1212
  H  H93  1  0.631100  0.445700  0.059800  1.0  0.1287
  H  H94  1  0.700500  0.479700  0.061100  1.0  0.1531
  H  H95  1  0.571300  0.527000  0.984300  1.0  0.1147
  H  H96  1  0.554100  0.509800  0.942500  1.0  0.1247
  H  H97  1  0.225400  0.874600  0.457000  1.0  0.1323
  H  H98  1  0.056500  0.838600  0.445600  1.0  0.1137
  H  H99  1  0.088200  0.940600  0.448400  1.0  0.1312
  H  H100  1  0.161300  0.689800  0.330800  1.0  0.1268
  H  H101  1  0.258500  0.585800  0.289600  1.0  0.1282
  H  H102  1  0.253800  0.605600  0.353300  1.0  0.1128
  H  H103  1  0.170800  0.703600  0.522300  1.0  0.1294
  H  H104  1  0.134100  0.634800  0.522100  1.0  0.1236
  H  H105  1  0.185400  0.631100  0.559800  1.0  0.1313
  H  H106  1  0.220800  0.700500  0.561100  1.0  0.1529
  H  H107  1  0.044300  0.571300  0.484300  1.0  0.1153
  H  H108  1  0.044300  0.554100  0.442500  1.0  0.1245
  H  H109  1  0.649200  0.774600  0.457000  1.0  0.1323
  H  H110  1  0.782100  0.943500  0.445600  1.0  0.1142
  H  H111  1  0.852400  0.911800  0.448400  1.0  0.1319
  H  H112  1  0.528500  0.838700  0.330800  1.0  0.1264
  H  H113  1  0.327300  0.741500  0.289600  1.0  0.13
  H  H114  1  0.351800  0.746200  0.353300  1.0  0.1127
  H  H115  1  0.532800  0.829200  0.522300  1.0  0.1255
  H  H116  1  0.500700  0.865900  0.522100  1.0  0.121
  H  H117  1  0.445700  0.814600  0.559800  1.0  0.1294
  H  H118  1  0.479700  0.779200  0.561100  1.0  0.1529
  H  H119  1  0.527000  0.955700  0.484300  1.0  0.1172
  H  H120  1  0.509800  0.955700  0.442500  1.0  0.1256
  H  H121  1  0.125400  0.350800  0.457000  1.0  0.1338
  H  H122  1  0.161400  0.217900  0.445600  1.0  0.1141
  H  H123  1  0.059400  0.147600  0.448400  1.0  0.1329
  H  H124  1  0.310200  0.471500  0.330800  1.0  0.1258
  H  H125  1  0.414200  0.672700  0.289600  1.0  0.1295
  H  H126  1  0.394400  0.648200  0.353300  1.0  0.1122
  H  H127  1  0.296400  0.467200  0.522300  1.0  0.1219
  H  H128  1  0.365200  0.499300  0.522100  1.0  0.1181
  H  H129  1  0.368900  0.554300  0.559800  1.0  0.129
  H  H130  1  0.299500  0.520300  0.561100  1.0  0.1531
  H  H131  1  0.428700  0.473000  0.484300  1.0  0.1144
  H  H132  1  0.445900  0.490200  0.442500  1.0  0.1255
  H  H133  1  0.649200  0.874600  0.543000  1.0  0.1324
  H  H134  1  0.782100  0.838600  0.554400  1.0  0.1135
  H  H135  1  0.852400  0.940600  0.551600  1.0  0.1322
  H  H136  1  0.528500  0.689800  0.669200  1.0  0.1265
  H  H137  1  0.327300  0.585800  0.710400  1.0  0.1294
  H  H138  1  0.351800  0.605600  0.646700  1.0  0.1126
  H  H139  1  0.532800  0.703600  0.477700  1.0  0.1289
  H  H140  1  0.500700  0.634800  0.477900  1.0  0.1218
  H  H141  1  0.445700  0.631100  0.440200  1.0  0.1306
  H  H142  1  0.479700  0.700500  0.438900  1.0  0.1531
  H  H143  1  0.527000  0.571300  0.515700  1.0  0.114
  H  H144  1  0.509800  0.554100  0.557500  1.0  0.1251
  H  H145  1  0.125400  0.774600  0.543000  1.0  0.1322
  H  H146  1  0.161400  0.943500  0.554400  1.0  0.1139
  H  H147  1  0.059400  0.911800  0.551600  1.0  0.132
  H  H148  1  0.310200  0.838700  0.669200  1.0  0.1272
  H  H149  1  0.414200  0.741500  0.710400  1.0  0.1302
  H  H150  1  0.394400  0.746200  0.646700  1.0  0.1127
  H  H151  1  0.296400  0.829200  0.477700  1.0  0.1285
  H  H152  1  0.365200  0.865900  0.477900  1.0  0.1209
  H  H153  1  0.368900  0.814600  0.440200  1.0  0.1291
  H  H154  1  0.299500  0.779200  0.438900  1.0  0.1513
  H  H155  1  0.428700  0.955700  0.515700  1.0  0.1138
  H  H156  1  0.445900  0.955700  0.557500  1.0  0.1245
  H  H157  1  0.225400  0.350800  0.543000  1.0  0.1329
  H  H158  1  0.056500  0.217900  0.554400  1.0  0.1134
  H  H159  1  0.088200  0.147600  0.551600  1.0  0.133
  H  H160  1  0.161300  0.471500  0.669200  1.0  0.1262
  H  H161  1  0.258500  0.672700  0.710400  1.0  0.1288
  H  H162  1  0.253800  0.648200  0.646700  1.0  0.1124
  H  H163  1  0.170800  0.467200  0.477700  1.0  0.1212
  H  H164  1  0.134100  0.499300  0.477900  1.0  0.1206
  H  H165  1  0.185400  0.554300  0.440200  1.0  0.1284
  H  H166  1  0.220800  0.520300  0.438900  1.0  0.1513
  H  H167  1  0.044300  0.473000  0.515700  1.0  0.115
  H  H168  1  0.044300  0.490200  0.557500  1.0  0.1252
  H  H169  1  0.350800  0.125400  0.043000  1.0  0.1323
  H  H170  1  0.217900  0.161400  0.054400  1.0  0.1139
  H  H171  1  0.147600  0.059400  0.051600  1.0  0.1311
  H  H172  1  0.471500  0.310200  0.169200  1.0  0.127
  H  H173  1  0.672700  0.414200  0.210400  1.0  0.1283
  H  H174  1  0.648200  0.394400  0.146700  1.0  0.1123
  H  H175  1  0.467200  0.296400  0.977700  1.0  0.1286
  H  H176  1  0.499300  0.365200  0.977900  1.0  0.1224
  H  H177  1  0.554300  0.368900  0.940200  1.0  0.1307
  H  H178  1  0.520300  0.299500  0.938900  1.0  0.1514
  H  H179  1  0.473000  0.428700  0.015700  1.0  0.1139
  H  H180  1  0.490200  0.445900  0.057500  1.0  0.125
  H  H181  1  0.874600  0.225400  0.043000  1.0  0.1325
  H  H182  1  0.838600  0.056500  0.054400  1.0  0.113
  H  H183  1  0.940600  0.088200  0.051600  1.0  0.1326
  H  H184  1  0.689800  0.161300  0.169200  1.0  0.1267
  H  H185  1  0.585800  0.258500  0.210400  1.0  0.1304
  H  H186  1  0.605600  0.253800  0.146700  1.0  0.1122
  H  H187  1  0.703600  0.170800  0.977700  1.0  0.1251
  H  H188  1  0.634800  0.134100  0.977900  1.0  0.115
  H  H189  1  0.631100  0.185400  0.940200  1.0  0.1303
  H  H190  1  0.700500  0.220800  0.938900  1.0  0.1524
  H  H191  1  0.571300  0.044300  0.015700  1.0  0.1142
  H  H192  1  0.554100  0.044300  0.057500  1.0  0.1255
  H  H193  1  0.774600  0.649200  0.043000  1.0  0.133
  H  H194  1  0.943500  0.782100  0.054400  1.0  0.1138
  H  H195  1  0.911800  0.852400  0.051600  1.0  0.1332
  H  H196  1  0.838700  0.528500  0.169200  1.0  0.127
  H  H197  1  0.741500  0.327300  0.210400  1.0  0.1297
  H  H198  1  0.746200  0.351800  0.146700  1.0  0.1125
  H  H199  1  0.829200  0.532800  0.977700  1.0  0.126
  H  H200  1  0.865900  0.500700  0.977900  1.0  0.118
  H  H201  1  0.814600  0.445700  0.940200  1.0  0.1287
  H  H202  1  0.779200  0.479700  0.938900  1.0  0.1522
  H  H203  1  0.955700  0.527000  0.015700  1.0  0.1156
  H  H204  1  0.955700  0.509800  0.057500  1.0  0.1252
  H  H205  1  0.225400  0.874600  0.043000  1.0  0.1322
  H  H206  1  0.056500  0.838600  0.054400  1.0  0.1133
  H  H207  1  0.088200  0.940600  0.051600  1.0  0.1309
  H  H208  1  0.161300  0.689800  0.169200  1.0  0.1272
  H  H209  1  0.258500  0.585800  0.210400  1.0  0.1282
  H  H210  1  0.253800  0.605600  0.146700  1.0  0.1125
  H  H211  1  0.170800  0.703600  0.977700  1.0  0.1289
  H  H212  1  0.134100  0.634800  0.977900  1.0  0.1225
  H  H213  1  0.185400  0.631100  0.940200  1.0  0.13
  H  H214  1  0.220800  0.700500  0.938900  1.0  0.1516
  H  H215  1  0.044300  0.571300  0.015700  1.0  0.1128
  H  H216  1  0.044300  0.554100  0.057500  1.0  0.1253
  H  H217  1  0.649200  0.774600  0.043000  1.0  0.1322
  H  H218  1  0.782100  0.943500  0.054400  1.0  0.1135
  H  H219  1  0.852400  0.911800  0.051600  1.0  0.1319
  H  H220  1  0.528500  0.838700  0.169200  1.0  0.1266
  H  H221  1  0.327300  0.741500  0.210400  1.0  0.13
  H  H222  1  0.351800  0.746200  0.146700  1.0  0.1125
  H  H223  1  0.532800  0.829200  0.977700  1.0  0.1256
  H  H224  1  0.500700  0.865900  0.977900  1.0  0.1212
  H  H225  1  0.445700  0.814600  0.940200  1.0  0.1299
  H  H226  1  0.479700  0.779200  0.938900  1.0  0.1527
  H  H227  1  0.527000  0.955700  0.015700  1.0  0.1144
  H  H228  1  0.509800  0.955700  0.057500  1.0  0.1257
  H  H229  1  0.125400  0.350800  0.043000  1.0  0.1334
  H  H230  1  0.161400  0.217900  0.054400  1.0  0.1138
  H  H231  1  0.059400  0.147600  0.051600  1.0  0.1328
  H  H232  1  0.310200  0.471500  0.169200  1.0  0.1259
  H  H233  1  0.414200  0.672700  0.210400  1.0  0.1289
  H  H234  1  0.394400  0.648200  0.146700  1.0  0.1125
  H  H235  1  0.296400  0.467200  0.977700  1.0  0.1214
  H  H236  1  0.365200  0.499300  0.977900  1.0  0.1175
  H  H237  1  0.368900  0.554300  0.940200  1.0  0.128
  H  H238  1  0.299500  0.520300  0.938900  1.0  0.1518
  H  H239  1  0.428700  0.473000  0.015700  1.0  0.1127
  H  H240  1  0.445900  0.490200  0.057500  1.0  0.1244
  H  H241  1  0.774600  0.125400  0.543000  1.0  0.1326
  H  H242  1  0.943500  0.161400  0.554400  1.0  0.1134
  H  H243  1  0.911800  0.059400  0.551600  1.0  0.132
  H  H244  1  0.838700  0.310200  0.669200  1.0  0.1264
  H  H245  1  0.741500  0.414200  0.710400  1.0  0.1296
  H  H246  1  0.746200  0.394400  0.646700  1.0  0.1128
  H  H247  1  0.829200  0.296400  0.477700  1.0  0.1289
  H  H248  1  0.865900  0.365200  0.477900  1.0  0.1215
  H  H249  1  0.814600  0.368900  0.440200  1.0  0.1307
  H  H250  1  0.779200  0.299500  0.438900  1.0  0.1529
  H  H251  1  0.955700  0.428700  0.515700  1.0  0.1127
  H  H252  1  0.955700  0.445900  0.557500  1.0  0.1247
  H  H253  1  0.350800  0.225400  0.543000  1.0  0.1321
  H  H254  1  0.217900  0.056500  0.554400  1.0  0.1132
  H  H255  1  0.147600  0.088200  0.551600  1.0  0.1318
  H  H256  1  0.471500  0.161300  0.669200  1.0  0.1271
  H  H257  1  0.672700  0.258500  0.710400  1.0  0.13
  H  H258  1  0.648200  0.253800  0.646700  1.0  0.1125
  H  H259  1  0.467200  0.170800  0.477700  1.0  0.1279
  H  H260  1  0.499300  0.134100  0.477900  1.0  0.1145
  H  H261  1  0.554300  0.185400  0.440200  1.0  0.1286
  H  H262  1  0.520300  0.220800  0.438900  1.0  0.151
  H  H263  1  0.473000  0.044300  0.515700  1.0  0.1138
  H  H264  1  0.490200  0.044300  0.557500  1.0  0.1242
  H  H265  1  0.874600  0.649200  0.543000  1.0  0.1327
  H  H266  1  0.838600  0.782100  0.554400  1.0  0.1133
  H  H267  1  0.940600  0.852400  0.551600  1.0  0.1334
  H  H268  1  0.689800  0.528500  0.669200  1.0  0.127
  H  H269  1  0.585800  0.327300  0.710400  1.0  0.1294
  H  H270  1  0.605600  0.351800  0.646700  1.0  0.1117
  H  H271  1  0.703600  0.532800  0.477700  1.0  0.1256
  H  H272  1  0.634800  0.500700  0.477900  1.0  0.1209
  H  H273  1  0.631100  0.445700  0.440200  1.0  0.129
  H  H274  1  0.700500  0.479700  0.438900  1.0  0.1518
  H  H275  1  0.571300  0.527000  0.515700  1.0  0.1127
  H  H276  1  0.554100  0.509800  0.557500  1.0  0.1261
  H  H277  1  0.350800  0.125400  0.457000  1.0  0.1326
  H  H278  1  0.217900  0.161400  0.445600  1.0  0.1144
  H  H279  1  0.147600  0.059400  0.448400  1.0  0.1309
  H  H280  1  0.471500  0.310200  0.330800  1.0  0.1266
  H  H281  1  0.672700  0.414200  0.289600  1.0  0.1287
  H  H282  1  0.648200  0.394400  0.353300  1.0  0.1123
  H  H283  1  0.467200  0.296400  0.522300  1.0  0.1295
  H  H284  1  0.499300  0.365200  0.522100  1.0  0.1229
  H  H285  1  0.554300  0.368900  0.559800  1.0  0.131
  H  H286  1  0.520300  0.299500  0.561100  1.0  0.1539
  H  H287  1  0.473000  0.428700  0.484300  1.0  0.1139
  H  H288  1  0.490200  0.445900  0.442500  1.0  0.125
  H  H289  1  0.874600  0.225400  0.457000  1.0  0.1331
  H  H290  1  0.838600  0.056500  0.445600  1.0  0.1141
  H  H291  1  0.940600  0.088200  0.448400  1.0  0.1318
  H  H292  1  0.689800  0.161300  0.330800  1.0  0.1263
  H  H293  1  0.585800  0.258500  0.289600  1.0  0.1305
  H  H294  1  0.605600  0.253800  0.353300  1.0  0.1124
  H  H295  1  0.703600  0.170800  0.522300  1.0  0.1255
  H  H296  1  0.634800  0.134100  0.522100  1.0  0.1155
  H  H297  1  0.631100  0.185400  0.559800  1.0  0.1306
  H  H298  1  0.700500  0.220800  0.561100  1.0  0.1534
  H  H299  1  0.571300  0.044300  0.484300  1.0  0.115
  H  H300  1  0.554100  0.044300  0.442500  1.0  0.1253
  H  H301  1  0.774600  0.649200  0.457000  1.0  0.1332
  H  H302  1  0.943500  0.782100  0.445600  1.0  0.1144
  H  H303  1  0.911800  0.852400  0.448400  1.0  0.1329
  H  H304  1  0.838700  0.528500  0.330800  1.0  0.1268
  H  H305  1  0.741500  0.327300  0.289600  1.0  0.1298
  H  H306  1  0.746200  0.351800  0.353300  1.0  0.1126
  H  H307  1  0.829200  0.532800  0.522300  1.0  0.1258
  H  H308  1  0.865900  0.500700  0.522100  1.0  0.1181
  H  H309  1  0.814600  0.445700  0.559800  1.0  0.1285
  H  H310  1  0.779200  0.479700  0.561100  1.0  0.1525
  H  H311  1  0.955700  0.527000  0.484300  1.0  0.1142
  H  H312  1  0.955700  0.509800  0.442500  1.0  0.1245
  H  H313  1  0.649200  0.874600  0.957000  1.0  0.133
  H  H314  1  0.782100  0.838600  0.945600  1.0  0.1139
  H  H315  1  0.852400  0.940600  0.948400  1.0  0.1323
  H  H316  1  0.528500  0.689800  0.830800  1.0  0.1264
  H  H317  1  0.327300  0.585800  0.789600  1.0  0.1295
  H  H318  1  0.351800  0.605600  0.853300  1.0  0.1129
  H  H319  1  0.532800  0.703600  0.022300  1.0  0.1284
  H  H320  1  0.500700  0.634800  0.022100  1.0  0.1222
  H  H321  1  0.445700  0.631100  0.059800  1.0  0.131
  H  H322  1  0.479700  0.700500  0.061100  1.0  0.1535
  H  H323  1  0.527000  0.571300  0.984300  1.0  0.1138
  H  H324  1  0.509800  0.554100  0.942500  1.0  0.1244
  H  H325  1  0.125400  0.774600  0.957000  1.0  0.1322
  H  H326  1  0.161400  0.943500  0.945600  1.0  0.1143
  H  H327  1  0.059400  0.911800  0.948400  1.0  0.1317
  H  H328  1  0.310200  0.838700  0.830800  1.0  0.1269
  H  H329  1  0.414200  0.741500  0.789600  1.0  0.1302
  H  H330  1  0.394400  0.746200  0.853300  1.0  0.1128
  H  H331  1  0.296400  0.829200  0.022300  1.0  0.1292
  H  H332  1  0.365200  0.865900  0.022100  1.0  0.1208
  H  H333  1  0.368900  0.814600  0.059800  1.0  0.13
  H  H334  1  0.299500  0.779200  0.061100  1.0  0.1528
  H  H335  1  0.428700  0.955700  0.984300  1.0  0.1134
  H  H336  1  0.445900  0.955700  0.942500  1.0  0.1248
  H  H337  1  0.225400  0.350800  0.957000  1.0  0.1335
  H  H338  1  0.056500  0.217900  0.945600  1.0  0.114
  H  H339  1  0.088200  0.147600  0.948400  1.0  0.1329
  H  H340  1  0.161300  0.471500  0.830800  1.0  0.126
  H  H341  1  0.258500  0.672700  0.789600  1.0  0.1292
  H  H342  1  0.253800  0.648200  0.853300  1.0  0.1122
  H  H343  1  0.170800  0.467200  0.022300  1.0  0.1215
  H  H344  1  0.134100  0.499300  0.022100  1.0  0.1209
  H  H345  1  0.185400  0.554300  0.059800  1.0  0.1291
  H  H346  1  0.220800  0.520300  0.061100  1.0  0.154
  H  H347  1  0.044300  0.473000  0.984300  1.0  0.1144
  H  H348  1  0.044300  0.490200  0.942500  1.0  0.1249
  C  C349  1  0.884200  0.218500  0.948650  1.0  0.7446
  C  C350  1  0.862400  0.153400  0.951450  1.0  -0.1277
  C  C351  1  0.802000  0.112600  0.955230  1.0  0.0
  C  C352  1  0.903400  0.133800  0.948400  1.0  -0.008
  C  C353  1  0.783700  0.052500  0.956200  1.0  -0.096
  C  C354  1  0.884700  0.072700  0.949700  1.0  -0.0875
  C  C355  1  0.824700  0.033600  0.953000  1.0  0.0937
  C  C356  1  0.796600  0.340700  0.885700  1.0  0.6882
  C  C357  1  0.792000  0.352000  0.845900  1.0  -0.1031
  C  C358  1  0.819000  0.329600  0.822600  1.0  -0.0763
  C  C359  1  0.812300  0.340300  0.784800  1.0  -0.1078
  C  C360  1  0.785200  0.370300  0.770900  1.0  -0.0535
  C  C361  1  0.759600  0.393100  0.797400  1.0  -0.0782
  C  C362  1  0.763200  0.381700  0.835400  1.0  -0.0482
  C  C363  1  0.826600  0.331800  0.017660  1.0  -0.008
  C  C364  1  0.791500  0.333500  0.044950  1.0  0.0111
  C  C365  1  0.969300  0.426300  0.959500  1.0  0.0372
  C  C366  1  0.334300  0.115800  0.948650  1.0  0.7426
  C  C367  1  0.291000  0.137600  0.951450  1.0  -0.1309
  C  C368  1  0.310600  0.198000  0.955230  1.0  0.0007
  C  C369  1  0.230400  0.096600  0.948400  1.0  -0.0095
  C  C370  1  0.268800  0.216300  0.956200  1.0  -0.096
  C  C371  1  0.188000  0.115300  0.949700  1.0  -0.0895
  C  C372  1  0.208900  0.175300  0.953000  1.0  0.0937
  C  C373  1  0.544100  0.203400  0.885700  1.0  0.6879
  C  C374  1  0.560000  0.208000  0.845900  1.0  -0.102
  C  C375  1  0.510600  0.181000  0.822600  1.0  -0.0773
  C  C376  1  0.528000  0.187700  0.784800  1.0  -0.1093
  C  C377  1  0.585100  0.214800  0.770900  1.0  -0.0554
  C  C378  1  0.633500  0.240400  0.797400  1.0  -0.079
  C  C379  1  0.618500  0.236800  0.835400  1.0  -0.0476
  C  C380  1  0.505200  0.173400  0.017660  1.0  -0.0116
  C  C381  1  0.542000  0.208500  0.044950  1.0  0.0082
  C  C382  1  0.457000  0.030700  0.959500  1.0  0.0361
  C  C383  1  0.781500  0.665700  0.948650  1.0  0.743
  C  C384  1  0.846600  0.709000  0.951450  1.0  -0.1309
  C  C385  1  0.887400  0.689400  0.955230  1.0  0.0012
  C  C386  1  0.866200  0.769600  0.948400  1.0  -0.0068
  C  C387  1  0.947500  0.731200  0.956200  1.0  -0.0962
  C  C388  1  0.927300  0.812000  0.949700  1.0  -0.0922
  C  C389  1  0.966400  0.791100  0.953000  1.0  0.0946
  C  C390  1  0.659300  0.455900  0.885700  1.0  0.6884
  C  C391  1  0.648000  0.440000  0.845900  1.0  -0.102
  C  C392  1  0.670400  0.489400  0.822600  1.0  -0.0757
  C  C393  1  0.659700  0.472000  0.784800  1.0  -0.111
  C  C394  1  0.629700  0.414900  0.770900  1.0  -0.0544
  C  C395  1  0.606900  0.366500  0.797400  1.0  -0.0792
  C  C396  1  0.618300  0.381500  0.835400  1.0  -0.0435
  C  C397  1  0.668200  0.494800  0.017660  1.0  -0.0113
  C  C398  1  0.666500  0.458000  0.044950  1.0  0.0092
  C  C399  1  0.573700  0.543000  0.959500  1.0  0.0355
  C  C400  1  0.115800  0.781500  0.448650  1.0  0.7434
  C  C401  1  0.137600  0.846600  0.451450  1.0  -0.1305
  C  C402  1  0.198000  0.887400  0.455230  1.0  0.0005
  C  C403  1  0.096600  0.866200  0.448400  1.0  -0.0064
  C  C404  1  0.216300  0.947500  0.456200  1.0  -0.0955
  C  C405  1  0.115300  0.927300  0.449700  1.0  -0.0885
  C  C406  1  0.175300  0.966400  0.453000  1.0  0.0946
  C  C407  1  0.203400  0.659300  0.385700  1.0  0.6886
  C  C408  1  0.208000  0.648000  0.345900  1.0  -0.1015
  C  C409  1  0.181000  0.670400  0.322600  1.0  -0.077
  C  C410  1  0.187700  0.659700  0.284800  1.0  -0.11
  C  C411  1  0.214800  0.629700  0.270900  1.0  -0.0539
  C  C412  1  0.240400  0.606900  0.297400  1.0  -0.0787
  C  C413  1  0.236800  0.618300  0.335400  1.0  -0.0482
  C  C414  1  0.173400  0.668200  0.517660  1.0  -0.0087
  C  C415  1  0.208500  0.666500  0.544950  1.0  0.01
  C  C416  1  0.030700  0.573700  0.459500  1.0  0.0402
  C  C417  1  0.665700  0.884200  0.448650  1.0  0.7456
  C  C418  1  0.709000  0.862400  0.451450  1.0  -0.1293
  C  C419  1  0.689400  0.802000  0.455230  1.0  0.0018
  C  C420  1  0.769600  0.903400  0.448400  1.0  -0.0117
  C  C421  1  0.731200  0.783700  0.456200  1.0  -0.0966
  C  C422  1  0.812000  0.884700  0.449700  1.0  -0.0899
  C  C423  1  0.791100  0.824700  0.453000  1.0  0.0934
  C  C424  1  0.455900  0.796600  0.385700  1.0  0.6881
  C  C425  1  0.440000  0.792000  0.345900  1.0  -0.1017
  C  C426  1  0.489400  0.819000  0.322600  1.0  -0.0774
  C  C427  1  0.472000  0.812300  0.284800  1.0  -0.1099
  C  C428  1  0.414900  0.785200  0.270900  1.0  -0.0551
  C  C429  1  0.366500  0.759600  0.297400  1.0  -0.0799
  C  C430  1  0.381500  0.763200  0.335400  1.0  -0.049
  C  C431  1  0.494800  0.826600  0.517660  1.0  -0.0105
  C  C432  1  0.458000  0.791500  0.544950  1.0  0.0093
  C  C433  1  0.543000  0.969300  0.459500  1.0  0.035
  C  C434  1  0.218500  0.334300  0.448650  1.0  0.7415
  C  C435  1  0.153400  0.291000  0.451450  1.0  -0.1286
  C  C436  1  0.112600  0.310600  0.455230  1.0  -0.0007
  C  C437  1  0.133800  0.230400  0.448400  1.0  -0.0063
  C  C438  1  0.052500  0.268800  0.456200  1.0  -0.0958
  C  C439  1  0.072700  0.188000  0.449700  1.0  -0.0921
  C  C440  1  0.033600  0.208900  0.453000  1.0  0.0935
  C  C441  1  0.340700  0.544100  0.385700  1.0  0.6882
  C  C442  1  0.352000  0.560000  0.345900  1.0  -0.1037
  C  C443  1  0.329600  0.510600  0.322600  1.0  -0.0734
  C  C444  1  0.340300  0.528000  0.284800  1.0  -0.1088
  C  C445  1  0.370300  0.585100  0.270900  1.0  -0.0556
  C  C446  1  0.393100  0.633500  0.297400  1.0  -0.0795
  C  C447  1  0.381700  0.618500  0.335400  1.0  -0.0443
  C  C448  1  0.331800  0.505200  0.517660  1.0  -0.0121
  C  C449  1  0.333500  0.542000  0.544950  1.0  0.0081
  C  C450  1  0.426300  0.457000  0.459500  1.0  0.0369
  C  C451  1  0.665700  0.781500  0.551350  1.0  0.7449
  C  C452  1  0.709000  0.846600  0.548550  1.0  -0.1298
  C  C453  1  0.689400  0.887400  0.544770  1.0  -0.0009
  C  C454  1  0.769600  0.866200  0.551600  1.0  -0.0073
  C  C455  1  0.731200  0.947500  0.543800  1.0  -0.0923
  C  C456  1  0.812000  0.927300  0.550300  1.0  -0.0892
  C  C457  1  0.791100  0.966400  0.547000  1.0  0.0985
  C  C458  1  0.455900  0.659300  0.614300  1.0  0.6892
  C  C459  1  0.440000  0.648000  0.654100  1.0  -0.1022
  C  C460  1  0.489400  0.670400  0.677400  1.0  -0.0763
  C  C461  1  0.472000  0.659700  0.715200  1.0  -0.108
  C  C462  1  0.414900  0.629700  0.729100  1.0  -0.0537
  C  C463  1  0.366500  0.606900  0.702600  1.0  -0.078
  C  C464  1  0.381500  0.618300  0.664600  1.0  -0.0473
  C  C465  1  0.494800  0.668200  0.482340  1.0  -0.0092
  C  C466  1  0.458000  0.666500  0.455050  1.0  0.0141
  C  C467  1  0.543000  0.573700  0.540500  1.0  0.0382
  C  C468  1  0.218500  0.884200  0.551350  1.0  0.7448
  C  C469  1  0.153400  0.862400  0.548550  1.0  -0.132
  C  C470  1  0.112600  0.802000  0.544770  1.0  0.0032
  C  C471  1  0.133800  0.903400  0.551600  1.0  -0.0108
  C  C472  1  0.052500  0.783700  0.543800  1.0  -0.0914
  C  C473  1  0.072700  0.884700  0.550300  1.0  -0.0916
  C  C474  1  0.033600  0.824700  0.547000  1.0  0.0989
  C  C475  1  0.340700  0.796600  0.614300  1.0  0.6896
  C  C476  1  0.352000  0.792000  0.654100  1.0  -0.1016
  C  C477  1  0.329600  0.819000  0.677400  1.0  -0.0784
  C  C478  1  0.340300  0.812300  0.715200  1.0  -0.1107
  C  C479  1  0.370300  0.785200  0.729100  1.0  -0.0553
  C  C480  1  0.393100  0.759600  0.702600  1.0  -0.082
  C  C481  1  0.381700  0.763200  0.664600  1.0  -0.0472
  C  C482  1  0.331800  0.826600  0.482340  1.0  -0.0117
  C  C483  1  0.333500  0.791500  0.455050  1.0  0.013
  C  C484  1  0.426300  0.969300  0.540500  1.0  0.037
  C  C485  1  0.115800  0.334300  0.551350  1.0  0.7429
  C  C486  1  0.137600  0.291000  0.548550  1.0  -0.1307
  C  C487  1  0.198000  0.310600  0.544770  1.0  0.0014
  C  C488  1  0.096600  0.230400  0.551600  1.0  -0.0079
  C  C489  1  0.216300  0.268800  0.543800  1.0  -0.0935
  C  C490  1  0.115300  0.188000  0.550300  1.0  -0.0924
  C  C491  1  0.175300  0.208900  0.547000  1.0  0.0993
  C  C492  1  0.203400  0.544100  0.614300  1.0  0.6891
  C  C493  1  0.208000  0.560000  0.654100  1.0  -0.1034
  C  C494  1  0.181000  0.510600  0.677400  1.0  -0.0745
  C  C495  1  0.187700  0.528000  0.715200  1.0  -0.1095
  C  C496  1  0.214800  0.585100  0.729100  1.0  -0.0537
  C  C497  1  0.240400  0.633500  0.702600  1.0  -0.0811
  C  C498  1  0.236800  0.618500  0.664600  1.0  -0.0434
  C  C499  1  0.173400  0.505200  0.482340  1.0  -0.0119
  C  C500  1  0.208500  0.542000  0.455050  1.0  0.0126
  C  C501  1  0.030700  0.457000  0.540500  1.0  0.0379
  C  C502  1  0.334300  0.218500  0.051350  1.0  0.7445
  C  C503  1  0.291000  0.153400  0.048550  1.0  -0.131
  C  C504  1  0.310600  0.112600  0.044770  1.0  0.0026
  C  C505  1  0.230400  0.133800  0.051600  1.0  -0.0072
  C  C506  1  0.268800  0.052500  0.043800  1.0  -0.0915
  C  C507  1  0.188000  0.072700  0.050300  1.0  -0.089
  C  C508  1  0.208900  0.033600  0.047000  1.0  0.0982
  C  C509  1  0.544100  0.340700  0.114300  1.0  0.6894
  C  C510  1  0.560000  0.352000  0.154100  1.0  -0.1019
  C  C511  1  0.510600  0.329600  0.177400  1.0  -0.076
  C  C512  1  0.528000  0.340300  0.215200  1.0  -0.1094
  C  C513  1  0.585100  0.370300  0.229100  1.0  -0.0533
  C  C514  1  0.633500  0.393100  0.202600  1.0  -0.0792
  C  C515  1  0.618500  0.381700  0.164600  1.0  -0.0466
  C  C516  1  0.505200  0.331800  0.982340  1.0  -0.0092
  C  C517  1  0.542000  0.333500  0.955050  1.0  0.0135
  C  C518  1  0.457000  0.426300  0.040500  1.0  0.04
  C  C519  1  0.781500  0.115800  0.051350  1.0  0.7437
  C  C520  1  0.846600  0.137600  0.048550  1.0  -0.1303
  C  C521  1  0.887400  0.198000  0.044770  1.0  0.001
  C  C522  1  0.866200  0.096600  0.051600  1.0  -0.011
  C  C523  1  0.947500  0.216300  0.043800  1.0  -0.0949
  C  C524  1  0.927300  0.115300  0.050300  1.0  -0.09
  C  C525  1  0.966400  0.175300  0.047000  1.0  0.0989
  C  C526  1  0.659300  0.203400  0.114300  1.0  0.6887
  C  C527  1  0.648000  0.208000  0.154100  1.0  -0.1024
  C  C528  1  0.670400  0.181000  0.177400  1.0  -0.0773
  C  C529  1  0.659700  0.187700  0.215200  1.0  -0.1075
  C  C530  1  0.629700  0.214800  0.229100  1.0  -0.0538
  C  C531  1  0.606900  0.240400  0.202600  1.0  -0.0784
  C  C532  1  0.618300  0.236800  0.164600  1.0  -0.0469
  C  C533  1  0.668200  0.173400  0.982340  1.0  -0.0121
  C  C534  1  0.666500  0.208500  0.955050  1.0  0.011
  C  C535  1  0.573700  0.030700  0.040500  1.0  0.0365
  C  C536  1  0.884200  0.665700  0.051350  1.0  0.7426
  C  C537  1  0.862400  0.709000  0.048550  1.0  -0.1292
  C  C538  1  0.802000  0.689400  0.044770  1.0  0.0004
  C  C539  1  0.903400  0.769600  0.051600  1.0  -0.0059
  C  C540  1  0.783700  0.731200  0.043800  1.0  -0.0926
  C  C541  1  0.884700  0.812000  0.050300  1.0  -0.0928
  C  C542  1  0.824700  0.791100  0.047000  1.0  0.0989
  C  C543  1  0.796600  0.455900  0.114300  1.0  0.6893
  C  C544  1  0.792000  0.440000  0.154100  1.0  -0.1025
  C  C545  1  0.819000  0.489400  0.177400  1.0  -0.0758
  C  C546  1  0.812300  0.472000  0.215200  1.0  -0.1103
  C  C547  1  0.785200  0.414900  0.229100  1.0  -0.056
  C  C548  1  0.759600  0.366500  0.202600  1.0  -0.0788
  C  C549  1  0.763200  0.381500  0.164600  1.0  -0.0426
  C  C550  1  0.826600  0.494800  0.982340  1.0  -0.0127
  C  C551  1  0.791500  0.458000  0.955050  1.0  0.0111
  C  C552  1  0.969300  0.543000  0.040500  1.0  0.0347
  C  C553  1  0.115800  0.781500  0.051350  1.0  0.7444
  C  C554  1  0.137600  0.846600  0.048550  1.0  -0.1295
  C  C555  1  0.198000  0.887400  0.044770  1.0  0.0027
  C  C556  1  0.096600  0.866200  0.051600  1.0  -0.0082
  C  C557  1  0.216300  0.947500  0.043800  1.0  -0.0918
  C  C558  1  0.115300  0.927300  0.050300  1.0  -0.0861
  C  C559  1  0.175300  0.966400  0.047000  1.0  0.0984
  C  C560  1  0.203400  0.659300  0.114300  1.0  0.6895
  C  C561  1  0.208000  0.648000  0.154100  1.0  -0.102
  C  C562  1  0.181000  0.670400  0.177400  1.0  -0.0769
  C  C563  1  0.187700  0.659700  0.215200  1.0  -0.1096
  C  C564  1  0.214800  0.629700  0.229100  1.0  -0.0529
  C  C565  1  0.240400  0.606900  0.202600  1.0  -0.0797
  C  C566  1  0.236800  0.618300  0.164600  1.0  -0.0479
  C  C567  1  0.173400  0.668200  0.982340  1.0  -0.0093
  C  C568  1  0.208500  0.666500  0.955050  1.0  0.0136
  C  C569  1  0.030700  0.573700  0.040500  1.0  0.0403
  C  C570  1  0.665700  0.884200  0.051350  1.0  0.7444
  C  C571  1  0.709000  0.862400  0.048550  1.0  -0.131
  C  C572  1  0.689400  0.802000  0.044770  1.0  0.0015
  C  C573  1  0.769600  0.903400  0.051600  1.0  -0.0105
  C  C574  1  0.731200  0.783700  0.043800  1.0  -0.0926
  C  C575  1  0.812000  0.884700  0.050300  1.0  -0.0876
  C  C576  1  0.791100  0.824700  0.047000  1.0  0.0982
  C  C577  1  0.455900  0.796600  0.114300  1.0  0.6891
  C  C578  1  0.440000  0.792000  0.154100  1.0  -0.1018
  C  C579  1  0.489400  0.819000  0.177400  1.0  -0.0779
  C  C580  1  0.472000  0.812300  0.215200  1.0  -0.1098
  C  C581  1  0.414900  0.785200  0.229100  1.0  -0.0543
  C  C582  1  0.366500  0.759600  0.202600  1.0  -0.0807
  C  C583  1  0.381500  0.763200  0.164600  1.0  -0.0482
  C  C584  1  0.494800  0.826600  0.982340  1.0  -0.0117
  C  C585  1  0.458000  0.791500  0.955050  1.0  0.0111
  C  C586  1  0.543000  0.969300  0.040500  1.0  0.0365
  C  C587  1  0.218500  0.334300  0.051350  1.0  0.7432
  C  C588  1  0.153400  0.291000  0.048550  1.0  -0.1306
  C  C589  1  0.112600  0.310600  0.044770  1.0  -0.0006
  C  C590  1  0.133800  0.230400  0.051600  1.0  -0.0064
  C  C591  1  0.052500  0.268800  0.043800  1.0  -0.0936
  C  C592  1  0.072700  0.188000  0.050300  1.0  -0.0893
  C  C593  1  0.033600  0.208900  0.047000  1.0  0.0997
  C  C594  1  0.340700  0.544100  0.114300  1.0  0.6887
  C  C595  1  0.352000  0.560000  0.154100  1.0  -0.1033
  C  C596  1  0.329600  0.510600  0.177400  1.0  -0.0737
  C  C597  1  0.340300  0.528000  0.215200  1.0  -0.1086
  C  C598  1  0.370300  0.585100  0.229100  1.0  -0.0556
  C  C599  1  0.393100  0.633500  0.202600  1.0  -0.08
  C  C600  1  0.381700  0.618500  0.164600  1.0  -0.0435
  C  C601  1  0.331800  0.505200  0.982340  1.0  -0.0129
  C  C602  1  0.333500  0.542000  0.955050  1.0  0.0112
  C  C603  1  0.426300  0.457000  0.040500  1.0  0.0363
  C  C604  1  0.884200  0.218500  0.551350  1.0  0.745
  C  C605  1  0.862400  0.153400  0.548550  1.0  -0.1313
  C  C606  1  0.802000  0.112600  0.544770  1.0  -0.0006
  C  C607  1  0.903400  0.133800  0.551600  1.0  -0.0064
  C  C608  1  0.783700  0.052500  0.543800  1.0  -0.0925
  C  C609  1  0.884700  0.072700  0.550300  1.0  -0.0855
  C  C610  1  0.824700  0.033600  0.547000  1.0  0.0989
  C  C611  1  0.796600  0.340700  0.614300  1.0  0.6889
  C  C612  1  0.792000  0.352000  0.654100  1.0  -0.1022
  C  C613  1  0.819000  0.329600  0.677400  1.0  -0.077
  C  C614  1  0.812300  0.340300  0.715200  1.0  -0.1077
  C  C615  1  0.785200  0.370300  0.729100  1.0  -0.0531
  C  C616  1  0.759600  0.393100  0.702600  1.0  -0.0784
  C  C617  1  0.763200  0.381700  0.664600  1.0  -0.047
  C  C618  1  0.826600  0.331800  0.482340  1.0  -0.0091
  C  C619  1  0.791500  0.333500  0.455050  1.0  0.014
  C  C620  1  0.969300  0.426300  0.540500  1.0  0.0383
  C  C621  1  0.334300  0.115800  0.551350  1.0  0.7444
  C  C622  1  0.291000  0.137600  0.548550  1.0  -0.1312
  C  C623  1  0.310600  0.198000  0.544770  1.0  0.0032
  C  C624  1  0.230400  0.096600  0.551600  1.0  -0.0106
  C  C625  1  0.268800  0.216300  0.543800  1.0  -0.0935
  C  C626  1  0.188000  0.115300  0.550300  1.0  -0.0878
  C  C627  1  0.208900  0.175300  0.547000  1.0  0.0987
  C  C628  1  0.544100  0.203400  0.614300  1.0  0.689
  C  C629  1  0.560000  0.208000  0.654100  1.0  -0.1021
  C  C630  1  0.510600  0.181000  0.677400  1.0  -0.0777
  C  C631  1  0.528000  0.187700  0.715200  1.0  -0.109
  C  C632  1  0.585100  0.214800  0.729100  1.0  -0.0555
  C  C633  1  0.633500  0.240400  0.702600  1.0  -0.0797
  C  C634  1  0.618500  0.236800  0.664600  1.0  -0.0468
  C  C635  1  0.505200  0.173400  0.482340  1.0  -0.0123
  C  C636  1  0.542000  0.208500  0.455050  1.0  0.0127
  C  C637  1  0.457000  0.030700  0.540500  1.0  0.0367
  C  C638  1  0.781500  0.665700  0.551350  1.0  0.7423
  C  C639  1  0.846600  0.709000  0.548550  1.0  -0.1299
  C  C640  1  0.887400  0.689400  0.544770  1.0  0.0022
  C  C641  1  0.866200  0.769600  0.551600  1.0  -0.0079
  C  C642  1  0.947500  0.731200  0.543800  1.0  -0.0915
  C  C643  1  0.927300  0.812000  0.550300  1.0  -0.0902
  C  C644  1  0.966400  0.791100  0.547000  1.0  0.0981
  C  C645  1  0.659300  0.455900  0.614300  1.0  0.6896
  C  C646  1  0.648000  0.440000  0.654100  1.0  -0.1022
  C  C647  1  0.670400  0.489400  0.677400  1.0  -0.0762
  C  C648  1  0.659700  0.472000  0.715200  1.0  -0.1109
  C  C649  1  0.629700  0.414900  0.729100  1.0  -0.0537
  C  C650  1  0.606900  0.366500  0.702600  1.0  -0.0794
  C  C651  1  0.618300  0.381500  0.664600  1.0  -0.0425
  C  C652  1  0.668200  0.494800  0.482340  1.0  -0.0121
  C  C653  1  0.666500  0.458000  0.455050  1.0  0.0127
  C  C654  1  0.573700  0.543000  0.540500  1.0  0.0362
  C  C655  1  0.334300  0.218500  0.448650  1.0  0.7439
  C  C656  1  0.291000  0.153400  0.451450  1.0  -0.1277
  C  C657  1  0.310600  0.112600  0.455230  1.0  1e-04
  C  C658  1  0.230400  0.133800  0.448400  1.0  -0.0069
  C  C659  1  0.268800  0.052500  0.456200  1.0  -0.0958
  C  C660  1  0.188000  0.072700  0.449700  1.0  -0.0851
  C  C661  1  0.208900  0.033600  0.453000  1.0  0.0931
  C  C662  1  0.544100  0.340700  0.385700  1.0  0.6886
  C  C663  1  0.560000  0.352000  0.345900  1.0  -0.1018
  C  C664  1  0.510600  0.329600  0.322600  1.0  -0.076
  C  C665  1  0.528000  0.340300  0.284800  1.0  -0.1098
  C  C666  1  0.585100  0.370300  0.270900  1.0  -0.0545
  C  C667  1  0.633500  0.393100  0.297400  1.0  -0.0783
  C  C668  1  0.618500  0.381700  0.335400  1.0  -0.0479
  C  C669  1  0.505200  0.331800  0.517660  1.0  -0.0088
  C  C670  1  0.542000  0.333500  0.544950  1.0  0.0101
  C  C671  1  0.457000  0.426300  0.459500  1.0  0.0389
  C  C672  1  0.781500  0.115800  0.448650  1.0  0.7454
  C  C673  1  0.846600  0.137600  0.451450  1.0  -0.13
  C  C674  1  0.887400  0.198000  0.455230  1.0  0.0003
  C  C675  1  0.866200  0.096600  0.448400  1.0  -0.0099
  C  C676  1  0.947500  0.216300  0.456200  1.0  -0.0966
  C  C677  1  0.927300  0.115300  0.449700  1.0  -0.0865
  C  C678  1  0.966400  0.175300  0.453000  1.0  0.0939
  C  C679  1  0.659300  0.203400  0.385700  1.0  0.688
  C  C680  1  0.648000  0.208000  0.345900  1.0  -0.1021
  C  C681  1  0.670400  0.181000  0.322600  1.0  -0.0768
  C  C682  1  0.659700  0.187700  0.284800  1.0  -0.1077
  C  C683  1  0.629700  0.214800  0.270900  1.0  -0.054
  C  C684  1  0.606900  0.240400  0.297400  1.0  -0.0776
  C  C685  1  0.618300  0.236800  0.335400  1.0  -0.0478
  C  C686  1  0.668200  0.173400  0.517660  1.0  -0.0113
  C  C687  1  0.666500  0.208500  0.544950  1.0  0.0078
  C  C688  1  0.573700  0.030700  0.459500  1.0  0.0355
  C  C689  1  0.884200  0.665700  0.448650  1.0  0.7406
  C  C690  1  0.862400  0.709000  0.451450  1.0  -0.1304
  C  C691  1  0.802000  0.689400  0.455230  1.0  0.0015
  C  C692  1  0.903400  0.769600  0.448400  1.0  -0.0066
  C  C693  1  0.783700  0.731200  0.456200  1.0  -0.0959
  C  C694  1  0.884700  0.812000  0.449700  1.0  -0.0905
  C  C695  1  0.824700  0.791100  0.453000  1.0  0.0949
  C  C696  1  0.796600  0.455900  0.385700  1.0  0.6883
  C  C697  1  0.792000  0.440000  0.345900  1.0  -0.1031
  C  C698  1  0.819000  0.489400  0.322600  1.0  -0.0753
  C  C699  1  0.812300  0.472000  0.284800  1.0  -0.1104
  C  C700  1  0.785200  0.414900  0.270900  1.0  -0.0564
  C  C701  1  0.759600  0.366500  0.297400  1.0  -0.0787
  C  C702  1  0.763200  0.381500  0.335400  1.0  -0.0438
  C  C703  1  0.826600  0.494800  0.517660  1.0  -0.012
  C  C704  1  0.791500  0.458000  0.544950  1.0  0.0094
  C  C705  1  0.969300  0.543000  0.459500  1.0  0.0342
  C  C706  1  0.665700  0.781500  0.948650  1.0  0.7442
  C  C707  1  0.709000  0.846600  0.951450  1.0  -0.1307
  C  C708  1  0.689400  0.887400  0.955230  1.0  0.0
  C  C709  1  0.769600  0.866200  0.948400  1.0  -0.0074
  C  C710  1  0.731200  0.947500  0.956200  1.0  -0.0951
  C  C711  1  0.812000  0.927300  0.949700  1.0  -0.0851
  C  C712  1  0.791100  0.966400  0.953000  1.0  0.0944
  C  C713  1  0.455900  0.659300  0.885700  1.0  0.6882
  C  C714  1  0.440000  0.648000  0.845900  1.0  -0.1028
  C  C715  1  0.489400  0.670400  0.822600  1.0  -0.0757
  C  C716  1  0.472000  0.659700  0.784800  1.0  -0.1079
  C  C717  1  0.414900  0.629700  0.770900  1.0  -0.0539
  C  C718  1  0.366500  0.606900  0.797400  1.0  -0.0776
  C  C719  1  0.381500  0.618300  0.835400  1.0  -0.0477
  C  C720  1  0.494800  0.668200  0.017660  1.0  -0.008
  C  C721  1  0.458000  0.666500  0.044950  1.0  0.0111
  C  C722  1  0.543000  0.573700  0.959500  1.0  0.0382
  C  C723  1  0.218500  0.884200  0.948650  1.0  0.7427
  C  C724  1  0.153400  0.862400  0.951450  1.0  -0.1303
  C  C725  1  0.112600  0.802000  0.955230  1.0  0.0016
  C  C726  1  0.133800  0.903400  0.948400  1.0  -0.012
  C  C727  1  0.052500  0.783700  0.956200  1.0  -0.096
  C  C728  1  0.072700  0.884700  0.949700  1.0  -0.0876
  C  C729  1  0.033600  0.824700  0.953000  1.0  0.0939
  C  C730  1  0.340700  0.796600  0.885700  1.0  0.6881
  C  C731  1  0.352000  0.792000  0.845900  1.0  -0.1017
  C  C732  1  0.329600  0.819000  0.822600  1.0  -0.0785
  C  C733  1  0.340300  0.812300  0.784800  1.0  -0.1109
  C  C734  1  0.370300  0.785200  0.770900  1.0  -0.0562
  C  C735  1  0.393100  0.759600  0.797400  1.0  -0.0813
  C  C736  1  0.381700  0.763200  0.835400  1.0  -0.0481
  C  C737  1  0.331800  0.826600  0.017660  1.0  -0.0106
  C  C738  1  0.333500  0.791500  0.044950  1.0  0.01
  C  C739  1  0.426300  0.969300  0.959500  1.0  0.0357
  C  C740  1  0.115800  0.334300  0.948650  1.0  0.7439
  C  C741  1  0.137600  0.291000  0.951450  1.0  -0.1281
  C  C742  1  0.198000  0.310600  0.955230  1.0  -0.0014
  C  C743  1  0.096600  0.230400  0.948400  1.0  -0.0064
  C  C744  1  0.216300  0.268800  0.956200  1.0  -0.0969
  C  C745  1  0.115300  0.188000  0.949700  1.0  -0.0883
  C  C746  1  0.175300  0.208900  0.953000  1.0  0.0938
  C  C747  1  0.203400  0.544100  0.885700  1.0  0.6885
  C  C748  1  0.208000  0.560000  0.845900  1.0  -0.1031
  C  C749  1  0.181000  0.510600  0.822600  1.0  -0.0743
  C  C750  1  0.187700  0.528000  0.784800  1.0  -0.1097
  C  C751  1  0.214800  0.585100  0.770900  1.0  -0.0545
  C  C752  1  0.240400  0.633500  0.797400  1.0  -0.0801
  C  C753  1  0.236800  0.618500  0.835400  1.0  -0.0443
  C  C754  1  0.173400  0.505200  0.017660  1.0  -0.0114
  C  C755  1  0.208500  0.542000  0.044950  1.0  0.008
  C  C756  1  0.030700  0.457000  0.959500  1.0  0.038
  C  C757  1  0.722300  0.000000  0.958300  1.0  0.1856
  C  C758  1  0.277700  0.277700  0.958300  1.0  0.1818
  C  C759  1  0.000000  0.722300  0.958300  1.0  0.1813
  C  C760  1  0.277700  0.000000  0.458300  1.0  0.1826
  C  C761  1  0.722300  0.722300  0.458300  1.0  0.1826
  C  C762  1  0.000000  0.277700  0.458300  1.0  0.1829
  C  C763  1  0.722300  0.000000  0.541700  1.0  0.1857
  C  C764  1  0.000000  0.722300  0.541700  1.0  0.1839
  C  C765  1  0.277700  0.277700  0.541700  1.0  0.1837
  C  C766  1  0.277700  0.000000  0.041700  1.0  0.1841
  C  C767  1  0.000000  0.277700  0.041700  1.0  0.1828
  C  C768  1  0.722300  0.722300  0.041700  1.0  0.1832
  C  C769  1  0.836400  0.323800  0.750000  1.0  0.0789
  C  C770  1  0.487400  0.163600  0.750000  1.0  0.0773
  C  C771  1  0.676200  0.512600  0.750000  1.0  0.0792
  C  C772  1  0.163600  0.676200  0.250000  1.0  0.0801
  C  C773  1  0.512600  0.836400  0.250000  1.0  0.0771
  C  C774  1  0.323800  0.487400  0.250000  1.0  0.0785
  C  C775  1  0.512600  0.676200  0.750000  1.0  0.0785
  C  C776  1  0.323800  0.836400  0.750000  1.0  0.0777
  C  C777  1  0.163600  0.487400  0.750000  1.0  0.078
  C  C778  1  0.487400  0.323800  0.250000  1.0  0.0803
  C  C779  1  0.676200  0.163600  0.250000  1.0  0.0786
  C  C780  1  0.836400  0.512600  0.250000  1.0  0.0787
  O  O781  1  0.938900  0.253000  0.946880  1.0  -0.6241
  O  O782  1  0.845060  0.233670  0.948590  1.0  -0.5698
  O  O783  1  0.768500  0.353400  0.909400  1.0  -0.5963
  O  O784  1  0.831300  0.320500  0.895910  1.0  -0.606
  O  O785  1  0.816140  0.331960  0.980320  1.0  -0.6308
  O  O786  1  0.738730  0.333630  0.031120  1.0  -0.7087
  O  O787  1  0.943220  0.367460  0.949520  1.0  -0.6374
  O  O788  1  0.314100  0.061100  0.946880  1.0  -0.6253
  O  O789  1  0.388610  0.154940  0.948590  1.0  -0.5704
  O  O790  1  0.584900  0.231500  0.909400  1.0  -0.5962
  O  O791  1  0.489200  0.168700  0.895910  1.0  -0.6072
  O  O792  1  0.515820  0.183860  0.980320  1.0  -0.6307
  O  O793  1  0.594900  0.261270  0.031120  1.0  -0.7149
  O  O794  1  0.424240  0.056780  0.949520  1.0  -0.634
  O  O795  1  0.747000  0.685900  0.946880  1.0  -0.6255
  O  O796  1  0.766330  0.611390  0.948590  1.0  -0.5709
  O  O797  1  0.646600  0.415100  0.909400  1.0  -0.5975
  O  O798  1  0.679500  0.510800  0.895910  1.0  -0.6088
  O  O799  1  0.668040  0.484180  0.980320  1.0  -0.631
  O  O800  1  0.666370  0.405100  0.031120  1.0  -0.7151
  O  O801  1  0.632540  0.575760  0.949520  1.0  -0.6329
  O  O802  1  0.061100  0.747000  0.446880  1.0  -0.6251
  O  O803  1  0.154940  0.766330  0.448590  1.0  -0.5703
  O  O804  1  0.231500  0.646600  0.409400  1.0  -0.5968
  O  O805  1  0.168700  0.679500  0.395910  1.0  -0.6071
  O  O806  1  0.183860  0.668040  0.480320  1.0  -0.6306
  O  O807  1  0.261270  0.666370  0.531120  1.0  -0.7016
  O  O808  1  0.056780  0.632540  0.449520  1.0  -0.6348
  O  O809  1  0.685900  0.938900  0.446880  1.0  -0.6257
  O  O810  1  0.611390  0.845060  0.448590  1.0  -0.5708
  O  O811  1  0.415100  0.768500  0.409400  1.0  -0.5964
  O  O812  1  0.510800  0.831300  0.395910  1.0  -0.6056
  O  O813  1  0.484180  0.816140  0.480320  1.0  -0.6304
  O  O814  1  0.405100  0.738730  0.531120  1.0  -0.7159
  O  O815  1  0.575760  0.943220  0.449520  1.0  -0.6358
  O  O816  1  0.253000  0.314100  0.446880  1.0  -0.6249
  O  O817  1  0.233670  0.388610  0.448590  1.0  -0.5714
  O  O818  1  0.353400  0.584900  0.409400  1.0  -0.5969
  O  O819  1  0.320500  0.489200  0.395910  1.0  -0.6072
  O  O820  1  0.331960  0.515820  0.480320  1.0  -0.6302
  O  O821  1  0.333630  0.594900  0.531120  1.0  -0.7149
  O  O822  1  0.367460  0.424240  0.449520  1.0  -0.6334
  O  O823  1  0.685900  0.747000  0.553120  1.0  -0.6243
  O  O824  1  0.611390  0.766330  0.551410  1.0  -0.5705
  O  O825  1  0.415100  0.646600  0.590600  1.0  -0.5955
  O  O826  1  0.510800  0.679500  0.604090  1.0  -0.6068
  O  O827  1  0.484180  0.668040  0.519680  1.0  -0.6289
  O  O828  1  0.405100  0.666370  0.468880  1.0  -0.7093
  O  O829  1  0.575760  0.632540  0.550480  1.0  -0.6346
  O  O830  1  0.253000  0.938900  0.553120  1.0  -0.6251
  O  O831  1  0.233670  0.845060  0.551410  1.0  -0.5712
  O  O832  1  0.353400  0.768500  0.590600  1.0  -0.5966
  O  O833  1  0.320500  0.831300  0.604090  1.0  -0.6073
  O  O834  1  0.331960  0.816140  0.519680  1.0  -0.6297
  O  O835  1  0.333630  0.738730  0.468880  1.0  -0.7152
  O  O836  1  0.367460  0.943220  0.550480  1.0  -0.6347
  O  O837  1  0.061100  0.314100  0.553120  1.0  -0.6258
  O  O838  1  0.154940  0.388610  0.551410  1.0  -0.5709
  O  O839  1  0.231500  0.584900  0.590600  1.0  -0.5967
  O  O840  1  0.168700  0.489200  0.604090  1.0  -0.6089
  O  O841  1  0.183860  0.515820  0.519680  1.0  -0.63
  O  O842  1  0.261270  0.594900  0.468880  1.0  -0.7151
  O  O843  1  0.056780  0.424240  0.550480  1.0  -0.6316
  O  O844  1  0.314100  0.253000  0.053120  1.0  -0.6253
  O  O845  1  0.388610  0.233670  0.051410  1.0  -0.5699
  O  O846  1  0.584900  0.353400  0.090600  1.0  -0.5962
  O  O847  1  0.489200  0.320500  0.104090  1.0  -0.6068
  O  O848  1  0.515820  0.331960  0.019680  1.0  -0.63
  O  O849  1  0.594900  0.333630  0.968880  1.0  -0.7021
  O  O850  1  0.424240  0.367460  0.050480  1.0  -0.6361
  O  O851  1  0.747000  0.061100  0.053120  1.0  -0.6262
  O  O852  1  0.766330  0.154940  0.051410  1.0  -0.57
  O  O853  1  0.646600  0.231500  0.090600  1.0  -0.5949
  O  O854  1  0.679500  0.168700  0.104090  1.0  -0.6067
  O  O855  1  0.668040  0.183860  0.019680  1.0  -0.6288
  O  O856  1  0.666370  0.261270  0.968880  1.0  -0.7162
  O  O857  1  0.632540  0.056780  0.050480  1.0  -0.6334
  O  O858  1  0.938900  0.685900  0.053120  1.0  -0.6246
  O  O859  1  0.845060  0.611390  0.051410  1.0  -0.5717
  O  O860  1  0.768500  0.415100  0.090600  1.0  -0.5963
  O  O861  1  0.831300  0.510800  0.104090  1.0  -0.6083
  O  O862  1  0.816140  0.484180  0.019680  1.0  -0.6288
  O  O863  1  0.738730  0.405100  0.968880  1.0  -0.7155
  O  O864  1  0.943220  0.575760  0.050480  1.0  -0.6324
  O  O865  1  0.061100  0.747000  0.053120  1.0  -0.6259
  O  O866  1  0.154940  0.766330  0.051410  1.0  -0.57
  O  O867  1  0.231500  0.646600  0.090600  1.0  -0.5963
  O  O868  1  0.168700  0.679500  0.104090  1.0  -0.607
  O  O869  1  0.183860  0.668040  0.019680  1.0  -0.6298
  O  O870  1  0.261270  0.666370  0.968880  1.0  -0.7019
  O  O871  1  0.056780  0.632540  0.050480  1.0  -0.6342
  O  O872  1  0.685900  0.938900  0.053120  1.0  -0.6253
  O  O873  1  0.611390  0.845060  0.051410  1.0  -0.5715
  O  O874  1  0.415100  0.768500  0.090600  1.0  -0.5958
  O  O875  1  0.510800  0.831300  0.104090  1.0  -0.6066
  O  O876  1  0.484180  0.816140  0.019680  1.0  -0.6291
  O  O877  1  0.405100  0.738730  0.968880  1.0  -0.7162
  O  O878  1  0.575760  0.943220  0.050480  1.0  -0.6338
  O  O879  1  0.253000  0.314100  0.053120  1.0  -0.6245
  O  O880  1  0.233670  0.388610  0.051410  1.0  -0.5709
  O  O881  1  0.353400  0.584900  0.090600  1.0  -0.5963
  O  O882  1  0.320500  0.489200  0.104090  1.0  -0.6085
  O  O883  1  0.331960  0.515820  0.019680  1.0  -0.6288
  O  O884  1  0.333630  0.594900  0.968880  1.0  -0.7153
  O  O885  1  0.367460  0.424240  0.050480  1.0  -0.6321
  O  O886  1  0.938900  0.253000  0.553120  1.0  -0.624
  O  O887  1  0.845060  0.233670  0.551410  1.0  -0.5703
  O  O888  1  0.768500  0.353400  0.590600  1.0  -0.5957
  O  O889  1  0.831300  0.320500  0.604090  1.0  -0.6067
  O  O890  1  0.816140  0.331960  0.519680  1.0  -0.629
  O  O891  1  0.738730  0.333630  0.468880  1.0  -0.7095
  O  O892  1  0.943220  0.367460  0.550480  1.0  -0.6364
  O  O893  1  0.314100  0.061100  0.553120  1.0  -0.6261
  O  O894  1  0.388610  0.154940  0.551410  1.0  -0.57
  O  O895  1  0.584900  0.231500  0.590600  1.0  -0.5959
  O  O896  1  0.489200  0.168700  0.604090  1.0  -0.607
  O  O897  1  0.515820  0.183860  0.519680  1.0  -0.6294
  O  O898  1  0.594900  0.261270  0.468880  1.0  -0.7152
  O  O899  1  0.424240  0.056780  0.550480  1.0  -0.6336
  O  O900  1  0.747000  0.685900  0.553120  1.0  -0.6259
  O  O901  1  0.766330  0.611390  0.551410  1.0  -0.5713
  O  O902  1  0.646600  0.415100  0.590600  1.0  -0.5971
  O  O903  1  0.679500  0.510800  0.604090  1.0  -0.609
  O  O904  1  0.668040  0.484180  0.519680  1.0  -0.6302
  O  O905  1  0.666370  0.405100  0.468880  1.0  -0.7151
  O  O906  1  0.632540  0.575760  0.550480  1.0  -0.632
  O  O907  1  0.314100  0.253000  0.446880  1.0  -0.6248
  O  O908  1  0.388610  0.233670  0.448590  1.0  -0.5702
  O  O909  1  0.584900  0.353400  0.409400  1.0  -0.5966
  O  O910  1  0.489200  0.320500  0.395910  1.0  -0.607
  O  O911  1  0.515820  0.331960  0.480320  1.0  -0.6308
  O  O912  1  0.594900  0.333630  0.531120  1.0  -0.7018
  O  O913  1  0.424240  0.367460  0.449520  1.0  -0.6364
  O  O914  1  0.747000  0.061100  0.446880  1.0  -0.6251
  O  O915  1  0.766330  0.154940  0.448590  1.0  -0.5703
  O  O916  1  0.646600  0.231500  0.409400  1.0  -0.5954
  O  O917  1  0.679500  0.168700  0.395910  1.0  -0.606
  O  O918  1  0.668040  0.183860  0.480320  1.0  -0.6303
  O  O919  1  0.666370  0.261270  0.531120  1.0  -0.7158
  O  O920  1  0.632540  0.056780  0.449520  1.0  -0.6342
  O  O921  1  0.938900  0.685900  0.446880  1.0  -0.6252
  O  O922  1  0.845060  0.611390  0.448590  1.0  -0.571
  O  O923  1  0.768500  0.415100  0.409400  1.0  -0.5969
  O  O924  1  0.831300  0.510800  0.395910  1.0  -0.608
  O  O925  1  0.816140  0.484180  0.480320  1.0  -0.6301
  O  O926  1  0.738730  0.405100  0.531120  1.0  -0.7152
  O  O927  1  0.943220  0.575760  0.449520  1.0  -0.6324
  O  O928  1  0.685900  0.747000  0.946880  1.0  -0.6239
  O  O929  1  0.611390  0.766330  0.948590  1.0  -0.5699
  O  O930  1  0.415100  0.646600  0.909400  1.0  -0.5961
  O  O931  1  0.510800  0.679500  0.895910  1.0  -0.6056
  O  O932  1  0.484180  0.668040  0.980320  1.0  -0.6308
  O  O933  1  0.405100  0.666370  0.031120  1.0  -0.7085
  O  O934  1  0.575760  0.632540  0.949520  1.0  -0.6352
  O  O935  1  0.253000  0.938900  0.946880  1.0  -0.6261
  O  O936  1  0.233670  0.845060  0.948590  1.0  -0.5707
  O  O937  1  0.353400  0.768500  0.909400  1.0  -0.5969
  O  O938  1  0.320500  0.831300  0.895910  1.0  -0.6068
  O  O939  1  0.331960  0.816140  0.980320  1.0  -0.6307
  O  O940  1  0.333630  0.738730  0.031120  1.0  -0.7151
  O  O941  1  0.367460  0.943220  0.949520  1.0  -0.6354
  O  O942  1  0.061100  0.314100  0.946880  1.0  -0.6254
  O  O943  1  0.154940  0.388610  0.948590  1.0  -0.5719
  O  O944  1  0.231500  0.584900  0.909400  1.0  -0.5972
  O  O945  1  0.168700  0.489200  0.895910  1.0  -0.6078
  O  O946  1  0.183860  0.515820  0.980320  1.0  -0.6311
  O  O947  1  0.261270  0.594900  0.031120  1.0  -0.7148
  O  O948  1  0.056780  0.424240  0.949520  1.0  -0.6329
  O  O949  1  0.676600  0.000000  0.961800  1.0  -0.3889
  O  O950  1  0.323400  0.323400  0.961800  1.0  -0.3879
  O  O951  1  0.000000  0.676600  0.961800  1.0  -0.3882
  O  O952  1  0.323400  0.000000  0.461800  1.0  -0.3886
  O  O953  1  0.676600  0.676600  0.461800  1.0  -0.3893
  O  O954  1  0.000000  0.323400  0.461800  1.0  -0.3881
  O  O955  1  0.676600  0.000000  0.538200  1.0  -0.391
  O  O956  1  0.000000  0.676600  0.538200  1.0  -0.3894
  O  O957  1  0.323400  0.323400  0.538200  1.0  -0.3908
  O  O958  1  0.323400  0.000000  0.038200  1.0  -0.3909
  O  O959  1  0.000000  0.323400  0.038200  1.0  -0.3906
  O  O960  1  0.676600  0.676600  0.038200  1.0  -0.3899
  O  O961  1  0.860700  0.291700  0.750000  1.0  -0.4591
  O  O962  1  0.431000  0.139300  0.750000  1.0  -0.4596
  O  O963  1  0.708300  0.569000  0.750000  1.0  -0.4676
  O  O964  1  0.139300  0.708300  0.250000  1.0  -0.4663
  O  O965  1  0.569000  0.860700  0.250000  1.0  -0.4602
  O  O966  1  0.291700  0.431000  0.250000  1.0  -0.4613
  O  O967  1  0.569000  0.708300  0.750000  1.0  -0.4658
  O  O968  1  0.291700  0.860700  0.750000  1.0  -0.4591
  O  O969  1  0.139300  0.431000  0.750000  1.0  -0.4612
  O  O970  1  0.431000  0.291700  0.250000  1.0  -0.46
  O  O971  1  0.708300  0.139300  0.250000  1.0  -0.4661
  O  O972  1  0.860700  0.569000  0.250000  1.0  -0.4625
