# generated using pymatgen
data_InH9(C7O3)2
_symmetry_space_group_name_H-M   'P 1'
_cell_length_a   19.23960000
_cell_length_b   20.30170000
_cell_length_c   46.14300000
_cell_angle_alpha   90.00000000
_cell_angle_beta   90.00000000
_cell_angle_gamma   90.00000000
_symmetry_Int_Tables_number   1
_chemical_formula_structural   InH9(C7O3)2
_chemical_formula_sum   'In32 H288 C448 O192'
_cell_volume   18023.29832871
_cell_formula_units_Z   32
loop_
 _symmetry_equiv_pos_site_id
 _symmetry_equiv_pos_as_xyz
  1  'x, y, z'
loop_
 _atom_site_type_symbol
 _atom_site_label
 _atom_site_symmetry_multiplicity
 _atom_site_fract_x
 _atom_site_fract_y
 _atom_site_fract_z
 _atom_site_occupancy
 _atom_site_charge
  In  In1  1  0.125000  0.625000  0.125000  1.0  1.7034
  In  In2  1  0.125000  0.125000  0.625000  1.0  1.7034
  In  In3  1  0.625000  0.625000  0.625000  1.0  1.7034
  In  In4  1  0.625000  0.125000  0.125000  1.0  1.7034
  In  In5  1  0.875000  0.375000  0.125000  1.0  1.7034
  In  In6  1  0.875000  0.875000  0.625000  1.0  1.7034
  In  In7  1  0.875000  0.625000  0.875000  1.0  1.7034
  In  In8  1  0.875000  0.125000  0.375000  1.0  1.7034
  In  In9  1  0.125000  0.375000  0.875000  1.0  1.7034
  In  In10  1  0.625000  0.375000  0.375000  1.0  1.7034
  In  In11  1  0.375000  0.875000  0.125000  1.0  1.7034
  In  In12  1  0.375000  0.375000  0.625000  1.0  1.7034
  In  In13  1  0.375000  0.625000  0.375000  1.0  1.7034
  In  In14  1  0.375000  0.125000  0.875000  1.0  1.7034
  In  In15  1  0.125000  0.875000  0.375000  1.0  1.7034
  In  In16  1  0.625000  0.875000  0.875000  1.0  1.7034
  In  In17  1  0.250000  0.750000  0.138430  1.0  1.6758
  In  In18  1  0.250000  0.250000  0.638430  1.0  1.6758
  In  In19  1  0.750000  0.250000  0.138430  1.0  1.6758
  In  In20  1  0.750000  0.750000  0.638430  1.0  1.6758
  In  In21  1  0.750000  0.750000  0.861570  1.0  1.6749
  In  In22  1  0.750000  0.250000  0.361570  1.0  1.6749
  In  In23  1  0.250000  0.250000  0.861570  1.0  1.6749
  In  In24  1  0.250000  0.750000  0.361570  1.0  1.6749
  In  In25  1  0.000000  0.500000  0.111570  1.0  1.6778
  In  In26  1  0.000000  0.000000  0.611570  1.0  1.6778
  In  In27  1  0.500000  0.000000  0.111570  1.0  1.6778
  In  In28  1  0.500000  0.500000  0.611570  1.0  1.6778
  In  In29  1  0.500000  0.500000  0.388430  1.0  1.6787
  In  In30  1  0.500000  0.000000  0.888430  1.0  1.6787
  In  In31  1  0.000000  0.000000  0.388430  1.0  1.6787
  In  In32  1  0.000000  0.500000  0.888430  1.0  1.6787
  H  H33  1  0.096800  0.698700  0.033600  1.0  0.0998
  H  H34  1  0.208900  0.851000  0.063700  1.0  0.0953
  H  H35  1  0.090900  0.748600  0.988700  1.0  0.117
  H  H36  1  0.209700  0.896600  0.017700  1.0  0.1124
  H  H37  1  0.275700  0.833200  0.972900  1.0  0.0955
  H  H38  1  0.135800  0.961400  0.945100  1.0  0.1216
  H  H39  1  0.363200  0.891300  0.948400  1.0  0.1051
  H  H40  1  0.219800  0.017300  0.920200  1.0  0.0916
  H  H41  1  0.526780  0.375970  0.601150  1.0  0.1656
  H  H42  1  0.096800  0.198700  0.533600  1.0  0.0998
  H  H43  1  0.208900  0.351000  0.563700  1.0  0.0953
  H  H44  1  0.090900  0.248600  0.488700  1.0  0.117
  H  H45  1  0.209700  0.396600  0.517700  1.0  0.1124
  H  H46  1  0.275700  0.333200  0.472900  1.0  0.0955
  H  H47  1  0.135800  0.461400  0.445100  1.0  0.1216
  H  H48  1  0.363200  0.391300  0.448400  1.0  0.1051
  H  H49  1  0.219800  0.517300  0.420200  1.0  0.0916
  H  H50  1  0.526780  0.875970  0.101150  1.0  0.1656
  H  H51  1  0.596800  0.698700  0.533600  1.0  0.0998
  H  H52  1  0.708900  0.851000  0.563700  1.0  0.0953
  H  H53  1  0.590900  0.748600  0.488700  1.0  0.117
  H  H54  1  0.709700  0.896600  0.517700  1.0  0.1124
  H  H55  1  0.775700  0.833200  0.472900  1.0  0.0955
  H  H56  1  0.635800  0.961400  0.445100  1.0  0.1216
  H  H57  1  0.863200  0.891300  0.448400  1.0  0.1051
  H  H58  1  0.719800  0.017300  0.420200  1.0  0.0916
  H  H59  1  0.026780  0.375970  0.101150  1.0  0.1656
  H  H60  1  0.596800  0.198700  0.033600  1.0  0.0998
  H  H61  1  0.708900  0.351000  0.063700  1.0  0.0953
  H  H62  1  0.590900  0.248600  0.988700  1.0  0.117
  H  H63  1  0.709700  0.396600  0.017700  1.0  0.1124
  H  H64  1  0.775700  0.333200  0.972900  1.0  0.0955
  H  H65  1  0.635800  0.461400  0.945100  1.0  0.1216
  H  H66  1  0.863200  0.391300  0.948400  1.0  0.1051
  H  H67  1  0.719800  0.517300  0.920200  1.0  0.0916
  H  H68  1  0.026780  0.875970  0.601150  1.0  0.1656
  H  H69  1  0.903200  0.301300  0.033600  1.0  0.1006
  H  H70  1  0.791100  0.149000  0.063700  1.0  0.0958
  H  H71  1  0.909100  0.251400  0.988700  1.0  0.1164
  H  H72  1  0.790300  0.103400  0.017700  1.0  0.112
  H  H73  1  0.724300  0.166800  0.972900  1.0  0.0955
  H  H74  1  0.864200  0.038600  0.945100  1.0  0.1204
  H  H75  1  0.636800  0.108700  0.948400  1.0  0.1052
  H  H76  1  0.780200  0.982700  0.920200  1.0  0.0914
  H  H77  1  0.473220  0.624030  0.601150  1.0  0.1664
  H  H78  1  0.903200  0.801300  0.533600  1.0  0.1006
  H  H79  1  0.791100  0.649000  0.563700  1.0  0.0958
  H  H80  1  0.909100  0.751400  0.488700  1.0  0.1164
  H  H81  1  0.790300  0.603400  0.517700  1.0  0.112
  H  H82  1  0.724300  0.666800  0.472900  1.0  0.0955
  H  H83  1  0.864200  0.538600  0.445100  1.0  0.1204
  H  H84  1  0.636800  0.608700  0.448400  1.0  0.1052
  H  H85  1  0.780200  0.482700  0.420200  1.0  0.0914
  H  H86  1  0.473220  0.124030  0.101150  1.0  0.1664
  H  H87  1  0.403200  0.301300  0.533600  1.0  0.1006
  H  H88  1  0.291100  0.149000  0.563700  1.0  0.0958
  H  H89  1  0.409100  0.251400  0.488700  1.0  0.1164
  H  H90  1  0.290300  0.103400  0.517700  1.0  0.112
  H  H91  1  0.224300  0.166800  0.472900  1.0  0.0955
  H  H92  1  0.364200  0.038600  0.445100  1.0  0.1204
  H  H93  1  0.136800  0.108700  0.448400  1.0  0.1052
  H  H94  1  0.280200  0.982700  0.420200  1.0  0.0914
  H  H95  1  0.973220  0.624030  0.101150  1.0  0.1664
  H  H96  1  0.403200  0.801300  0.033600  1.0  0.1006
  H  H97  1  0.291100  0.649000  0.063700  1.0  0.0958
  H  H98  1  0.409100  0.751400  0.988700  1.0  0.1164
  H  H99  1  0.290300  0.603400  0.017700  1.0  0.112
  H  H100  1  0.224300  0.666800  0.972900  1.0  0.0955
  H  H101  1  0.364200  0.538600  0.945100  1.0  0.1204
  H  H102  1  0.136800  0.608700  0.948400  1.0  0.1052
  H  H103  1  0.280200  0.482700  0.920200  1.0  0.0914
  H  H104  1  0.973220  0.124030  0.601150  1.0  0.1664
  H  H105  1  0.903200  0.698700  0.966400  1.0  0.1006
  H  H106  1  0.791100  0.851000  0.936300  1.0  0.0956
  H  H107  1  0.909100  0.748600  0.011300  1.0  0.117
  H  H108  1  0.790300  0.896600  0.982300  1.0  0.1126
  H  H109  1  0.724300  0.833200  0.027100  1.0  0.0956
  H  H110  1  0.864200  0.961400  0.054900  1.0  0.1206
  H  H111  1  0.636800  0.891300  0.051600  1.0  0.1061
  H  H112  1  0.780200  0.017300  0.079800  1.0  0.0909
  H  H113  1  0.473220  0.375970  0.398850  1.0  0.1644
  H  H114  1  0.903200  0.198700  0.466400  1.0  0.1006
  H  H115  1  0.791100  0.351000  0.436300  1.0  0.0956
  H  H116  1  0.909100  0.248600  0.511300  1.0  0.117
  H  H117  1  0.790300  0.396600  0.482300  1.0  0.1126
  H  H118  1  0.724300  0.333200  0.527100  1.0  0.0956
  H  H119  1  0.864200  0.461400  0.554900  1.0  0.1206
  H  H120  1  0.636800  0.391300  0.551600  1.0  0.1061
  H  H121  1  0.780200  0.517300  0.579800  1.0  0.0909
  H  H122  1  0.473220  0.875970  0.898850  1.0  0.1644
  H  H123  1  0.403200  0.698700  0.466400  1.0  0.1006
  H  H124  1  0.291100  0.851000  0.436300  1.0  0.0956
  H  H125  1  0.409100  0.748600  0.511300  1.0  0.117
  H  H126  1  0.290300  0.896600  0.482300  1.0  0.1126
  H  H127  1  0.224300  0.833200  0.527100  1.0  0.0956
  H  H128  1  0.364200  0.961400  0.554900  1.0  0.1206
  H  H129  1  0.136800  0.891300  0.551600  1.0  0.1061
  H  H130  1  0.280200  0.017300  0.579800  1.0  0.0909
  H  H131  1  0.973220  0.375970  0.898850  1.0  0.1644
  H  H132  1  0.403200  0.198700  0.966400  1.0  0.1006
  H  H133  1  0.291100  0.351000  0.936300  1.0  0.0956
  H  H134  1  0.409100  0.248600  0.011300  1.0  0.117
  H  H135  1  0.290300  0.396600  0.982300  1.0  0.1126
  H  H136  1  0.224300  0.333200  0.027100  1.0  0.0956
  H  H137  1  0.364200  0.461400  0.054900  1.0  0.1206
  H  H138  1  0.136800  0.391300  0.051600  1.0  0.1061
  H  H139  1  0.280200  0.517300  0.079800  1.0  0.0909
  H  H140  1  0.973220  0.875970  0.398850  1.0  0.1644
  H  H141  1  0.096800  0.301300  0.966400  1.0  0.0999
  H  H142  1  0.208900  0.149000  0.936300  1.0  0.0955
  H  H143  1  0.090900  0.251400  0.011300  1.0  0.1177
  H  H144  1  0.209700  0.103400  0.982300  1.0  0.1124
  H  H145  1  0.275700  0.166800  0.027100  1.0  0.095
  H  H146  1  0.135800  0.038600  0.054900  1.0  0.1216
  H  H147  1  0.363200  0.108700  0.051600  1.0  0.1057
  H  H148  1  0.219800  0.982700  0.079800  1.0  0.0916
  H  H149  1  0.526780  0.624030  0.398850  1.0  0.1645
  H  H150  1  0.096800  0.801300  0.466400  1.0  0.0999
  H  H151  1  0.208900  0.649000  0.436300  1.0  0.0955
  H  H152  1  0.090900  0.751400  0.511300  1.0  0.1177
  H  H153  1  0.209700  0.603400  0.482300  1.0  0.1124
  H  H154  1  0.275700  0.666800  0.527100  1.0  0.095
  H  H155  1  0.135800  0.538600  0.554900  1.0  0.1216
  H  H156  1  0.363200  0.608700  0.551600  1.0  0.1057
  H  H157  1  0.219800  0.482700  0.579800  1.0  0.0916
  H  H158  1  0.526780  0.124030  0.898850  1.0  0.1645
  H  H159  1  0.596800  0.301300  0.466400  1.0  0.0999
  H  H160  1  0.708900  0.149000  0.436300  1.0  0.0955
  H  H161  1  0.590900  0.251400  0.511300  1.0  0.1177
  H  H162  1  0.709700  0.103400  0.482300  1.0  0.1124
  H  H163  1  0.775700  0.166800  0.527100  1.0  0.095
  H  H164  1  0.635800  0.038600  0.554900  1.0  0.1216
  H  H165  1  0.863200  0.108700  0.551600  1.0  0.1057
  H  H166  1  0.719800  0.982700  0.579800  1.0  0.0916
  H  H167  1  0.026780  0.624030  0.898850  1.0  0.1645
  H  H168  1  0.596800  0.801300  0.966400  1.0  0.0999
  H  H169  1  0.708900  0.649000  0.936300  1.0  0.0955
  H  H170  1  0.590900  0.751400  0.011300  1.0  0.1177
  H  H171  1  0.709700  0.603400  0.982300  1.0  0.1124
  H  H172  1  0.775700  0.666800  0.027100  1.0  0.095
  H  H173  1  0.635800  0.538600  0.054900  1.0  0.1216
  H  H174  1  0.863200  0.608700  0.051600  1.0  0.1057
  H  H175  1  0.719800  0.482700  0.079800  1.0  0.0916
  H  H176  1  0.026780  0.124030  0.398850  1.0  0.1645
  H  H177  1  0.153200  0.551300  0.216400  1.0  0.1005
  H  H178  1  0.041100  0.399000  0.186300  1.0  0.0954
  H  H179  1  0.159100  0.501400  0.261300  1.0  0.1168
  H  H180  1  0.040300  0.353400  0.232300  1.0  0.1119
  H  H181  1  0.974300  0.416800  0.277100  1.0  0.0956
  H  H182  1  0.114200  0.288600  0.304900  1.0  0.1206
  H  H183  1  0.886800  0.358700  0.301600  1.0  0.1053
  H  H184  1  0.030200  0.232700  0.329800  1.0  0.0912
  H  H185  1  0.723220  0.874030  0.648850  1.0  0.1651
  H  H186  1  0.153200  0.051300  0.716400  1.0  0.1005
  H  H187  1  0.041100  0.899000  0.686300  1.0  0.0954
  H  H188  1  0.159100  0.001400  0.761300  1.0  0.1168
  H  H189  1  0.040300  0.853400  0.732300  1.0  0.1119
  H  H190  1  0.974300  0.916800  0.777100  1.0  0.0956
  H  H191  1  0.114200  0.788600  0.804900  1.0  0.1206
  H  H192  1  0.886800  0.858700  0.801600  1.0  0.1053
  H  H193  1  0.030200  0.732700  0.829800  1.0  0.0912
  H  H194  1  0.723220  0.374030  0.148850  1.0  0.1651
  H  H195  1  0.653200  0.551300  0.716400  1.0  0.1005
  H  H196  1  0.541100  0.399000  0.686300  1.0  0.0954
  H  H197  1  0.659100  0.501400  0.761300  1.0  0.1168
  H  H198  1  0.540300  0.353400  0.732300  1.0  0.1119
  H  H199  1  0.474300  0.416800  0.777100  1.0  0.0956
  H  H200  1  0.614200  0.288600  0.804900  1.0  0.1206
  H  H201  1  0.386800  0.358700  0.801600  1.0  0.1053
  H  H202  1  0.530200  0.232700  0.829800  1.0  0.0912
  H  H203  1  0.223220  0.874030  0.148850  1.0  0.1651
  H  H204  1  0.653200  0.051300  0.216400  1.0  0.1005
  H  H205  1  0.541100  0.899000  0.186300  1.0  0.0954
  H  H206  1  0.659100  0.001400  0.261300  1.0  0.1168
  H  H207  1  0.540300  0.853400  0.232300  1.0  0.1119
  H  H208  1  0.474300  0.916800  0.277100  1.0  0.0956
  H  H209  1  0.614200  0.788600  0.304900  1.0  0.1206
  H  H210  1  0.386800  0.858700  0.301600  1.0  0.1053
  H  H211  1  0.530200  0.732700  0.329800  1.0  0.0912
  H  H212  1  0.223220  0.374030  0.648850  1.0  0.1651
  H  H213  1  0.346800  0.948700  0.216400  1.0  0.0997
  H  H214  1  0.458900  0.101000  0.186300  1.0  0.0951
  H  H215  1  0.340900  0.998600  0.261300  1.0  0.118
  H  H216  1  0.459700  0.146600  0.232300  1.0  0.1127
  H  H217  1  0.525700  0.083200  0.277100  1.0  0.0952
  H  H218  1  0.385800  0.211400  0.304900  1.0  0.1218
  H  H219  1  0.613200  0.141300  0.301600  1.0  0.1054
  H  H220  1  0.469800  0.267300  0.329800  1.0  0.0914
  H  H221  1  0.776780  0.625970  0.648850  1.0  0.1648
  H  H222  1  0.346800  0.448700  0.716400  1.0  0.0997
  H  H223  1  0.458900  0.601000  0.686300  1.0  0.0951
  H  H224  1  0.340900  0.498600  0.761300  1.0  0.118
  H  H225  1  0.459700  0.646600  0.732300  1.0  0.1127
  H  H226  1  0.525700  0.583200  0.777100  1.0  0.0952
  H  H227  1  0.385800  0.711400  0.804900  1.0  0.1218
  H  H228  1  0.613200  0.641300  0.801600  1.0  0.1054
  H  H229  1  0.469800  0.767300  0.829800  1.0  0.0914
  H  H230  1  0.776780  0.125970  0.148850  1.0  0.1648
  H  H231  1  0.846800  0.948700  0.716400  1.0  0.0997
  H  H232  1  0.958900  0.101000  0.686300  1.0  0.0951
  H  H233  1  0.840900  0.998600  0.761300  1.0  0.118
  H  H234  1  0.959700  0.146600  0.732300  1.0  0.1127
  H  H235  1  0.025700  0.083200  0.777100  1.0  0.0952
  H  H236  1  0.885800  0.211400  0.804900  1.0  0.1218
  H  H237  1  0.113200  0.141300  0.801600  1.0  0.1054
  H  H238  1  0.969800  0.267300  0.829800  1.0  0.0914
  H  H239  1  0.276780  0.625970  0.148850  1.0  0.1648
  H  H240  1  0.846800  0.448700  0.216400  1.0  0.0997
  H  H241  1  0.958900  0.601000  0.186300  1.0  0.0951
  H  H242  1  0.840900  0.498600  0.261300  1.0  0.118
  H  H243  1  0.959700  0.646600  0.232300  1.0  0.1127
  H  H244  1  0.025700  0.583200  0.277100  1.0  0.0952
  H  H245  1  0.885800  0.711400  0.304900  1.0  0.1218
  H  H246  1  0.113200  0.641300  0.301600  1.0  0.1054
  H  H247  1  0.969800  0.767300  0.329800  1.0  0.0914
  H  H248  1  0.276780  0.125970  0.648850  1.0  0.1648
  H  H249  1  0.346800  0.551300  0.283600  1.0  0.1
  H  H250  1  0.458900  0.399000  0.313700  1.0  0.096
  H  H251  1  0.340900  0.501400  0.238700  1.0  0.1167
  H  H252  1  0.459700  0.353400  0.267700  1.0  0.1125
  H  H253  1  0.525700  0.416800  0.222900  1.0  0.0954
  H  H254  1  0.385800  0.288600  0.195100  1.0  0.1217
  H  H255  1  0.613200  0.358700  0.198400  1.0  0.1054
  H  H256  1  0.469800  0.232700  0.170200  1.0  0.0911
  H  H257  1  0.776780  0.874030  0.851150  1.0  0.1663
  H  H258  1  0.346800  0.051300  0.783600  1.0  0.1
  H  H259  1  0.458900  0.899000  0.813700  1.0  0.096
  H  H260  1  0.340900  0.001400  0.738700  1.0  0.1167
  H  H261  1  0.459700  0.853400  0.767700  1.0  0.1125
  H  H262  1  0.525700  0.916800  0.722900  1.0  0.0954
  H  H263  1  0.385800  0.788600  0.695100  1.0  0.1217
  H  H264  1  0.613200  0.858700  0.698400  1.0  0.1054
  H  H265  1  0.469800  0.732700  0.670200  1.0  0.0911
  H  H266  1  0.776780  0.374030  0.351150  1.0  0.1663
  H  H267  1  0.846800  0.551300  0.783600  1.0  0.1
  H  H268  1  0.958900  0.399000  0.813700  1.0  0.096
  H  H269  1  0.840900  0.501400  0.738700  1.0  0.1167
  H  H270  1  0.959700  0.353400  0.767700  1.0  0.1125
  H  H271  1  0.025700  0.416800  0.722900  1.0  0.0954
  H  H272  1  0.885800  0.288600  0.695100  1.0  0.1217
  H  H273  1  0.113200  0.358700  0.698400  1.0  0.1054
  H  H274  1  0.969800  0.232700  0.670200  1.0  0.0911
  H  H275  1  0.276780  0.874030  0.351150  1.0  0.1663
  H  H276  1  0.846800  0.051300  0.283600  1.0  0.1
  H  H277  1  0.958900  0.899000  0.313700  1.0  0.096
  H  H278  1  0.840900  0.001400  0.238700  1.0  0.1167
  H  H279  1  0.959700  0.853400  0.267700  1.0  0.1125
  H  H280  1  0.025700  0.916800  0.222900  1.0  0.0954
  H  H281  1  0.885800  0.788600  0.195100  1.0  0.1217
  H  H282  1  0.113200  0.858700  0.198400  1.0  0.1054
  H  H283  1  0.969800  0.732700  0.170200  1.0  0.0911
  H  H284  1  0.276780  0.374030  0.851150  1.0  0.1663
  H  H285  1  0.153200  0.948700  0.283600  1.0  0.1006
  H  H286  1  0.041100  0.101000  0.313700  1.0  0.0957
  H  H287  1  0.159100  0.998600  0.238700  1.0  0.1168
  H  H288  1  0.040300  0.146600  0.267700  1.0  0.1124
  H  H289  1  0.974300  0.083200  0.222900  1.0  0.0955
  H  H290  1  0.114200  0.211400  0.195100  1.0  0.1204
  H  H291  1  0.886800  0.141300  0.198400  1.0  0.1059
  H  H292  1  0.030200  0.267300  0.170200  1.0  0.0914
  H  H293  1  0.723220  0.625970  0.851150  1.0  0.1648
  H  H294  1  0.153200  0.448700  0.783600  1.0  0.1006
  H  H295  1  0.041100  0.601000  0.813700  1.0  0.0957
  H  H296  1  0.159100  0.498600  0.738700  1.0  0.1168
  H  H297  1  0.040300  0.646600  0.767700  1.0  0.1124
  H  H298  1  0.974300  0.583200  0.722900  1.0  0.0955
  H  H299  1  0.114200  0.711400  0.695100  1.0  0.1204
  H  H300  1  0.886800  0.641300  0.698400  1.0  0.1059
  H  H301  1  0.030200  0.767300  0.670200  1.0  0.0914
  H  H302  1  0.723220  0.125970  0.351150  1.0  0.1648
  H  H303  1  0.653200  0.948700  0.783600  1.0  0.1006
  H  H304  1  0.541100  0.101000  0.813700  1.0  0.0957
  H  H305  1  0.659100  0.998600  0.738700  1.0  0.1168
  H  H306  1  0.540300  0.146600  0.767700  1.0  0.1124
  H  H307  1  0.474300  0.083200  0.722900  1.0  0.0955
  H  H308  1  0.614200  0.211400  0.695100  1.0  0.1204
  H  H309  1  0.386800  0.141300  0.698400  1.0  0.1059
  H  H310  1  0.530200  0.267300  0.670200  1.0  0.0914
  H  H311  1  0.223220  0.625970  0.351150  1.0  0.1648
  H  H312  1  0.653200  0.448700  0.283600  1.0  0.1006
  H  H313  1  0.541100  0.601000  0.313700  1.0  0.0957
  H  H314  1  0.659100  0.498600  0.238700  1.0  0.1168
  H  H315  1  0.540300  0.646600  0.267700  1.0  0.1124
  H  H316  1  0.474300  0.583200  0.222900  1.0  0.0955
  H  H317  1  0.614200  0.711400  0.195100  1.0  0.1204
  H  H318  1  0.386800  0.641300  0.198400  1.0  0.1059
  H  H319  1  0.530200  0.767300  0.170200  1.0  0.0914
  H  H320  1  0.223220  0.125970  0.851150  1.0  0.1648
  C  C321  1  0.155900  0.738400  0.082690  1.0  0.6877
  C  C322  1  0.153300  0.769400  0.052800  1.0  -0.1406
  C  C323  1  0.118500  0.739000  0.030500  1.0  -0.0387
  C  C324  1  0.186700  0.829700  0.048400  1.0  -0.0379
  C  C325  1  0.116000  0.767900  0.003600  1.0  -0.2166
  C  C326  1  0.186300  0.857300  0.021100  1.0  -0.2223
  C  C327  1  0.151900  0.827100  0.999200  1.0  0.3056
  C  C328  1  0.199400  0.890100  0.960300  1.0  0.2815
  C  C329  1  0.264500  0.870300  0.962000  1.0  -0.2022
  C  C330  1  0.181500  0.946600  0.945300  1.0  -0.2172
  C  C331  1  0.317300  0.905400  0.947500  1.0  -0.0615
  C  C332  1  0.231700  0.980300  0.931000  1.0  -0.0244
  C  C333  1  0.299400  0.960900  0.932200  1.0  -0.1566
  C  C334  1  0.354600  0.998300  0.915400  1.0  0.7347
  C  C335  1  0.155900  0.238400  0.582690  1.0  0.6877
  C  C336  1  0.153300  0.269400  0.552800  1.0  -0.1406
  C  C337  1  0.118500  0.239000  0.530500  1.0  -0.0387
  C  C338  1  0.186700  0.329700  0.548400  1.0  -0.0379
  C  C339  1  0.116000  0.267900  0.503600  1.0  -0.2166
  C  C340  1  0.186300  0.357300  0.521100  1.0  -0.2223
  C  C341  1  0.151900  0.327100  0.499200  1.0  0.3056
  C  C342  1  0.199400  0.390100  0.460300  1.0  0.2815
  C  C343  1  0.264500  0.370300  0.462000  1.0  -0.2022
  C  C344  1  0.181500  0.446600  0.445300  1.0  -0.2172
  C  C345  1  0.317300  0.405400  0.447500  1.0  -0.0615
  C  C346  1  0.231700  0.480300  0.431000  1.0  -0.0244
  C  C347  1  0.299400  0.460900  0.432200  1.0  -0.1566
  C  C348  1  0.354600  0.498300  0.415400  1.0  0.7347
  C  C349  1  0.655900  0.738400  0.582690  1.0  0.6877
  C  C350  1  0.653300  0.769400  0.552800  1.0  -0.1406
  C  C351  1  0.618500  0.739000  0.530500  1.0  -0.0387
  C  C352  1  0.686700  0.829700  0.548400  1.0  -0.0379
  C  C353  1  0.616000  0.767900  0.503600  1.0  -0.2166
  C  C354  1  0.686300  0.857300  0.521100  1.0  -0.2223
  C  C355  1  0.651900  0.827100  0.499200  1.0  0.3056
  C  C356  1  0.699400  0.890100  0.460300  1.0  0.2815
  C  C357  1  0.764500  0.870300  0.462000  1.0  -0.2022
  C  C358  1  0.681500  0.946600  0.445300  1.0  -0.2172
  C  C359  1  0.817300  0.905400  0.447500  1.0  -0.0615
  C  C360  1  0.731700  0.980300  0.431000  1.0  -0.0244
  C  C361  1  0.799400  0.960900  0.432200  1.0  -0.1566
  C  C362  1  0.854600  0.998300  0.415400  1.0  0.7347
  C  C363  1  0.655900  0.238400  0.082690  1.0  0.6877
  C  C364  1  0.653300  0.269400  0.052800  1.0  -0.1406
  C  C365  1  0.618500  0.239000  0.030500  1.0  -0.0387
  C  C366  1  0.686700  0.329700  0.048400  1.0  -0.0379
  C  C367  1  0.616000  0.267900  0.003600  1.0  -0.2166
  C  C368  1  0.686300  0.357300  0.021100  1.0  -0.2223
  C  C369  1  0.651900  0.327100  0.999200  1.0  0.3056
  C  C370  1  0.699400  0.390100  0.960300  1.0  0.2815
  C  C371  1  0.764500  0.370300  0.962000  1.0  -0.2022
  C  C372  1  0.681500  0.446600  0.945300  1.0  -0.2172
  C  C373  1  0.817300  0.405400  0.947500  1.0  -0.0615
  C  C374  1  0.731700  0.480300  0.931000  1.0  -0.0244
  C  C375  1  0.799400  0.460900  0.932200  1.0  -0.1566
  C  C376  1  0.854600  0.498300  0.915400  1.0  0.7347
  C  C377  1  0.844100  0.261600  0.082690  1.0  0.6879
  C  C378  1  0.846700  0.230600  0.052800  1.0  -0.1415
  C  C379  1  0.881500  0.261000  0.030500  1.0  -0.0388
  C  C380  1  0.813300  0.170300  0.048400  1.0  -0.0371
  C  C381  1  0.884000  0.232100  0.003600  1.0  -0.2166
  C  C382  1  0.813700  0.142700  0.021100  1.0  -0.2201
  C  C383  1  0.848100  0.172900  0.999200  1.0  0.3061
  C  C384  1  0.800600  0.109900  0.960300  1.0  0.2815
  C  C385  1  0.735500  0.129700  0.962000  1.0  -0.2036
  C  C386  1  0.818500  0.053400  0.945300  1.0  -0.2157
  C  C387  1  0.682700  0.094600  0.947500  1.0  -0.0614
  C  C388  1  0.768300  0.019700  0.931000  1.0  -0.0244
  C  C389  1  0.700600  0.039100  0.932200  1.0  -0.1563
  C  C390  1  0.645400  0.001700  0.915400  1.0  0.734
  C  C391  1  0.844100  0.761600  0.582690  1.0  0.6879
  C  C392  1  0.846700  0.730600  0.552800  1.0  -0.1415
  C  C393  1  0.881500  0.761000  0.530500  1.0  -0.0388
  C  C394  1  0.813300  0.670300  0.548400  1.0  -0.0371
  C  C395  1  0.884000  0.732100  0.503600  1.0  -0.2166
  C  C396  1  0.813700  0.642700  0.521100  1.0  -0.2201
  C  C397  1  0.848100  0.672900  0.499200  1.0  0.3061
  C  C398  1  0.800600  0.609900  0.460300  1.0  0.2815
  C  C399  1  0.735500  0.629700  0.462000  1.0  -0.2036
  C  C400  1  0.818500  0.553400  0.445300  1.0  -0.2157
  C  C401  1  0.682700  0.594600  0.447500  1.0  -0.0614
  C  C402  1  0.768300  0.519700  0.431000  1.0  -0.0244
  C  C403  1  0.700600  0.539100  0.432200  1.0  -0.1563
  C  C404  1  0.645400  0.501700  0.415400  1.0  0.734
  C  C405  1  0.344100  0.261600  0.582690  1.0  0.6879
  C  C406  1  0.346700  0.230600  0.552800  1.0  -0.1415
  C  C407  1  0.381500  0.261000  0.530500  1.0  -0.0388
  C  C408  1  0.313300  0.170300  0.548400  1.0  -0.0371
  C  C409  1  0.384000  0.232100  0.503600  1.0  -0.2166
  C  C410  1  0.313700  0.142700  0.521100  1.0  -0.2201
  C  C411  1  0.348100  0.172900  0.499200  1.0  0.3061
  C  C412  1  0.300600  0.109900  0.460300  1.0  0.2815
  C  C413  1  0.235500  0.129700  0.462000  1.0  -0.2036
  C  C414  1  0.318500  0.053400  0.445300  1.0  -0.2157
  C  C415  1  0.182700  0.094600  0.447500  1.0  -0.0614
  C  C416  1  0.268300  0.019700  0.431000  1.0  -0.0244
  C  C417  1  0.200600  0.039100  0.432200  1.0  -0.1563
  C  C418  1  0.145400  0.001700  0.415400  1.0  0.734
  C  C419  1  0.344100  0.761600  0.082690  1.0  0.6879
  C  C420  1  0.346700  0.730600  0.052800  1.0  -0.1415
  C  C421  1  0.381500  0.761000  0.030500  1.0  -0.0388
  C  C422  1  0.313300  0.670300  0.048400  1.0  -0.0371
  C  C423  1  0.384000  0.732100  0.003600  1.0  -0.2166
  C  C424  1  0.313700  0.642700  0.021100  1.0  -0.2201
  C  C425  1  0.348100  0.672900  0.999200  1.0  0.3061
  C  C426  1  0.300600  0.609900  0.960300  1.0  0.2815
  C  C427  1  0.235500  0.629700  0.962000  1.0  -0.2036
  C  C428  1  0.318500  0.553400  0.945300  1.0  -0.2157
  C  C429  1  0.182700  0.594600  0.947500  1.0  -0.0614
  C  C430  1  0.268300  0.519700  0.931000  1.0  -0.0244
  C  C431  1  0.200600  0.539100  0.932200  1.0  -0.1563
  C  C432  1  0.145400  0.501700  0.915400  1.0  0.734
  C  C433  1  0.844100  0.738400  0.917310  1.0  0.6877
  C  C434  1  0.846700  0.769400  0.947200  1.0  -0.14
  C  C435  1  0.881500  0.739000  0.969500  1.0  -0.0386
  C  C436  1  0.813300  0.829700  0.951600  1.0  -0.0352
  C  C437  1  0.884000  0.767900  0.996400  1.0  -0.2171
  C  C438  1  0.813700  0.857300  0.978900  1.0  -0.2219
  C  C439  1  0.848100  0.827100  0.000800  1.0  0.3058
  C  C440  1  0.800600  0.890100  0.039700  1.0  0.2811
  C  C441  1  0.735500  0.870300  0.038000  1.0  -0.2026
  C  C442  1  0.818500  0.946600  0.054700  1.0  -0.2159
  C  C443  1  0.682700  0.905400  0.052500  1.0  -0.061
  C  C444  1  0.768300  0.980300  0.069000  1.0  -0.0249
  C  C445  1  0.700600  0.960900  0.067800  1.0  -0.1568
  C  C446  1  0.645400  0.998300  0.084600  1.0  0.7349
  C  C447  1  0.844100  0.238400  0.417310  1.0  0.6877
  C  C448  1  0.846700  0.269400  0.447200  1.0  -0.14
  C  C449  1  0.881500  0.239000  0.469500  1.0  -0.0386
  C  C450  1  0.813300  0.329700  0.451600  1.0  -0.0352
  C  C451  1  0.884000  0.267900  0.496400  1.0  -0.2171
  C  C452  1  0.813700  0.357300  0.478900  1.0  -0.2219
  C  C453  1  0.848100  0.327100  0.500800  1.0  0.3058
  C  C454  1  0.800600  0.390100  0.539700  1.0  0.2811
  C  C455  1  0.735500  0.370300  0.538000  1.0  -0.2026
  C  C456  1  0.818500  0.446600  0.554700  1.0  -0.2159
  C  C457  1  0.682700  0.405400  0.552500  1.0  -0.061
  C  C458  1  0.768300  0.480300  0.569000  1.0  -0.0249
  C  C459  1  0.700600  0.460900  0.567800  1.0  -0.1568
  C  C460  1  0.645400  0.498300  0.584600  1.0  0.7349
  C  C461  1  0.344100  0.738400  0.417310  1.0  0.6877
  C  C462  1  0.346700  0.769400  0.447200  1.0  -0.14
  C  C463  1  0.381500  0.739000  0.469500  1.0  -0.0386
  C  C464  1  0.313300  0.829700  0.451600  1.0  -0.0352
  C  C465  1  0.384000  0.767900  0.496400  1.0  -0.2171
  C  C466  1  0.313700  0.857300  0.478900  1.0  -0.2219
  C  C467  1  0.348100  0.827100  0.500800  1.0  0.3058
  C  C468  1  0.300600  0.890100  0.539700  1.0  0.2811
  C  C469  1  0.235500  0.870300  0.538000  1.0  -0.2026
  C  C470  1  0.318500  0.946600  0.554700  1.0  -0.2159
  C  C471  1  0.182700  0.905400  0.552500  1.0  -0.061
  C  C472  1  0.268300  0.980300  0.569000  1.0  -0.0249
  C  C473  1  0.200600  0.960900  0.567800  1.0  -0.1568
  C  C474  1  0.145400  0.998300  0.584600  1.0  0.7349
  C  C475  1  0.344100  0.238400  0.917310  1.0  0.6877
  C  C476  1  0.346700  0.269400  0.947200  1.0  -0.14
  C  C477  1  0.381500  0.239000  0.969500  1.0  -0.0386
  C  C478  1  0.313300  0.329700  0.951600  1.0  -0.0352
  C  C479  1  0.384000  0.267900  0.996400  1.0  -0.2171
  C  C480  1  0.313700  0.357300  0.978900  1.0  -0.2219
  C  C481  1  0.348100  0.327100  0.000800  1.0  0.3058
  C  C482  1  0.300600  0.390100  0.039700  1.0  0.2811
  C  C483  1  0.235500  0.370300  0.038000  1.0  -0.2026
  C  C484  1  0.318500  0.446600  0.054700  1.0  -0.2159
  C  C485  1  0.182700  0.405400  0.052500  1.0  -0.061
  C  C486  1  0.268300  0.480300  0.069000  1.0  -0.0249
  C  C487  1  0.200600  0.460900  0.067800  1.0  -0.1568
  C  C488  1  0.145400  0.498300  0.084600  1.0  0.7349
  C  C489  1  0.155900  0.261600  0.917310  1.0  0.6889
  C  C490  1  0.153300  0.230600  0.947200  1.0  -0.1405
  C  C491  1  0.118500  0.261000  0.969500  1.0  -0.0406
  C  C492  1  0.186700  0.170300  0.951600  1.0  -0.0385
  C  C493  1  0.116000  0.232100  0.996400  1.0  -0.217
  C  C494  1  0.186300  0.142700  0.978900  1.0  -0.2216
  C  C495  1  0.151900  0.172900  0.000800  1.0  0.3064
  C  C496  1  0.199400  0.109900  0.039700  1.0  0.2812
  C  C497  1  0.264500  0.129700  0.038000  1.0  -0.2047
  C  C498  1  0.181500  0.053400  0.054700  1.0  -0.2177
  C  C499  1  0.317300  0.094600  0.052500  1.0  -0.0622
  C  C500  1  0.231700  0.019700  0.069000  1.0  -0.0243
  C  C501  1  0.299400  0.039100  0.067800  1.0  -0.1568
  C  C502  1  0.354600  0.001700  0.084600  1.0  0.7347
  C  C503  1  0.155900  0.761600  0.417310  1.0  0.6889
  C  C504  1  0.153300  0.730600  0.447200  1.0  -0.1405
  C  C505  1  0.118500  0.761000  0.469500  1.0  -0.0406
  C  C506  1  0.186700  0.670300  0.451600  1.0  -0.0385
  C  C507  1  0.116000  0.732100  0.496400  1.0  -0.217
  C  C508  1  0.186300  0.642700  0.478900  1.0  -0.2216
  C  C509  1  0.151900  0.672900  0.500800  1.0  0.3064
  C  C510  1  0.199400  0.609900  0.539700  1.0  0.2812
  C  C511  1  0.264500  0.629700  0.538000  1.0  -0.2047
  C  C512  1  0.181500  0.553400  0.554700  1.0  -0.2177
  C  C513  1  0.317300  0.594600  0.552500  1.0  -0.0622
  C  C514  1  0.231700  0.519700  0.569000  1.0  -0.0243
  C  C515  1  0.299400  0.539100  0.567800  1.0  -0.1568
  C  C516  1  0.354600  0.501700  0.584600  1.0  0.7347
  C  C517  1  0.655900  0.261600  0.417310  1.0  0.6889
  C  C518  1  0.653300  0.230600  0.447200  1.0  -0.1405
  C  C519  1  0.618500  0.261000  0.469500  1.0  -0.0406
  C  C520  1  0.686700  0.170300  0.451600  1.0  -0.0385
  C  C521  1  0.616000  0.232100  0.496400  1.0  -0.217
  C  C522  1  0.686300  0.142700  0.478900  1.0  -0.2216
  C  C523  1  0.651900  0.172900  0.500800  1.0  0.3064
  C  C524  1  0.699400  0.109900  0.539700  1.0  0.2812
  C  C525  1  0.764500  0.129700  0.538000  1.0  -0.2047
  C  C526  1  0.681500  0.053400  0.554700  1.0  -0.2177
  C  C527  1  0.817300  0.094600  0.552500  1.0  -0.0622
  C  C528  1  0.731700  0.019700  0.569000  1.0  -0.0243
  C  C529  1  0.799400  0.039100  0.567800  1.0  -0.1568
  C  C530  1  0.854600  0.001700  0.584600  1.0  0.7347
  C  C531  1  0.655900  0.761600  0.917310  1.0  0.6889
  C  C532  1  0.653300  0.730600  0.947200  1.0  -0.1405
  C  C533  1  0.618500  0.761000  0.969500  1.0  -0.0406
  C  C534  1  0.686700  0.670300  0.951600  1.0  -0.0385
  C  C535  1  0.616000  0.732100  0.996400  1.0  -0.217
  C  C536  1  0.686300  0.642700  0.978900  1.0  -0.2216
  C  C537  1  0.651900  0.672900  0.000800  1.0  0.3064
  C  C538  1  0.699400  0.609900  0.039700  1.0  0.2812
  C  C539  1  0.764500  0.629700  0.038000  1.0  -0.2047
  C  C540  1  0.681500  0.553400  0.054700  1.0  -0.2177
  C  C541  1  0.817300  0.594600  0.052500  1.0  -0.0622
  C  C542  1  0.731700  0.519700  0.069000  1.0  -0.0243
  C  C543  1  0.799400  0.539100  0.067800  1.0  -0.1568
  C  C544  1  0.854600  0.501700  0.084600  1.0  0.7347
  C  C545  1  0.094100  0.511600  0.167310  1.0  0.6877
  C  C546  1  0.096700  0.480600  0.197200  1.0  -0.1395
  C  C547  1  0.131500  0.511000  0.219500  1.0  -0.0383
  C  C548  1  0.063300  0.420300  0.201600  1.0  -0.0367
  C  C549  1  0.134000  0.482100  0.246400  1.0  -0.2173
  C  C550  1  0.063700  0.392700  0.228900  1.0  -0.2204
  C  C551  1  0.098100  0.422900  0.250800  1.0  0.3062
  C  C552  1  0.050600  0.359900  0.289700  1.0  0.2809
  C  C553  1  0.985500  0.379700  0.288000  1.0  -0.2036
  C  C554  1  0.068500  0.303400  0.304700  1.0  -0.216
  C  C555  1  0.932700  0.344600  0.302500  1.0  -0.0614
  C  C556  1  0.018300  0.269700  0.319000  1.0  -0.0246
  C  C557  1  0.950600  0.289100  0.317800  1.0  -0.1559
  C  C558  1  0.895400  0.251700  0.334600  1.0  0.7345
  C  C559  1  0.094100  0.011600  0.667310  1.0  0.6877
  C  C560  1  0.096700  0.980600  0.697200  1.0  -0.1395
  C  C561  1  0.131500  0.011000  0.719500  1.0  -0.0383
  C  C562  1  0.063300  0.920300  0.701600  1.0  -0.0367
  C  C563  1  0.134000  0.982100  0.746400  1.0  -0.2173
  C  C564  1  0.063700  0.892700  0.728900  1.0  -0.2204
  C  C565  1  0.098100  0.922900  0.750800  1.0  0.3062
  C  C566  1  0.050600  0.859900  0.789700  1.0  0.2809
  C  C567  1  0.985500  0.879700  0.788000  1.0  -0.2036
  C  C568  1  0.068500  0.803400  0.804700  1.0  -0.216
  C  C569  1  0.932700  0.844600  0.802500  1.0  -0.0614
  C  C570  1  0.018300  0.769700  0.819000  1.0  -0.0246
  C  C571  1  0.950600  0.789100  0.817800  1.0  -0.1559
  C  C572  1  0.895400  0.751700  0.834600  1.0  0.7345
  C  C573  1  0.594100  0.511600  0.667310  1.0  0.6877
  C  C574  1  0.596700  0.480600  0.697200  1.0  -0.1395
  C  C575  1  0.631500  0.511000  0.719500  1.0  -0.0383
  C  C576  1  0.563300  0.420300  0.701600  1.0  -0.0367
  C  C577  1  0.634000  0.482100  0.746400  1.0  -0.2173
  C  C578  1  0.563700  0.392700  0.728900  1.0  -0.2204
  C  C579  1  0.598100  0.422900  0.750800  1.0  0.3062
  C  C580  1  0.550600  0.359900  0.789700  1.0  0.2809
  C  C581  1  0.485500  0.379700  0.788000  1.0  -0.2036
  C  C582  1  0.568500  0.303400  0.804700  1.0  -0.216
  C  C583  1  0.432700  0.344600  0.802500  1.0  -0.0614
  C  C584  1  0.518300  0.269700  0.819000  1.0  -0.0246
  C  C585  1  0.450600  0.289100  0.817800  1.0  -0.1559
  C  C586  1  0.395400  0.251700  0.834600  1.0  0.7345
  C  C587  1  0.594100  0.011600  0.167310  1.0  0.6877
  C  C588  1  0.596700  0.980600  0.197200  1.0  -0.1395
  C  C589  1  0.631500  0.011000  0.219500  1.0  -0.0383
  C  C590  1  0.563300  0.920300  0.201600  1.0  -0.0367
  C  C591  1  0.634000  0.982100  0.246400  1.0  -0.2173
  C  C592  1  0.563700  0.892700  0.228900  1.0  -0.2204
  C  C593  1  0.598100  0.922900  0.250800  1.0  0.3062
  C  C594  1  0.550600  0.859900  0.289700  1.0  0.2809
  C  C595  1  0.485500  0.879700  0.288000  1.0  -0.2036
  C  C596  1  0.568500  0.803400  0.304700  1.0  -0.216
  C  C597  1  0.432700  0.844600  0.302500  1.0  -0.0614
  C  C598  1  0.518300  0.769700  0.319000  1.0  -0.0246
  C  C599  1  0.450600  0.789100  0.317800  1.0  -0.1559
  C  C600  1  0.395400  0.751700  0.334600  1.0  0.7345
  C  C601  1  0.405900  0.988400  0.167310  1.0  0.6884
  C  C602  1  0.403300  0.019400  0.197200  1.0  -0.1417
  C  C603  1  0.368500  0.989000  0.219500  1.0  -0.0385
  C  C604  1  0.436700  0.079700  0.201600  1.0  -0.0371
  C  C605  1  0.366000  0.017900  0.246400  1.0  -0.2177
  C  C606  1  0.436300  0.107300  0.228900  1.0  -0.2225
  C  C607  1  0.401900  0.077100  0.250800  1.0  0.3063
  C  C608  1  0.449400  0.140100  0.289700  1.0  0.2809
  C  C609  1  0.514500  0.120300  0.288000  1.0  -0.2032
  C  C610  1  0.431500  0.196600  0.304700  1.0  -0.2177
  C  C611  1  0.567300  0.155400  0.302500  1.0  -0.0618
  C  C612  1  0.481700  0.230300  0.319000  1.0  -0.0255
  C  C613  1  0.549400  0.210900  0.317800  1.0  -0.1571
  C  C614  1  0.604600  0.248300  0.334600  1.0  0.7352
  C  C615  1  0.405900  0.488400  0.667310  1.0  0.6884
  C  C616  1  0.403300  0.519400  0.697200  1.0  -0.1417
  C  C617  1  0.368500  0.489000  0.719500  1.0  -0.0385
  C  C618  1  0.436700  0.579700  0.701600  1.0  -0.0371
  C  C619  1  0.366000  0.517900  0.746400  1.0  -0.2177
  C  C620  1  0.436300  0.607300  0.728900  1.0  -0.2225
  C  C621  1  0.401900  0.577100  0.750800  1.0  0.3063
  C  C622  1  0.449400  0.640100  0.789700  1.0  0.2809
  C  C623  1  0.514500  0.620300  0.788000  1.0  -0.2032
  C  C624  1  0.431500  0.696600  0.804700  1.0  -0.2177
  C  C625  1  0.567300  0.655400  0.802500  1.0  -0.0618
  C  C626  1  0.481700  0.730300  0.819000  1.0  -0.0255
  C  C627  1  0.549400  0.710900  0.817800  1.0  -0.1571
  C  C628  1  0.604600  0.748300  0.834600  1.0  0.7352
  C  C629  1  0.905900  0.988400  0.667310  1.0  0.6884
  C  C630  1  0.903300  0.019400  0.697200  1.0  -0.1417
  C  C631  1  0.868500  0.989000  0.719500  1.0  -0.0385
  C  C632  1  0.936700  0.079700  0.701600  1.0  -0.0371
  C  C633  1  0.866000  0.017900  0.746400  1.0  -0.2177
  C  C634  1  0.936300  0.107300  0.728900  1.0  -0.2225
  C  C635  1  0.901900  0.077100  0.750800  1.0  0.3063
  C  C636  1  0.949400  0.140100  0.789700  1.0  0.2809
  C  C637  1  0.014500  0.120300  0.788000  1.0  -0.2032
  C  C638  1  0.931500  0.196600  0.804700  1.0  -0.2177
  C  C639  1  0.067300  0.155400  0.802500  1.0  -0.0618
  C  C640  1  0.981700  0.230300  0.819000  1.0  -0.0255
  C  C641  1  0.049400  0.210900  0.817800  1.0  -0.1571
  C  C642  1  0.104600  0.248300  0.834600  1.0  0.7352
  C  C643  1  0.905900  0.488400  0.167310  1.0  0.6884
  C  C644  1  0.903300  0.519400  0.197200  1.0  -0.1417
  C  C645  1  0.868500  0.489000  0.219500  1.0  -0.0385
  C  C646  1  0.936700  0.579700  0.201600  1.0  -0.0371
  C  C647  1  0.866000  0.517900  0.246400  1.0  -0.2177
  C  C648  1  0.936300  0.607300  0.228900  1.0  -0.2225
  C  C649  1  0.901900  0.577100  0.250800  1.0  0.3063
  C  C650  1  0.949400  0.640100  0.289700  1.0  0.2809
  C  C651  1  0.014500  0.620300  0.288000  1.0  -0.2032
  C  C652  1  0.931500  0.696600  0.304700  1.0  -0.2177
  C  C653  1  0.067300  0.655400  0.302500  1.0  -0.0618
  C  C654  1  0.981700  0.730300  0.319000  1.0  -0.0255
  C  C655  1  0.049400  0.710900  0.317800  1.0  -0.1571
  C  C656  1  0.104600  0.748300  0.334600  1.0  0.7352
  C  C657  1  0.405900  0.511600  0.332690  1.0  0.6882
  C  C658  1  0.403300  0.480600  0.302800  1.0  -0.1399
  C  C659  1  0.368500  0.511000  0.280500  1.0  -0.041
  C  C660  1  0.436700  0.420300  0.298400  1.0  -0.0388
  C  C661  1  0.366000  0.482100  0.253600  1.0  -0.2158
  C  C662  1  0.436300  0.392700  0.271100  1.0  -0.2212
  C  C663  1  0.401900  0.422900  0.249200  1.0  0.3056
  C  C664  1  0.449400  0.359900  0.210300  1.0  0.2821
  C  C665  1  0.514500  0.379700  0.212000  1.0  -0.2048
  C  C666  1  0.431500  0.303400  0.195300  1.0  -0.2173
  C  C667  1  0.567300  0.344600  0.197500  1.0  -0.0619
  C  C668  1  0.481700  0.269700  0.181000  1.0  -0.0232
  C  C669  1  0.549400  0.289100  0.182200  1.0  -0.1568
  C  C670  1  0.604600  0.251700  0.165400  1.0  0.7341
  C  C671  1  0.405900  0.011600  0.832690  1.0  0.6882
  C  C672  1  0.403300  0.980600  0.802800  1.0  -0.1399
  C  C673  1  0.368500  0.011000  0.780500  1.0  -0.041
  C  C674  1  0.436700  0.920300  0.798400  1.0  -0.0388
  C  C675  1  0.366000  0.982100  0.753600  1.0  -0.2158
  C  C676  1  0.436300  0.892700  0.771100  1.0  -0.2212
  C  C677  1  0.401900  0.922900  0.749200  1.0  0.3056
  C  C678  1  0.449400  0.859900  0.710300  1.0  0.2821
  C  C679  1  0.514500  0.879700  0.712000  1.0  -0.2048
  C  C680  1  0.431500  0.803400  0.695300  1.0  -0.2173
  C  C681  1  0.567300  0.844600  0.697500  1.0  -0.0619
  C  C682  1  0.481700  0.769700  0.681000  1.0  -0.0232
  C  C683  1  0.549400  0.789100  0.682200  1.0  -0.1568
  C  C684  1  0.604600  0.751700  0.665400  1.0  0.7341
  C  C685  1  0.905900  0.511600  0.832690  1.0  0.6882
  C  C686  1  0.903300  0.480600  0.802800  1.0  -0.1399
  C  C687  1  0.868500  0.511000  0.780500  1.0  -0.041
  C  C688  1  0.936700  0.420300  0.798400  1.0  -0.0388
  C  C689  1  0.866000  0.482100  0.753600  1.0  -0.2158
  C  C690  1  0.936300  0.392700  0.771100  1.0  -0.2212
  C  C691  1  0.901900  0.422900  0.749200  1.0  0.3056
  C  C692  1  0.949400  0.359900  0.710300  1.0  0.2821
  C  C693  1  0.014500  0.379700  0.712000  1.0  -0.2048
  C  C694  1  0.931500  0.303400  0.695300  1.0  -0.2173
  C  C695  1  0.067300  0.344600  0.697500  1.0  -0.0619
  C  C696  1  0.981700  0.269700  0.681000  1.0  -0.0232
  C  C697  1  0.049400  0.289100  0.682200  1.0  -0.1568
  C  C698  1  0.104600  0.251700  0.665400  1.0  0.7341
  C  C699  1  0.905900  0.011600  0.332690  1.0  0.6882
  C  C700  1  0.903300  0.980600  0.302800  1.0  -0.1399
  C  C701  1  0.868500  0.011000  0.280500  1.0  -0.041
  C  C702  1  0.936700  0.920300  0.298400  1.0  -0.0388
  C  C703  1  0.866000  0.982100  0.253600  1.0  -0.2158
  C  C704  1  0.936300  0.892700  0.271100  1.0  -0.2212
  C  C705  1  0.901900  0.922900  0.249200  1.0  0.3056
  C  C706  1  0.949400  0.859900  0.210300  1.0  0.2821
  C  C707  1  0.014500  0.879700  0.212000  1.0  -0.2048
  C  C708  1  0.931500  0.803400  0.195300  1.0  -0.2173
  C  C709  1  0.067300  0.844600  0.197500  1.0  -0.0619
  C  C710  1  0.981700  0.769700  0.181000  1.0  -0.0232
  C  C711  1  0.049400  0.789100  0.182200  1.0  -0.1568
  C  C712  1  0.104600  0.751700  0.165400  1.0  0.7341
  C  C713  1  0.094100  0.988400  0.332690  1.0  0.688
  C  C714  1  0.096700  0.019400  0.302800  1.0  -0.1418
  C  C715  1  0.131500  0.989000  0.280500  1.0  -0.0387
  C  C716  1  0.063300  0.079700  0.298400  1.0  -0.0359
  C  C717  1  0.134000  0.017900  0.253600  1.0  -0.2163
  C  C718  1  0.063700  0.107300  0.271100  1.0  -0.2216
  C  C719  1  0.098100  0.077100  0.249200  1.0  0.3059
  C  C720  1  0.050600  0.140100  0.210300  1.0  0.2812
  C  C721  1  0.985500  0.120300  0.212000  1.0  -0.2016
  C  C722  1  0.068500  0.196600  0.195300  1.0  -0.2157
  C  C723  1  0.932700  0.155400  0.197500  1.0  -0.061
  C  C724  1  0.018300  0.230300  0.181000  1.0  -0.0248
  C  C725  1  0.950600  0.210900  0.182200  1.0  -0.1569
  C  C726  1  0.895400  0.248300  0.165400  1.0  0.7346
  C  C727  1  0.094100  0.488400  0.832690  1.0  0.688
  C  C728  1  0.096700  0.519400  0.802800  1.0  -0.1418
  C  C729  1  0.131500  0.489000  0.780500  1.0  -0.0387
  C  C730  1  0.063300  0.579700  0.798400  1.0  -0.0359
  C  C731  1  0.134000  0.517900  0.753600  1.0  -0.2163
  C  C732  1  0.063700  0.607300  0.771100  1.0  -0.2216
  C  C733  1  0.098100  0.577100  0.749200  1.0  0.3059
  C  C734  1  0.050600  0.640100  0.710300  1.0  0.2812
  C  C735  1  0.985500  0.620300  0.712000  1.0  -0.2016
  C  C736  1  0.068500  0.696600  0.695300  1.0  -0.2157
  C  C737  1  0.932700  0.655400  0.697500  1.0  -0.061
  C  C738  1  0.018300  0.730300  0.681000  1.0  -0.0248
  C  C739  1  0.950600  0.710900  0.682200  1.0  -0.1569
  C  C740  1  0.895400  0.748300  0.665400  1.0  0.7346
  C  C741  1  0.594100  0.988400  0.832690  1.0  0.688
  C  C742  1  0.596700  0.019400  0.802800  1.0  -0.1418
  C  C743  1  0.631500  0.989000  0.780500  1.0  -0.0387
  C  C744  1  0.563300  0.079700  0.798400  1.0  -0.0359
  C  C745  1  0.634000  0.017900  0.753600  1.0  -0.2163
  C  C746  1  0.563700  0.107300  0.771100  1.0  -0.2216
  C  C747  1  0.598100  0.077100  0.749200  1.0  0.3059
  C  C748  1  0.550600  0.140100  0.710300  1.0  0.2812
  C  C749  1  0.485500  0.120300  0.712000  1.0  -0.2016
  C  C750  1  0.568500  0.196600  0.695300  1.0  -0.2157
  C  C751  1  0.432700  0.155400  0.697500  1.0  -0.061
  C  C752  1  0.518300  0.230300  0.681000  1.0  -0.0248
  C  C753  1  0.450600  0.210900  0.682200  1.0  -0.1569
  C  C754  1  0.395400  0.248300  0.665400  1.0  0.7346
  C  C755  1  0.594100  0.488400  0.332690  1.0  0.688
  C  C756  1  0.596700  0.519400  0.302800  1.0  -0.1418
  C  C757  1  0.631500  0.489000  0.280500  1.0  -0.0387
  C  C758  1  0.563300  0.579700  0.298400  1.0  -0.0359
  C  C759  1  0.634000  0.517900  0.253600  1.0  -0.2163
  C  C760  1  0.563700  0.607300  0.271100  1.0  -0.2216
  C  C761  1  0.598100  0.577100  0.249200  1.0  0.3059
  C  C762  1  0.550600  0.640100  0.210300  1.0  0.2812
  C  C763  1  0.485500  0.620300  0.212000  1.0  -0.2016
  C  C764  1  0.568500  0.696600  0.195300  1.0  -0.2157
  C  C765  1  0.432700  0.655400  0.197500  1.0  -0.061
  C  C766  1  0.518300  0.730300  0.181000  1.0  -0.0248
  C  C767  1  0.450600  0.710900  0.182200  1.0  -0.1569
  C  C768  1  0.395400  0.748300  0.165400  1.0  0.7346
  O  O769  1  0.133600  0.680700  0.085340  1.0  -0.6109
  O  O770  1  0.179300  0.772400  0.103180  1.0  -0.6298
  O  O771  1  0.144600  0.854600  0.972100  1.0  -0.2863
  O  O772  1  0.416400  0.980400  0.918500  1.0  -0.6041
  O  O773  1  0.333200  0.043100  0.899310  1.0  -0.6175
  O  O774  1  0.224800  0.650600  0.138010  1.0  -0.6369
  O  O775  1  0.133600  0.180700  0.585340  1.0  -0.6109
  O  O776  1  0.179300  0.272400  0.603180  1.0  -0.6298
  O  O777  1  0.144600  0.354600  0.472100  1.0  -0.2863
  O  O778  1  0.416400  0.480400  0.418500  1.0  -0.6041
  O  O779  1  0.333200  0.543100  0.399310  1.0  -0.6175
  O  O780  1  0.224800  0.150600  0.638010  1.0  -0.6369
  O  O781  1  0.633600  0.680700  0.585340  1.0  -0.6109
  O  O782  1  0.679300  0.772400  0.603180  1.0  -0.6298
  O  O783  1  0.644600  0.854600  0.472100  1.0  -0.2863
  O  O784  1  0.916400  0.980400  0.418500  1.0  -0.6041
  O  O785  1  0.833200  0.043100  0.399310  1.0  -0.6175
  O  O786  1  0.724800  0.650600  0.638010  1.0  -0.6369
  O  O787  1  0.633600  0.180700  0.085340  1.0  -0.6109
  O  O788  1  0.679300  0.272400  0.103180  1.0  -0.6298
  O  O789  1  0.644600  0.354600  0.972100  1.0  -0.2863
  O  O790  1  0.916400  0.480400  0.918500  1.0  -0.6041
  O  O791  1  0.833200  0.543100  0.899310  1.0  -0.6175
  O  O792  1  0.724800  0.150600  0.138010  1.0  -0.6369
  O  O793  1  0.866400  0.319300  0.085340  1.0  -0.6103
  O  O794  1  0.820700  0.227600  0.103180  1.0  -0.6286
  O  O795  1  0.855400  0.145400  0.972100  1.0  -0.2845
  O  O796  1  0.583600  0.019600  0.918500  1.0  -0.6054
  O  O797  1  0.666800  0.956900  0.899310  1.0  -0.6162
  O  O798  1  0.775200  0.349400  0.138010  1.0  -0.6393
  O  O799  1  0.866400  0.819300  0.585340  1.0  -0.6103
  O  O800  1  0.820700  0.727600  0.603180  1.0  -0.6286
  O  O801  1  0.855400  0.645400  0.472100  1.0  -0.2845
  O  O802  1  0.583600  0.519600  0.418500  1.0  -0.6054
  O  O803  1  0.666800  0.456900  0.399310  1.0  -0.6162
  O  O804  1  0.775200  0.849400  0.638010  1.0  -0.6393
  O  O805  1  0.366400  0.319300  0.585340  1.0  -0.6103
  O  O806  1  0.320700  0.227600  0.603180  1.0  -0.6286
  O  O807  1  0.355400  0.145400  0.472100  1.0  -0.2845
  O  O808  1  0.083600  0.019600  0.418500  1.0  -0.6054
  O  O809  1  0.166800  0.956900  0.399310  1.0  -0.6162
  O  O810  1  0.275200  0.349400  0.638010  1.0  -0.6393
  O  O811  1  0.366400  0.819300  0.085340  1.0  -0.6103
  O  O812  1  0.320700  0.727600  0.103180  1.0  -0.6286
  O  O813  1  0.355400  0.645400  0.972100  1.0  -0.2845
  O  O814  1  0.083600  0.519600  0.918500  1.0  -0.6054
  O  O815  1  0.166800  0.456900  0.899310  1.0  -0.6162
  O  O816  1  0.275200  0.849400  0.138010  1.0  -0.6393
  O  O817  1  0.866400  0.680700  0.914660  1.0  -0.6111
  O  O818  1  0.820700  0.772400  0.896820  1.0  -0.6291
  O  O819  1  0.855400  0.854600  0.027900  1.0  -0.2863
  O  O820  1  0.583600  0.980400  0.081500  1.0  -0.6054
  O  O821  1  0.666800  0.043100  0.100690  1.0  -0.6174
  O  O822  1  0.775200  0.650600  0.861990  1.0  -0.6398
  O  O823  1  0.866400  0.180700  0.414660  1.0  -0.6111
  O  O824  1  0.820700  0.272400  0.396820  1.0  -0.6291
  O  O825  1  0.855400  0.354600  0.527900  1.0  -0.2863
  O  O826  1  0.583600  0.480400  0.581500  1.0  -0.6054
  O  O827  1  0.666800  0.543100  0.600690  1.0  -0.6174
  O  O828  1  0.775200  0.150600  0.361990  1.0  -0.6398
  O  O829  1  0.366400  0.680700  0.414660  1.0  -0.6111
  O  O830  1  0.320700  0.772400  0.396820  1.0  -0.6291
  O  O831  1  0.355400  0.854600  0.527900  1.0  -0.2863
  O  O832  1  0.083600  0.980400  0.581500  1.0  -0.6054
  O  O833  1  0.166800  0.043100  0.600690  1.0  -0.6174
  O  O834  1  0.275200  0.650600  0.361990  1.0  -0.6398
  O  O835  1  0.366400  0.180700  0.914660  1.0  -0.6111
  O  O836  1  0.320700  0.272400  0.896820  1.0  -0.6291
  O  O837  1  0.355400  0.354600  0.027900  1.0  -0.2863
  O  O838  1  0.083600  0.480400  0.081500  1.0  -0.6054
  O  O839  1  0.166800  0.543100  0.100690  1.0  -0.6174
  O  O840  1  0.275200  0.150600  0.861990  1.0  -0.6398
  O  O841  1  0.133600  0.319300  0.914660  1.0  -0.6116
  O  O842  1  0.179300  0.227600  0.896820  1.0  -0.6307
  O  O843  1  0.144600  0.145400  0.027900  1.0  -0.2849
  O  O844  1  0.416400  0.019600  0.081500  1.0  -0.6045
  O  O845  1  0.333200  0.956900  0.100690  1.0  -0.6173
  O  O846  1  0.224800  0.349400  0.861990  1.0  -0.6364
  O  O847  1  0.133600  0.819300  0.414660  1.0  -0.6116
  O  O848  1  0.179300  0.727600  0.396820  1.0  -0.6307
  O  O849  1  0.144600  0.645400  0.527900  1.0  -0.2849
  O  O850  1  0.416400  0.519600  0.581500  1.0  -0.6045
  O  O851  1  0.333200  0.456900  0.600690  1.0  -0.6173
  O  O852  1  0.224800  0.849400  0.361990  1.0  -0.6364
  O  O853  1  0.633600  0.319300  0.414660  1.0  -0.6116
  O  O854  1  0.679300  0.227600  0.396820  1.0  -0.6307
  O  O855  1  0.644600  0.145400  0.527900  1.0  -0.2849
  O  O856  1  0.916400  0.019600  0.581500  1.0  -0.6045
  O  O857  1  0.833200  0.956900  0.600690  1.0  -0.6173
  O  O858  1  0.724800  0.349400  0.361990  1.0  -0.6364
  O  O859  1  0.633600  0.819300  0.914660  1.0  -0.6116
  O  O860  1  0.679300  0.727600  0.896820  1.0  -0.6307
  O  O861  1  0.644600  0.645400  0.027900  1.0  -0.2849
  O  O862  1  0.916400  0.519600  0.081500  1.0  -0.6045
  O  O863  1  0.833200  0.456900  0.100690  1.0  -0.6173
  O  O864  1  0.724800  0.849400  0.861990  1.0  -0.6364
  O  O865  1  0.116400  0.569300  0.164660  1.0  -0.61
  O  O866  1  0.070700  0.477600  0.146820  1.0  -0.6299
  O  O867  1  0.105400  0.395400  0.277900  1.0  -0.286
  O  O868  1  0.833600  0.269600  0.331500  1.0  -0.6047
  O  O869  1  0.916800  0.206900  0.350690  1.0  -0.6171
  O  O870  1  0.025200  0.599400  0.111990  1.0  -0.6389
  O  O871  1  0.116400  0.069300  0.664660  1.0  -0.61
  O  O872  1  0.070700  0.977600  0.646820  1.0  -0.6299
  O  O873  1  0.105400  0.895400  0.777900  1.0  -0.286
  O  O874  1  0.833600  0.769600  0.831500  1.0  -0.6047
  O  O875  1  0.916800  0.706900  0.850690  1.0  -0.6171
  O  O876  1  0.025200  0.099400  0.611990  1.0  -0.6389
  O  O877  1  0.616400  0.569300  0.664660  1.0  -0.61
  O  O878  1  0.570700  0.477600  0.646820  1.0  -0.6299
  O  O879  1  0.605400  0.395400  0.777900  1.0  -0.286
  O  O880  1  0.333600  0.269600  0.831500  1.0  -0.6047
  O  O881  1  0.416800  0.206900  0.850690  1.0  -0.6171
  O  O882  1  0.525200  0.599400  0.611990  1.0  -0.6389
  O  O883  1  0.616400  0.069300  0.164660  1.0  -0.61
  O  O884  1  0.570700  0.977600  0.146820  1.0  -0.6299
  O  O885  1  0.605400  0.895400  0.277900  1.0  -0.286
  O  O886  1  0.333600  0.769600  0.331500  1.0  -0.6047
  O  O887  1  0.416800  0.706900  0.350690  1.0  -0.6171
  O  O888  1  0.525200  0.099400  0.111990  1.0  -0.6389
  O  O889  1  0.383600  0.930700  0.164660  1.0  -0.6103
  O  O890  1  0.429300  0.022400  0.146820  1.0  -0.6304
  O  O891  1  0.394600  0.104600  0.277900  1.0  -0.2853
  O  O892  1  0.666400  0.230400  0.331500  1.0  -0.6047
  O  O893  1  0.583200  0.293100  0.350690  1.0  -0.6175
  O  O894  1  0.474800  0.900600  0.111990  1.0  -0.6371
  O  O895  1  0.383600  0.430700  0.664660  1.0  -0.6103
  O  O896  1  0.429300  0.522400  0.646820  1.0  -0.6304
  O  O897  1  0.394600  0.604600  0.777900  1.0  -0.2853
  O  O898  1  0.666400  0.730400  0.831500  1.0  -0.6047
  O  O899  1  0.583200  0.793100  0.850690  1.0  -0.6175
  O  O900  1  0.474800  0.400600  0.611990  1.0  -0.6371
  O  O901  1  0.883600  0.930700  0.664660  1.0  -0.6103
  O  O902  1  0.929300  0.022400  0.646820  1.0  -0.6304
  O  O903  1  0.894600  0.104600  0.777900  1.0  -0.2853
  O  O904  1  0.166400  0.230400  0.831500  1.0  -0.6047
  O  O905  1  0.083200  0.293100  0.850690  1.0  -0.6175
  O  O906  1  0.974800  0.900600  0.611990  1.0  -0.6371
  O  O907  1  0.883600  0.430700  0.164660  1.0  -0.6103
  O  O908  1  0.929300  0.522400  0.146820  1.0  -0.6304
  O  O909  1  0.894600  0.604600  0.277900  1.0  -0.2853
  O  O910  1  0.166400  0.730400  0.331500  1.0  -0.6047
  O  O911  1  0.083200  0.793100  0.350690  1.0  -0.6175
  O  O912  1  0.974800  0.400600  0.111990  1.0  -0.6371
  O  O913  1  0.383600  0.569300  0.335340  1.0  -0.612
  O  O914  1  0.429300  0.477600  0.353180  1.0  -0.6297
  O  O915  1  0.394600  0.395400  0.222100  1.0  -0.2859
  O  O916  1  0.666400  0.269600  0.168500  1.0  -0.6045
  O  O917  1  0.583200  0.206900  0.149310  1.0  -0.6166
  O  O918  1  0.474800  0.599400  0.388010  1.0  -0.6367
  O  O919  1  0.383600  0.069300  0.835340  1.0  -0.612
  O  O920  1  0.429300  0.977600  0.853180  1.0  -0.6297
  O  O921  1  0.394600  0.895400  0.722100  1.0  -0.2859
  O  O922  1  0.666400  0.769600  0.668500  1.0  -0.6045
  O  O923  1  0.583200  0.706900  0.649310  1.0  -0.6166
  O  O924  1  0.474800  0.099400  0.888010  1.0  -0.6367
  O  O925  1  0.883600  0.569300  0.835340  1.0  -0.612
  O  O926  1  0.929300  0.477600  0.853180  1.0  -0.6297
  O  O927  1  0.894600  0.395400  0.722100  1.0  -0.2859
  O  O928  1  0.166400  0.269600  0.668500  1.0  -0.6045
  O  O929  1  0.083200  0.206900  0.649310  1.0  -0.6166
  O  O930  1  0.974800  0.599400  0.888010  1.0  -0.6367
  O  O931  1  0.883600  0.069300  0.335340  1.0  -0.612
  O  O932  1  0.929300  0.977600  0.353180  1.0  -0.6297
  O  O933  1  0.894600  0.895400  0.222100  1.0  -0.2859
  O  O934  1  0.166400  0.769600  0.168500  1.0  -0.6045
  O  O935  1  0.083200  0.706900  0.149310  1.0  -0.6166
  O  O936  1  0.974800  0.099400  0.388010  1.0  -0.6367
  O  O937  1  0.116400  0.930700  0.335340  1.0  -0.6117
  O  O938  1  0.070700  0.022400  0.353180  1.0  -0.6285
  O  O939  1  0.105400  0.104600  0.222100  1.0  -0.2849
  O  O940  1  0.833600  0.230400  0.168500  1.0  -0.6049
  O  O941  1  0.916800  0.293100  0.149310  1.0  -0.617
  O  O942  1  0.025200  0.900600  0.388010  1.0  -0.6393
  O  O943  1  0.116400  0.430700  0.835340  1.0  -0.6117
  O  O944  1  0.070700  0.522400  0.853180  1.0  -0.6285
  O  O945  1  0.105400  0.604600  0.722100  1.0  -0.2849
  O  O946  1  0.833600  0.730400  0.668500  1.0  -0.6049
  O  O947  1  0.916800  0.793100  0.649310  1.0  -0.617
  O  O948  1  0.025200  0.400600  0.888010  1.0  -0.6393
  O  O949  1  0.616400  0.930700  0.835340  1.0  -0.6117
  O  O950  1  0.570700  0.022400  0.853180  1.0  -0.6285
  O  O951  1  0.605400  0.104600  0.722100  1.0  -0.2849
  O  O952  1  0.333600  0.230400  0.668500  1.0  -0.6049
  O  O953  1  0.416800  0.293100  0.649310  1.0  -0.617
  O  O954  1  0.525200  0.900600  0.888010  1.0  -0.6393
  O  O955  1  0.616400  0.430700  0.335340  1.0  -0.6117
  O  O956  1  0.570700  0.522400  0.353180  1.0  -0.6285
  O  O957  1  0.605400  0.604600  0.222100  1.0  -0.2849
  O  O958  1  0.333600  0.730400  0.168500  1.0  -0.6049
  O  O959  1  0.416800  0.793100  0.149310  1.0  -0.617
  O  O960  1  0.525200  0.400600  0.388010  1.0  -0.6393
