# generated using pymatgen
data_Zn8Co3H60C126(N3O22)2
_symmetry_space_group_name_H-M   'P 1'
_cell_length_a   33.78370000
_cell_length_b   33.78370000
_cell_length_c   33.78370000
_cell_angle_alpha   90.00000000
_cell_angle_beta   90.00000000
_cell_angle_gamma   90.00000000
_symmetry_Int_Tables_number   1
_chemical_formula_structural   Zn8Co3H60C126(N3O22)2
_chemical_formula_sum   'Zn32 Co12 H240 C504 N24 O176'
_cell_volume   38558.63362064
_cell_formula_units_Z   4
loop_
 _symmetry_equiv_pos_site_id
 _symmetry_equiv_pos_as_xyz
  1  'x, y, z'
loop_
 _atom_site_type_symbol
 _atom_site_label
 _atom_site_symmetry_multiplicity
 _atom_site_fract_x
 _atom_site_fract_y
 _atom_site_fract_z
 _atom_site_occupancy
 _atom_site_charge
  Zn  Zn1  1  0.230480  0.273580  0.801820  1.0  1.0622
  Zn  Zn2  1  0.730480  0.773580  0.301820  1.0  1.0622
  Zn  Zn3  1  0.769520  0.726420  0.801820  1.0  1.0626
  Zn  Zn4  1  0.269520  0.226420  0.301820  1.0  1.0626
  Zn  Zn5  1  0.769520  0.273580  0.198180  1.0  1.0611
  Zn  Zn6  1  0.269520  0.773580  0.698180  1.0  1.0611
  Zn  Zn7  1  0.230480  0.726420  0.198180  1.0  1.0611
  Zn  Zn8  1  0.730480  0.226420  0.698180  1.0  1.0611
  Zn  Zn9  1  0.801820  0.230480  0.273580  1.0  1.0593
  Zn  Zn10  1  0.301820  0.730480  0.773580  1.0  1.0593
  Zn  Zn11  1  0.801820  0.769520  0.726420  1.0  1.0589
  Zn  Zn12  1  0.301820  0.269520  0.226420  1.0  1.0589
  Zn  Zn13  1  0.198180  0.769520  0.273580  1.0  1.0598
  Zn  Zn14  1  0.698180  0.269520  0.773580  1.0  1.0598
  Zn  Zn15  1  0.198180  0.230480  0.726420  1.0  1.0602
  Zn  Zn16  1  0.698180  0.730480  0.226420  1.0  1.0602
  Zn  Zn17  1  0.273580  0.801820  0.230480  1.0  1.0597
  Zn  Zn18  1  0.773580  0.301820  0.730480  1.0  1.0597
  Zn  Zn19  1  0.726420  0.801820  0.769520  1.0  1.0597
  Zn  Zn20  1  0.226420  0.301820  0.269520  1.0  1.0597
  Zn  Zn21  1  0.273580  0.198180  0.769520  1.0  1.0597
  Zn  Zn22  1  0.773580  0.698180  0.269520  1.0  1.0597
  Zn  Zn23  1  0.726420  0.198180  0.230480  1.0  1.0599
  Zn  Zn24  1  0.226420  0.698180  0.730480  1.0  1.0599
  Zn  Zn25  1  0.278610  0.278610  0.721390  1.0  1.126
  Zn  Zn26  1  0.778610  0.778610  0.221390  1.0  1.126
  Zn  Zn27  1  0.721390  0.721390  0.721390  1.0  1.1264
  Zn  Zn28  1  0.221390  0.221390  0.221390  1.0  1.1264
  Zn  Zn29  1  0.721390  0.278610  0.278610  1.0  1.1297
  Zn  Zn30  1  0.221390  0.778610  0.778610  1.0  1.1297
  Zn  Zn31  1  0.278610  0.721390  0.278610  1.0  1.1296
  Zn  Zn32  1  0.778610  0.221390  0.778610  1.0  1.1296
  Co  Co33  1  0.500000  0.456440  0.000000  1.0  1.0589
  Co  Co34  1  0.000000  0.956440  0.500000  1.0  1.0589
  Co  Co35  1  0.500000  0.543560  0.000000  1.0  1.056
  Co  Co36  1  0.000000  0.043560  0.500000  1.0  1.056
  Co  Co37  1  0.000000  0.500000  0.456440  1.0  1.0524
  Co  Co38  1  0.500000  0.000000  0.956440  1.0  1.0524
  Co  Co39  1  0.000000  0.500000  0.543560  1.0  1.0533
  Co  Co40  1  0.500000  0.000000  0.043560  1.0  1.0533
  Co  Co41  1  0.456440  0.000000  0.500000  1.0  1.0519
  Co  Co42  1  0.956440  0.500000  0.000000  1.0  1.0519
  Co  Co43  1  0.543560  0.000000  0.500000  1.0  1.0566
  Co  Co44  1  0.043560  0.500000  0.000000  1.0  1.0566
  H  H45  1  0.338000  0.624200  0.819300  1.0  0.1178
  H  H46  1  0.251900  0.574700  0.753900  1.0  0.1132
  H  H47  1  0.277900  0.513900  0.770900  1.0  0.0829
  H  H48  1  0.413800  0.556600  0.905200  1.0  0.1273
  H  H49  1  0.361900  0.436600  0.862500  1.0  0.1035
  H  H50  1  0.250600  0.392600  0.832900  1.0  0.0962
  H  H51  1  0.271500  0.455600  0.850200  1.0  0.1071
  H  H52  1  0.409400  0.438800  0.911000  1.0  0.09
  H  H53  1  0.350700  0.455700  0.769300  1.0  0.1105
  H  H54  1  0.326400  0.392800  0.746000  1.0  0.0972
  H  H55  1  0.838000  0.124200  0.319300  1.0  0.1178
  H  H56  1  0.751900  0.074700  0.253900  1.0  0.1132
  H  H57  1  0.777900  0.013900  0.270900  1.0  0.0829
  H  H58  1  0.913800  0.056600  0.405200  1.0  0.1273
  H  H59  1  0.861900  0.936600  0.362500  1.0  0.1035
  H  H60  1  0.750600  0.892600  0.332900  1.0  0.0962
  H  H61  1  0.771500  0.955600  0.350200  1.0  0.1071
  H  H62  1  0.909400  0.938800  0.411000  1.0  0.09
  H  H63  1  0.850700  0.955700  0.269300  1.0  0.1121
  H  H64  1  0.826400  0.892800  0.246000  1.0  0.0972
  H  H65  1  0.662000  0.375800  0.819300  1.0  0.1177
  H  H66  1  0.748100  0.425300  0.753900  1.0  0.1134
  H  H67  1  0.722100  0.486100  0.770900  1.0  0.084
  H  H68  1  0.586200  0.443400  0.905200  1.0  0.127
  H  H69  1  0.638100  0.563400  0.862500  1.0  0.1039
  H  H70  1  0.749400  0.607400  0.832900  1.0  0.0966
  H  H71  1  0.728500  0.544400  0.850200  1.0  0.1048
  H  H72  1  0.590600  0.561200  0.911000  1.0  0.0905
  H  H73  1  0.649300  0.544300  0.769300  1.0  0.1098
  H  H74  1  0.673600  0.607200  0.746000  1.0  0.0965
  H  H75  1  0.162000  0.875800  0.319300  1.0  0.1177
  H  H76  1  0.248100  0.925300  0.253900  1.0  0.1134
  H  H77  1  0.222100  0.986100  0.270900  1.0  0.084
  H  H78  1  0.086200  0.943400  0.405200  1.0  0.127
  H  H79  1  0.138100  0.063400  0.362500  1.0  0.1039
  H  H80  1  0.249400  0.107400  0.332900  1.0  0.0966
  H  H81  1  0.228500  0.044400  0.350200  1.0  0.1048
  H  H82  1  0.090600  0.061200  0.411000  1.0  0.0905
  H  H83  1  0.149300  0.044300  0.269300  1.0  0.1114
  H  H84  1  0.173600  0.107200  0.246000  1.0  0.0965
  H  H85  1  0.662000  0.624200  0.180700  1.0  0.1178
  H  H86  1  0.748100  0.574700  0.246100  1.0  0.113
  H  H87  1  0.722100  0.513900  0.229100  1.0  0.0835
  H  H88  1  0.586200  0.556600  0.094800  1.0  0.1278
  H  H89  1  0.638100  0.436600  0.137500  1.0  0.1041
  H  H90  1  0.749400  0.392600  0.167100  1.0  0.0965
  H  H91  1  0.728500  0.455600  0.149800  1.0  0.1069
  H  H92  1  0.590600  0.438800  0.089000  1.0  0.0895
  H  H93  1  0.649300  0.455700  0.230700  1.0  0.1111
  H  H94  1  0.673600  0.392800  0.254000  1.0  0.0974
  H  H95  1  0.162000  0.124200  0.680700  1.0  0.1178
  H  H96  1  0.248100  0.074700  0.746100  1.0  0.113
  H  H97  1  0.222100  0.013900  0.729100  1.0  0.0835
  H  H98  1  0.086200  0.056600  0.594800  1.0  0.1278
  H  H99  1  0.138100  0.936600  0.637500  1.0  0.1041
  H  H100  1  0.249400  0.892600  0.667100  1.0  0.0965
  H  H101  1  0.228500  0.955600  0.649800  1.0  0.1069
  H  H102  1  0.090600  0.938800  0.589000  1.0  0.0895
  H  H103  1  0.149300  0.955700  0.730700  1.0  0.1123
  H  H104  1  0.173600  0.892800  0.754000  1.0  0.0974
  H  H105  1  0.338000  0.375800  0.180700  1.0  0.1172
  H  H106  1  0.251900  0.425300  0.246100  1.0  0.1134
  H  H107  1  0.277900  0.486100  0.229100  1.0  0.0833
  H  H108  1  0.413800  0.443400  0.094800  1.0  0.1277
  H  H109  1  0.361900  0.563400  0.137500  1.0  0.1044
  H  H110  1  0.250600  0.607400  0.167100  1.0  0.0961
  H  H111  1  0.271500  0.544400  0.149800  1.0  0.1073
  H  H112  1  0.409400  0.561200  0.089000  1.0  0.0904
  H  H113  1  0.350700  0.544300  0.230700  1.0  0.1109
  H  H114  1  0.326400  0.607200  0.254000  1.0  0.0968
  H  H115  1  0.838000  0.875800  0.680700  1.0  0.1172
  H  H116  1  0.751900  0.925300  0.746100  1.0  0.1134
  H  H117  1  0.777900  0.986100  0.729100  1.0  0.0833
  H  H118  1  0.913800  0.943400  0.594800  1.0  0.1277
  H  H119  1  0.861900  0.063400  0.637500  1.0  0.1044
  H  H120  1  0.750600  0.107400  0.667100  1.0  0.0961
  H  H121  1  0.771500  0.044400  0.649800  1.0  0.1073
  H  H122  1  0.909400  0.061200  0.589000  1.0  0.0904
  H  H123  1  0.850700  0.044300  0.730700  1.0  0.1117
  H  H124  1  0.826400  0.107200  0.754000  1.0  0.0968
  H  H125  1  0.819300  0.338000  0.624200  1.0  0.119
  H  H126  1  0.753900  0.251900  0.574700  1.0  0.1133
  H  H127  1  0.770900  0.277900  0.513900  1.0  0.0838
  H  H128  1  0.905200  0.413800  0.556600  1.0  0.1269
  H  H129  1  0.862500  0.361900  0.436600  1.0  0.1038
  H  H130  1  0.832900  0.250600  0.392600  1.0  0.0953
  H  H131  1  0.850200  0.271500  0.455600  1.0  0.1058
  H  H132  1  0.911000  0.409400  0.438800  1.0  0.0901
  H  H133  1  0.769300  0.350700  0.455700  1.0  0.1113
  H  H134  1  0.746000  0.326400  0.392800  1.0  0.0969
  H  H135  1  0.319300  0.838000  0.124200  1.0  0.119
  H  H136  1  0.253900  0.751900  0.074700  1.0  0.1133
  H  H137  1  0.270900  0.777900  0.013900  1.0  0.0838
  H  H138  1  0.405200  0.913800  0.056600  1.0  0.1269
  H  H139  1  0.362500  0.861900  0.936600  1.0  0.1038
  H  H140  1  0.332900  0.750600  0.892600  1.0  0.0953
  H  H141  1  0.350200  0.771500  0.955600  1.0  0.1058
  H  H142  1  0.411000  0.909400  0.938800  1.0  0.0901
  H  H143  1  0.269300  0.850700  0.955700  1.0  0.1122
  H  H144  1  0.246000  0.826400  0.892800  1.0  0.0969
  H  H145  1  0.819300  0.662000  0.375800  1.0  0.1184
  H  H146  1  0.753900  0.748100  0.425300  1.0  0.1144
  H  H147  1  0.770900  0.722100  0.486100  1.0  0.083
  H  H148  1  0.905200  0.586200  0.443400  1.0  0.127
  H  H149  1  0.862500  0.638100  0.563400  1.0  0.1043
  H  H150  1  0.832900  0.749400  0.607400  1.0  0.0954
  H  H151  1  0.850200  0.728500  0.544400  1.0  0.1075
  H  H152  1  0.911000  0.590600  0.561200  1.0  0.0897
  H  H153  1  0.769300  0.649300  0.544300  1.0  0.11
  H  H154  1  0.746000  0.673600  0.607200  1.0  0.0965
  H  H155  1  0.319300  0.162000  0.875800  1.0  0.1184
  H  H156  1  0.253900  0.248100  0.925300  1.0  0.1144
  H  H157  1  0.270900  0.222100  0.986100  1.0  0.083
  H  H158  1  0.405200  0.086200  0.943400  1.0  0.127
  H  H159  1  0.362500  0.138100  0.063400  1.0  0.1043
  H  H160  1  0.332900  0.249400  0.107400  1.0  0.0954
  H  H161  1  0.350200  0.228500  0.044400  1.0  0.1075
  H  H162  1  0.411000  0.090600  0.061200  1.0  0.0897
  H  H163  1  0.269300  0.149300  0.044300  1.0  0.1112
  H  H164  1  0.246000  0.173600  0.107200  1.0  0.0965
  H  H165  1  0.180700  0.662000  0.624200  1.0  0.1189
  H  H166  1  0.246100  0.748100  0.574700  1.0  0.1144
  H  H167  1  0.229100  0.722100  0.513900  1.0  0.0842
  H  H168  1  0.094800  0.586200  0.556600  1.0  0.1271
  H  H169  1  0.137500  0.638100  0.436600  1.0  0.1032
  H  H170  1  0.167100  0.749400  0.392600  1.0  0.0957
  H  H171  1  0.149800  0.728500  0.455600  1.0  0.1074
  H  H172  1  0.089000  0.590600  0.438800  1.0  0.0895
  H  H173  1  0.230700  0.649300  0.455700  1.0  0.1104
  H  H174  1  0.254000  0.673600  0.392800  1.0  0.097
  H  H175  1  0.680700  0.162000  0.124200  1.0  0.1189
  H  H176  1  0.746100  0.248100  0.074700  1.0  0.1144
  H  H177  1  0.729100  0.222100  0.013900  1.0  0.0842
  H  H178  1  0.594800  0.086200  0.056600  1.0  0.1271
  H  H179  1  0.637500  0.138100  0.936600  1.0  0.1032
  H  H180  1  0.667100  0.249400  0.892600  1.0  0.0957
  H  H181  1  0.649800  0.228500  0.955600  1.0  0.1074
  H  H182  1  0.589000  0.090600  0.938800  1.0  0.0895
  H  H183  1  0.730700  0.149300  0.955700  1.0  0.1113
  H  H184  1  0.754000  0.173600  0.892800  1.0  0.097
  H  H185  1  0.180700  0.338000  0.375800  1.0  0.1188
  H  H186  1  0.246100  0.251900  0.425300  1.0  0.114
  H  H187  1  0.229100  0.277900  0.486100  1.0  0.0831
  H  H188  1  0.094800  0.413800  0.443400  1.0  0.1268
  H  H189  1  0.137500  0.361900  0.563400  1.0  0.1045
  H  H190  1  0.167100  0.250600  0.607400  1.0  0.0953
  H  H191  1  0.149800  0.271500  0.544400  1.0  0.1068
  H  H192  1  0.089000  0.409400  0.561200  1.0  0.0903
  H  H193  1  0.230700  0.350700  0.544300  1.0  0.111
  H  H194  1  0.254000  0.326400  0.607200  1.0  0.0968
  H  H195  1  0.680700  0.838000  0.875800  1.0  0.1188
  H  H196  1  0.746100  0.751900  0.925300  1.0  0.114
  H  H197  1  0.729100  0.777900  0.986100  1.0  0.0831
  H  H198  1  0.594800  0.913800  0.943400  1.0  0.1268
  H  H199  1  0.637500  0.861900  0.063400  1.0  0.1045
  H  H200  1  0.667100  0.750600  0.107400  1.0  0.0953
  H  H201  1  0.649800  0.771500  0.044400  1.0  0.1068
  H  H202  1  0.589000  0.909400  0.061200  1.0  0.0903
  H  H203  1  0.730700  0.850700  0.044300  1.0  0.112
  H  H204  1  0.754000  0.826400  0.107200  1.0  0.0968
  H  H205  1  0.624200  0.819300  0.338000  1.0  0.118
  H  H206  1  0.574700  0.753900  0.251900  1.0  0.1119
  H  H207  1  0.513900  0.770900  0.277900  1.0  0.0849
  H  H208  1  0.556600  0.905200  0.413800  1.0  0.1265
  H  H209  1  0.436600  0.862500  0.361900  1.0  0.102
  H  H210  1  0.392600  0.832900  0.250600  1.0  0.0961
  H  H211  1  0.455600  0.850200  0.271500  1.0  0.1053
  H  H212  1  0.438800  0.911000  0.409400  1.0  0.09
  H  H213  1  0.455700  0.769300  0.350700  1.0  0.1125
  H  H214  1  0.392800  0.746000  0.326400  1.0  0.0984
  H  H215  1  0.124200  0.319300  0.838000  1.0  0.118
  H  H216  1  0.074700  0.253900  0.751900  1.0  0.1119
  H  H217  1  0.013900  0.270900  0.777900  1.0  0.0849
  H  H218  1  0.056600  0.405200  0.913800  1.0  0.1265
  H  H219  1  0.936600  0.362500  0.861900  1.0  0.102
  H  H220  1  0.892600  0.332900  0.750600  1.0  0.0961
  H  H221  1  0.955600  0.350200  0.771500  1.0  0.1053
  H  H222  1  0.938800  0.411000  0.909400  1.0  0.09
  H  H223  1  0.955700  0.269300  0.850700  1.0  0.1135
  H  H224  1  0.892800  0.246000  0.826400  1.0  0.0984
  H  H225  1  0.375800  0.819300  0.662000  1.0  0.1175
  H  H226  1  0.425300  0.753900  0.748100  1.0  0.1126
  H  H227  1  0.486100  0.770900  0.722100  1.0  0.0847
  H  H228  1  0.443400  0.905200  0.586200  1.0  0.1277
  H  H229  1  0.563400  0.862500  0.638100  1.0  0.1018
  H  H230  1  0.607400  0.832900  0.749400  1.0  0.0961
  H  H231  1  0.544400  0.850200  0.728500  1.0  0.1055
  H  H232  1  0.561200  0.911000  0.590600  1.0  0.0902
  H  H233  1  0.544300  0.769300  0.649300  1.0  0.1113
  H  H234  1  0.607200  0.746000  0.673600  1.0  0.0978
  H  H235  1  0.875800  0.319300  0.162000  1.0  0.1175
  H  H236  1  0.925300  0.253900  0.248100  1.0  0.1126
  H  H237  1  0.986100  0.270900  0.222100  1.0  0.0847
  H  H238  1  0.943400  0.405200  0.086200  1.0  0.1277
  H  H239  1  0.063400  0.362500  0.138100  1.0  0.1018
  H  H240  1  0.107400  0.332900  0.249400  1.0  0.0961
  H  H241  1  0.044400  0.350200  0.228500  1.0  0.1055
  H  H242  1  0.061200  0.411000  0.090600  1.0  0.0902
  H  H243  1  0.044300  0.269300  0.149300  1.0  0.1128
  H  H244  1  0.107200  0.246000  0.173600  1.0  0.0978
  H  H245  1  0.624200  0.180700  0.662000  1.0  0.1174
  H  H246  1  0.574700  0.246100  0.748100  1.0  0.1126
  H  H247  1  0.513900  0.229100  0.722100  1.0  0.0848
  H  H248  1  0.556600  0.094800  0.586200  1.0  0.1265
  H  H249  1  0.436600  0.137500  0.638100  1.0  0.1015
  H  H250  1  0.392600  0.167100  0.749400  1.0  0.0961
  H  H251  1  0.455600  0.149800  0.728500  1.0  0.105
  H  H252  1  0.438800  0.089000  0.590600  1.0  0.0907
  H  H253  1  0.455700  0.230700  0.649300  1.0  0.1119
  H  H254  1  0.392800  0.254000  0.673600  1.0  0.0978
  H  H255  1  0.124200  0.680700  0.162000  1.0  0.1174
  H  H256  1  0.074700  0.746100  0.248100  1.0  0.1126
  H  H257  1  0.013900  0.729100  0.222100  1.0  0.0848
  H  H258  1  0.056600  0.594800  0.086200  1.0  0.1265
  H  H259  1  0.936600  0.637500  0.138100  1.0  0.1015
  H  H260  1  0.892600  0.667100  0.249400  1.0  0.0961
  H  H261  1  0.955600  0.649800  0.228500  1.0  0.105
  H  H262  1  0.938800  0.589000  0.090600  1.0  0.0907
  H  H263  1  0.955700  0.730700  0.149300  1.0  0.1133
  H  H264  1  0.892800  0.754000  0.173600  1.0  0.0978
  H  H265  1  0.375800  0.180700  0.338000  1.0  0.1179
  H  H266  1  0.425300  0.246100  0.251900  1.0  0.1124
  H  H267  1  0.486100  0.229100  0.277900  1.0  0.0847
  H  H268  1  0.443400  0.094800  0.413800  1.0  0.1271
  H  H269  1  0.563400  0.137500  0.361900  1.0  0.1021
  H  H270  1  0.607400  0.167100  0.250600  1.0  0.096
  H  H271  1  0.544400  0.149800  0.271500  1.0  0.1044
  H  H272  1  0.561200  0.089000  0.409400  1.0  0.0896
  H  H273  1  0.544300  0.230700  0.350700  1.0  0.1121
  H  H274  1  0.607200  0.254000  0.326400  1.0  0.0976
  H  H275  1  0.875800  0.680700  0.838000  1.0  0.1179
  H  H276  1  0.925300  0.746100  0.751900  1.0  0.1124
  H  H277  1  0.986100  0.729100  0.777900  1.0  0.0847
  H  H278  1  0.943400  0.594800  0.913800  1.0  0.1271
  H  H279  1  0.063400  0.637500  0.861900  1.0  0.1021
  H  H280  1  0.107400  0.667100  0.750600  1.0  0.096
  H  H281  1  0.044400  0.649800  0.771500  1.0  0.1044
  H  H282  1  0.061200  0.589000  0.909400  1.0  0.0896
  H  H283  1  0.044300  0.730700  0.850700  1.0  0.113
  H  H284  1  0.107200  0.754000  0.826400  1.0  0.0976
  C  C285  1  0.324500  0.601800  0.810700  1.0  -0.0794
  C  C286  1  0.361000  0.494000  0.855100  1.0  0.1202
  C  C287  1  0.273700  0.572900  0.770700  1.0  -0.1034
  C  C288  1  0.287900  0.536500  0.783000  1.0  -0.0985
  C  C289  1  0.375500  0.530800  0.868600  1.0  0.1718
  C  C290  1  0.334900  0.568000  0.823100  1.0  0.1834
  C  C291  1  0.314900  0.532000  0.811000  1.0  0.1783
  C  C292  1  0.292700  0.606200  0.784100  1.0  -0.1909
  C  C293  1  0.403500  0.532400  0.897000  1.0  -0.0911
  C  C294  1  0.416600  0.497000  0.913900  1.0  -0.1853
  C  C295  1  0.372500  0.460700  0.870800  1.0  -0.1614
  C  C296  1  0.446300  0.495400  0.946100  1.0  0.6643
  C  C297  1  0.284900  0.646500  0.770300  1.0  0.5944
  C  C298  1  0.286900  0.384900  0.788000  1.0  -0.0023
  C  C299  1  0.270900  0.404400  0.818600  1.0  -0.072
  C  C300  1  0.312000  0.458100  0.812100  1.0  0.323
  C  C301  1  0.284000  0.442300  0.829600  1.0  -0.1436
  C  C302  1  0.400600  0.462400  0.900000  1.0  -0.0264
  C  C303  1  0.329800  0.442800  0.781800  1.0  -0.1519
  C  C304  1  0.275800  0.345300  0.778600  1.0  0.7057
  C  C305  1  0.315500  0.404200  0.768500  1.0  -0.102
  C  C306  1  0.824500  0.101800  0.310700  1.0  -0.0794
  C  C307  1  0.861000  0.994000  0.355100  1.0  0.1202
  C  C308  1  0.773700  0.072900  0.270700  1.0  -0.1034
  C  C309  1  0.787900  0.036500  0.283000  1.0  -0.0985
  C  C310  1  0.875500  0.030800  0.368600  1.0  0.1718
  C  C311  1  0.834900  0.068000  0.323100  1.0  0.1834
  C  C312  1  0.814900  0.032000  0.311000  1.0  0.1783
  C  C313  1  0.792700  0.106200  0.284100  1.0  -0.1909
  C  C314  1  0.903500  0.032400  0.397000  1.0  -0.0911
  C  C315  1  0.916600  0.997000  0.413900  1.0  -0.1853
  C  C316  1  0.872500  0.960700  0.370800  1.0  -0.1614
  C  C317  1  0.946300  0.995400  0.446100  1.0  0.6643
  C  C318  1  0.784900  0.146500  0.270300  1.0  0.5944
  C  C319  1  0.786900  0.884900  0.288000  1.0  -0.0023
  C  C320  1  0.770900  0.904400  0.318600  1.0  -0.072
  C  C321  1  0.812000  0.958100  0.312100  1.0  0.323
  C  C322  1  0.784000  0.942300  0.329600  1.0  -0.1436
  C  C323  1  0.900600  0.962400  0.400000  1.0  -0.0264
  C  C324  1  0.829800  0.942800  0.281800  1.0  -0.1519
  C  C325  1  0.775800  0.845300  0.278600  1.0  0.7057
  C  C326  1  0.815500  0.904200  0.268500  1.0  -0.102
  C  C327  1  0.675500  0.398200  0.810700  1.0  -0.0813
  C  C328  1  0.639000  0.506000  0.855100  1.0  0.1198
  C  C329  1  0.726300  0.427100  0.770700  1.0  -0.1026
  C  C330  1  0.712100  0.463500  0.783000  1.0  -0.101
  C  C331  1  0.624500  0.469200  0.868600  1.0  0.1722
  C  C332  1  0.665100  0.432000  0.823100  1.0  0.1828
  C  C333  1  0.685100  0.468000  0.811000  1.0  0.1782
  C  C334  1  0.707300  0.393800  0.784100  1.0  -0.1904
  C  C335  1  0.596500  0.467600  0.897000  1.0  -0.0917
  C  C336  1  0.583400  0.503000  0.913900  1.0  -0.1856
  C  C337  1  0.627500  0.539300  0.870800  1.0  -0.1622
  C  C338  1  0.553700  0.504600  0.946100  1.0  0.6644
  C  C339  1  0.715100  0.353500  0.770300  1.0  0.5948
  C  C340  1  0.713100  0.615100  0.788000  1.0  -0.0013
  C  C341  1  0.729100  0.595600  0.818600  1.0  -0.0715
  C  C342  1  0.688000  0.541900  0.812100  1.0  0.3218
  C  C343  1  0.716000  0.557700  0.829600  1.0  -0.1412
  C  C344  1  0.599400  0.537600  0.900000  1.0  -0.0247
  C  C345  1  0.670200  0.557200  0.781800  1.0  -0.1535
  C  C346  1  0.724200  0.654700  0.778600  1.0  0.7059
  C  C347  1  0.684500  0.595800  0.768500  1.0  -0.1024
  C  C348  1  0.175500  0.898200  0.310700  1.0  -0.0813
  C  C349  1  0.139000  0.006000  0.355100  1.0  0.1198
  C  C350  1  0.226300  0.927100  0.270700  1.0  -0.1026
  C  C351  1  0.212100  0.963500  0.283000  1.0  -0.101
  C  C352  1  0.124500  0.969200  0.368600  1.0  0.1722
  C  C353  1  0.165100  0.932000  0.323100  1.0  0.1828
  C  C354  1  0.185100  0.968000  0.311000  1.0  0.1782
  C  C355  1  0.207300  0.893800  0.284100  1.0  -0.1904
  C  C356  1  0.096500  0.967600  0.397000  1.0  -0.0917
  C  C357  1  0.083400  0.003000  0.413900  1.0  -0.1856
  C  C358  1  0.127500  0.039300  0.370800  1.0  -0.1622
  C  C359  1  0.053700  0.004600  0.446100  1.0  0.6644
  C  C360  1  0.215100  0.853500  0.270300  1.0  0.5948
  C  C361  1  0.213100  0.115100  0.288000  1.0  -0.0013
  C  C362  1  0.229100  0.095600  0.318600  1.0  -0.0715
  C  C363  1  0.188000  0.041900  0.312100  1.0  0.3218
  C  C364  1  0.216000  0.057700  0.329600  1.0  -0.1412
  C  C365  1  0.099400  0.037600  0.400000  1.0  -0.0247
  C  C366  1  0.170200  0.057200  0.281800  1.0  -0.1535
  C  C367  1  0.224200  0.154700  0.278600  1.0  0.7059
  C  C368  1  0.184500  0.095800  0.268500  1.0  -0.1024
  C  C369  1  0.675500  0.601800  0.189300  1.0  -0.0816
  C  C370  1  0.639000  0.494000  0.144900  1.0  0.1214
  C  C371  1  0.726300  0.572900  0.229300  1.0  -0.1013
  C  C372  1  0.712100  0.536500  0.217000  1.0  -0.1005
  C  C373  1  0.624500  0.530800  0.131400  1.0  0.1715
  C  C374  1  0.665100  0.568000  0.176900  1.0  0.1823
  C  C375  1  0.685100  0.532000  0.189000  1.0  0.1778
  C  C376  1  0.707300  0.606200  0.215900  1.0  -0.1908
  C  C377  1  0.596500  0.532400  0.103000  1.0  -0.092
  C  C378  1  0.583400  0.497000  0.086100  1.0  -0.1866
  C  C379  1  0.627500  0.460700  0.129200  1.0  -0.1617
  C  C380  1  0.553700  0.495400  0.053900  1.0  0.6644
  C  C381  1  0.715100  0.646500  0.229700  1.0  0.5951
  C  C382  1  0.713100  0.384900  0.212000  1.0  -0.0026
  C  C383  1  0.729100  0.404400  0.181400  1.0  -0.0716
  C  C384  1  0.688000  0.458100  0.187900  1.0  0.3216
  C  C385  1  0.716000  0.442300  0.170400  1.0  -0.1433
  C  C386  1  0.599400  0.462400  0.100000  1.0  -0.0248
  C  C387  1  0.670200  0.442800  0.218200  1.0  -0.1528
  C  C388  1  0.724200  0.345300  0.221400  1.0  0.7056
  C  C389  1  0.684500  0.404200  0.231500  1.0  -0.1032
  C  C390  1  0.175500  0.101800  0.689300  1.0  -0.0816
  C  C391  1  0.139000  0.994000  0.644900  1.0  0.1214
  C  C392  1  0.226300  0.072900  0.729300  1.0  -0.1013
  C  C393  1  0.212100  0.036500  0.717000  1.0  -0.1005
  C  C394  1  0.124500  0.030800  0.631400  1.0  0.1715
  C  C395  1  0.165100  0.068000  0.676900  1.0  0.1823
  C  C396  1  0.185100  0.032000  0.689000  1.0  0.1778
  C  C397  1  0.207300  0.106200  0.715900  1.0  -0.1908
  C  C398  1  0.096500  0.032400  0.603000  1.0  -0.092
  C  C399  1  0.083400  0.997000  0.586100  1.0  -0.1866
  C  C400  1  0.127500  0.960700  0.629200  1.0  -0.1617
  C  C401  1  0.053700  0.995400  0.553900  1.0  0.6644
  C  C402  1  0.215100  0.146500  0.729700  1.0  0.5951
  C  C403  1  0.213100  0.884900  0.712000  1.0  -0.0026
  C  C404  1  0.229100  0.904400  0.681400  1.0  -0.0716
  C  C405  1  0.188000  0.958100  0.687900  1.0  0.3216
  C  C406  1  0.216000  0.942300  0.670400  1.0  -0.1433
  C  C407  1  0.099400  0.962400  0.600000  1.0  -0.0248
  C  C408  1  0.170200  0.942800  0.718200  1.0  -0.1528
  C  C409  1  0.224200  0.845300  0.721400  1.0  0.7056
  C  C410  1  0.184500  0.904200  0.731500  1.0  -0.1032
  C  C411  1  0.324500  0.398200  0.189300  1.0  -0.0808
  C  C412  1  0.361000  0.506000  0.144900  1.0  0.1205
  C  C413  1  0.273700  0.427100  0.229300  1.0  -0.1027
  C  C414  1  0.287900  0.463500  0.217000  1.0  -0.1002
  C  C415  1  0.375500  0.469200  0.131400  1.0  0.1722
  C  C416  1  0.334900  0.432000  0.176900  1.0  0.1838
  C  C417  1  0.314900  0.468000  0.189000  1.0  0.177
  C  C418  1  0.292700  0.393800  0.215900  1.0  -0.191
  C  C419  1  0.403500  0.467600  0.103000  1.0  -0.0916
  C  C420  1  0.416600  0.503000  0.086100  1.0  -0.1857
  C  C421  1  0.372500  0.539300  0.129200  1.0  -0.1606
  C  C422  1  0.446300  0.504600  0.053900  1.0  0.6637
  C  C423  1  0.284900  0.353500  0.229700  1.0  0.5954
  C  C424  1  0.286900  0.615100  0.212000  1.0  -0.0014
  C  C425  1  0.270900  0.595600  0.181400  1.0  -0.072
  C  C426  1  0.312000  0.541900  0.187900  1.0  0.3224
  C  C427  1  0.284000  0.557700  0.170400  1.0  -0.1457
  C  C428  1  0.400600  0.537600  0.100000  1.0  -0.024
  C  C429  1  0.329800  0.557200  0.218200  1.0  -0.1521
  C  C430  1  0.275800  0.654700  0.221400  1.0  0.7057
  C  C431  1  0.315500  0.595800  0.231500  1.0  -0.1038
  C  C432  1  0.824500  0.898200  0.689300  1.0  -0.0808
  C  C433  1  0.861000  0.006000  0.644900  1.0  0.1205
  C  C434  1  0.773700  0.927100  0.729300  1.0  -0.1027
  C  C435  1  0.787900  0.963500  0.717000  1.0  -0.1002
  C  C436  1  0.875500  0.969200  0.631400  1.0  0.1722
  C  C437  1  0.834900  0.932000  0.676900  1.0  0.1838
  C  C438  1  0.814900  0.968000  0.689000  1.0  0.177
  C  C439  1  0.792700  0.893800  0.715900  1.0  -0.191
  C  C440  1  0.903500  0.967600  0.603000  1.0  -0.0916
  C  C441  1  0.916600  0.003000  0.586100  1.0  -0.1857
  C  C442  1  0.872500  0.039300  0.629200  1.0  -0.1606
  C  C443  1  0.946300  0.004600  0.553900  1.0  0.6637
  C  C444  1  0.784900  0.853500  0.729700  1.0  0.5954
  C  C445  1  0.786900  0.115100  0.712000  1.0  -0.0014
  C  C446  1  0.770900  0.095600  0.681400  1.0  -0.072
  C  C447  1  0.812000  0.041900  0.687900  1.0  0.3224
  C  C448  1  0.784000  0.057700  0.670400  1.0  -0.1457
  C  C449  1  0.900600  0.037600  0.600000  1.0  -0.024
  C  C450  1  0.829800  0.057200  0.718200  1.0  -0.1521
  C  C451  1  0.775800  0.154700  0.721400  1.0  0.7057
  C  C452  1  0.815500  0.095800  0.731500  1.0  -0.1038
  C  C453  1  0.810700  0.324500  0.601800  1.0  -0.0797
  C  C454  1  0.855100  0.361000  0.494000  1.0  0.1211
  C  C455  1  0.770700  0.273700  0.572900  1.0  -0.0991
  C  C456  1  0.783000  0.287900  0.536500  1.0  -0.1001
  C  C457  1  0.868600  0.375500  0.530800  1.0  0.1756
  C  C458  1  0.823100  0.334900  0.568000  1.0  0.1844
  C  C459  1  0.811000  0.314900  0.532000  1.0  0.1796
  C  C460  1  0.784100  0.292700  0.606200  1.0  -0.1918
  C  C461  1  0.897000  0.403500  0.532400  1.0  -0.0895
  C  C462  1  0.913900  0.416600  0.497000  1.0  -0.1851
  C  C463  1  0.870800  0.372500  0.460700  1.0  -0.1592
  C  C464  1  0.946100  0.446300  0.495400  1.0  0.6646
  C  C465  1  0.770300  0.284900  0.646500  1.0  0.5978
  C  C466  1  0.788000  0.286900  0.384900  1.0  -0.0039
  C  C467  1  0.818600  0.270900  0.404400  1.0  -0.0747
  C  C468  1  0.812100  0.312000  0.458100  1.0  0.3214
  C  C469  1  0.829600  0.284000  0.442300  1.0  -0.1438
  C  C470  1  0.900000  0.400600  0.462400  1.0  -0.0222
  C  C471  1  0.781800  0.329800  0.442800  1.0  -0.1557
  C  C472  1  0.778600  0.275800  0.345300  1.0  0.7088
  C  C473  1  0.768500  0.315500  0.404200  1.0  -0.1012
  C  C474  1  0.310700  0.824500  0.101800  1.0  -0.0797
  C  C475  1  0.355100  0.861000  0.994000  1.0  0.1211
  C  C476  1  0.270700  0.773700  0.072900  1.0  -0.0991
  C  C477  1  0.283000  0.787900  0.036500  1.0  -0.1001
  C  C478  1  0.368600  0.875500  0.030800  1.0  0.1756
  C  C479  1  0.323100  0.834900  0.068000  1.0  0.1844
  C  C480  1  0.311000  0.814900  0.032000  1.0  0.1796
  C  C481  1  0.284100  0.792700  0.106200  1.0  -0.1918
  C  C482  1  0.397000  0.903500  0.032400  1.0  -0.0895
  C  C483  1  0.413900  0.916600  0.997000  1.0  -0.1851
  C  C484  1  0.370800  0.872500  0.960700  1.0  -0.1592
  C  C485  1  0.446100  0.946300  0.995400  1.0  0.6646
  C  C486  1  0.270300  0.784900  0.146500  1.0  0.5978
  C  C487  1  0.288000  0.786900  0.884900  1.0  -0.0039
  C  C488  1  0.318600  0.770900  0.904400  1.0  -0.0747
  C  C489  1  0.312100  0.812000  0.958100  1.0  0.3214
  C  C490  1  0.329600  0.784000  0.942300  1.0  -0.1438
  C  C491  1  0.400000  0.900600  0.962400  1.0  -0.0222
  C  C492  1  0.281800  0.829800  0.942800  1.0  -0.1557
  C  C493  1  0.278600  0.775800  0.845300  1.0  0.7088
  C  C494  1  0.268500  0.815500  0.904200  1.0  -0.1012
  C  C495  1  0.810700  0.675500  0.398200  1.0  -0.0812
  C  C496  1  0.855100  0.639000  0.506000  1.0  0.1205
  C  C497  1  0.770700  0.726300  0.427100  1.0  -0.0993
  C  C498  1  0.783000  0.712100  0.463500  1.0  -0.0994
  C  C499  1  0.868600  0.624500  0.469200  1.0  0.174
  C  C500  1  0.823100  0.665100  0.432000  1.0  0.1821
  C  C501  1  0.811000  0.685100  0.468000  1.0  0.1799
  C  C502  1  0.784100  0.707300  0.393800  1.0  -0.1902
  C  C503  1  0.897000  0.596500  0.467600  1.0  -0.0899
  C  C504  1  0.913900  0.583400  0.503000  1.0  -0.1834
  C  C505  1  0.870800  0.627500  0.539300  1.0  -0.1599
  C  C506  1  0.946100  0.553700  0.504600  1.0  0.6642
  C  C507  1  0.770300  0.715100  0.353500  1.0  0.5977
  C  C508  1  0.788000  0.713100  0.615100  1.0  -0.0031
  C  C509  1  0.818600  0.729100  0.595600  1.0  -0.0729
  C  C510  1  0.812100  0.688000  0.541900  1.0  0.3214
  C  C511  1  0.829600  0.716000  0.557700  1.0  -0.1453
  C  C512  1  0.900000  0.599400  0.537600  1.0  -0.023
  C  C513  1  0.781800  0.670200  0.557200  1.0  -0.1573
  C  C514  1  0.778600  0.724200  0.654700  1.0  0.7077
  C  C515  1  0.768500  0.684500  0.595800  1.0  -0.0996
  C  C516  1  0.310700  0.175500  0.898200  1.0  -0.0812
  C  C517  1  0.355100  0.139000  0.006000  1.0  0.1205
  C  C518  1  0.270700  0.226300  0.927100  1.0  -0.0993
  C  C519  1  0.283000  0.212100  0.963500  1.0  -0.0994
  C  C520  1  0.368600  0.124500  0.969200  1.0  0.174
  C  C521  1  0.323100  0.165100  0.932000  1.0  0.1821
  C  C522  1  0.311000  0.185100  0.968000  1.0  0.1799
  C  C523  1  0.284100  0.207300  0.893800  1.0  -0.1902
  C  C524  1  0.397000  0.096500  0.967600  1.0  -0.0899
  C  C525  1  0.413900  0.083400  0.003000  1.0  -0.1834
  C  C526  1  0.370800  0.127500  0.039300  1.0  -0.1599
  C  C527  1  0.446100  0.053700  0.004600  1.0  0.6642
  C  C528  1  0.270300  0.215100  0.853500  1.0  0.5977
  C  C529  1  0.288000  0.213100  0.115100  1.0  -0.0031
  C  C530  1  0.318600  0.229100  0.095600  1.0  -0.0729
  C  C531  1  0.312100  0.188000  0.041900  1.0  0.3214
  C  C532  1  0.329600  0.216000  0.057700  1.0  -0.1453
  C  C533  1  0.400000  0.099400  0.037600  1.0  -0.023
  C  C534  1  0.281800  0.170200  0.057200  1.0  -0.1573
  C  C535  1  0.278600  0.224200  0.154700  1.0  0.7077
  C  C536  1  0.268500  0.184500  0.095800  1.0  -0.0996
  C  C537  1  0.189300  0.675500  0.601800  1.0  -0.0813
  C  C538  1  0.144900  0.639000  0.494000  1.0  0.1219
  C  C539  1  0.229300  0.726300  0.572900  1.0  -0.0979
  C  C540  1  0.217000  0.712100  0.536500  1.0  -0.1009
  C  C541  1  0.131400  0.624500  0.530800  1.0  0.1732
  C  C542  1  0.176900  0.665100  0.568000  1.0  0.1844
  C  C543  1  0.189000  0.685100  0.532000  1.0  0.1798
  C  C544  1  0.215900  0.707300  0.606200  1.0  -0.1923
  C  C545  1  0.103000  0.596500  0.532400  1.0  -0.0902
  C  C546  1  0.086100  0.583400  0.497000  1.0  -0.1851
  C  C547  1  0.129200  0.627500  0.460700  1.0  -0.16
  C  C548  1  0.053900  0.553700  0.495400  1.0  0.6655
  C  C549  1  0.229700  0.715100  0.646500  1.0  0.5987
  C  C550  1  0.212000  0.713100  0.384900  1.0  -0.0025
  C  C551  1  0.181400  0.729100  0.404400  1.0  -0.0715
  C  C552  1  0.187900  0.688000  0.458100  1.0  0.3216
  C  C553  1  0.170400  0.716000  0.442300  1.0  -0.1448
  C  C554  1  0.100000  0.599400  0.462400  1.0  -0.0205
  C  C555  1  0.218200  0.670200  0.442800  1.0  -0.1533
  C  C556  1  0.221400  0.724200  0.345300  1.0  0.7089
  C  C557  1  0.231500  0.684500  0.404200  1.0  -0.1002
  C  C558  1  0.689300  0.175500  0.101800  1.0  -0.0813
  C  C559  1  0.644900  0.139000  0.994000  1.0  0.1219
  C  C560  1  0.729300  0.226300  0.072900  1.0  -0.0979
  C  C561  1  0.717000  0.212100  0.036500  1.0  -0.1009
  C  C562  1  0.631400  0.124500  0.030800  1.0  0.1732
  C  C563  1  0.676900  0.165100  0.068000  1.0  0.1844
  C  C564  1  0.689000  0.185100  0.032000  1.0  0.1798
  C  C565  1  0.715900  0.207300  0.106200  1.0  -0.1923
  C  C566  1  0.603000  0.096500  0.032400  1.0  -0.0902
  C  C567  1  0.586100  0.083400  0.997000  1.0  -0.1851
  C  C568  1  0.629200  0.127500  0.960700  1.0  -0.16
  C  C569  1  0.553900  0.053700  0.995400  1.0  0.6655
  C  C570  1  0.729700  0.215100  0.146500  1.0  0.5987
  C  C571  1  0.712000  0.213100  0.884900  1.0  -0.0025
  C  C572  1  0.681400  0.229100  0.904400  1.0  -0.0715
  C  C573  1  0.687900  0.188000  0.958100  1.0  0.3216
  C  C574  1  0.670400  0.216000  0.942300  1.0  -0.1448
  C  C575  1  0.600000  0.099400  0.962400  1.0  -0.0205
  C  C576  1  0.718200  0.170200  0.942800  1.0  -0.1533
  C  C577  1  0.721400  0.224200  0.845300  1.0  0.7089
  C  C578  1  0.731500  0.184500  0.904200  1.0  -0.1002
  C  C579  1  0.189300  0.324500  0.398200  1.0  -0.0795
  C  C580  1  0.144900  0.361000  0.506000  1.0  0.1217
  C  C581  1  0.229300  0.273700  0.427100  1.0  -0.0986
  C  C582  1  0.217000  0.287900  0.463500  1.0  -0.0995
  C  C583  1  0.131400  0.375500  0.469200  1.0  0.1744
  C  C584  1  0.176900  0.334900  0.432000  1.0  0.1833
  C  C585  1  0.189000  0.314900  0.468000  1.0  0.179
  C  C586  1  0.215900  0.292700  0.393800  1.0  -0.1906
  C  C587  1  0.103000  0.403500  0.467600  1.0  -0.0894
  C  C588  1  0.086100  0.416600  0.503000  1.0  -0.1852
  C  C589  1  0.129200  0.372500  0.539300  1.0  -0.1603
  C  C590  1  0.053900  0.446300  0.504600  1.0  0.6654
  C  C591  1  0.229700  0.284900  0.353500  1.0  0.5981
  C  C592  1  0.212000  0.286900  0.615100  1.0  -0.004
  C  C593  1  0.181400  0.270900  0.595600  1.0  -0.0718
  C  C594  1  0.187900  0.312000  0.541900  1.0  0.3222
  C  C595  1  0.170400  0.284000  0.557700  1.0  -0.1454
  C  C596  1  0.100000  0.400600  0.537600  1.0  -0.0239
  C  C597  1  0.218200  0.329800  0.557200  1.0  -0.1533
  C  C598  1  0.221400  0.275800  0.654700  1.0  0.7083
  C  C599  1  0.231500  0.315500  0.595800  1.0  -0.0993
  C  C600  1  0.689300  0.824500  0.898200  1.0  -0.0795
  C  C601  1  0.644900  0.861000  0.006000  1.0  0.1217
  C  C602  1  0.729300  0.773700  0.927100  1.0  -0.0986
  C  C603  1  0.717000  0.787900  0.963500  1.0  -0.0995
  C  C604  1  0.631400  0.875500  0.969200  1.0  0.1744
  C  C605  1  0.676900  0.834900  0.932000  1.0  0.1833
  C  C606  1  0.689000  0.814900  0.968000  1.0  0.179
  C  C607  1  0.715900  0.792700  0.893800  1.0  -0.1906
  C  C608  1  0.603000  0.903500  0.967600  1.0  -0.0894
  C  C609  1  0.586100  0.916600  0.003000  1.0  -0.1852
  C  C610  1  0.629200  0.872500  0.039300  1.0  -0.1603
  C  C611  1  0.553900  0.946300  0.004600  1.0  0.6654
  C  C612  1  0.729700  0.784900  0.853500  1.0  0.5981
  C  C613  1  0.712000  0.786900  0.115100  1.0  -0.004
  C  C614  1  0.681400  0.770900  0.095600  1.0  -0.0718
  C  C615  1  0.687900  0.812000  0.041900  1.0  0.3222
  C  C616  1  0.670400  0.784000  0.057700  1.0  -0.1454
  C  C617  1  0.600000  0.900600  0.037600  1.0  -0.0239
  C  C618  1  0.718200  0.829800  0.057200  1.0  -0.1533
  C  C619  1  0.721400  0.775800  0.154700  1.0  0.7083
  C  C620  1  0.731500  0.815500  0.095800  1.0  -0.0993
  C  C621  1  0.601800  0.810700  0.324500  1.0  -0.0769
  C  C622  1  0.494000  0.855100  0.361000  1.0  0.1223
  C  C623  1  0.572900  0.770700  0.273700  1.0  -0.1023
  C  C624  1  0.536500  0.783000  0.287900  1.0  -0.1035
  C  C625  1  0.530800  0.868600  0.375500  1.0  0.1748
  C  C626  1  0.568000  0.823100  0.334900  1.0  0.1791
  C  C627  1  0.532000  0.811000  0.314900  1.0  0.1779
  C  C628  1  0.606200  0.784100  0.292700  1.0  -0.1892
  C  C629  1  0.532400  0.897000  0.403500  1.0  -0.0906
  C  C630  1  0.497000  0.913900  0.416600  1.0  -0.185
  C  C631  1  0.460700  0.870800  0.372500  1.0  -0.1601
  C  C632  1  0.495400  0.946100  0.446300  1.0  0.6647
  C  C633  1  0.646500  0.770300  0.284900  1.0  0.5939
  C  C634  1  0.384900  0.788000  0.286900  1.0  -0.0019
  C  C635  1  0.404400  0.818600  0.270900  1.0  -0.0728
  C  C636  1  0.458100  0.812100  0.312000  1.0  0.321
  C  C637  1  0.442300  0.829600  0.284000  1.0  -0.1458
  C  C638  1  0.462400  0.900000  0.400600  1.0  -0.0188
  C  C639  1  0.442800  0.781800  0.329800  1.0  -0.1531
  C  C640  1  0.345300  0.778600  0.275800  1.0  0.7091
  C  C641  1  0.404200  0.768500  0.315500  1.0  -0.0998
  C  C642  1  0.101800  0.310700  0.824500  1.0  -0.0769
  C  C643  1  0.994000  0.355100  0.861000  1.0  0.1223
  C  C644  1  0.072900  0.270700  0.773700  1.0  -0.1023
  C  C645  1  0.036500  0.283000  0.787900  1.0  -0.1035
  C  C646  1  0.030800  0.368600  0.875500  1.0  0.1748
  C  C647  1  0.068000  0.323100  0.834900  1.0  0.1791
  C  C648  1  0.032000  0.311000  0.814900  1.0  0.1779
  C  C649  1  0.106200  0.284100  0.792700  1.0  -0.1892
  C  C650  1  0.032400  0.397000  0.903500  1.0  -0.0906
  C  C651  1  0.997000  0.413900  0.916600  1.0  -0.185
  C  C652  1  0.960700  0.370800  0.872500  1.0  -0.1601
  C  C653  1  0.995400  0.446100  0.946300  1.0  0.6647
  C  C654  1  0.146500  0.270300  0.784900  1.0  0.5939
  C  C655  1  0.884900  0.288000  0.786900  1.0  -0.0019
  C  C656  1  0.904400  0.318600  0.770900  1.0  -0.0728
  C  C657  1  0.958100  0.312100  0.812000  1.0  0.321
  C  C658  1  0.942300  0.329600  0.784000  1.0  -0.1458
  C  C659  1  0.962400  0.400000  0.900600  1.0  -0.0188
  C  C660  1  0.942800  0.281800  0.829800  1.0  -0.1531
  C  C661  1  0.845300  0.278600  0.775800  1.0  0.7091
  C  C662  1  0.904200  0.268500  0.815500  1.0  -0.0998
  C  C663  1  0.398200  0.810700  0.675500  1.0  -0.0774
  C  C664  1  0.506000  0.855100  0.639000  1.0  0.1221
  C  C665  1  0.427100  0.770700  0.726300  1.0  -0.1019
  C  C666  1  0.463500  0.783000  0.712100  1.0  -0.1037
  C  C667  1  0.469200  0.868600  0.624500  1.0  0.1731
  C  C668  1  0.432000  0.823100  0.665100  1.0  0.1797
  C  C669  1  0.468000  0.811000  0.685100  1.0  0.1771
  C  C670  1  0.393800  0.784100  0.707300  1.0  -0.1897
  C  C671  1  0.467600  0.897000  0.596500  1.0  -0.0894
  C  C672  1  0.503000  0.913900  0.583400  1.0  -0.1855
  C  C673  1  0.539300  0.870800  0.627500  1.0  -0.1594
  C  C674  1  0.504600  0.946100  0.553700  1.0  0.6652
  C  C675  1  0.353500  0.770300  0.715100  1.0  0.5953
  C  C676  1  0.615100  0.788000  0.713100  1.0  -0.001
  C  C677  1  0.595600  0.818600  0.729100  1.0  -0.0747
  C  C678  1  0.541900  0.812100  0.688000  1.0  0.3185
  C  C679  1  0.557700  0.829600  0.716000  1.0  -0.1457
  C  C680  1  0.537600  0.900000  0.599400  1.0  -0.0188
  C  C681  1  0.557200  0.781800  0.670200  1.0  -0.1506
  C  C682  1  0.654700  0.778600  0.724200  1.0  0.7105
  C  C683  1  0.595800  0.768500  0.684500  1.0  -0.1015
  C  C684  1  0.898200  0.310700  0.175500  1.0  -0.0774
  C  C685  1  0.006000  0.355100  0.139000  1.0  0.1221
  C  C686  1  0.927100  0.270700  0.226300  1.0  -0.1019
  C  C687  1  0.963500  0.283000  0.212100  1.0  -0.1037
  C  C688  1  0.969200  0.368600  0.124500  1.0  0.1731
  C  C689  1  0.932000  0.323100  0.165100  1.0  0.1797
  C  C690  1  0.968000  0.311000  0.185100  1.0  0.1771
  C  C691  1  0.893800  0.284100  0.207300  1.0  -0.1897
  C  C692  1  0.967600  0.397000  0.096500  1.0  -0.0894
  C  C693  1  0.003000  0.413900  0.083400  1.0  -0.1855
  C  C694  1  0.039300  0.370800  0.127500  1.0  -0.1594
  C  C695  1  0.004600  0.446100  0.053700  1.0  0.6652
  C  C696  1  0.853500  0.270300  0.215100  1.0  0.5953
  C  C697  1  0.115100  0.288000  0.213100  1.0  -0.001
  C  C698  1  0.095600  0.318600  0.229100  1.0  -0.0747
  C  C699  1  0.041900  0.312100  0.188000  1.0  0.3185
  C  C700  1  0.057700  0.329600  0.216000  1.0  -0.1457
  C  C701  1  0.037600  0.400000  0.099400  1.0  -0.0188
  C  C702  1  0.057200  0.281800  0.170200  1.0  -0.1506
  C  C703  1  0.154700  0.278600  0.224200  1.0  0.7105
  C  C704  1  0.095800  0.268500  0.184500  1.0  -0.1015
  C  C705  1  0.601800  0.189300  0.675500  1.0  -0.0773
  C  C706  1  0.494000  0.144900  0.639000  1.0  0.1234
  C  C707  1  0.572900  0.229300  0.726300  1.0  -0.1026
  C  C708  1  0.536500  0.217000  0.712100  1.0  -0.1043
  C  C709  1  0.530800  0.131400  0.624500  1.0  0.1758
  C  C710  1  0.568000  0.176900  0.665100  1.0  0.1796
  C  C711  1  0.532000  0.189000  0.685100  1.0  0.1777
  C  C712  1  0.606200  0.215900  0.707300  1.0  -0.1895
  C  C713  1  0.532400  0.103000  0.596500  1.0  -0.0901
  C  C714  1  0.497000  0.086100  0.583400  1.0  -0.1855
  C  C715  1  0.460700  0.129200  0.627500  1.0  -0.1607
  C  C716  1  0.495400  0.053900  0.553700  1.0  0.6645
  C  C717  1  0.646500  0.229700  0.715100  1.0  0.5948
  C  C718  1  0.384900  0.212000  0.713100  1.0  -0.0018
  C  C719  1  0.404400  0.181400  0.729100  1.0  -0.0724
  C  C720  1  0.458100  0.187900  0.688000  1.0  0.3203
  C  C721  1  0.442300  0.170400  0.716000  1.0  -0.145
  C  C722  1  0.462400  0.100000  0.599400  1.0  -0.0182
  C  C723  1  0.442800  0.218200  0.670200  1.0  -0.1501
  C  C724  1  0.345300  0.221400  0.724200  1.0  0.7093
  C  C725  1  0.404200  0.231500  0.684500  1.0  -0.1009
  C  C726  1  0.101800  0.689300  0.175500  1.0  -0.0773
  C  C727  1  0.994000  0.644900  0.139000  1.0  0.1234
  C  C728  1  0.072900  0.729300  0.226300  1.0  -0.1026
  C  C729  1  0.036500  0.717000  0.212100  1.0  -0.1043
  C  C730  1  0.030800  0.631400  0.124500  1.0  0.1758
  C  C731  1  0.068000  0.676900  0.165100  1.0  0.1796
  C  C732  1  0.032000  0.689000  0.185100  1.0  0.1777
  C  C733  1  0.106200  0.715900  0.207300  1.0  -0.1895
  C  C734  1  0.032400  0.603000  0.096500  1.0  -0.0901
  C  C735  1  0.997000  0.586100  0.083400  1.0  -0.1855
  C  C736  1  0.960700  0.629200  0.127500  1.0  -0.1607
  C  C737  1  0.995400  0.553900  0.053700  1.0  0.6645
  C  C738  1  0.146500  0.729700  0.215100  1.0  0.5948
  C  C739  1  0.884900  0.712000  0.213100  1.0  -0.0018
  C  C740  1  0.904400  0.681400  0.229100  1.0  -0.0724
  C  C741  1  0.958100  0.687900  0.188000  1.0  0.3203
  C  C742  1  0.942300  0.670400  0.216000  1.0  -0.145
  C  C743  1  0.962400  0.600000  0.099400  1.0  -0.0182
  C  C744  1  0.942800  0.718200  0.170200  1.0  -0.1501
  C  C745  1  0.845300  0.721400  0.224200  1.0  0.7093
  C  C746  1  0.904200  0.731500  0.184500  1.0  -0.1009
  C  C747  1  0.398200  0.189300  0.324500  1.0  -0.0774
  C  C748  1  0.506000  0.144900  0.361000  1.0  0.1218
  C  C749  1  0.427100  0.229300  0.273700  1.0  -0.1031
  C  C750  1  0.463500  0.217000  0.287900  1.0  -0.1042
  C  C751  1  0.469200  0.131400  0.375500  1.0  0.1732
  C  C752  1  0.432000  0.176900  0.334900  1.0  0.1788
  C  C753  1  0.468000  0.189000  0.314900  1.0  0.1781
  C  C754  1  0.393800  0.215900  0.292700  1.0  -0.1893
  C  C755  1  0.467600  0.103000  0.403500  1.0  -0.089
  C  C756  1  0.503000  0.086100  0.416600  1.0  -0.1845
  C  C757  1  0.539300  0.129200  0.372500  1.0  -0.16
  C  C758  1  0.504600  0.053900  0.446300  1.0  0.6653
  C  C759  1  0.353500  0.229700  0.284900  1.0  0.5954
  C  C760  1  0.615100  0.212000  0.286900  1.0  -0.0012
  C  C761  1  0.595600  0.181400  0.270900  1.0  -0.0738
  C  C762  1  0.541900  0.187900  0.312000  1.0  0.319
  C  C763  1  0.557700  0.170400  0.284000  1.0  -0.1467
  C  C764  1  0.537600  0.100000  0.400600  1.0  -0.0187
  C  C765  1  0.557200  0.218200  0.329800  1.0  -0.1514
  C  C766  1  0.654700  0.221400  0.275800  1.0  0.7107
  C  C767  1  0.595800  0.231500  0.315500  1.0  -0.0991
  C  C768  1  0.898200  0.689300  0.824500  1.0  -0.0774
  C  C769  1  0.006000  0.644900  0.861000  1.0  0.1218
  C  C770  1  0.927100  0.729300  0.773700  1.0  -0.1031
  C  C771  1  0.963500  0.717000  0.787900  1.0  -0.1042
  C  C772  1  0.969200  0.631400  0.875500  1.0  0.1732
  C  C773  1  0.932000  0.676900  0.834900  1.0  0.1788
  C  C774  1  0.968000  0.689000  0.814900  1.0  0.1781
  C  C775  1  0.893800  0.715900  0.792700  1.0  -0.1893
  C  C776  1  0.967600  0.603000  0.903500  1.0  -0.089
  C  C777  1  0.003000  0.586100  0.916600  1.0  -0.1845
  C  C778  1  0.039300  0.629200  0.872500  1.0  -0.16
  C  C779  1  0.004600  0.553900  0.946300  1.0  0.6653
  C  C780  1  0.853500  0.729700  0.784900  1.0  0.5954
  C  C781  1  0.115100  0.712000  0.786900  1.0  -0.0012
  C  C782  1  0.095600  0.681400  0.770900  1.0  -0.0738
  C  C783  1  0.041900  0.687900  0.812000  1.0  0.319
  C  C784  1  0.057700  0.670400  0.784000  1.0  -0.1467
  C  C785  1  0.037600  0.600000  0.900600  1.0  -0.0187
  C  C786  1  0.057200  0.718200  0.829800  1.0  -0.1514
  C  C787  1  0.154700  0.721400  0.775800  1.0  0.7107
  C  C788  1  0.095800  0.731500  0.815500  1.0  -0.0991
  N  N789  1  0.330000  0.495400  0.824300  1.0  -0.2288
  N  N790  1  0.830000  0.995400  0.324300  1.0  -0.2288
  N  N791  1  0.670000  0.504600  0.824300  1.0  -0.2282
  N  N792  1  0.170000  0.004600  0.324300  1.0  -0.2282
  N  N793  1  0.670000  0.495400  0.175700  1.0  -0.2278
  N  N794  1  0.170000  0.995400  0.675700  1.0  -0.2278
  N  N795  1  0.330000  0.504600  0.175700  1.0  -0.2293
  N  N796  1  0.830000  0.004600  0.675700  1.0  -0.2293
  N  N797  1  0.824300  0.330000  0.495400  1.0  -0.228
  N  N798  1  0.324300  0.830000  0.995400  1.0  -0.228
  N  N799  1  0.824300  0.670000  0.504600  1.0  -0.2269
  N  N800  1  0.324300  0.170000  0.004600  1.0  -0.2269
  N  N801  1  0.175700  0.670000  0.495400  1.0  -0.228
  N  N802  1  0.675700  0.170000  0.995400  1.0  -0.228
  N  N803  1  0.175700  0.330000  0.504600  1.0  -0.2267
  N  N804  1  0.675700  0.830000  0.004600  1.0  -0.2267
  N  N805  1  0.495400  0.824300  0.330000  1.0  -0.2282
  N  N806  1  0.995400  0.324300  0.830000  1.0  -0.2282
  N  N807  1  0.504600  0.824300  0.670000  1.0  -0.2274
  N  N808  1  0.004600  0.324300  0.170000  1.0  -0.2274
  N  N809  1  0.495400  0.175700  0.670000  1.0  -0.2274
  N  N810  1  0.995400  0.675700  0.170000  1.0  -0.2274
  N  N811  1  0.504600  0.175700  0.330000  1.0  -0.2281
  N  N812  1  0.004600  0.675700  0.830000  1.0  -0.2281
  O  O813  1  0.366200  0.566300  0.852300  1.0  -0.2805
  O  O814  1  0.459300  0.531600  0.956800  1.0  -0.5958
  O  O815  1  0.301900  0.676000  0.785100  1.0  -0.6265
  O  O816  1  0.458000  0.463800  0.960100  1.0  -0.5669
  O  O817  1  0.289000  0.330300  0.745500  1.0  -0.6244
  O  O818  1  0.252900  0.327300  0.799600  1.0  -0.6113
  O  O819  1  0.249600  0.650800  0.753500  1.0  -0.6207
  O  O820  1  0.866200  0.066300  0.352300  1.0  -0.2805
  O  O821  1  0.959300  0.031600  0.456800  1.0  -0.5958
  O  O822  1  0.801900  0.176000  0.285100  1.0  -0.6265
  O  O823  1  0.958000  0.963800  0.460100  1.0  -0.5669
  O  O824  1  0.789000  0.830300  0.245500  1.0  -0.6244
  O  O825  1  0.752900  0.827300  0.299600  1.0  -0.6113
  O  O826  1  0.749600  0.150800  0.253500  1.0  -0.6207
  O  O827  1  0.633800  0.433700  0.852300  1.0  -0.2779
  O  O828  1  0.540700  0.468400  0.956800  1.0  -0.5967
  O  O829  1  0.698100  0.324000  0.785100  1.0  -0.6272
  O  O830  1  0.542000  0.536200  0.960100  1.0  -0.5657
  O  O831  1  0.711000  0.669700  0.745500  1.0  -0.6247
  O  O832  1  0.747100  0.672700  0.799600  1.0  -0.6111
  O  O833  1  0.750400  0.349200  0.753500  1.0  -0.6195
  O  O834  1  0.133800  0.933700  0.352300  1.0  -0.2779
  O  O835  1  0.040700  0.968400  0.456800  1.0  -0.5967
  O  O836  1  0.198100  0.824000  0.285100  1.0  -0.6272
  O  O837  1  0.042000  0.036200  0.460100  1.0  -0.5657
  O  O838  1  0.211000  0.169700  0.245500  1.0  -0.6247
  O  O839  1  0.247100  0.172700  0.299600  1.0  -0.6111
  O  O840  1  0.250400  0.849200  0.253500  1.0  -0.6195
  O  O841  1  0.633800  0.566300  0.147700  1.0  -0.2796
  O  O842  1  0.540700  0.531600  0.043200  1.0  -0.5962
  O  O843  1  0.698100  0.676000  0.214900  1.0  -0.6275
  O  O844  1  0.542000  0.463800  0.039900  1.0  -0.5676
  O  O845  1  0.711000  0.330300  0.254500  1.0  -0.6256
  O  O846  1  0.747100  0.327300  0.200400  1.0  -0.6094
  O  O847  1  0.750400  0.650800  0.246500  1.0  -0.6191
  O  O848  1  0.133800  0.066300  0.647700  1.0  -0.2796
  O  O849  1  0.040700  0.031600  0.543200  1.0  -0.5962
  O  O850  1  0.198100  0.176000  0.714900  1.0  -0.6275
  O  O851  1  0.042000  0.963800  0.539900  1.0  -0.5676
  O  O852  1  0.211000  0.830300  0.754500  1.0  -0.6256
  O  O853  1  0.247100  0.827300  0.700400  1.0  -0.6094
  O  O854  1  0.250400  0.150800  0.746500  1.0  -0.6191
  O  O855  1  0.366200  0.433700  0.147700  1.0  -0.2787
  O  O856  1  0.459300  0.468400  0.043200  1.0  -0.596
  O  O857  1  0.301900  0.324000  0.214900  1.0  -0.6268
  O  O858  1  0.458000  0.536200  0.039900  1.0  -0.5663
  O  O859  1  0.289000  0.669700  0.254500  1.0  -0.6242
  O  O860  1  0.252900  0.672700  0.200400  1.0  -0.6094
  O  O861  1  0.249600  0.349200  0.246500  1.0  -0.6203
  O  O862  1  0.866200  0.933700  0.647700  1.0  -0.2787
  O  O863  1  0.959300  0.968400  0.543200  1.0  -0.596
  O  O864  1  0.801900  0.824000  0.714900  1.0  -0.6268
  O  O865  1  0.958000  0.036200  0.539900  1.0  -0.5663
  O  O866  1  0.789000  0.169700  0.754500  1.0  -0.6242
  O  O867  1  0.752900  0.172700  0.700400  1.0  -0.6094
  O  O868  1  0.749600  0.849200  0.746500  1.0  -0.6203
  O  O869  1  0.852300  0.366200  0.566300  1.0  -0.2786
  O  O870  1  0.956800  0.459300  0.531600  1.0  -0.5961
  O  O871  1  0.785100  0.301900  0.676000  1.0  -0.6266
  O  O872  1  0.960100  0.458000  0.463800  1.0  -0.5639
  O  O873  1  0.745500  0.289000  0.330300  1.0  -0.6242
  O  O874  1  0.799600  0.252900  0.327300  1.0  -0.6123
  O  O875  1  0.753500  0.249600  0.650800  1.0  -0.6212
  O  O876  1  0.352300  0.866200  0.066300  1.0  -0.2786
  O  O877  1  0.456800  0.959300  0.031600  1.0  -0.5961
  O  O878  1  0.285100  0.801900  0.176000  1.0  -0.6266
  O  O879  1  0.460100  0.958000  0.963800  1.0  -0.5639
  O  O880  1  0.245500  0.789000  0.830300  1.0  -0.6242
  O  O881  1  0.299600  0.752900  0.827300  1.0  -0.6123
  O  O882  1  0.253500  0.749600  0.150800  1.0  -0.6212
  O  O883  1  0.852300  0.633800  0.433700  1.0  -0.2821
  O  O884  1  0.956800  0.540700  0.468400  1.0  -0.5978
  O  O885  1  0.785100  0.698100  0.324000  1.0  -0.6267
  O  O886  1  0.960100  0.542000  0.536200  1.0  -0.5647
  O  O887  1  0.745500  0.711000  0.669700  1.0  -0.625
  O  O888  1  0.799600  0.747100  0.672700  1.0  -0.6123
  O  O889  1  0.753500  0.750400  0.349200  1.0  -0.6217
  O  O890  1  0.352300  0.133800  0.933700  1.0  -0.2821
  O  O891  1  0.456800  0.040700  0.968400  1.0  -0.5978
  O  O892  1  0.285100  0.198100  0.824000  1.0  -0.6267
  O  O893  1  0.460100  0.042000  0.036200  1.0  -0.5647
  O  O894  1  0.245500  0.211000  0.169700  1.0  -0.625
  O  O895  1  0.299600  0.247100  0.172700  1.0  -0.6123
  O  O896  1  0.253500  0.250400  0.849200  1.0  -0.6217
  O  O897  1  0.147700  0.633800  0.566300  1.0  -0.2798
  O  O898  1  0.043200  0.540700  0.531600  1.0  -0.5968
  O  O899  1  0.214900  0.698100  0.676000  1.0  -0.6271
  O  O900  1  0.039900  0.542000  0.463800  1.0  -0.5635
  O  O901  1  0.254500  0.711000  0.330300  1.0  -0.6233
  O  O902  1  0.200400  0.747100  0.327300  1.0  -0.6118
  O  O903  1  0.246500  0.750400  0.650800  1.0  -0.6215
  O  O904  1  0.647700  0.133800  0.066300  1.0  -0.2798
  O  O905  1  0.543200  0.040700  0.031600  1.0  -0.5968
  O  O906  1  0.714900  0.198100  0.176000  1.0  -0.6271
  O  O907  1  0.539900  0.042000  0.963800  1.0  -0.5635
  O  O908  1  0.754500  0.211000  0.830300  1.0  -0.6233
  O  O909  1  0.700400  0.247100  0.827300  1.0  -0.6118
  O  O910  1  0.746500  0.250400  0.150800  1.0  -0.6215
  O  O911  1  0.147700  0.366200  0.433700  1.0  -0.2816
  O  O912  1  0.043200  0.459300  0.468400  1.0  -0.5978
  O  O913  1  0.214900  0.301900  0.324000  1.0  -0.6266
  O  O914  1  0.039900  0.458000  0.536200  1.0  -0.5639
  O  O915  1  0.254500  0.289000  0.669700  1.0  -0.6233
  O  O916  1  0.200400  0.252900  0.672700  1.0  -0.6107
  O  O917  1  0.246500  0.249600  0.349200  1.0  -0.6206
  O  O918  1  0.647700  0.866200  0.933700  1.0  -0.2816
  O  O919  1  0.543200  0.959300  0.968400  1.0  -0.5978
  O  O920  1  0.714900  0.801900  0.824000  1.0  -0.6266
  O  O921  1  0.539900  0.958000  0.036200  1.0  -0.5639
  O  O922  1  0.754500  0.789000  0.169700  1.0  -0.6233
  O  O923  1  0.700400  0.752900  0.172700  1.0  -0.6107
  O  O924  1  0.746500  0.749600  0.849200  1.0  -0.6206
  O  O925  1  0.566300  0.852300  0.366200  1.0  -0.2812
  O  O926  1  0.531600  0.956800  0.459300  1.0  -0.5936
  O  O927  1  0.676000  0.785100  0.301900  1.0  -0.6236
  O  O928  1  0.463800  0.960100  0.458000  1.0  -0.5652
  O  O929  1  0.330300  0.745500  0.289000  1.0  -0.6255
  O  O930  1  0.327300  0.799600  0.252900  1.0  -0.6108
  O  O931  1  0.650800  0.753500  0.249600  1.0  -0.6231
  O  O932  1  0.066300  0.352300  0.866200  1.0  -0.2812
  O  O933  1  0.031600  0.456800  0.959300  1.0  -0.5936
  O  O934  1  0.176000  0.285100  0.801900  1.0  -0.6236
  O  O935  1  0.963800  0.460100  0.958000  1.0  -0.5652
  O  O936  1  0.830300  0.245500  0.789000  1.0  -0.6255
  O  O937  1  0.827300  0.299600  0.752900  1.0  -0.6108
  O  O938  1  0.150800  0.253500  0.749600  1.0  -0.6231
  O  O939  1  0.433700  0.852300  0.633800  1.0  -0.2793
  O  O940  1  0.468400  0.956800  0.540700  1.0  -0.5943
  O  O941  1  0.324000  0.785100  0.698100  1.0  -0.6239
  O  O942  1  0.536200  0.960100  0.542000  1.0  -0.5653
  O  O943  1  0.669700  0.745500  0.711000  1.0  -0.6259
  O  O944  1  0.672700  0.799600  0.747100  1.0  -0.6121
  O  O945  1  0.349200  0.753500  0.750400  1.0  -0.6211
  O  O946  1  0.933700  0.352300  0.133800  1.0  -0.2793
  O  O947  1  0.968400  0.456800  0.040700  1.0  -0.5943
  O  O948  1  0.824000  0.285100  0.198100  1.0  -0.6239
  O  O949  1  0.036200  0.460100  0.042000  1.0  -0.5653
  O  O950  1  0.169700  0.245500  0.211000  1.0  -0.6259
  O  O951  1  0.172700  0.299600  0.247100  1.0  -0.6121
  O  O952  1  0.849200  0.253500  0.250400  1.0  -0.6211
  O  O953  1  0.566300  0.147700  0.633800  1.0  -0.2823
  O  O954  1  0.531600  0.043200  0.540700  1.0  -0.5932
  O  O955  1  0.676000  0.214900  0.698100  1.0  -0.6238
  O  O956  1  0.463800  0.039900  0.542000  1.0  -0.5656
  O  O957  1  0.330300  0.254500  0.711000  1.0  -0.6254
  O  O958  1  0.327300  0.200400  0.747100  1.0  -0.6107
  O  O959  1  0.650800  0.246500  0.750400  1.0  -0.622
  O  O960  1  0.066300  0.647700  0.133800  1.0  -0.2823
  O  O961  1  0.031600  0.543200  0.040700  1.0  -0.5932
  O  O962  1  0.176000  0.714900  0.198100  1.0  -0.6238
  O  O963  1  0.963800  0.539900  0.042000  1.0  -0.5656
  O  O964  1  0.830300  0.754500  0.211000  1.0  -0.6254
  O  O965  1  0.827300  0.700400  0.247100  1.0  -0.6107
  O  O966  1  0.150800  0.746500  0.250400  1.0  -0.622
  O  O967  1  0.433700  0.147700  0.366200  1.0  -0.2783
  O  O968  1  0.468400  0.043200  0.459300  1.0  -0.5942
  O  O969  1  0.324000  0.214900  0.301900  1.0  -0.6241
  O  O970  1  0.536200  0.039900  0.458000  1.0  -0.5655
  O  O971  1  0.669700  0.254500  0.289000  1.0  -0.6271
  O  O972  1  0.672700  0.200400  0.252900  1.0  -0.6104
  O  O973  1  0.349200  0.246500  0.249600  1.0  -0.6222
  O  O974  1  0.933700  0.647700  0.866200  1.0  -0.2783
  O  O975  1  0.968400  0.543200  0.959300  1.0  -0.5942
  O  O976  1  0.824000  0.714900  0.801900  1.0  -0.6241
  O  O977  1  0.036200  0.539900  0.958000  1.0  -0.5655
  O  O978  1  0.169700  0.754500  0.789000  1.0  -0.6271
  O  O979  1  0.172700  0.700400  0.752900  1.0  -0.6104
  O  O980  1  0.849200  0.746500  0.749600  1.0  -0.6222
  O  O981  1  0.245700  0.245700  0.754300  1.0  -1.1983
  O  O982  1  0.745700  0.745700  0.254300  1.0  -1.1983
  O  O983  1  0.754300  0.754300  0.754300  1.0  -1.1983
  O  O984  1  0.254300  0.254300  0.254300  1.0  -1.1983
  O  O985  1  0.754300  0.245700  0.245700  1.0  -1.1983
  O  O986  1  0.254300  0.745700  0.745700  1.0  -1.1983
  O  O987  1  0.245700  0.754300  0.245700  1.0  -1.1982
  O  O988  1  0.745700  0.254300  0.745700  1.0  -1.1982
