# generated using pymatgen
data_Zn8Cu3H60C126(N3O22)2
_symmetry_space_group_name_H-M   'P 1'
_cell_length_a   33.75530000
_cell_length_b   33.75530000
_cell_length_c   33.75530000
_cell_angle_alpha   90.00000000
_cell_angle_beta   90.00000000
_cell_angle_gamma   90.00000000
_symmetry_Int_Tables_number   1
_chemical_formula_structural   Zn8Cu3H60C126(N3O22)2
_chemical_formula_sum   'Zn32 Cu12 H240 C504 N24 O176'
_cell_volume   38461.47331301
_cell_formula_units_Z   4
loop_
 _symmetry_equiv_pos_site_id
 _symmetry_equiv_pos_as_xyz
  1  'x, y, z'
loop_
 _atom_site_type_symbol
 _atom_site_label
 _atom_site_symmetry_multiplicity
 _atom_site_fract_x
 _atom_site_fract_y
 _atom_site_fract_z
 _atom_site_occupancy
 _atom_site_charge
  Zn  Zn1  1  0.225960  0.268540  0.301690  1.0  1.0766
  Zn  Zn2  1  0.725960  0.768540  0.801690  1.0  1.0766
  Zn  Zn3  1  0.774040  0.731460  0.301690  1.0  1.0768
  Zn  Zn4  1  0.274040  0.231460  0.801690  1.0  1.0768
  Zn  Zn5  1  0.774040  0.268540  0.698310  1.0  1.076
  Zn  Zn6  1  0.274040  0.768540  0.198310  1.0  1.076
  Zn  Zn7  1  0.225960  0.731460  0.698310  1.0  1.076
  Zn  Zn8  1  0.725960  0.231460  0.198310  1.0  1.076
  Zn  Zn9  1  0.301690  0.225960  0.268540  1.0  1.0729
  Zn  Zn10  1  0.801690  0.725960  0.768540  1.0  1.0729
  Zn  Zn11  1  0.301690  0.774040  0.731460  1.0  1.0724
  Zn  Zn12  1  0.801690  0.274040  0.231460  1.0  1.0724
  Zn  Zn13  1  0.698310  0.774040  0.268540  1.0  1.0734
  Zn  Zn14  1  0.198310  0.274040  0.768540  1.0  1.0734
  Zn  Zn15  1  0.698310  0.225960  0.731460  1.0  1.0733
  Zn  Zn16  1  0.198310  0.725960  0.231460  1.0  1.0733
  Zn  Zn17  1  0.268540  0.301690  0.225960  1.0  1.0729
  Zn  Zn18  1  0.768540  0.801690  0.725960  1.0  1.0729
  Zn  Zn19  1  0.731460  0.301690  0.774040  1.0  1.0734
  Zn  Zn20  1  0.231460  0.801690  0.274040  1.0  1.0734
  Zn  Zn21  1  0.268540  0.698310  0.774040  1.0  1.0724
  Zn  Zn22  1  0.768540  0.198310  0.274040  1.0  1.0724
  Zn  Zn23  1  0.731460  0.698310  0.225960  1.0  1.0725
  Zn  Zn24  1  0.231460  0.198310  0.725960  1.0  1.0725
  Zn  Zn25  1  0.220660  0.220660  0.220660  1.0  1.0865
  Zn  Zn26  1  0.720660  0.720660  0.720660  1.0  1.0865
  Zn  Zn27  1  0.779340  0.779340  0.220660  1.0  1.0858
  Zn  Zn28  1  0.279340  0.279340  0.720660  1.0  1.0858
  Zn  Zn29  1  0.779340  0.220660  0.779340  1.0  1.088
  Zn  Zn30  1  0.279340  0.720660  0.279340  1.0  1.088
  Zn  Zn31  1  0.220660  0.779340  0.779340  1.0  1.0874
  Zn  Zn32  1  0.720660  0.279340  0.279340  1.0  1.0874
  Cu  Cu33  1  0.961190  0.000000  0.500000  1.0  0.8991
  Cu  Cu34  1  0.461190  0.500000  0.000000  1.0  0.8991
  Cu  Cu35  1  0.038810  0.000000  0.500000  1.0  0.9
  Cu  Cu36  1  0.538810  0.500000  0.000000  1.0  0.9
  Cu  Cu37  1  0.500000  0.961190  0.000000  1.0  0.9014
  Cu  Cu38  1  0.000000  0.461190  0.500000  1.0  0.9014
  Cu  Cu39  1  0.500000  0.038810  0.000000  1.0  0.8989
  Cu  Cu40  1  0.000000  0.538810  0.500000  1.0  0.8989
  Cu  Cu41  1  0.000000  0.500000  0.961190  1.0  0.9007
  Cu  Cu42  1  0.500000  0.000000  0.461190  1.0  0.9007
  Cu  Cu43  1  0.000000  0.500000  0.038810  1.0  0.8992
  Cu  Cu44  1  0.500000  0.000000  0.538810  1.0  0.8992
  H  H45  1  0.109500  0.245600  0.334000  1.0  0.095
  H  H46  1  0.046500  0.226500  0.354000  1.0  0.1296
  H  H47  1  0.043700  0.151400  0.263000  1.0  0.1067
  H  H48  1  0.107400  0.170400  0.244000  1.0  0.1101
  H  H49  1  0.063400  0.135400  0.362700  1.0  0.1038
  H  H50  1  0.062000  0.089200  0.411800  1.0  0.101
  H  H51  1  0.944000  0.087300  0.407900  1.0  0.1165
  H  H52  1  0.986700  0.224700  0.274100  1.0  0.0995
  H  H53  1  0.924800  0.246900  0.254100  1.0  0.1004
  H  H54  1  0.872900  0.166500  0.323800  1.0  0.1238
  H  H55  1  0.609500  0.745600  0.834000  1.0  0.095
  H  H56  1  0.546500  0.726500  0.854000  1.0  0.1296
  H  H57  1  0.543700  0.651400  0.763000  1.0  0.1077
  H  H58  1  0.607400  0.670400  0.744000  1.0  0.1101
  H  H59  1  0.563400  0.635400  0.862700  1.0  0.1038
  H  H60  1  0.562000  0.589200  0.911800  1.0  0.101
  H  H61  1  0.444000  0.587300  0.907900  1.0  0.1165
  H  H62  1  0.486700  0.724700  0.774100  1.0  0.0995
  H  H63  1  0.424800  0.746900  0.754100  1.0  0.1004
  H  H64  1  0.372900  0.666500  0.823800  1.0  0.1238
  H  H65  1  0.890500  0.754400  0.334000  1.0  0.095
  H  H66  1  0.953500  0.773500  0.354000  1.0  0.1291
  H  H67  1  0.956300  0.848600  0.263000  1.0  0.1072
  H  H68  1  0.892600  0.829600  0.244000  1.0  0.1101
  H  H69  1  0.936600  0.864600  0.362700  1.0  0.1031
  H  H70  1  0.938000  0.910800  0.411800  1.0  0.1012
  H  H71  1  0.056000  0.912700  0.407900  1.0  0.116
  H  H72  1  0.013300  0.775300  0.274100  1.0  0.1003
  H  H73  1  0.075200  0.753100  0.254100  1.0  0.0997
  H  H74  1  0.127100  0.833500  0.323800  1.0  0.1236
  H  H75  1  0.390500  0.254400  0.834000  1.0  0.095
  H  H76  1  0.453500  0.273500  0.854000  1.0  0.1291
  H  H77  1  0.456300  0.348600  0.763000  1.0  0.1085
  H  H78  1  0.392600  0.329600  0.744000  1.0  0.1101
  H  H79  1  0.436600  0.364600  0.862700  1.0  0.1031
  H  H80  1  0.438000  0.410800  0.911800  1.0  0.1012
  H  H81  1  0.556000  0.412700  0.907900  1.0  0.116
  H  H82  1  0.513300  0.275300  0.774100  1.0  0.1003
  H  H83  1  0.575200  0.253100  0.754100  1.0  0.0997
  H  H84  1  0.627100  0.333500  0.823800  1.0  0.1236
  H  H85  1  0.890500  0.245600  0.666000  1.0  0.0948
  H  H86  1  0.953500  0.226500  0.646000  1.0  0.1283
  H  H87  1  0.956300  0.151400  0.737000  1.0  0.1085
  H  H88  1  0.892600  0.170400  0.756000  1.0  0.11
  H  H89  1  0.936600  0.135400  0.637300  1.0  0.1027
  H  H90  1  0.938000  0.089200  0.588200  1.0  0.1016
  H  H91  1  0.056000  0.087300  0.592100  1.0  0.1164
  H  H92  1  0.013300  0.224700  0.725900  1.0  0.1004
  H  H93  1  0.075200  0.246900  0.745900  1.0  0.1005
  H  H94  1  0.127100  0.166500  0.676200  1.0  0.1234
  H  H95  1  0.390500  0.745600  0.166000  1.0  0.0948
  H  H96  1  0.453500  0.726500  0.146000  1.0  0.1283
  H  H97  1  0.456300  0.651400  0.237000  1.0  0.1097
  H  H98  1  0.392600  0.670400  0.256000  1.0  0.11
  H  H99  1  0.436600  0.635400  0.137300  1.0  0.1027
  H  H100  1  0.438000  0.589200  0.088200  1.0  0.1016
  H  H101  1  0.556000  0.587300  0.092100  1.0  0.1164
  H  H102  1  0.513300  0.724700  0.225900  1.0  0.1004
  H  H103  1  0.575200  0.746900  0.245900  1.0  0.1005
  H  H104  1  0.627100  0.666500  0.176200  1.0  0.1234
  H  H105  1  0.109500  0.754400  0.666000  1.0  0.0947
  H  H106  1  0.046500  0.773500  0.646000  1.0  0.1284
  H  H107  1  0.043700  0.848600  0.737000  1.0  0.1084
  H  H108  1  0.107400  0.829600  0.756000  1.0  0.1104
  H  H109  1  0.063400  0.864600  0.637300  1.0  0.1031
  H  H110  1  0.062000  0.910800  0.588200  1.0  0.1017
  H  H111  1  0.944000  0.912700  0.592100  1.0  0.1165
  H  H112  1  0.986700  0.775300  0.725900  1.0  0.0994
  H  H113  1  0.924800  0.753100  0.745900  1.0  0.1003
  H  H114  1  0.872900  0.833500  0.676200  1.0  0.1239
  H  H115  1  0.609500  0.254400  0.166000  1.0  0.0947
  H  H116  1  0.546500  0.273500  0.146000  1.0  0.1284
  H  H117  1  0.543700  0.348600  0.237000  1.0  0.1096
  H  H118  1  0.607400  0.329600  0.256000  1.0  0.1104
  H  H119  1  0.563400  0.364600  0.137300  1.0  0.1031
  H  H120  1  0.562000  0.410800  0.088200  1.0  0.1017
  H  H121  1  0.444000  0.412700  0.092100  1.0  0.1165
  H  H122  1  0.486700  0.275300  0.225900  1.0  0.0994
  H  H123  1  0.424800  0.253100  0.245900  1.0  0.1003
  H  H124  1  0.372900  0.333500  0.176200  1.0  0.1239
  H  H125  1  0.334000  0.109500  0.245600  1.0  0.0949
  H  H126  1  0.354000  0.046500  0.226500  1.0  0.1285
  H  H127  1  0.263000  0.043700  0.151400  1.0  0.1091
  H  H128  1  0.244000  0.107400  0.170400  1.0  0.1102
  H  H129  1  0.362700  0.063400  0.135400  1.0  0.1035
  H  H130  1  0.411800  0.062000  0.089200  1.0  0.1018
  H  H131  1  0.407900  0.944000  0.087300  1.0  0.1163
  H  H132  1  0.274100  0.986700  0.224700  1.0  0.0997
  H  H133  1  0.254100  0.924800  0.246900  1.0  0.1013
  H  H134  1  0.323800  0.872900  0.166500  1.0  0.1232
  H  H135  1  0.834000  0.609500  0.745600  1.0  0.0949
  H  H136  1  0.854000  0.546500  0.726500  1.0  0.1285
  H  H137  1  0.763000  0.543700  0.651400  1.0  0.1098
  H  H138  1  0.744000  0.607400  0.670400  1.0  0.1102
  H  H139  1  0.862700  0.563400  0.635400  1.0  0.1035
  H  H140  1  0.911800  0.562000  0.589200  1.0  0.1018
  H  H141  1  0.907900  0.444000  0.587300  1.0  0.1163
  H  H142  1  0.774100  0.486700  0.724700  1.0  0.0997
  H  H143  1  0.754100  0.424800  0.746900  1.0  0.1013
  H  H144  1  0.823800  0.372900  0.666500  1.0  0.1232
  H  H145  1  0.334000  0.890500  0.754400  1.0  0.0954
  H  H146  1  0.354000  0.953500  0.773500  1.0  0.1281
  H  H147  1  0.263000  0.956300  0.848600  1.0  0.1096
  H  H148  1  0.244000  0.892600  0.829600  1.0  0.1104
  H  H149  1  0.362700  0.936600  0.864600  1.0  0.1037
  H  H150  1  0.411800  0.938000  0.910800  1.0  0.1014
  H  H151  1  0.407900  0.056000  0.912700  1.0  0.116
  H  H152  1  0.274100  0.013300  0.775300  1.0  0.0986
  H  H153  1  0.254100  0.075200  0.753100  1.0  0.1008
  H  H154  1  0.323800  0.127100  0.833500  1.0  0.1235
  H  H155  1  0.834000  0.390500  0.254400  1.0  0.0954
  H  H156  1  0.854000  0.453500  0.273500  1.0  0.1281
  H  H157  1  0.763000  0.456300  0.348600  1.0  0.1104
  H  H158  1  0.744000  0.392600  0.329600  1.0  0.1104
  H  H159  1  0.862700  0.436600  0.364600  1.0  0.1037
  H  H160  1  0.911800  0.438000  0.410800  1.0  0.1014
  H  H161  1  0.907900  0.556000  0.412700  1.0  0.116
  H  H162  1  0.774100  0.513300  0.275300  1.0  0.0986
  H  H163  1  0.754100  0.575200  0.253100  1.0  0.1008
  H  H164  1  0.823800  0.627100  0.333500  1.0  0.1235
  H  H165  1  0.666000  0.890500  0.245600  1.0  0.0954
  H  H166  1  0.646000  0.953500  0.226500  1.0  0.1291
  H  H167  1  0.737000  0.956300  0.151400  1.0  0.1085
  H  H168  1  0.756000  0.892600  0.170400  1.0  0.1108
  H  H169  1  0.637300  0.936600  0.135400  1.0  0.1033
  H  H170  1  0.588200  0.938000  0.089200  1.0  0.1018
  H  H171  1  0.592100  0.056000  0.087300  1.0  0.117
  H  H172  1  0.725900  0.013300  0.224700  1.0  0.0985
  H  H173  1  0.745900  0.075200  0.246900  1.0  0.1011
  H  H174  1  0.676200  0.127100  0.166500  1.0  0.1237
  H  H175  1  0.166000  0.390500  0.745600  1.0  0.0954
  H  H176  1  0.146000  0.453500  0.726500  1.0  0.1291
  H  H177  1  0.237000  0.456300  0.651400  1.0  0.1095
  H  H178  1  0.256000  0.392600  0.670400  1.0  0.1108
  H  H179  1  0.137300  0.436600  0.635400  1.0  0.1033
  H  H180  1  0.088200  0.438000  0.589200  1.0  0.1018
  H  H181  1  0.092100  0.556000  0.587300  1.0  0.117
  H  H182  1  0.225900  0.513300  0.724700  1.0  0.0985
  H  H183  1  0.245900  0.575200  0.746900  1.0  0.1011
  H  H184  1  0.176200  0.627100  0.666500  1.0  0.1237
  H  H185  1  0.666000  0.109500  0.754400  1.0  0.0952
  H  H186  1  0.646000  0.046500  0.773500  1.0  0.1282
  H  H187  1  0.737000  0.043700  0.848600  1.0  0.1083
  H  H188  1  0.756000  0.107400  0.829600  1.0  0.1106
  H  H189  1  0.637300  0.063400  0.864600  1.0  0.1038
  H  H190  1  0.588200  0.062000  0.910800  1.0  0.1016
  H  H191  1  0.592100  0.944000  0.912700  1.0  0.116
  H  H192  1  0.725900  0.986700  0.775300  1.0  0.0992
  H  H193  1  0.745900  0.924800  0.753100  1.0  0.1009
  H  H194  1  0.676200  0.872900  0.833500  1.0  0.1232
  H  H195  1  0.166000  0.609500  0.254400  1.0  0.0952
  H  H196  1  0.146000  0.546500  0.273500  1.0  0.1282
  H  H197  1  0.237000  0.543700  0.348600  1.0  0.109
  H  H198  1  0.256000  0.607400  0.329600  1.0  0.1106
  H  H199  1  0.137300  0.563400  0.364600  1.0  0.1038
  H  H200  1  0.088200  0.562000  0.410800  1.0  0.1016
  H  H201  1  0.092100  0.444000  0.412700  1.0  0.116
  H  H202  1  0.225900  0.486700  0.275300  1.0  0.0992
  H  H203  1  0.245900  0.424800  0.253100  1.0  0.1009
  H  H204  1  0.176200  0.372900  0.333500  1.0  0.1232
  H  H205  1  0.245600  0.334000  0.109500  1.0  0.0943
  H  H206  1  0.226500  0.354000  0.046500  1.0  0.1299
  H  H207  1  0.151400  0.263000  0.043700  1.0  0.1093
  H  H208  1  0.170400  0.244000  0.107400  1.0  0.1086
  H  H209  1  0.135400  0.362700  0.063400  1.0  0.1037
  H  H210  1  0.089200  0.411800  0.062000  1.0  0.1015
  H  H211  1  0.087300  0.407900  0.944000  1.0  0.1162
  H  H212  1  0.224700  0.274100  0.986700  1.0  0.0995
  H  H213  1  0.246900  0.254100  0.924800  1.0  0.1016
  H  H214  1  0.166500  0.323800  0.872900  1.0  0.1247
  H  H215  1  0.745600  0.834000  0.609500  1.0  0.0943
  H  H216  1  0.726500  0.854000  0.546500  1.0  0.1299
  H  H217  1  0.651400  0.763000  0.543700  1.0  0.1099
  H  H218  1  0.670400  0.744000  0.607400  1.0  0.1086
  H  H219  1  0.635400  0.862700  0.563400  1.0  0.1037
  H  H220  1  0.589200  0.911800  0.562000  1.0  0.1015
  H  H221  1  0.587300  0.907900  0.444000  1.0  0.1162
  H  H222  1  0.724700  0.774100  0.486700  1.0  0.0995
  H  H223  1  0.746900  0.754100  0.424800  1.0  0.1016
  H  H224  1  0.666500  0.823800  0.372900  1.0  0.1247
  H  H225  1  0.754400  0.334000  0.890500  1.0  0.0948
  H  H226  1  0.773500  0.354000  0.953500  1.0  0.1305
  H  H227  1  0.848600  0.263000  0.956300  1.0  0.1082
  H  H228  1  0.829600  0.244000  0.892600  1.0  0.1088
  H  H229  1  0.864600  0.362700  0.936600  1.0  0.1036
  H  H230  1  0.910800  0.411800  0.938000  1.0  0.1015
  H  H231  1  0.912700  0.407900  0.056000  1.0  0.1163
  H  H232  1  0.775300  0.274100  0.013300  1.0  0.0997
  H  H233  1  0.753100  0.254100  0.075200  1.0  0.1014
  H  H234  1  0.833500  0.323800  0.127100  1.0  0.1246
  H  H235  1  0.254400  0.834000  0.390500  1.0  0.0948
  H  H236  1  0.273500  0.854000  0.453500  1.0  0.1305
  H  H237  1  0.348600  0.763000  0.456300  1.0  0.109
  H  H238  1  0.329600  0.744000  0.392600  1.0  0.1088
  H  H239  1  0.364600  0.862700  0.436600  1.0  0.1036
  H  H240  1  0.410800  0.911800  0.438000  1.0  0.1015
  H  H241  1  0.412700  0.907900  0.556000  1.0  0.1163
  H  H242  1  0.275300  0.774100  0.513300  1.0  0.0997
  H  H243  1  0.253100  0.754100  0.575200  1.0  0.1014
  H  H244  1  0.333500  0.823800  0.627100  1.0  0.1246
  H  H245  1  0.245600  0.666000  0.890500  1.0  0.0944
  H  H246  1  0.226500  0.646000  0.953500  1.0  0.1299
  H  H247  1  0.151400  0.737000  0.956300  1.0  0.1092
  H  H248  1  0.170400  0.756000  0.892600  1.0  0.1097
  H  H249  1  0.135400  0.637300  0.936600  1.0  0.1034
  H  H250  1  0.089200  0.588200  0.938000  1.0  0.1017
  H  H251  1  0.087300  0.592100  0.056000  1.0  0.1165
  H  H252  1  0.224700  0.725900  0.013300  1.0  0.1003
  H  H253  1  0.246900  0.745900  0.075200  1.0  0.1018
  H  H254  1  0.166500  0.676200  0.127100  1.0  0.1248
  H  H255  1  0.745600  0.166000  0.390500  1.0  0.0944
  H  H256  1  0.726500  0.146000  0.453500  1.0  0.1299
  H  H257  1  0.651400  0.237000  0.456300  1.0  0.1101
  H  H258  1  0.670400  0.256000  0.392600  1.0  0.1097
  H  H259  1  0.635400  0.137300  0.436600  1.0  0.1034
  H  H260  1  0.589200  0.088200  0.438000  1.0  0.1017
  H  H261  1  0.587300  0.092100  0.556000  1.0  0.1165
  H  H262  1  0.724700  0.225900  0.513300  1.0  0.1003
  H  H263  1  0.746900  0.245900  0.575200  1.0  0.1018
  H  H264  1  0.666500  0.176200  0.627100  1.0  0.1248
  H  H265  1  0.754400  0.666000  0.109500  1.0  0.0943
  H  H266  1  0.773500  0.646000  0.046500  1.0  0.1297
  H  H267  1  0.848600  0.737000  0.043700  1.0  0.1089
  H  H268  1  0.829600  0.756000  0.107400  1.0  0.1095
  H  H269  1  0.864600  0.637300  0.063400  1.0  0.1036
  H  H270  1  0.910800  0.588200  0.062000  1.0  0.1013
  H  H271  1  0.912700  0.592100  0.944000  1.0  0.1164
  H  H272  1  0.775300  0.725900  0.986700  1.0  0.0995
  H  H273  1  0.753100  0.745900  0.924800  1.0  0.1016
  H  H274  1  0.833500  0.676200  0.872900  1.0  0.125
  H  H275  1  0.254400  0.166000  0.609500  1.0  0.0943
  H  H276  1  0.273500  0.146000  0.546500  1.0  0.1297
  H  H277  1  0.348600  0.237000  0.543700  1.0  0.1097
  H  H278  1  0.329600  0.256000  0.607400  1.0  0.1095
  H  H279  1  0.364600  0.137300  0.563400  1.0  0.1036
  H  H280  1  0.410800  0.088200  0.562000  1.0  0.1013
  H  H281  1  0.412700  0.092100  0.444000  1.0  0.1164
  H  H282  1  0.275300  0.225900  0.486700  1.0  0.0995
  H  H283  1  0.253100  0.245900  0.424800  1.0  0.1016
  H  H284  1  0.333500  0.176200  0.372900  1.0  0.125
  C  C285  1  0.155140  0.223600  0.276000  1.0  0.7207
  C  C286  1  0.114360  0.210700  0.287100  1.0  -0.1099
  C  C287  1  0.096200  0.226300  0.319600  1.0  -0.0322
  C  C288  1  0.058600  0.214800  0.332200  1.0  -0.2591
  C  C289  1  0.040300  0.184900  0.310800  1.0  0.1449
  C  C290  1  0.057400  0.170000  0.278000  1.0  -0.1519
  C  C291  1  0.095400  0.181900  0.265900  1.0  -0.0379
  C  C292  1  0.004710  0.139400  0.355000  1.0  0.1478
  C  C293  1  0.039100  0.125700  0.371600  1.0  -0.1418
  C  C294  1  0.038200  0.098000  0.401000  1.0  -0.0422
  C  C295  1  0.003100  0.082700  0.415300  1.0  -0.2137
  C  C296  1  0.968150  0.096700  0.398700  1.0  -0.0436
  C  C297  1  0.968900  0.124000  0.369100  1.0  0.2527
  C  C298  1  0.932360  0.164800  0.325900  1.0  0.1806
  C  C299  1  0.967570  0.183300  0.312400  1.0  0.1771
  C  C300  1  0.964000  0.213100  0.284500  1.0  -0.1372
  C  C301  1  0.926830  0.226000  0.271800  1.0  -0.0756
  C  C302  1  0.893020  0.207600  0.285700  1.0  -0.1827
  C  C303  1  0.895760  0.177800  0.313500  1.0  -0.0909
  C  C304  1  0.002000  0.052130  0.446870  1.0  0.6753
  C  C305  1  0.852380  0.219600  0.272800  1.0  0.7113
  C  C306  1  0.655140  0.723600  0.776000  1.0  0.7207
  C  C307  1  0.614360  0.710700  0.787100  1.0  -0.1099
  C  C308  1  0.596200  0.726300  0.819600  1.0  -0.0322
  C  C309  1  0.558600  0.714800  0.832200  1.0  -0.2591
  C  C310  1  0.540300  0.684900  0.810800  1.0  0.1449
  C  C311  1  0.557400  0.670000  0.778000  1.0  -0.1519
  C  C312  1  0.595400  0.681900  0.765900  1.0  -0.0379
  C  C313  1  0.504710  0.639400  0.855000  1.0  0.1478
  C  C314  1  0.539100  0.625700  0.871600  1.0  -0.1418
  C  C315  1  0.538200  0.598000  0.901000  1.0  -0.0422
  C  C316  1  0.503100  0.582700  0.915300  1.0  -0.2137
  C  C317  1  0.468150  0.596700  0.898700  1.0  -0.0436
  C  C318  1  0.468900  0.624000  0.869100  1.0  0.2527
  C  C319  1  0.432360  0.664800  0.825900  1.0  0.1806
  C  C320  1  0.467570  0.683300  0.812400  1.0  0.1771
  C  C321  1  0.464000  0.713100  0.784500  1.0  -0.1372
  C  C322  1  0.426830  0.726000  0.771800  1.0  -0.0756
  C  C323  1  0.393020  0.707600  0.785700  1.0  -0.1827
  C  C324  1  0.395760  0.677800  0.813500  1.0  -0.0909
  C  C325  1  0.502000  0.552130  0.946870  1.0  0.6753
  C  C326  1  0.352380  0.719600  0.772800  1.0  0.7113
  C  C327  1  0.844860  0.776400  0.276000  1.0  0.7216
  C  C328  1  0.885640  0.789300  0.287100  1.0  -0.1114
  C  C329  1  0.903800  0.773700  0.319600  1.0  -0.032
  C  C330  1  0.941400  0.785200  0.332200  1.0  -0.2585
  C  C331  1  0.959700  0.815100  0.310800  1.0  0.1462
  C  C332  1  0.942600  0.830000  0.278000  1.0  -0.1509
  C  C333  1  0.904600  0.818100  0.265900  1.0  -0.0385
  C  C334  1  0.995290  0.860600  0.355000  1.0  0.1485
  C  C335  1  0.960900  0.874300  0.371600  1.0  -0.1408
  C  C336  1  0.961800  0.902000  0.401000  1.0  -0.0412
  C  C337  1  0.996900  0.917300  0.415300  1.0  -0.214
  C  C338  1  0.031850  0.903300  0.398700  1.0  -0.0426
  C  C339  1  0.031100  0.876000  0.369100  1.0  0.2542
  C  C340  1  0.067640  0.835200  0.325900  1.0  0.1809
  C  C341  1  0.032430  0.816700  0.312400  1.0  0.1775
  C  C342  1  0.036000  0.786900  0.284500  1.0  -0.1372
  C  C343  1  0.073170  0.774000  0.271800  1.0  -0.0758
  C  C344  1  0.106980  0.792400  0.285700  1.0  -0.1826
  C  C345  1  0.104240  0.822200  0.313500  1.0  -0.0922
  C  C346  1  0.998000  0.947870  0.446870  1.0  0.6759
  C  C347  1  0.147620  0.780400  0.272800  1.0  0.7098
  C  C348  1  0.344860  0.276400  0.776000  1.0  0.7216
  C  C349  1  0.385640  0.289300  0.787100  1.0  -0.1114
  C  C350  1  0.403800  0.273700  0.819600  1.0  -0.032
  C  C351  1  0.441400  0.285200  0.832200  1.0  -0.2585
  C  C352  1  0.459700  0.315100  0.810800  1.0  0.1462
  C  C353  1  0.442600  0.330000  0.778000  1.0  -0.1509
  C  C354  1  0.404600  0.318100  0.765900  1.0  -0.0385
  C  C355  1  0.495290  0.360600  0.855000  1.0  0.1485
  C  C356  1  0.460900  0.374300  0.871600  1.0  -0.1408
  C  C357  1  0.461800  0.402000  0.901000  1.0  -0.0412
  C  C358  1  0.496900  0.417300  0.915300  1.0  -0.214
  C  C359  1  0.531850  0.403300  0.898700  1.0  -0.0426
  C  C360  1  0.531100  0.376000  0.869100  1.0  0.2542
  C  C361  1  0.567640  0.335200  0.825900  1.0  0.1809
  C  C362  1  0.532430  0.316700  0.812400  1.0  0.1775
  C  C363  1  0.536000  0.286900  0.784500  1.0  -0.1372
  C  C364  1  0.573170  0.274000  0.771800  1.0  -0.0758
  C  C365  1  0.606980  0.292400  0.785700  1.0  -0.1826
  C  C366  1  0.604240  0.322200  0.813500  1.0  -0.0922
  C  C367  1  0.498000  0.447870  0.946870  1.0  0.6759
  C  C368  1  0.647620  0.280400  0.772800  1.0  0.7098
  C  C369  1  0.844860  0.223600  0.724000  1.0  0.7217
  C  C370  1  0.885640  0.210700  0.712900  1.0  -0.1112
  C  C371  1  0.903800  0.226300  0.680400  1.0  -0.0316
  C  C372  1  0.941400  0.214800  0.667800  1.0  -0.2587
  C  C373  1  0.959700  0.184900  0.689200  1.0  0.145
  C  C374  1  0.942600  0.170000  0.722000  1.0  -0.1523
  C  C375  1  0.904600  0.181900  0.734100  1.0  -0.0399
  C  C376  1  0.995290  0.139400  0.645000  1.0  0.1488
  C  C377  1  0.960900  0.125700  0.628400  1.0  -0.1404
  C  C378  1  0.961800  0.098000  0.599000  1.0  -0.0409
  C  C379  1  0.996900  0.082700  0.584700  1.0  -0.2144
  C  C380  1  0.031850  0.096700  0.601300  1.0  -0.0427
  C  C381  1  0.031100  0.124000  0.630900  1.0  0.2544
  C  C382  1  0.067640  0.164800  0.674100  1.0  0.1813
  C  C383  1  0.032430  0.183300  0.687600  1.0  0.1775
  C  C384  1  0.036000  0.213100  0.715500  1.0  -0.1367
  C  C385  1  0.073170  0.226000  0.728200  1.0  -0.0753
  C  C386  1  0.106980  0.207600  0.714300  1.0  -0.1826
  C  C387  1  0.104240  0.177800  0.686500  1.0  -0.0909
  C  C388  1  0.998000  0.052130  0.553130  1.0  0.6752
  C  C389  1  0.147620  0.219600  0.727200  1.0  0.7101
  C  C390  1  0.344860  0.723600  0.224000  1.0  0.7217
  C  C391  1  0.385640  0.710700  0.212900  1.0  -0.1112
  C  C392  1  0.403800  0.726300  0.180400  1.0  -0.0316
  C  C393  1  0.441400  0.714800  0.167800  1.0  -0.2587
  C  C394  1  0.459700  0.684900  0.189200  1.0  0.145
  C  C395  1  0.442600  0.670000  0.222000  1.0  -0.1523
  C  C396  1  0.404600  0.681900  0.234100  1.0  -0.0399
  C  C397  1  0.495290  0.639400  0.145000  1.0  0.1488
  C  C398  1  0.460900  0.625700  0.128400  1.0  -0.1404
  C  C399  1  0.461800  0.598000  0.099000  1.0  -0.0409
  C  C400  1  0.496900  0.582700  0.084700  1.0  -0.2144
  C  C401  1  0.531850  0.596700  0.101300  1.0  -0.0427
  C  C402  1  0.531100  0.624000  0.130900  1.0  0.2544
  C  C403  1  0.567640  0.664800  0.174100  1.0  0.1813
  C  C404  1  0.532430  0.683300  0.187600  1.0  0.1775
  C  C405  1  0.536000  0.713100  0.215500  1.0  -0.1367
  C  C406  1  0.573170  0.726000  0.228200  1.0  -0.0753
  C  C407  1  0.606980  0.707600  0.214300  1.0  -0.1826
  C  C408  1  0.604240  0.677800  0.186500  1.0  -0.0909
  C  C409  1  0.498000  0.552130  0.053130  1.0  0.6752
  C  C410  1  0.647620  0.719600  0.227200  1.0  0.7101
  C  C411  1  0.155140  0.776400  0.724000  1.0  0.7205
  C  C412  1  0.114360  0.789300  0.712900  1.0  -0.1108
  C  C413  1  0.096200  0.773700  0.680400  1.0  -0.0342
  C  C414  1  0.058600  0.785200  0.667800  1.0  -0.2584
  C  C415  1  0.040300  0.815100  0.689200  1.0  0.1445
  C  C416  1  0.057400  0.830000  0.722000  1.0  -0.1536
  C  C417  1  0.095400  0.818100  0.734100  1.0  -0.0394
  C  C418  1  0.004710  0.860600  0.645000  1.0  0.1486
  C  C419  1  0.039100  0.874300  0.628400  1.0  -0.1413
  C  C420  1  0.038200  0.902000  0.599000  1.0  -0.0427
  C  C421  1  0.003100  0.917300  0.584700  1.0  -0.2139
  C  C422  1  0.968150  0.903300  0.601300  1.0  -0.044
  C  C423  1  0.968900  0.876000  0.630900  1.0  0.2541
  C  C424  1  0.932360  0.835200  0.674100  1.0  0.1817
  C  C425  1  0.967570  0.816700  0.687600  1.0  0.1766
  C  C426  1  0.964000  0.786900  0.715500  1.0  -0.1368
  C  C427  1  0.926830  0.774000  0.728200  1.0  -0.0766
  C  C428  1  0.893020  0.792400  0.714300  1.0  -0.1827
  C  C429  1  0.895760  0.822200  0.686500  1.0  -0.0908
  C  C430  1  0.002000  0.947870  0.553130  1.0  0.6756
  C  C431  1  0.852380  0.780400  0.727200  1.0  0.7115
  C  C432  1  0.655140  0.276400  0.224000  1.0  0.7205
  C  C433  1  0.614360  0.289300  0.212900  1.0  -0.1108
  C  C434  1  0.596200  0.273700  0.180400  1.0  -0.0342
  C  C435  1  0.558600  0.285200  0.167800  1.0  -0.2584
  C  C436  1  0.540300  0.315100  0.189200  1.0  0.1445
  C  C437  1  0.557400  0.330000  0.222000  1.0  -0.1536
  C  C438  1  0.595400  0.318100  0.234100  1.0  -0.0394
  C  C439  1  0.504710  0.360600  0.145000  1.0  0.1486
  C  C440  1  0.539100  0.374300  0.128400  1.0  -0.1413
  C  C441  1  0.538200  0.402000  0.099000  1.0  -0.0427
  C  C442  1  0.503100  0.417300  0.084700  1.0  -0.2139
  C  C443  1  0.468150  0.403300  0.101300  1.0  -0.044
  C  C444  1  0.468900  0.376000  0.130900  1.0  0.2541
  C  C445  1  0.432360  0.335200  0.174100  1.0  0.1817
  C  C446  1  0.467570  0.316700  0.187600  1.0  0.1766
  C  C447  1  0.464000  0.286900  0.215500  1.0  -0.1368
  C  C448  1  0.426830  0.274000  0.228200  1.0  -0.0766
  C  C449  1  0.393020  0.292400  0.214300  1.0  -0.1827
  C  C450  1  0.395760  0.322200  0.186500  1.0  -0.0908
  C  C451  1  0.502000  0.447870  0.053130  1.0  0.6756
  C  C452  1  0.352380  0.280400  0.227200  1.0  0.7115
  C  C453  1  0.276000  0.155140  0.223600  1.0  0.7201
  C  C454  1  0.287100  0.114360  0.210700  1.0  -0.1104
  C  C455  1  0.319600  0.096200  0.226300  1.0  -0.034
  C  C456  1  0.332200  0.058600  0.214800  1.0  -0.2587
  C  C457  1  0.310800  0.040300  0.184900  1.0  0.1456
  C  C458  1  0.278000  0.057400  0.170000  1.0  -0.1487
  C  C459  1  0.265900  0.095400  0.181900  1.0  -0.0372
  C  C460  1  0.355000  0.004710  0.139400  1.0  0.1484
  C  C461  1  0.371600  0.039100  0.125700  1.0  -0.1422
  C  C462  1  0.401000  0.038200  0.098000  1.0  -0.0451
  C  C463  1  0.415300  0.003100  0.082700  1.0  -0.2153
  C  C464  1  0.398700  0.968150  0.096700  1.0  -0.043
  C  C465  1  0.369100  0.968900  0.124000  1.0  0.2516
  C  C466  1  0.325900  0.932360  0.164800  1.0  0.1814
  C  C467  1  0.312400  0.967570  0.183300  1.0  0.1773
  C  C468  1  0.284500  0.964000  0.213100  1.0  -0.1362
  C  C469  1  0.271800  0.926830  0.226000  1.0  -0.0776
  C  C470  1  0.285700  0.893020  0.207600  1.0  -0.1827
  C  C471  1  0.313500  0.895760  0.177800  1.0  -0.0901
  C  C472  1  0.446870  0.002000  0.052130  1.0  0.6739
  C  C473  1  0.272800  0.852380  0.219600  1.0  0.7105
  C  C474  1  0.776000  0.655140  0.723600  1.0  0.7201
  C  C475  1  0.787100  0.614360  0.710700  1.0  -0.1104
  C  C476  1  0.819600  0.596200  0.726300  1.0  -0.034
  C  C477  1  0.832200  0.558600  0.714800  1.0  -0.2587
  C  C478  1  0.810800  0.540300  0.684900  1.0  0.1456
  C  C479  1  0.778000  0.557400  0.670000  1.0  -0.1487
  C  C480  1  0.765900  0.595400  0.681900  1.0  -0.0372
  C  C481  1  0.855000  0.504710  0.639400  1.0  0.1484
  C  C482  1  0.871600  0.539100  0.625700  1.0  -0.1422
  C  C483  1  0.901000  0.538200  0.598000  1.0  -0.0451
  C  C484  1  0.915300  0.503100  0.582700  1.0  -0.2153
  C  C485  1  0.898700  0.468150  0.596700  1.0  -0.043
  C  C486  1  0.869100  0.468900  0.624000  1.0  0.2516
  C  C487  1  0.825900  0.432360  0.664800  1.0  0.1814
  C  C488  1  0.812400  0.467570  0.683300  1.0  0.1773
  C  C489  1  0.784500  0.464000  0.713100  1.0  -0.1362
  C  C490  1  0.771800  0.426830  0.726000  1.0  -0.0776
  C  C491  1  0.785700  0.393020  0.707600  1.0  -0.1827
  C  C492  1  0.813500  0.395760  0.677800  1.0  -0.0901
  C  C493  1  0.946870  0.502000  0.552130  1.0  0.6739
  C  C494  1  0.772800  0.352380  0.719600  1.0  0.7105
  C  C495  1  0.276000  0.844860  0.776400  1.0  0.7191
  C  C496  1  0.287100  0.885640  0.789300  1.0  -0.1117
  C  C497  1  0.319600  0.903800  0.773700  1.0  -0.0324
  C  C498  1  0.332200  0.941400  0.785200  1.0  -0.2566
  C  C499  1  0.310800  0.959700  0.815100  1.0  0.1461
  C  C500  1  0.278000  0.942600  0.830000  1.0  -0.1489
  C  C501  1  0.265900  0.904600  0.818100  1.0  -0.0369
  C  C502  1  0.355000  0.995290  0.860600  1.0  0.149
  C  C503  1  0.371600  0.960900  0.874300  1.0  -0.1418
  C  C504  1  0.401000  0.961800  0.902000  1.0  -0.0454
  C  C505  1  0.415300  0.996900  0.917300  1.0  -0.2155
  C  C506  1  0.398700  0.031850  0.903300  1.0  -0.0433
  C  C507  1  0.369100  0.031100  0.876000  1.0  0.251
  C  C508  1  0.325900  0.067640  0.835200  1.0  0.1807
  C  C509  1  0.312400  0.032430  0.816700  1.0  0.1782
  C  C510  1  0.284500  0.036000  0.786900  1.0  -0.1341
  C  C511  1  0.271800  0.073170  0.774000  1.0  -0.0761
  C  C512  1  0.285700  0.106980  0.792400  1.0  -0.1823
  C  C513  1  0.313500  0.104240  0.822200  1.0  -0.0909
  C  C514  1  0.446870  0.998000  0.947870  1.0  0.6739
  C  C515  1  0.272800  0.147620  0.780400  1.0  0.7101
  C  C516  1  0.776000  0.344860  0.276400  1.0  0.7191
  C  C517  1  0.787100  0.385640  0.289300  1.0  -0.1117
  C  C518  1  0.819600  0.403800  0.273700  1.0  -0.0324
  C  C519  1  0.832200  0.441400  0.285200  1.0  -0.2566
  C  C520  1  0.810800  0.459700  0.315100  1.0  0.1461
  C  C521  1  0.778000  0.442600  0.330000  1.0  -0.1489
  C  C522  1  0.765900  0.404600  0.318100  1.0  -0.0369
  C  C523  1  0.855000  0.495290  0.360600  1.0  0.149
  C  C524  1  0.871600  0.460900  0.374300  1.0  -0.1418
  C  C525  1  0.901000  0.461800  0.402000  1.0  -0.0454
  C  C526  1  0.915300  0.496900  0.417300  1.0  -0.2155
  C  C527  1  0.898700  0.531850  0.403300  1.0  -0.0433
  C  C528  1  0.869100  0.531100  0.376000  1.0  0.251
  C  C529  1  0.825900  0.567640  0.335200  1.0  0.1807
  C  C530  1  0.812400  0.532430  0.316700  1.0  0.1782
  C  C531  1  0.784500  0.536000  0.286900  1.0  -0.1341
  C  C532  1  0.771800  0.573170  0.274000  1.0  -0.0761
  C  C533  1  0.785700  0.606980  0.292400  1.0  -0.1823
  C  C534  1  0.813500  0.604240  0.322200  1.0  -0.0909
  C  C535  1  0.946870  0.498000  0.447870  1.0  0.6739
  C  C536  1  0.772800  0.647620  0.280400  1.0  0.7101
  C  C537  1  0.724000  0.844860  0.223600  1.0  0.7202
  C  C538  1  0.712900  0.885640  0.210700  1.0  -0.1106
  C  C539  1  0.680400  0.903800  0.226300  1.0  -0.0317
  C  C540  1  0.667800  0.941400  0.214800  1.0  -0.261
  C  C541  1  0.689200  0.959700  0.184900  1.0  0.1455
  C  C542  1  0.722000  0.942600  0.170000  1.0  -0.1489
  C  C543  1  0.734100  0.904600  0.181900  1.0  -0.0363
  C  C544  1  0.645000  0.995290  0.139400  1.0  0.1476
  C  C545  1  0.628400  0.960900  0.125700  1.0  -0.1408
  C  C546  1  0.599000  0.961800  0.098000  1.0  -0.0439
  C  C547  1  0.584700  0.996900  0.082700  1.0  -0.2151
  C  C548  1  0.601300  0.031850  0.096700  1.0  -0.0444
  C  C549  1  0.630900  0.031100  0.124000  1.0  0.2513
  C  C550  1  0.674100  0.067640  0.164800  1.0  0.1823
  C  C551  1  0.687600  0.032430  0.183300  1.0  0.1785
  C  C552  1  0.715500  0.036000  0.213100  1.0  -0.1346
  C  C553  1  0.728200  0.073170  0.226000  1.0  -0.0778
  C  C554  1  0.714300  0.106980  0.207600  1.0  -0.1822
  C  C555  1  0.686500  0.104240  0.177800  1.0  -0.0898
  C  C556  1  0.553130  0.998000  0.052130  1.0  0.6742
  C  C557  1  0.727200  0.147620  0.219600  1.0  0.7101
  C  C558  1  0.224000  0.344860  0.723600  1.0  0.7202
  C  C559  1  0.212900  0.385640  0.710700  1.0  -0.1106
  C  C560  1  0.180400  0.403800  0.726300  1.0  -0.0317
  C  C561  1  0.167800  0.441400  0.714800  1.0  -0.261
  C  C562  1  0.189200  0.459700  0.684900  1.0  0.1455
  C  C563  1  0.222000  0.442600  0.670000  1.0  -0.1489
  C  C564  1  0.234100  0.404600  0.681900  1.0  -0.0363
  C  C565  1  0.145000  0.495290  0.639400  1.0  0.1476
  C  C566  1  0.128400  0.460900  0.625700  1.0  -0.1408
  C  C567  1  0.099000  0.461800  0.598000  1.0  -0.0439
  C  C568  1  0.084700  0.496900  0.582700  1.0  -0.2151
  C  C569  1  0.101300  0.531850  0.596700  1.0  -0.0444
  C  C570  1  0.130900  0.531100  0.624000  1.0  0.2513
  C  C571  1  0.174100  0.567640  0.664800  1.0  0.1823
  C  C572  1  0.187600  0.532430  0.683300  1.0  0.1785
  C  C573  1  0.215500  0.536000  0.713100  1.0  -0.1346
  C  C574  1  0.228200  0.573170  0.726000  1.0  -0.0778
  C  C575  1  0.214300  0.606980  0.707600  1.0  -0.1822
  C  C576  1  0.186500  0.604240  0.677800  1.0  -0.0898
  C  C577  1  0.053130  0.498000  0.552130  1.0  0.6742
  C  C578  1  0.227200  0.647620  0.719600  1.0  0.7101
  C  C579  1  0.724000  0.155140  0.776400  1.0  0.7206
  C  C580  1  0.712900  0.114360  0.789300  1.0  -0.1104
  C  C581  1  0.680400  0.096200  0.773700  1.0  -0.0308
  C  C582  1  0.667800  0.058600  0.785200  1.0  -0.2587
  C  C583  1  0.689200  0.040300  0.815100  1.0  0.1455
  C  C584  1  0.722000  0.057400  0.830000  1.0  -0.1486
  C  C585  1  0.734100  0.095400  0.818100  1.0  -0.036
  C  C586  1  0.645000  0.004710  0.860600  1.0  0.1484
  C  C587  1  0.628400  0.039100  0.874300  1.0  -0.1417
  C  C588  1  0.599000  0.038200  0.902000  1.0  -0.0451
  C  C589  1  0.584700  0.003100  0.917300  1.0  -0.2149
  C  C590  1  0.601300  0.968150  0.903300  1.0  -0.0438
  C  C591  1  0.630900  0.968900  0.876000  1.0  0.2527
  C  C592  1  0.674100  0.932360  0.835200  1.0  0.1805
  C  C593  1  0.687600  0.967570  0.816700  1.0  0.1777
  C  C594  1  0.715500  0.964000  0.786900  1.0  -0.1364
  C  C595  1  0.728200  0.926830  0.774000  1.0  -0.0777
  C  C596  1  0.714300  0.893020  0.792400  1.0  -0.1824
  C  C597  1  0.686500  0.895760  0.822200  1.0  -0.0893
  C  C598  1  0.553130  0.002000  0.947870  1.0  0.6743
  C  C599  1  0.727200  0.852380  0.780400  1.0  0.7103
  C  C600  1  0.224000  0.655140  0.276400  1.0  0.7206
  C  C601  1  0.212900  0.614360  0.289300  1.0  -0.1104
  C  C602  1  0.180400  0.596200  0.273700  1.0  -0.0308
  C  C603  1  0.167800  0.558600  0.285200  1.0  -0.2587
  C  C604  1  0.189200  0.540300  0.315100  1.0  0.1455
  C  C605  1  0.222000  0.557400  0.330000  1.0  -0.1486
  C  C606  1  0.234100  0.595400  0.318100  1.0  -0.036
  C  C607  1  0.145000  0.504710  0.360600  1.0  0.1484
  C  C608  1  0.128400  0.539100  0.374300  1.0  -0.1417
  C  C609  1  0.099000  0.538200  0.402000  1.0  -0.0451
  C  C610  1  0.084700  0.503100  0.417300  1.0  -0.2149
  C  C611  1  0.101300  0.468150  0.403300  1.0  -0.0438
  C  C612  1  0.130900  0.468900  0.376000  1.0  0.2527
  C  C613  1  0.174100  0.432360  0.335200  1.0  0.1805
  C  C614  1  0.187600  0.467570  0.316700  1.0  0.1777
  C  C615  1  0.215500  0.464000  0.286900  1.0  -0.1364
  C  C616  1  0.228200  0.426830  0.274000  1.0  -0.0777
  C  C617  1  0.214300  0.393020  0.292400  1.0  -0.1824
  C  C618  1  0.186500  0.395760  0.322200  1.0  -0.0893
  C  C619  1  0.053130  0.502000  0.447870  1.0  0.6743
  C  C620  1  0.227200  0.352380  0.280400  1.0  0.7103
  C  C621  1  0.223600  0.276000  0.155140  1.0  0.7213
  C  C622  1  0.210700  0.287100  0.114360  1.0  -0.1112
  C  C623  1  0.226300  0.319600  0.096200  1.0  -0.0319
  C  C624  1  0.214800  0.332200  0.058600  1.0  -0.2585
  C  C625  1  0.184900  0.310800  0.040300  1.0  0.1451
  C  C626  1  0.170000  0.278000  0.057400  1.0  -0.1524
  C  C627  1  0.181900  0.265900  0.095400  1.0  -0.0377
  C  C628  1  0.139400  0.355000  0.004710  1.0  0.1472
  C  C629  1  0.125700  0.371600  0.039100  1.0  -0.1443
  C  C630  1  0.098000  0.401000  0.038200  1.0  -0.0474
  C  C631  1  0.082700  0.415300  0.003100  1.0  -0.2127
  C  C632  1  0.096700  0.398700  0.968150  1.0  -0.0457
  C  C633  1  0.124000  0.369100  0.968900  1.0  0.2545
  C  C634  1  0.164800  0.325900  0.932360  1.0  0.1829
  C  C635  1  0.183300  0.312400  0.967570  1.0  0.1778
  C  C636  1  0.213100  0.284500  0.964000  1.0  -0.135
  C  C637  1  0.226000  0.271800  0.926830  1.0  -0.0755
  C  C638  1  0.207600  0.285700  0.893020  1.0  -0.1849
  C  C639  1  0.177800  0.313500  0.895760  1.0  -0.0897
  C  C640  1  0.052130  0.446870  0.002000  1.0  0.6743
  C  C641  1  0.219600  0.272800  0.852380  1.0  0.7093
  C  C642  1  0.723600  0.776000  0.655140  1.0  0.7213
  C  C643  1  0.710700  0.787100  0.614360  1.0  -0.1112
  C  C644  1  0.726300  0.819600  0.596200  1.0  -0.0319
  C  C645  1  0.714800  0.832200  0.558600  1.0  -0.2585
  C  C646  1  0.684900  0.810800  0.540300  1.0  0.1451
  C  C647  1  0.670000  0.778000  0.557400  1.0  -0.1524
  C  C648  1  0.681900  0.765900  0.595400  1.0  -0.0377
  C  C649  1  0.639400  0.855000  0.504710  1.0  0.1472
  C  C650  1  0.625700  0.871600  0.539100  1.0  -0.1443
  C  C651  1  0.598000  0.901000  0.538200  1.0  -0.0474
  C  C652  1  0.582700  0.915300  0.503100  1.0  -0.2127
  C  C653  1  0.596700  0.898700  0.468150  1.0  -0.0457
  C  C654  1  0.624000  0.869100  0.468900  1.0  0.2545
  C  C655  1  0.664800  0.825900  0.432360  1.0  0.1829
  C  C656  1  0.683300  0.812400  0.467570  1.0  0.1778
  C  C657  1  0.713100  0.784500  0.464000  1.0  -0.135
  C  C658  1  0.726000  0.771800  0.426830  1.0  -0.0755
  C  C659  1  0.707600  0.785700  0.393020  1.0  -0.1849
  C  C660  1  0.677800  0.813500  0.395760  1.0  -0.0897
  C  C661  1  0.552130  0.946870  0.502000  1.0  0.6743
  C  C662  1  0.719600  0.772800  0.352380  1.0  0.7093
  C  C663  1  0.776400  0.276000  0.844860  1.0  0.7203
  C  C664  1  0.789300  0.287100  0.885640  1.0  -0.1106
  C  C665  1  0.773700  0.319600  0.903800  1.0  -0.0315
  C  C666  1  0.785200  0.332200  0.941400  1.0  -0.2636
  C  C667  1  0.815100  0.310800  0.959700  1.0  0.1458
  C  C668  1  0.830000  0.278000  0.942600  1.0  -0.1504
  C  C669  1  0.818100  0.265900  0.904600  1.0  -0.038
  C  C670  1  0.860600  0.355000  0.995290  1.0  0.1481
  C  C671  1  0.874300  0.371600  0.960900  1.0  -0.1445
  C  C672  1  0.902000  0.401000  0.961800  1.0  -0.0472
  C  C673  1  0.917300  0.415300  0.996900  1.0  -0.2125
  C  C674  1  0.903300  0.398700  0.031850  1.0  -0.0449
  C  C675  1  0.876000  0.369100  0.031100  1.0  0.2549
  C  C676  1  0.835200  0.325900  0.067640  1.0  0.1837
  C  C677  1  0.816700  0.312400  0.032430  1.0  0.1775
  C  C678  1  0.786900  0.284500  0.036000  1.0  -0.1366
  C  C679  1  0.774000  0.271800  0.073170  1.0  -0.0749
  C  C680  1  0.792400  0.285700  0.106980  1.0  -0.1837
  C  C681  1  0.822200  0.313500  0.104240  1.0  -0.0901
  C  C682  1  0.947870  0.446870  0.998000  1.0  0.6744
  C  C683  1  0.780400  0.272800  0.147620  1.0  0.7108
  C  C684  1  0.276400  0.776000  0.344860  1.0  0.7203
  C  C685  1  0.289300  0.787100  0.385640  1.0  -0.1106
  C  C686  1  0.273700  0.819600  0.403800  1.0  -0.0315
  C  C687  1  0.285200  0.832200  0.441400  1.0  -0.2636
  C  C688  1  0.315100  0.810800  0.459700  1.0  0.1458
  C  C689  1  0.330000  0.778000  0.442600  1.0  -0.1504
  C  C690  1  0.318100  0.765900  0.404600  1.0  -0.038
  C  C691  1  0.360600  0.855000  0.495290  1.0  0.1481
  C  C692  1  0.374300  0.871600  0.460900  1.0  -0.1445
  C  C693  1  0.402000  0.901000  0.461800  1.0  -0.0472
  C  C694  1  0.417300  0.915300  0.496900  1.0  -0.2125
  C  C695  1  0.403300  0.898700  0.531850  1.0  -0.0449
  C  C696  1  0.376000  0.869100  0.531100  1.0  0.2549
  C  C697  1  0.335200  0.825900  0.567640  1.0  0.1837
  C  C698  1  0.316700  0.812400  0.532430  1.0  0.1775
  C  C699  1  0.286900  0.784500  0.536000  1.0  -0.1366
  C  C700  1  0.274000  0.771800  0.573170  1.0  -0.0749
  C  C701  1  0.292400  0.785700  0.606980  1.0  -0.1837
  C  C702  1  0.322200  0.813500  0.604240  1.0  -0.0901
  C  C703  1  0.447870  0.946870  0.498000  1.0  0.6744
  C  C704  1  0.280400  0.772800  0.647620  1.0  0.7108
  C  C705  1  0.223600  0.724000  0.844860  1.0  0.7204
  C  C706  1  0.210700  0.712900  0.885640  1.0  -0.1098
  C  C707  1  0.226300  0.680400  0.903800  1.0  -0.0322
  C  C708  1  0.214800  0.667800  0.941400  1.0  -0.2575
  C  C709  1  0.184900  0.689200  0.959700  1.0  0.1458
  C  C710  1  0.170000  0.722000  0.942600  1.0  -0.1516
  C  C711  1  0.181900  0.734100  0.904600  1.0  -0.0366
  C  C712  1  0.139400  0.645000  0.995290  1.0  0.1481
  C  C713  1  0.125700  0.628400  0.960900  1.0  -0.1434
  C  C714  1  0.098000  0.599000  0.961800  1.0  -0.044
  C  C715  1  0.082700  0.584700  0.996900  1.0  -0.2129
  C  C716  1  0.096700  0.601300  0.031850  1.0  -0.046
  C  C717  1  0.124000  0.630900  0.031100  1.0  0.2541
  C  C718  1  0.164800  0.674100  0.067640  1.0  0.1833
  C  C719  1  0.183300  0.687600  0.032430  1.0  0.1782
  C  C720  1  0.213100  0.715500  0.036000  1.0  -0.1359
  C  C721  1  0.226000  0.728200  0.073170  1.0  -0.0752
  C  C722  1  0.207600  0.714300  0.106980  1.0  -0.185
  C  C723  1  0.177800  0.686500  0.104240  1.0  -0.0891
  C  C724  1  0.052130  0.553130  0.998000  1.0  0.6743
  C  C725  1  0.219600  0.727200  0.147620  1.0  0.7106
  C  C726  1  0.723600  0.224000  0.344860  1.0  0.7204
  C  C727  1  0.710700  0.212900  0.385640  1.0  -0.1098
  C  C728  1  0.726300  0.180400  0.403800  1.0  -0.0322
  C  C729  1  0.714800  0.167800  0.441400  1.0  -0.2575
  C  C730  1  0.684900  0.189200  0.459700  1.0  0.1458
  C  C731  1  0.670000  0.222000  0.442600  1.0  -0.1516
  C  C732  1  0.681900  0.234100  0.404600  1.0  -0.0366
  C  C733  1  0.639400  0.145000  0.495290  1.0  0.1481
  C  C734  1  0.625700  0.128400  0.460900  1.0  -0.1434
  C  C735  1  0.598000  0.099000  0.461800  1.0  -0.044
  C  C736  1  0.582700  0.084700  0.496900  1.0  -0.2129
  C  C737  1  0.596700  0.101300  0.531850  1.0  -0.046
  C  C738  1  0.624000  0.130900  0.531100  1.0  0.2541
  C  C739  1  0.664800  0.174100  0.567640  1.0  0.1833
  C  C740  1  0.683300  0.187600  0.532430  1.0  0.1782
  C  C741  1  0.713100  0.215500  0.536000  1.0  -0.1359
  C  C742  1  0.726000  0.228200  0.573170  1.0  -0.0752
  C  C743  1  0.707600  0.214300  0.606980  1.0  -0.185
  C  C744  1  0.677800  0.186500  0.604240  1.0  -0.0891
  C  C745  1  0.552130  0.053130  0.498000  1.0  0.6743
  C  C746  1  0.719600  0.227200  0.647620  1.0  0.7106
  C  C747  1  0.776400  0.724000  0.155140  1.0  0.7213
  C  C748  1  0.789300  0.712900  0.114360  1.0  -0.1104
  C  C749  1  0.773700  0.680400  0.096200  1.0  -0.0305
  C  C750  1  0.785200  0.667800  0.058600  1.0  -0.2625
  C  C751  1  0.815100  0.689200  0.040300  1.0  0.1446
  C  C752  1  0.830000  0.722000  0.057400  1.0  -0.151
  C  C753  1  0.818100  0.734100  0.095400  1.0  -0.0365
  C  C754  1  0.860600  0.645000  0.004710  1.0  0.1488
  C  C755  1  0.874300  0.628400  0.039100  1.0  -0.1447
  C  C756  1  0.902000  0.599000  0.038200  1.0  -0.0464
  C  C757  1  0.917300  0.584700  0.003100  1.0  -0.2125
  C  C758  1  0.903300  0.601300  0.968150  1.0  -0.0455
  C  C759  1  0.876000  0.630900  0.968900  1.0  0.2529
  C  C760  1  0.835200  0.674100  0.932360  1.0  0.1826
  C  C761  1  0.816700  0.687600  0.967570  1.0  0.1773
  C  C762  1  0.786900  0.715500  0.964000  1.0  -0.1364
  C  C763  1  0.774000  0.728200  0.926830  1.0  -0.0753
  C  C764  1  0.792400  0.714300  0.893020  1.0  -0.1833
  C  C765  1  0.822200  0.686500  0.895760  1.0  -0.0911
  C  C766  1  0.947870  0.553130  0.002000  1.0  0.6744
  C  C767  1  0.780400  0.727200  0.852380  1.0  0.7097
  C  C768  1  0.276400  0.224000  0.655140  1.0  0.7213
  C  C769  1  0.289300  0.212900  0.614360  1.0  -0.1104
  C  C770  1  0.273700  0.180400  0.596200  1.0  -0.0305
  C  C771  1  0.285200  0.167800  0.558600  1.0  -0.2625
  C  C772  1  0.315100  0.189200  0.540300  1.0  0.1446
  C  C773  1  0.330000  0.222000  0.557400  1.0  -0.151
  C  C774  1  0.318100  0.234100  0.595400  1.0  -0.0365
  C  C775  1  0.360600  0.145000  0.504710  1.0  0.1488
  C  C776  1  0.374300  0.128400  0.539100  1.0  -0.1447
  C  C777  1  0.402000  0.099000  0.538200  1.0  -0.0464
  C  C778  1  0.417300  0.084700  0.503100  1.0  -0.2125
  C  C779  1  0.403300  0.101300  0.468150  1.0  -0.0455
  C  C780  1  0.376000  0.130900  0.468900  1.0  0.2529
  C  C781  1  0.335200  0.174100  0.432360  1.0  0.1826
  C  C782  1  0.316700  0.187600  0.467570  1.0  0.1773
  C  C783  1  0.286900  0.215500  0.464000  1.0  -0.1364
  C  C784  1  0.274000  0.228200  0.426830  1.0  -0.0753
  C  C785  1  0.292400  0.214300  0.393020  1.0  -0.1833
  C  C786  1  0.322200  0.186500  0.395760  1.0  -0.0911
  C  C787  1  0.447870  0.053130  0.502000  1.0  0.6744
  C  C788  1  0.280400  0.227200  0.352380  1.0  0.7097
  N  N789  1  0.003640  0.168500  0.325100  1.0  -0.1804
  N  N790  1  0.503640  0.668500  0.825100  1.0  -0.1804
  N  N791  1  0.996360  0.831500  0.325100  1.0  -0.1797
  N  N792  1  0.496360  0.331500  0.825100  1.0  -0.1797
  N  N793  1  0.996360  0.168500  0.674900  1.0  -0.1799
  N  N794  1  0.496360  0.668500  0.174900  1.0  -0.1799
  N  N795  1  0.003640  0.831500  0.674900  1.0  -0.1802
  N  N796  1  0.503640  0.331500  0.174900  1.0  -0.1802
  N  N797  1  0.325100  0.003640  0.168500  1.0  -0.18
  N  N798  1  0.825100  0.503640  0.668500  1.0  -0.18
  N  N799  1  0.325100  0.996360  0.831500  1.0  -0.18
  N  N800  1  0.825100  0.496360  0.331500  1.0  -0.18
  N  N801  1  0.674900  0.996360  0.168500  1.0  -0.1799
  N  N802  1  0.174900  0.496360  0.668500  1.0  -0.1799
  N  N803  1  0.674900  0.003640  0.831500  1.0  -0.1803
  N  N804  1  0.174900  0.503640  0.331500  1.0  -0.1803
  N  N805  1  0.168500  0.325100  0.003640  1.0  -0.1801
  N  N806  1  0.668500  0.825100  0.503640  1.0  -0.1801
  N  N807  1  0.831500  0.325100  0.996360  1.0  -0.1804
  N  N808  1  0.331500  0.825100  0.496360  1.0  -0.1804
  N  N809  1  0.168500  0.674900  0.996360  1.0  -0.1803
  N  N810  1  0.668500  0.174900  0.496360  1.0  -0.1803
  N  N811  1  0.831500  0.674900  0.003640  1.0  -0.1802
  N  N812  1  0.331500  0.174900  0.503640  1.0  -0.1802
  O  O813  1  0.172440  0.246220  0.299420  1.0  -0.6105
  O  O814  1  0.168900  0.210350  0.244170  1.0  -0.6009
  O  O815  1  0.933110  0.134700  0.353000  1.0  -0.2831
  O  O816  1  0.968580  0.040040  0.458020  1.0  -0.5779
  O  O817  1  0.034840  0.041250  0.460110  1.0  -0.5715
  O  O818  1  0.824790  0.197590  0.283480  1.0  -0.6143
  O  O819  1  0.849690  0.249930  0.250600  1.0  -0.6105
  O  O820  1  0.672440  0.746220  0.799420  1.0  -0.6105
  O  O821  1  0.668900  0.710350  0.744170  1.0  -0.6009
  O  O822  1  0.433110  0.634700  0.853000  1.0  -0.2831
  O  O823  1  0.468580  0.540040  0.958020  1.0  -0.5779
  O  O824  1  0.534840  0.541250  0.960110  1.0  -0.5715
  O  O825  1  0.324790  0.697590  0.783480  1.0  -0.6143
  O  O826  1  0.349690  0.749930  0.750600  1.0  -0.6105
  O  O827  1  0.827560  0.753780  0.299420  1.0  -0.6095
  O  O828  1  0.831100  0.789650  0.244170  1.0  -0.6001
  O  O829  1  0.066890  0.865300  0.353000  1.0  -0.2866
  O  O830  1  0.031420  0.959960  0.458020  1.0  -0.5778
  O  O831  1  0.965160  0.958750  0.460110  1.0  -0.5722
  O  O832  1  0.175210  0.802410  0.283480  1.0  -0.6146
  O  O833  1  0.150310  0.750070  0.250600  1.0  -0.6109
  O  O834  1  0.327560  0.253780  0.799420  1.0  -0.6095
  O  O835  1  0.331100  0.289650  0.744170  1.0  -0.6001
  O  O836  1  0.566890  0.365300  0.853000  1.0  -0.2866
  O  O837  1  0.531420  0.459960  0.958020  1.0  -0.5778
  O  O838  1  0.465160  0.458750  0.960110  1.0  -0.5722
  O  O839  1  0.675210  0.302410  0.783480  1.0  -0.6146
  O  O840  1  0.650310  0.250070  0.750600  1.0  -0.6109
  O  O841  1  0.827560  0.246220  0.700580  1.0  -0.6086
  O  O842  1  0.831100  0.210350  0.755830  1.0  -0.6013
  O  O843  1  0.066890  0.134700  0.647000  1.0  -0.2867
  O  O844  1  0.031420  0.040040  0.541980  1.0  -0.5777
  O  O845  1  0.965160  0.041250  0.539890  1.0  -0.5718
  O  O846  1  0.175210  0.197590  0.716520  1.0  -0.6137
  O  O847  1  0.150310  0.249930  0.749400  1.0  -0.6109
  O  O848  1  0.327560  0.746220  0.200580  1.0  -0.6086
  O  O849  1  0.331100  0.710350  0.255830  1.0  -0.6013
  O  O850  1  0.566890  0.634700  0.147000  1.0  -0.2867
  O  O851  1  0.531420  0.540040  0.041980  1.0  -0.5777
  O  O852  1  0.465160  0.541250  0.039890  1.0  -0.5718
  O  O853  1  0.675210  0.697590  0.216520  1.0  -0.6137
  O  O854  1  0.650310  0.749930  0.249400  1.0  -0.6109
  O  O855  1  0.172440  0.753780  0.700580  1.0  -0.6092
  O  O856  1  0.168900  0.789650  0.755830  1.0  -0.6018
  O  O857  1  0.933110  0.865300  0.647000  1.0  -0.2837
  O  O858  1  0.968580  0.959960  0.541980  1.0  -0.5781
  O  O859  1  0.034840  0.958750  0.539890  1.0  -0.5719
  O  O860  1  0.824790  0.802410  0.716520  1.0  -0.6143
  O  O861  1  0.849690  0.750070  0.749400  1.0  -0.6091
  O  O862  1  0.672440  0.253780  0.200580  1.0  -0.6092
  O  O863  1  0.668900  0.289650  0.255830  1.0  -0.6018
  O  O864  1  0.433110  0.365300  0.147000  1.0  -0.2837
  O  O865  1  0.468580  0.459960  0.041980  1.0  -0.5781
  O  O866  1  0.534840  0.458750  0.039890  1.0  -0.5719
  O  O867  1  0.324790  0.302410  0.216520  1.0  -0.6143
  O  O868  1  0.349690  0.250070  0.249400  1.0  -0.6091
  O  O869  1  0.299420  0.172440  0.246220  1.0  -0.6089
  O  O870  1  0.244170  0.168900  0.210350  1.0  -0.6
  O  O871  1  0.353000  0.933110  0.134700  1.0  -0.2814
  O  O872  1  0.458020  0.968580  0.040040  1.0  -0.5803
  O  O873  1  0.460110  0.034840  0.041250  1.0  -0.5715
  O  O874  1  0.283480  0.824790  0.197590  1.0  -0.6138
  O  O875  1  0.250600  0.849690  0.249930  1.0  -0.6107
  O  O876  1  0.799420  0.672440  0.746220  1.0  -0.6089
  O  O877  1  0.744170  0.668900  0.710350  1.0  -0.6
  O  O878  1  0.853000  0.433110  0.634700  1.0  -0.2814
  O  O879  1  0.958020  0.468580  0.540040  1.0  -0.5803
  O  O880  1  0.960110  0.534840  0.541250  1.0  -0.5715
  O  O881  1  0.783480  0.324790  0.697590  1.0  -0.6138
  O  O882  1  0.750600  0.349690  0.749930  1.0  -0.6107
  O  O883  1  0.299420  0.827560  0.753780  1.0  -0.6092
  O  O884  1  0.244170  0.831100  0.789650  1.0  -0.601
  O  O885  1  0.353000  0.066890  0.865300  1.0  -0.2823
  O  O886  1  0.458020  0.031420  0.959960  1.0  -0.5785
  O  O887  1  0.460110  0.965160  0.958750  1.0  -0.5719
  O  O888  1  0.283480  0.175210  0.802410  1.0  -0.6139
  O  O889  1  0.250600  0.150310  0.750070  1.0  -0.6105
  O  O890  1  0.799420  0.327560  0.253780  1.0  -0.6092
  O  O891  1  0.744170  0.331100  0.289650  1.0  -0.601
  O  O892  1  0.853000  0.566890  0.365300  1.0  -0.2823
  O  O893  1  0.958020  0.531420  0.459960  1.0  -0.5785
  O  O894  1  0.960110  0.465160  0.458750  1.0  -0.5719
  O  O895  1  0.783480  0.675210  0.302410  1.0  -0.6139
  O  O896  1  0.750600  0.650310  0.250070  1.0  -0.6105
  O  O897  1  0.700580  0.827560  0.246220  1.0  -0.6091
  O  O898  1  0.755830  0.831100  0.210350  1.0  -0.6007
  O  O899  1  0.647000  0.066890  0.134700  1.0  -0.2831
  O  O900  1  0.541980  0.031420  0.040040  1.0  -0.5778
  O  O901  1  0.539890  0.965160  0.041250  1.0  -0.5727
  O  O902  1  0.716520  0.175210  0.197590  1.0  -0.6151
  O  O903  1  0.749400  0.150310  0.249930  1.0  -0.6093
  O  O904  1  0.200580  0.327560  0.746220  1.0  -0.6091
  O  O905  1  0.255830  0.331100  0.710350  1.0  -0.6007
  O  O906  1  0.147000  0.566890  0.634700  1.0  -0.2831
  O  O907  1  0.041980  0.531420  0.540040  1.0  -0.5778
  O  O908  1  0.039890  0.465160  0.541250  1.0  -0.5727
  O  O909  1  0.216520  0.675210  0.697590  1.0  -0.6151
  O  O910  1  0.249400  0.650310  0.749930  1.0  -0.6093
  O  O911  1  0.700580  0.172440  0.753780  1.0  -0.6094
  O  O912  1  0.755830  0.168900  0.789650  1.0  -0.6003
  O  O913  1  0.647000  0.933110  0.865300  1.0  -0.2811
  O  O914  1  0.541980  0.968580  0.959960  1.0  -0.5802
  O  O915  1  0.539890  0.034840  0.958750  1.0  -0.572
  O  O916  1  0.716520  0.824790  0.802410  1.0  -0.6151
  O  O917  1  0.749400  0.849690  0.750070  1.0  -0.6104
  O  O918  1  0.200580  0.672440  0.253780  1.0  -0.6094
  O  O919  1  0.255830  0.668900  0.289650  1.0  -0.6003
  O  O920  1  0.147000  0.433110  0.365300  1.0  -0.2811
  O  O921  1  0.041980  0.468580  0.459960  1.0  -0.5802
  O  O922  1  0.039890  0.534840  0.458750  1.0  -0.572
  O  O923  1  0.216520  0.324790  0.302410  1.0  -0.6151
  O  O924  1  0.249400  0.349690  0.250070  1.0  -0.6104
  O  O925  1  0.246220  0.299420  0.172440  1.0  -0.6101
  O  O926  1  0.210350  0.244170  0.168900  1.0  -0.6004
  O  O927  1  0.134700  0.353000  0.933110  1.0  -0.2843
  O  O928  1  0.040040  0.458020  0.968580  1.0  -0.5784
  O  O929  1  0.041250  0.460110  0.034840  1.0  -0.5717
  O  O930  1  0.197590  0.283480  0.824790  1.0  -0.6148
  O  O931  1  0.249930  0.250600  0.849690  1.0  -0.6089
  O  O932  1  0.746220  0.799420  0.672440  1.0  -0.6101
  O  O933  1  0.710350  0.744170  0.668900  1.0  -0.6004
  O  O934  1  0.634700  0.853000  0.433110  1.0  -0.2843
  O  O935  1  0.540040  0.958020  0.468580  1.0  -0.5784
  O  O936  1  0.541250  0.960110  0.534840  1.0  -0.5717
  O  O937  1  0.697590  0.783480  0.324790  1.0  -0.6148
  O  O938  1  0.749930  0.750600  0.349690  1.0  -0.6089
  O  O939  1  0.753780  0.299420  0.827560  1.0  -0.6105
  O  O940  1  0.789650  0.244170  0.831100  1.0  -0.5996
  O  O941  1  0.865300  0.353000  0.066890  1.0  -0.2867
  O  O942  1  0.959960  0.458020  0.031420  1.0  -0.5781
  O  O943  1  0.958750  0.460110  0.965160  1.0  -0.5732
  O  O944  1  0.802410  0.283480  0.175210  1.0  -0.6134
  O  O945  1  0.750070  0.250600  0.150310  1.0  -0.6092
  O  O946  1  0.253780  0.799420  0.327560  1.0  -0.6105
  O  O947  1  0.289650  0.744170  0.331100  1.0  -0.5996
  O  O948  1  0.365300  0.853000  0.566890  1.0  -0.2867
  O  O949  1  0.459960  0.958020  0.531420  1.0  -0.5781
  O  O950  1  0.458750  0.960110  0.465160  1.0  -0.5732
  O  O951  1  0.302410  0.783480  0.675210  1.0  -0.6134
  O  O952  1  0.250070  0.750600  0.650310  1.0  -0.6092
  O  O953  1  0.246220  0.700580  0.827560  1.0  -0.6093
  O  O954  1  0.210350  0.755830  0.831100  1.0  -0.6006
  O  O955  1  0.134700  0.647000  0.066890  1.0  -0.2865
  O  O956  1  0.040040  0.541980  0.031420  1.0  -0.5773
  O  O957  1  0.041250  0.539890  0.965160  1.0  -0.5728
  O  O958  1  0.197590  0.716520  0.175210  1.0  -0.6131
  O  O959  1  0.249930  0.749400  0.150310  1.0  -0.6086
  O  O960  1  0.746220  0.200580  0.327560  1.0  -0.6093
  O  O961  1  0.710350  0.255830  0.331100  1.0  -0.6006
  O  O962  1  0.634700  0.147000  0.566890  1.0  -0.2865
  O  O963  1  0.540040  0.041980  0.531420  1.0  -0.5773
  O  O964  1  0.541250  0.039890  0.465160  1.0  -0.5728
  O  O965  1  0.697590  0.216520  0.675210  1.0  -0.6131
  O  O966  1  0.749930  0.249400  0.650310  1.0  -0.6086
  O  O967  1  0.753780  0.700580  0.172440  1.0  -0.6098
  O  O968  1  0.789650  0.755830  0.168900  1.0  -0.6009
  O  O969  1  0.865300  0.647000  0.933110  1.0  -0.2859
  O  O970  1  0.959960  0.541980  0.968580  1.0  -0.5787
  O  O971  1  0.958750  0.539890  0.034840  1.0  -0.5715
  O  O972  1  0.802410  0.716520  0.824790  1.0  -0.6136
  O  O973  1  0.750070  0.749400  0.849690  1.0  -0.6092
  O  O974  1  0.253780  0.200580  0.672440  1.0  -0.6098
  O  O975  1  0.289650  0.255830  0.668900  1.0  -0.6009
  O  O976  1  0.365300  0.147000  0.433110  1.0  -0.2859
  O  O977  1  0.459960  0.041980  0.468580  1.0  -0.5787
  O  O978  1  0.458750  0.039890  0.534840  1.0  -0.5715
  O  O979  1  0.302410  0.216520  0.324790  1.0  -0.6136
  O  O980  1  0.250070  0.249400  0.349690  1.0  -0.6092
  O  O981  1  0.253720  0.253720  0.253720  1.0  -1.2509
  O  O982  1  0.753720  0.753720  0.753720  1.0  -1.2509
  O  O983  1  0.746280  0.746280  0.253720  1.0  -1.2509
  O  O984  1  0.246280  0.246280  0.753720  1.0  -1.2509
  O  O985  1  0.746280  0.253720  0.746280  1.0  -1.2506
  O  O986  1  0.246280  0.753720  0.246280  1.0  -1.2506
  O  O987  1  0.253720  0.746280  0.746280  1.0  -1.2509
  O  O988  1  0.753720  0.246280  0.246280  1.0  -1.2509
