# generated using pymatgen
data_Zn11H60C126(N3O22)2
_symmetry_space_group_name_H-M   'P 1'
_cell_length_a   33.59880000
_cell_length_b   33.59880000
_cell_length_c   33.59880000
_cell_angle_alpha   90.00000000
_cell_angle_beta   90.00000000
_cell_angle_gamma   90.00000000
_symmetry_Int_Tables_number   1
_chemical_formula_structural   Zn11H60C126(N3O22)2
_chemical_formula_sum   'Zn44 H240 C504 N24 O176'
_cell_volume   37928.99188915
_cell_formula_units_Z   4
loop_
 _symmetry_equiv_pos_site_id
 _symmetry_equiv_pos_as_xyz
  1  'x, y, z'
loop_
 _atom_site_type_symbol
 _atom_site_label
 _atom_site_symmetry_multiplicity
 _atom_site_fract_x
 _atom_site_fract_y
 _atom_site_fract_z
 _atom_site_occupancy
 _atom_site_charge
  Zn  Zn1  1  0.726770  0.771920  0.196880  1.0  1.0466
  Zn  Zn2  1  0.226770  0.271920  0.696880  1.0  1.0466
  Zn  Zn3  1  0.273230  0.228080  0.196880  1.0  1.0481
  Zn  Zn4  1  0.773230  0.728080  0.696880  1.0  1.0481
  Zn  Zn5  1  0.273230  0.771920  0.803120  1.0  1.0479
  Zn  Zn6  1  0.773230  0.271920  0.303120  1.0  1.0479
  Zn  Zn7  1  0.726770  0.228080  0.803120  1.0  1.0485
  Zn  Zn8  1  0.226770  0.728080  0.303120  1.0  1.0485
  Zn  Zn9  1  0.196880  0.726770  0.771920  1.0  1.0447
  Zn  Zn10  1  0.696880  0.226770  0.271920  1.0  1.0447
  Zn  Zn11  1  0.196880  0.273230  0.228080  1.0  1.0461
  Zn  Zn12  1  0.696880  0.773230  0.728080  1.0  1.0461
  Zn  Zn13  1  0.803120  0.273230  0.771920  1.0  1.0444
  Zn  Zn14  1  0.303120  0.773230  0.271920  1.0  1.0444
  Zn  Zn15  1  0.803120  0.726770  0.228080  1.0  1.0454
  Zn  Zn16  1  0.303120  0.226770  0.728080  1.0  1.0454
  Zn  Zn17  1  0.771920  0.196880  0.726770  1.0  1.0429
  Zn  Zn18  1  0.271920  0.696880  0.226770  1.0  1.0429
  Zn  Zn19  1  0.228080  0.196880  0.273230  1.0  1.044
  Zn  Zn20  1  0.728080  0.696880  0.773230  1.0  1.044
  Zn  Zn21  1  0.771920  0.803120  0.273230  1.0  1.0433
  Zn  Zn22  1  0.271920  0.303120  0.773230  1.0  1.0433
  Zn  Zn23  1  0.228080  0.803120  0.726770  1.0  1.0437
  Zn  Zn24  1  0.728080  0.303120  0.226770  1.0  1.0437
  Zn  Zn25  1  0.723410  0.723410  0.276590  1.0  1.0867
  Zn  Zn26  1  0.223410  0.223410  0.776590  1.0  1.0867
  Zn  Zn27  1  0.276590  0.276590  0.276590  1.0  1.0869
  Zn  Zn28  1  0.776590  0.776590  0.776590  1.0  1.0869
  Zn  Zn29  1  0.276590  0.723410  0.723410  1.0  1.0848
  Zn  Zn30  1  0.776590  0.223410  0.223410  1.0  1.0848
  Zn  Zn31  1  0.723410  0.276590  0.723410  1.0  1.0854
  Zn  Zn32  1  0.223410  0.776590  0.223410  1.0  1.0854
  Zn  Zn33  1  0.543840  0.500000  0.000000  1.0  1.135
  Zn  Zn34  1  0.043840  0.000000  0.500000  1.0  1.135
  Zn  Zn35  1  0.456160  0.500000  0.000000  1.0  1.1329
  Zn  Zn36  1  0.956160  0.000000  0.500000  1.0  1.1329
  Zn  Zn37  1  0.000000  0.543840  0.500000  1.0  1.138
  Zn  Zn38  1  0.500000  0.043840  0.000000  1.0  1.138
  Zn  Zn39  1  0.000000  0.456160  0.500000  1.0  1.1367
  Zn  Zn40  1  0.500000  0.956160  0.000000  1.0  1.1367
  Zn  Zn41  1  0.500000  0.000000  0.543840  1.0  1.1304
  Zn  Zn42  1  0.000000  0.500000  0.043840  1.0  1.1304
  Zn  Zn43  1  0.500000  0.000000  0.456160  1.0  1.1282
  Zn  Zn44  1  0.000000  0.500000  0.956160  1.0  1.1282
  H  H45  1  0.552500  0.736300  0.147100  1.0  0.1223
  H  H46  1  0.614500  0.751800  0.173400  1.0  0.1297
  H  H47  1  0.601300  0.665600  0.255200  1.0  0.1272
  H  H48  1  0.539400  0.650100  0.228900  1.0  0.1252
  H  H49  1  0.559800  0.597200  0.078100  1.0  0.123
  H  H50  1  0.562800  0.636300  0.134900  1.0  0.118
  H  H51  1  0.443200  0.578800  0.096800  1.0  0.1285
  H  H52  1  0.372200  0.670500  0.180400  1.0  0.127
  H  H53  1  0.489900  0.724100  0.228800  1.0  0.1214
  H  H54  1  0.429200  0.746900  0.252600  1.0  0.1264
  H  H55  1  0.052500  0.236300  0.647100  1.0  0.1223
  H  H56  1  0.114500  0.251800  0.673400  1.0  0.1297
  H  H57  1  0.101300  0.165600  0.755200  1.0  0.1272
  H  H58  1  0.039400  0.150100  0.728900  1.0  0.1262
  H  H59  1  0.059800  0.097200  0.578100  1.0  0.123
  H  H60  1  0.062800  0.136300  0.634900  1.0  0.118
  H  H61  1  0.943200  0.078800  0.596800  1.0  0.1285
  H  H62  1  0.872200  0.170500  0.680400  1.0  0.127
  H  H63  1  0.989900  0.224100  0.728800  1.0  0.1214
  H  H64  1  0.929200  0.246900  0.752600  1.0  0.1264
  H  H65  1  0.447500  0.263700  0.147100  1.0  0.1224
  H  H66  1  0.385500  0.248200  0.173400  1.0  0.1294
  H  H67  1  0.398700  0.334400  0.255200  1.0  0.1271
  H  H68  1  0.460600  0.349900  0.228900  1.0  0.1258
  H  H69  1  0.440200  0.402800  0.078100  1.0  0.1232
  H  H70  1  0.437200  0.363700  0.134900  1.0  0.1177
  H  H71  1  0.556800  0.421200  0.096800  1.0  0.1278
  H  H72  1  0.627800  0.329500  0.180400  1.0  0.1269
  H  H73  1  0.510100  0.275900  0.228800  1.0  0.1216
  H  H74  1  0.570800  0.253100  0.252600  1.0  0.1268
  H  H75  1  0.947500  0.763700  0.647100  1.0  0.1224
  H  H76  1  0.885500  0.748200  0.673400  1.0  0.1294
  H  H77  1  0.898700  0.834400  0.755200  1.0  0.1271
  H  H78  1  0.960600  0.849900  0.728900  1.0  0.1268
  H  H79  1  0.940200  0.902800  0.578100  1.0  0.1232
  H  H80  1  0.937200  0.863700  0.634900  1.0  0.1177
  H  H81  1  0.056800  0.921200  0.596800  1.0  0.1278
  H  H82  1  0.127800  0.829500  0.680400  1.0  0.1269
  H  H83  1  0.010100  0.775900  0.728800  1.0  0.1216
  H  H84  1  0.070800  0.753100  0.752600  1.0  0.1268
  H  H85  1  0.447500  0.736300  0.852900  1.0  0.1237
  H  H86  1  0.385500  0.751800  0.826600  1.0  0.1291
  H  H87  1  0.398700  0.665600  0.744800  1.0  0.1267
  H  H88  1  0.460600  0.650100  0.771100  1.0  0.1246
  H  H89  1  0.440200  0.597200  0.921900  1.0  0.1231
  H  H90  1  0.437200  0.636300  0.865100  1.0  0.1178
  H  H91  1  0.556800  0.578800  0.903200  1.0  0.1273
  H  H92  1  0.627800  0.670500  0.819600  1.0  0.1271
  H  H93  1  0.510100  0.724100  0.771200  1.0  0.1216
  H  H94  1  0.570800  0.746900  0.747400  1.0  0.1263
  H  H95  1  0.947500  0.236300  0.352900  1.0  0.1237
  H  H96  1  0.885500  0.251800  0.326600  1.0  0.1291
  H  H97  1  0.898700  0.165600  0.244800  1.0  0.1267
  H  H98  1  0.960600  0.150100  0.271100  1.0  0.1254
  H  H99  1  0.940200  0.097200  0.421900  1.0  0.1231
  H  H100  1  0.937200  0.136300  0.365100  1.0  0.1178
  H  H101  1  0.056800  0.078800  0.403200  1.0  0.1273
  H  H102  1  0.127800  0.170500  0.319600  1.0  0.1271
  H  H103  1  0.010100  0.224100  0.271200  1.0  0.1216
  H  H104  1  0.070800  0.246900  0.247400  1.0  0.1263
  H  H105  1  0.552500  0.263700  0.852900  1.0  0.1235
  H  H106  1  0.614500  0.248200  0.826600  1.0  0.1298
  H  H107  1  0.601300  0.334400  0.744800  1.0  0.1269
  H  H108  1  0.539400  0.349900  0.771100  1.0  0.1251
  H  H109  1  0.559800  0.402800  0.921900  1.0  0.1231
  H  H110  1  0.562800  0.363700  0.865100  1.0  0.1185
  H  H111  1  0.443200  0.421200  0.903200  1.0  0.1276
  H  H112  1  0.372200  0.329500  0.819600  1.0  0.1266
  H  H113  1  0.489900  0.275900  0.771200  1.0  0.1212
  H  H114  1  0.429200  0.253100  0.747400  1.0  0.1259
  H  H115  1  0.052500  0.763700  0.352900  1.0  0.1235
  H  H116  1  0.114500  0.748200  0.326600  1.0  0.1298
  H  H117  1  0.101300  0.834400  0.244800  1.0  0.1269
  H  H118  1  0.039400  0.849900  0.271100  1.0  0.1258
  H  H119  1  0.059800  0.902800  0.421900  1.0  0.1231
  H  H120  1  0.062800  0.863700  0.365100  1.0  0.1185
  H  H121  1  0.943200  0.921200  0.403200  1.0  0.1276
  H  H122  1  0.872200  0.829500  0.319600  1.0  0.1266
  H  H123  1  0.989900  0.775900  0.271200  1.0  0.1212
  H  H124  1  0.929200  0.753100  0.247400  1.0  0.1259
  H  H125  1  0.147100  0.552500  0.736300  1.0  0.1233
  H  H126  1  0.173400  0.614500  0.751800  1.0  0.1295
  H  H127  1  0.255200  0.601300  0.665600  1.0  0.1272
  H  H128  1  0.228900  0.539400  0.650100  1.0  0.1246
  H  H129  1  0.078100  0.559800  0.597200  1.0  0.1236
  H  H130  1  0.134900  0.562800  0.636300  1.0  0.1162
  H  H131  1  0.096800  0.443200  0.578800  1.0  0.1269
  H  H132  1  0.180400  0.372200  0.670500  1.0  0.1265
  H  H133  1  0.228800  0.489900  0.724100  1.0  0.1197
  H  H134  1  0.252600  0.429200  0.746900  1.0  0.1264
  H  H135  1  0.647100  0.052500  0.236300  1.0  0.1233
  H  H136  1  0.673400  0.114500  0.251800  1.0  0.1295
  H  H137  1  0.755200  0.101300  0.165600  1.0  0.1272
  H  H138  1  0.728900  0.039400  0.150100  1.0  0.1252
  H  H139  1  0.578100  0.059800  0.097200  1.0  0.1236
  H  H140  1  0.634900  0.062800  0.136300  1.0  0.1162
  H  H141  1  0.596800  0.943200  0.078800  1.0  0.1269
  H  H142  1  0.680400  0.872200  0.170500  1.0  0.1265
  H  H143  1  0.728800  0.989900  0.224100  1.0  0.1197
  H  H144  1  0.752600  0.929200  0.246900  1.0  0.1264
  H  H145  1  0.147100  0.447500  0.263700  1.0  0.1218
  H  H146  1  0.173400  0.385500  0.248200  1.0  0.1297
  H  H147  1  0.255200  0.398700  0.334400  1.0  0.1269
  H  H148  1  0.228900  0.460600  0.349900  1.0  0.1244
  H  H149  1  0.078100  0.440200  0.402800  1.0  0.1231
  H  H150  1  0.134900  0.437200  0.363700  1.0  0.1162
  H  H151  1  0.096800  0.556800  0.421200  1.0  0.1272
  H  H152  1  0.180400  0.627800  0.329500  1.0  0.1268
  H  H153  1  0.228800  0.510100  0.275900  1.0  0.1197
  H  H154  1  0.252600  0.570800  0.253100  1.0  0.1267
  H  H155  1  0.647100  0.947500  0.763700  1.0  0.1218
  H  H156  1  0.673400  0.885500  0.748200  1.0  0.1297
  H  H157  1  0.755200  0.898700  0.834400  1.0  0.1269
  H  H158  1  0.728900  0.960600  0.849900  1.0  0.1251
  H  H159  1  0.578100  0.940200  0.902800  1.0  0.1231
  H  H160  1  0.634900  0.937200  0.863700  1.0  0.1162
  H  H161  1  0.596800  0.056800  0.921200  1.0  0.1272
  H  H162  1  0.680400  0.127800  0.829500  1.0  0.1268
  H  H163  1  0.728800  0.010100  0.775900  1.0  0.1197
  H  H164  1  0.752600  0.070800  0.753100  1.0  0.1267
  H  H165  1  0.852900  0.447500  0.736300  1.0  0.1226
  H  H166  1  0.826600  0.385500  0.751800  1.0  0.1296
  H  H167  1  0.744800  0.398700  0.665600  1.0  0.1265
  H  H168  1  0.771100  0.460600  0.650100  1.0  0.1242
  H  H169  1  0.921900  0.440200  0.597200  1.0  0.1236
  H  H170  1  0.865100  0.437200  0.636300  1.0  0.1161
  H  H171  1  0.903200  0.556800  0.578800  1.0  0.1268
  H  H172  1  0.819600  0.627800  0.670500  1.0  0.1265
  H  H173  1  0.771200  0.510100  0.724100  1.0  0.1193
  H  H174  1  0.747400  0.570800  0.746900  1.0  0.127
  H  H175  1  0.352900  0.947500  0.236300  1.0  0.1226
  H  H176  1  0.326600  0.885500  0.251800  1.0  0.1296
  H  H177  1  0.244800  0.898700  0.165600  1.0  0.1265
  H  H178  1  0.271100  0.960600  0.150100  1.0  0.1249
  H  H179  1  0.421900  0.940200  0.097200  1.0  0.1236
  H  H180  1  0.365100  0.937200  0.136300  1.0  0.1161
  H  H181  1  0.403200  0.056800  0.078800  1.0  0.1268
  H  H182  1  0.319600  0.127800  0.170500  1.0  0.1265
  H  H183  1  0.271200  0.010100  0.224100  1.0  0.1193
  H  H184  1  0.247400  0.070800  0.246900  1.0  0.127
  H  H185  1  0.852900  0.552500  0.263700  1.0  0.1223
  H  H186  1  0.826600  0.614500  0.248200  1.0  0.1297
  H  H187  1  0.744800  0.601300  0.334400  1.0  0.1264
  H  H188  1  0.771100  0.539400  0.349900  1.0  0.1254
  H  H189  1  0.921900  0.559800  0.402800  1.0  0.1233
  H  H190  1  0.865100  0.562800  0.363700  1.0  0.1164
  H  H191  1  0.903200  0.443200  0.421200  1.0  0.1273
  H  H192  1  0.819600  0.372200  0.329500  1.0  0.1266
  H  H193  1  0.771200  0.489900  0.275900  1.0  0.1198
  H  H194  1  0.747400  0.429200  0.253100  1.0  0.1266
  H  H195  1  0.352900  0.052500  0.763700  1.0  0.1223
  H  H196  1  0.326600  0.114500  0.748200  1.0  0.1297
  H  H197  1  0.244800  0.101300  0.834400  1.0  0.1264
  H  H198  1  0.271100  0.039400  0.849900  1.0  0.1264
  H  H199  1  0.421900  0.059800  0.902800  1.0  0.1233
  H  H200  1  0.365100  0.062800  0.863700  1.0  0.1164
  H  H201  1  0.403200  0.943200  0.921200  1.0  0.1273
  H  H202  1  0.319600  0.872200  0.829500  1.0  0.1266
  H  H203  1  0.271200  0.989900  0.775900  1.0  0.1198
  H  H204  1  0.247400  0.929200  0.753100  1.0  0.1266
  H  H205  1  0.736300  0.147100  0.552500  1.0  0.1249
  H  H206  1  0.751800  0.173400  0.614500  1.0  0.1291
  H  H207  1  0.665600  0.255200  0.601300  1.0  0.1272
  H  H208  1  0.650100  0.228900  0.539400  1.0  0.1248
  H  H209  1  0.597200  0.078100  0.559800  1.0  0.1212
  H  H210  1  0.636300  0.134900  0.562800  1.0  0.1171
  H  H211  1  0.578800  0.096800  0.443200  1.0  0.1269
  H  H212  1  0.670500  0.180400  0.372200  1.0  0.1274
  H  H213  1  0.724100  0.228800  0.489900  1.0  0.1195
  H  H214  1  0.746900  0.252600  0.429200  1.0  0.1278
  H  H215  1  0.236300  0.647100  0.052500  1.0  0.1249
  H  H216  1  0.251800  0.673400  0.114500  1.0  0.1291
  H  H217  1  0.165600  0.755200  0.101300  1.0  0.1272
  H  H218  1  0.150100  0.728900  0.039400  1.0  0.1257
  H  H219  1  0.097200  0.578100  0.059800  1.0  0.1212
  H  H220  1  0.136300  0.634900  0.062800  1.0  0.1171
  H  H221  1  0.078800  0.596800  0.943200  1.0  0.1269
  H  H222  1  0.170500  0.680400  0.872200  1.0  0.1274
  H  H223  1  0.224100  0.728800  0.989900  1.0  0.1195
  H  H224  1  0.246900  0.752600  0.929200  1.0  0.1278
  H  H225  1  0.263700  0.147100  0.447500  1.0  0.1243
  H  H226  1  0.248200  0.173400  0.385500  1.0  0.1287
  H  H227  1  0.334400  0.255200  0.398700  1.0  0.1275
  H  H228  1  0.349900  0.228900  0.460600  1.0  0.1248
  H  H229  1  0.402800  0.078100  0.440200  1.0  0.1205
  H  H230  1  0.363700  0.134900  0.437200  1.0  0.1164
  H  H231  1  0.421200  0.096800  0.556800  1.0  0.127
  H  H232  1  0.329500  0.180400  0.627800  1.0  0.1276
  H  H233  1  0.275900  0.228800  0.510100  1.0  0.1193
  H  H234  1  0.253100  0.252600  0.570800  1.0  0.1282
  H  H235  1  0.763700  0.647100  0.947500  1.0  0.1243
  H  H236  1  0.748200  0.673400  0.885500  1.0  0.1287
  H  H237  1  0.834400  0.755200  0.898700  1.0  0.1275
  H  H238  1  0.849900  0.728900  0.960600  1.0  0.1256
  H  H239  1  0.902800  0.578100  0.940200  1.0  0.1205
  H  H240  1  0.863700  0.634900  0.937200  1.0  0.1164
  H  H241  1  0.921200  0.596800  0.056800  1.0  0.127
  H  H242  1  0.829500  0.680400  0.127800  1.0  0.1276
  H  H243  1  0.775900  0.728800  0.010100  1.0  0.1193
  H  H244  1  0.753100  0.752600  0.070800  1.0  0.1282
  H  H245  1  0.736300  0.852900  0.447500  1.0  0.1245
  H  H246  1  0.751800  0.826600  0.385500  1.0  0.1294
  H  H247  1  0.665600  0.744800  0.398700  1.0  0.1268
  H  H248  1  0.650100  0.771100  0.460600  1.0  0.1246
  H  H249  1  0.597200  0.921900  0.440200  1.0  0.1208
  H  H250  1  0.636300  0.865100  0.437200  1.0  0.1165
  H  H251  1  0.578800  0.903200  0.556800  1.0  0.1272
  H  H252  1  0.670500  0.819600  0.627800  1.0  0.1278
  H  H253  1  0.724100  0.771200  0.510100  1.0  0.1197
  H  H254  1  0.746900  0.747400  0.570800  1.0  0.1276
  H  H255  1  0.236300  0.352900  0.947500  1.0  0.1245
  H  H256  1  0.251800  0.326600  0.885500  1.0  0.1294
  H  H257  1  0.165600  0.244800  0.898700  1.0  0.1268
  H  H258  1  0.150100  0.271100  0.960600  1.0  0.1252
  H  H259  1  0.097200  0.421900  0.940200  1.0  0.1208
  H  H260  1  0.136300  0.365100  0.937200  1.0  0.1165
  H  H261  1  0.078800  0.403200  0.056800  1.0  0.1272
  H  H262  1  0.170500  0.319600  0.127800  1.0  0.1278
  H  H263  1  0.224100  0.271200  0.010100  1.0  0.1197
  H  H264  1  0.246900  0.247400  0.070800  1.0  0.1276
  H  H265  1  0.263700  0.852900  0.552500  1.0  0.1247
  H  H266  1  0.248200  0.826600  0.614500  1.0  0.1289
  H  H267  1  0.334400  0.744800  0.601300  1.0  0.1267
  H  H268  1  0.349900  0.771100  0.539400  1.0  0.1243
  H  H269  1  0.402800  0.921900  0.559800  1.0  0.1214
  H  H270  1  0.363700  0.865100  0.562800  1.0  0.1165
  H  H271  1  0.421200  0.903200  0.443200  1.0  0.127
  H  H272  1  0.329500  0.819600  0.372200  1.0  0.1272
  H  H273  1  0.275900  0.771200  0.489900  1.0  0.1195
  H  H274  1  0.253100  0.747400  0.429200  1.0  0.1279
  H  H275  1  0.763700  0.352900  0.052500  1.0  0.1247
  H  H276  1  0.748200  0.326600  0.114500  1.0  0.1289
  H  H277  1  0.834400  0.244800  0.101300  1.0  0.1267
  H  H278  1  0.849900  0.271100  0.039400  1.0  0.125
  H  H279  1  0.902800  0.421900  0.059800  1.0  0.1214
  H  H280  1  0.863700  0.365100  0.062800  1.0  0.1165
  H  H281  1  0.921200  0.403200  0.943200  1.0  0.127
  H  H282  1  0.829500  0.319600  0.872200  1.0  0.1272
  H  H283  1  0.775900  0.271200  0.989900  1.0  0.1195
  H  H284  1  0.753100  0.247400  0.929200  1.0  0.1279
  C  C285  1  0.539800  0.691670  0.185380  1.0  0.1329
  C  C286  1  0.562300  0.722140  0.168750  1.0  -0.0746
  C  C287  1  0.599410  0.731420  0.184500  1.0  -0.0788
  C  C288  1  0.614020  0.710200  0.216900  1.0  -0.0452
  C  C289  1  0.591530  0.679800  0.233520  1.0  -0.0258
  C  C290  1  0.554410  0.670480  0.217770  1.0  -0.1835
  C  C291  1  0.501200  0.584080  0.081830  1.0  -0.0952
  C  C292  1  0.537100  0.601310  0.093230  1.0  -0.076
  C  C293  1  0.538830  0.624750  0.127280  1.0  -0.1165
  C  C294  1  0.504770  0.630960  0.149910  1.0  0.0574
  C  C295  1  0.468930  0.613730  0.138510  1.0  0.1671
  C  C296  1  0.467100  0.590290  0.104470  1.0  -0.0527
  C  C297  1  0.394700  0.710900  0.218910  1.0  -0.1204
  C  C298  1  0.395780  0.681200  0.190130  1.0  -0.0475
  C  C299  1  0.432120  0.667590  0.175830  1.0  0.1458
  C  C300  1  0.467390  0.683660  0.190300  1.0  0.057
  C  C301  1  0.466320  0.713350  0.219080  1.0  -0.0641
  C  C302  1  0.429970  0.726980  0.233390  1.0  -0.0442
  C  C303  1  0.348100  0.710200  0.230400  1.0  0.3641
  C  C304  1  0.501300  0.556700  0.050500  1.0  0.7266
  C  C305  1  0.659100  0.729100  0.225700  1.0  0.6425
  C  C306  1  0.039800  0.191670  0.685380  1.0  0.1329
  C  C307  1  0.062300  0.222140  0.668750  1.0  -0.0746
  C  C308  1  0.099410  0.231420  0.684500  1.0  -0.0788
  C  C309  1  0.114020  0.210200  0.716900  1.0  -0.0452
  C  C310  1  0.091530  0.179800  0.733520  1.0  -0.0258
  C  C311  1  0.054410  0.170480  0.717770  1.0  -0.1835
  C  C312  1  0.001200  0.084080  0.581830  1.0  -0.0952
  C  C313  1  0.037100  0.101310  0.593230  1.0  -0.076
  C  C314  1  0.038830  0.124750  0.627280  1.0  -0.1165
  C  C315  1  0.004770  0.130960  0.649910  1.0  0.0574
  C  C316  1  0.968930  0.113730  0.638510  1.0  0.1671
  C  C317  1  0.967100  0.090290  0.604470  1.0  -0.0527
  C  C318  1  0.894700  0.210900  0.718910  1.0  -0.1204
  C  C319  1  0.895780  0.181200  0.690130  1.0  -0.0475
  C  C320  1  0.932120  0.167590  0.675830  1.0  0.1458
  C  C321  1  0.967390  0.183660  0.690300  1.0  0.057
  C  C322  1  0.966320  0.213350  0.719080  1.0  -0.0641
  C  C323  1  0.929970  0.226980  0.733390  1.0  -0.0442
  C  C324  1  0.848100  0.210200  0.730400  1.0  0.3641
  C  C325  1  0.001300  0.056700  0.550500  1.0  0.7266
  C  C326  1  0.159100  0.229100  0.725700  1.0  0.6425
  C  C327  1  0.460200  0.308330  0.185380  1.0  0.1321
  C  C328  1  0.437700  0.277860  0.168750  1.0  -0.0743
  C  C329  1  0.400590  0.268580  0.184500  1.0  -0.0792
  C  C330  1  0.385980  0.289800  0.216900  1.0  -0.0474
  C  C331  1  0.408470  0.320200  0.233520  1.0  -0.0272
  C  C332  1  0.445590  0.329520  0.217770  1.0  -0.1833
  C  C333  1  0.498800  0.415920  0.081830  1.0  -0.0957
  C  C334  1  0.462900  0.398690  0.093230  1.0  -0.0768
  C  C335  1  0.461170  0.375250  0.127280  1.0  -0.1187
  C  C336  1  0.495230  0.369040  0.149910  1.0  0.0584
  C  C337  1  0.531070  0.386270  0.138510  1.0  0.166
  C  C338  1  0.532900  0.409710  0.104470  1.0  -0.0509
  C  C339  1  0.605300  0.289100  0.218910  1.0  -0.1208
  C  C340  1  0.604220  0.318800  0.190130  1.0  -0.047
  C  C341  1  0.567880  0.332410  0.175830  1.0  0.1479
  C  C342  1  0.532610  0.316340  0.190300  1.0  0.0586
  C  C343  1  0.533680  0.286650  0.219080  1.0  -0.0633
  C  C344  1  0.570030  0.273020  0.233390  1.0  -0.0438
  C  C345  1  0.651900  0.289800  0.230400  1.0  0.362
  C  C346  1  0.498700  0.443300  0.050500  1.0  0.7279
  C  C347  1  0.340900  0.270900  0.225700  1.0  0.6428
  C  C348  1  0.960200  0.808330  0.685380  1.0  0.1321
  C  C349  1  0.937700  0.777860  0.668750  1.0  -0.0743
  C  C350  1  0.900590  0.768580  0.684500  1.0  -0.0792
  C  C351  1  0.885980  0.789800  0.716900  1.0  -0.0474
  C  C352  1  0.908470  0.820200  0.733520  1.0  -0.0272
  C  C353  1  0.945590  0.829520  0.717770  1.0  -0.1833
  C  C354  1  0.998800  0.915920  0.581830  1.0  -0.0957
  C  C355  1  0.962900  0.898690  0.593230  1.0  -0.0768
  C  C356  1  0.961170  0.875250  0.627280  1.0  -0.1187
  C  C357  1  0.995230  0.869040  0.649910  1.0  0.0584
  C  C358  1  0.031070  0.886270  0.638510  1.0  0.166
  C  C359  1  0.032900  0.909710  0.604470  1.0  -0.0509
  C  C360  1  0.105300  0.789100  0.718910  1.0  -0.1208
  C  C361  1  0.104220  0.818800  0.690130  1.0  -0.047
  C  C362  1  0.067880  0.832410  0.675830  1.0  0.1479
  C  C363  1  0.032610  0.816340  0.690300  1.0  0.0586
  C  C364  1  0.033680  0.786650  0.719080  1.0  -0.0633
  C  C365  1  0.070030  0.773020  0.733390  1.0  -0.0438
  C  C366  1  0.151900  0.789800  0.730400  1.0  0.362
  C  C367  1  0.998700  0.943300  0.550500  1.0  0.7279
  C  C368  1  0.840900  0.770900  0.725700  1.0  0.6428
  C  C369  1  0.460200  0.691670  0.814620  1.0  0.1326
  C  C370  1  0.437700  0.722140  0.831250  1.0  -0.0749
  C  C371  1  0.400590  0.731420  0.815500  1.0  -0.0791
  C  C372  1  0.385980  0.710200  0.783100  1.0  -0.0473
  C  C373  1  0.408470  0.679800  0.766480  1.0  -0.0249
  C  C374  1  0.445590  0.670480  0.782230  1.0  -0.1837
  C  C375  1  0.498800  0.584080  0.918170  1.0  -0.0946
  C  C376  1  0.462900  0.601310  0.906770  1.0  -0.0763
  C  C377  1  0.461170  0.624750  0.872720  1.0  -0.1188
  C  C378  1  0.495230  0.630960  0.850090  1.0  0.0563
  C  C379  1  0.531070  0.613730  0.861490  1.0  0.1646
  C  C380  1  0.532900  0.590290  0.895530  1.0  -0.0505
  C  C381  1  0.605300  0.710900  0.781090  1.0  -0.1192
  C  C382  1  0.604220  0.681200  0.809870  1.0  -0.0466
  C  C383  1  0.567880  0.667590  0.824170  1.0  0.145
  C  C384  1  0.532610  0.683660  0.809700  1.0  0.0581
  C  C385  1  0.533680  0.713350  0.780920  1.0  -0.064
  C  C386  1  0.570030  0.726980  0.766610  1.0  -0.0443
  C  C387  1  0.651900  0.710200  0.769600  1.0  0.3616
  C  C388  1  0.498700  0.556700  0.949500  1.0  0.7277
  C  C389  1  0.340900  0.729100  0.774300  1.0  0.6432
  C  C390  1  0.960200  0.191670  0.314620  1.0  0.1326
  C  C391  1  0.937700  0.222140  0.331250  1.0  -0.0749
  C  C392  1  0.900590  0.231420  0.315500  1.0  -0.0791
  C  C393  1  0.885980  0.210200  0.283100  1.0  -0.0473
  C  C394  1  0.908470  0.179800  0.266480  1.0  -0.0249
  C  C395  1  0.945590  0.170480  0.282230  1.0  -0.1837
  C  C396  1  0.998800  0.084080  0.418170  1.0  -0.0946
  C  C397  1  0.962900  0.101310  0.406770  1.0  -0.0763
  C  C398  1  0.961170  0.124750  0.372720  1.0  -0.1188
  C  C399  1  0.995230  0.130960  0.350090  1.0  0.0563
  C  C400  1  0.031070  0.113730  0.361490  1.0  0.1646
  C  C401  1  0.032900  0.090290  0.395530  1.0  -0.0505
  C  C402  1  0.105300  0.210900  0.281090  1.0  -0.1192
  C  C403  1  0.104220  0.181200  0.309870  1.0  -0.0466
  C  C404  1  0.067880  0.167590  0.324170  1.0  0.145
  C  C405  1  0.032610  0.183660  0.309700  1.0  0.0581
  C  C406  1  0.033680  0.213350  0.280920  1.0  -0.064
  C  C407  1  0.070030  0.226980  0.266610  1.0  -0.0443
  C  C408  1  0.151900  0.210200  0.269600  1.0  0.3616
  C  C409  1  0.998700  0.056700  0.449500  1.0  0.7277
  C  C410  1  0.840900  0.229100  0.274300  1.0  0.6432
  C  C411  1  0.539800  0.308330  0.814620  1.0  0.1326
  C  C412  1  0.562300  0.277860  0.831250  1.0  -0.0754
  C  C413  1  0.599410  0.268580  0.815500  1.0  -0.0792
  C  C414  1  0.614020  0.289800  0.783100  1.0  -0.0446
  C  C415  1  0.591530  0.320200  0.766480  1.0  -0.0246
  C  C416  1  0.554410  0.329520  0.782230  1.0  -0.1809
  C  C417  1  0.501200  0.415920  0.918170  1.0  -0.0942
  C  C418  1  0.537100  0.398690  0.906770  1.0  -0.075
  C  C419  1  0.538830  0.375250  0.872720  1.0  -0.1166
  C  C420  1  0.504770  0.369040  0.850090  1.0  0.0574
  C  C421  1  0.468930  0.386270  0.861490  1.0  0.1678
  C  C422  1  0.467100  0.409710  0.895530  1.0  -0.0527
  C  C423  1  0.394700  0.289100  0.781090  1.0  -0.1225
  C  C424  1  0.395780  0.318800  0.809870  1.0  -0.0482
  C  C425  1  0.432120  0.332410  0.824170  1.0  0.145
  C  C426  1  0.467390  0.316340  0.809700  1.0  0.057
  C  C427  1  0.466320  0.286650  0.780920  1.0  -0.0645
  C  C428  1  0.429970  0.273020  0.766610  1.0  -0.0435
  C  C429  1  0.348100  0.289800  0.769600  1.0  0.3641
  C  C430  1  0.501300  0.443300  0.949500  1.0  0.7284
  C  C431  1  0.659100  0.270900  0.774300  1.0  0.6417
  C  C432  1  0.039800  0.808330  0.314620  1.0  0.1326
  C  C433  1  0.062300  0.777860  0.331250  1.0  -0.0754
  C  C434  1  0.099410  0.768580  0.315500  1.0  -0.0792
  C  C435  1  0.114020  0.789800  0.283100  1.0  -0.0446
  C  C436  1  0.091530  0.820200  0.266480  1.0  -0.0246
  C  C437  1  0.054410  0.829520  0.282230  1.0  -0.1809
  C  C438  1  0.001200  0.915920  0.418170  1.0  -0.0942
  C  C439  1  0.037100  0.898690  0.406770  1.0  -0.075
  C  C440  1  0.038830  0.875250  0.372720  1.0  -0.1166
  C  C441  1  0.004770  0.869040  0.350090  1.0  0.0574
  C  C442  1  0.968930  0.886270  0.361490  1.0  0.1678
  C  C443  1  0.967100  0.909710  0.395530  1.0  -0.0527
  C  C444  1  0.894700  0.789100  0.281090  1.0  -0.1225
  C  C445  1  0.895780  0.818800  0.309870  1.0  -0.0482
  C  C446  1  0.932120  0.832410  0.324170  1.0  0.145
  C  C447  1  0.967390  0.816340  0.309700  1.0  0.057
  C  C448  1  0.966320  0.786650  0.280920  1.0  -0.0645
  C  C449  1  0.929970  0.773020  0.266610  1.0  -0.0435
  C  C450  1  0.848100  0.789800  0.269600  1.0  0.3641
  C  C451  1  0.001300  0.943300  0.449500  1.0  0.7284
  C  C452  1  0.159100  0.770900  0.274300  1.0  0.6417
  C  C453  1  0.185380  0.539800  0.691670  1.0  0.1336
  C  C454  1  0.168750  0.562300  0.722140  1.0  -0.0756
  C  C455  1  0.184500  0.599410  0.731420  1.0  -0.0814
  C  C456  1  0.216900  0.614020  0.710200  1.0  -0.0449
  C  C457  1  0.233520  0.591530  0.679800  1.0  -0.0243
  C  C458  1  0.217770  0.554410  0.670480  1.0  -0.1856
  C  C459  1  0.081830  0.501200  0.584080  1.0  -0.0943
  C  C460  1  0.093230  0.537100  0.601310  1.0  -0.076
  C  C461  1  0.127280  0.538830  0.624750  1.0  -0.1177
  C  C462  1  0.149910  0.504770  0.630960  1.0  0.0614
  C  C463  1  0.138510  0.468930  0.613730  1.0  0.1688
  C  C464  1  0.104470  0.467100  0.590290  1.0  -0.0523
  C  C465  1  0.218910  0.394700  0.710900  1.0  -0.1213
  C  C466  1  0.190130  0.395780  0.681200  1.0  -0.0467
  C  C467  1  0.175830  0.432120  0.667590  1.0  0.1442
  C  C468  1  0.190300  0.467390  0.683660  1.0  0.0574
  C  C469  1  0.219080  0.466320  0.713350  1.0  -0.0627
  C  C470  1  0.233390  0.429970  0.726980  1.0  -0.0423
  C  C471  1  0.230400  0.348100  0.710200  1.0  0.3658
  C  C472  1  0.050500  0.501300  0.556700  1.0  0.7229
  C  C473  1  0.225700  0.659100  0.729100  1.0  0.6433
  C  C474  1  0.685380  0.039800  0.191670  1.0  0.1336
  C  C475  1  0.668750  0.062300  0.222140  1.0  -0.0756
  C  C476  1  0.684500  0.099410  0.231420  1.0  -0.0814
  C  C477  1  0.716900  0.114020  0.210200  1.0  -0.0449
  C  C478  1  0.733520  0.091530  0.179800  1.0  -0.0243
  C  C479  1  0.717770  0.054410  0.170480  1.0  -0.1856
  C  C480  1  0.581830  0.001200  0.084080  1.0  -0.0943
  C  C481  1  0.593230  0.037100  0.101310  1.0  -0.076
  C  C482  1  0.627280  0.038830  0.124750  1.0  -0.1177
  C  C483  1  0.649910  0.004770  0.130960  1.0  0.0614
  C  C484  1  0.638510  0.968930  0.113730  1.0  0.1688
  C  C485  1  0.604470  0.967100  0.090290  1.0  -0.0523
  C  C486  1  0.718910  0.894700  0.210900  1.0  -0.1213
  C  C487  1  0.690130  0.895780  0.181200  1.0  -0.0467
  C  C488  1  0.675830  0.932120  0.167590  1.0  0.1442
  C  C489  1  0.690300  0.967390  0.183660  1.0  0.0574
  C  C490  1  0.719080  0.966320  0.213350  1.0  -0.0627
  C  C491  1  0.733390  0.929970  0.226980  1.0  -0.0423
  C  C492  1  0.730400  0.848100  0.210200  1.0  0.3658
  C  C493  1  0.550500  0.001300  0.056700  1.0  0.7229
  C  C494  1  0.725700  0.159100  0.229100  1.0  0.6433
  C  C495  1  0.185380  0.460200  0.308330  1.0  0.1327
  C  C496  1  0.168750  0.437700  0.277860  1.0  -0.0755
  C  C497  1  0.184500  0.400590  0.268580  1.0  -0.0788
  C  C498  1  0.216900  0.385980  0.289800  1.0  -0.0432
  C  C499  1  0.233520  0.408470  0.320200  1.0  -0.0249
  C  C500  1  0.217770  0.445590  0.329520  1.0  -0.1835
  C  C501  1  0.081830  0.498800  0.415920  1.0  -0.0944
  C  C502  1  0.093230  0.462900  0.398690  1.0  -0.075
  C  C503  1  0.127280  0.461170  0.375250  1.0  -0.1181
  C  C504  1  0.149910  0.495230  0.369040  1.0  0.0633
  C  C505  1  0.138510  0.531070  0.386270  1.0  0.1694
  C  C506  1  0.104470  0.532900  0.409710  1.0  -0.053
  C  C507  1  0.218910  0.605300  0.289100  1.0  -0.1204
  C  C508  1  0.190130  0.604220  0.318800  1.0  -0.0479
  C  C509  1  0.175830  0.567880  0.332410  1.0  0.1455
  C  C510  1  0.190300  0.532610  0.316340  1.0  0.0573
  C  C511  1  0.219080  0.533680  0.286650  1.0  -0.0633
  C  C512  1  0.233390  0.570030  0.273020  1.0  -0.0421
  C  C513  1  0.230400  0.651900  0.289800  1.0  0.3644
  C  C514  1  0.050500  0.498700  0.443300  1.0  0.7231
  C  C515  1  0.225700  0.340900  0.270900  1.0  0.6423
  C  C516  1  0.685380  0.960200  0.808330  1.0  0.1327
  C  C517  1  0.668750  0.937700  0.777860  1.0  -0.0755
  C  C518  1  0.684500  0.900590  0.768580  1.0  -0.0788
  C  C519  1  0.716900  0.885980  0.789800  1.0  -0.0432
  C  C520  1  0.733520  0.908470  0.820200  1.0  -0.0249
  C  C521  1  0.717770  0.945590  0.829520  1.0  -0.1835
  C  C522  1  0.581830  0.998800  0.915920  1.0  -0.0944
  C  C523  1  0.593230  0.962900  0.898690  1.0  -0.075
  C  C524  1  0.627280  0.961170  0.875250  1.0  -0.1181
  C  C525  1  0.649910  0.995230  0.869040  1.0  0.0633
  C  C526  1  0.638510  0.031070  0.886270  1.0  0.1694
  C  C527  1  0.604470  0.032900  0.909710  1.0  -0.053
  C  C528  1  0.718910  0.105300  0.789100  1.0  -0.1204
  C  C529  1  0.690130  0.104220  0.818800  1.0  -0.0479
  C  C530  1  0.675830  0.067880  0.832410  1.0  0.1455
  C  C531  1  0.690300  0.032610  0.816340  1.0  0.0573
  C  C532  1  0.719080  0.033680  0.786650  1.0  -0.0633
  C  C533  1  0.733390  0.070030  0.773020  1.0  -0.0421
  C  C534  1  0.730400  0.151900  0.789800  1.0  0.3644
  C  C535  1  0.550500  0.998700  0.943300  1.0  0.7231
  C  C536  1  0.725700  0.840900  0.770900  1.0  0.6423
  C  C537  1  0.814620  0.460200  0.691670  1.0  0.1334
  C  C538  1  0.831250  0.437700  0.722140  1.0  -0.0751
  C  C539  1  0.815500  0.400590  0.731420  1.0  -0.08
  C  C540  1  0.783100  0.385980  0.710200  1.0  -0.0463
  C  C541  1  0.766480  0.408470  0.679800  1.0  -0.0257
  C  C542  1  0.782230  0.445590  0.670480  1.0  -0.1874
  C  C543  1  0.918170  0.498800  0.584080  1.0  -0.0949
  C  C544  1  0.906770  0.462900  0.601310  1.0  -0.0769
  C  C545  1  0.872720  0.461170  0.624750  1.0  -0.1197
  C  C546  1  0.850090  0.495230  0.630960  1.0  0.0594
  C  C547  1  0.861490  0.531070  0.613730  1.0  0.1666
  C  C548  1  0.895530  0.532900  0.590290  1.0  -0.0524
  C  C549  1  0.781090  0.605300  0.710900  1.0  -0.1209
  C  C550  1  0.809870  0.604220  0.681200  1.0  -0.0469
  C  C551  1  0.824170  0.567880  0.667590  1.0  0.1465
  C  C552  1  0.809700  0.532610  0.683660  1.0  0.0574
  C  C553  1  0.780920  0.533680  0.713350  1.0  -0.0632
  C  C554  1  0.766610  0.570030  0.726980  1.0  -0.0439
  C  C555  1  0.769600  0.651900  0.710200  1.0  0.3642
  C  C556  1  0.949500  0.498700  0.556700  1.0  0.7232
  C  C557  1  0.774300  0.340900  0.729100  1.0  0.6425
  C  C558  1  0.314620  0.960200  0.191670  1.0  0.1334
  C  C559  1  0.331250  0.937700  0.222140  1.0  -0.0751
  C  C560  1  0.315500  0.900590  0.231420  1.0  -0.08
  C  C561  1  0.283100  0.885980  0.210200  1.0  -0.0463
  C  C562  1  0.266480  0.908470  0.179800  1.0  -0.0257
  C  C563  1  0.282230  0.945590  0.170480  1.0  -0.1874
  C  C564  1  0.418170  0.998800  0.084080  1.0  -0.0949
  C  C565  1  0.406770  0.962900  0.101310  1.0  -0.0769
  C  C566  1  0.372720  0.961170  0.124750  1.0  -0.1197
  C  C567  1  0.350090  0.995230  0.130960  1.0  0.0594
  C  C568  1  0.361490  0.031070  0.113730  1.0  0.1666
  C  C569  1  0.395530  0.032900  0.090290  1.0  -0.0524
  C  C570  1  0.281090  0.105300  0.210900  1.0  -0.1209
  C  C571  1  0.309870  0.104220  0.181200  1.0  -0.0469
  C  C572  1  0.324170  0.067880  0.167590  1.0  0.1465
  C  C573  1  0.309700  0.032610  0.183660  1.0  0.0574
  C  C574  1  0.280920  0.033680  0.213350  1.0  -0.0632
  C  C575  1  0.266610  0.070030  0.226980  1.0  -0.0439
  C  C576  1  0.269600  0.151900  0.210200  1.0  0.3642
  C  C577  1  0.449500  0.998700  0.056700  1.0  0.7232
  C  C578  1  0.274300  0.840900  0.229100  1.0  0.6425
  C  C579  1  0.814620  0.539800  0.308330  1.0  0.133
  C  C580  1  0.831250  0.562300  0.277860  1.0  -0.0739
  C  C581  1  0.815500  0.599410  0.268580  1.0  -0.0814
  C  C582  1  0.783100  0.614020  0.289800  1.0  -0.0454
  C  C583  1  0.766480  0.591530  0.320200  1.0  -0.0266
  C  C584  1  0.782230  0.554410  0.329520  1.0  -0.1873
  C  C585  1  0.918170  0.501200  0.415920  1.0  -0.0948
  C  C586  1  0.906770  0.537100  0.398690  1.0  -0.0761
  C  C587  1  0.872720  0.538830  0.375250  1.0  -0.1182
  C  C588  1  0.850090  0.504770  0.369040  1.0  0.0608
  C  C589  1  0.861490  0.468930  0.386270  1.0  0.169
  C  C590  1  0.895530  0.467100  0.409710  1.0  -0.053
  C  C591  1  0.781090  0.394700  0.289100  1.0  -0.1233
  C  C592  1  0.809870  0.395780  0.318800  1.0  -0.0467
  C  C593  1  0.824170  0.432120  0.332410  1.0  0.1453
  C  C594  1  0.809700  0.467390  0.316340  1.0  0.0567
  C  C595  1  0.780920  0.466320  0.286650  1.0  -0.0634
  C  C596  1  0.766610  0.429970  0.273020  1.0  -0.0422
  C  C597  1  0.769600  0.348100  0.289800  1.0  0.3647
  C  C598  1  0.949500  0.501300  0.443300  1.0  0.7234
  C  C599  1  0.774300  0.659100  0.270900  1.0  0.6436
  C  C600  1  0.314620  0.039800  0.808330  1.0  0.133
  C  C601  1  0.331250  0.062300  0.777860  1.0  -0.0739
  C  C602  1  0.315500  0.099410  0.768580  1.0  -0.0814
  C  C603  1  0.283100  0.114020  0.789800  1.0  -0.0454
  C  C604  1  0.266480  0.091530  0.820200  1.0  -0.0266
  C  C605  1  0.282230  0.054410  0.829520  1.0  -0.1873
  C  C606  1  0.418170  0.001200  0.915920  1.0  -0.0948
  C  C607  1  0.406770  0.037100  0.898690  1.0  -0.0761
  C  C608  1  0.372720  0.038830  0.875250  1.0  -0.1182
  C  C609  1  0.350090  0.004770  0.869040  1.0  0.0608
  C  C610  1  0.361490  0.968930  0.886270  1.0  0.169
  C  C611  1  0.395530  0.967100  0.909710  1.0  -0.053
  C  C612  1  0.281090  0.894700  0.789100  1.0  -0.1233
  C  C613  1  0.309870  0.895780  0.818800  1.0  -0.0467
  C  C614  1  0.324170  0.932120  0.832410  1.0  0.1453
  C  C615  1  0.309700  0.967390  0.816340  1.0  0.0567
  C  C616  1  0.280920  0.966320  0.786650  1.0  -0.0634
  C  C617  1  0.266610  0.929970  0.773020  1.0  -0.0422
  C  C618  1  0.269600  0.848100  0.789800  1.0  0.3647
  C  C619  1  0.449500  0.001300  0.943300  1.0  0.7234
  C  C620  1  0.274300  0.159100  0.770900  1.0  0.6436
  C  C621  1  0.691670  0.185380  0.539800  1.0  0.131
  C  C622  1  0.722140  0.168750  0.562300  1.0  -0.0729
  C  C623  1  0.731420  0.184500  0.599410  1.0  -0.0799
  C  C624  1  0.710200  0.216900  0.614020  1.0  -0.0445
  C  C625  1  0.679800  0.233520  0.591530  1.0  -0.0235
  C  C626  1  0.670480  0.217770  0.554410  1.0  -0.1845
  C  C627  1  0.584080  0.081830  0.501200  1.0  -0.0938
  C  C628  1  0.601310  0.093230  0.537100  1.0  -0.0777
  C  C629  1  0.624750  0.127280  0.538830  1.0  -0.1231
  C  C630  1  0.630960  0.149910  0.504770  1.0  0.0565
  C  C631  1  0.613730  0.138510  0.468930  1.0  0.1673
  C  C632  1  0.590290  0.104470  0.467100  1.0  -0.051
  C  C633  1  0.710900  0.218910  0.394700  1.0  -0.1205
  C  C634  1  0.681200  0.190130  0.395780  1.0  -0.0465
  C  C635  1  0.667590  0.175830  0.432120  1.0  0.1427
  C  C636  1  0.683660  0.190300  0.467390  1.0  0.0585
  C  C637  1  0.713350  0.219080  0.466320  1.0  -0.0633
  C  C638  1  0.726980  0.233390  0.429970  1.0  -0.0406
  C  C639  1  0.710200  0.230400  0.348100  1.0  0.3635
  C  C640  1  0.556700  0.050500  0.501300  1.0  0.7202
  C  C641  1  0.729100  0.225700  0.659100  1.0  0.6428
  C  C642  1  0.191670  0.685380  0.039800  1.0  0.131
  C  C643  1  0.222140  0.668750  0.062300  1.0  -0.0729
  C  C644  1  0.231420  0.684500  0.099410  1.0  -0.0799
  C  C645  1  0.210200  0.716900  0.114020  1.0  -0.0445
  C  C646  1  0.179800  0.733520  0.091530  1.0  -0.0235
  C  C647  1  0.170480  0.717770  0.054410  1.0  -0.1845
  C  C648  1  0.084080  0.581830  0.001200  1.0  -0.0938
  C  C649  1  0.101310  0.593230  0.037100  1.0  -0.0777
  C  C650  1  0.124750  0.627280  0.038830  1.0  -0.1231
  C  C651  1  0.130960  0.649910  0.004770  1.0  0.0565
  C  C652  1  0.113730  0.638510  0.968930  1.0  0.1673
  C  C653  1  0.090290  0.604470  0.967100  1.0  -0.051
  C  C654  1  0.210900  0.718910  0.894700  1.0  -0.1205
  C  C655  1  0.181200  0.690130  0.895780  1.0  -0.0465
  C  C656  1  0.167590  0.675830  0.932120  1.0  0.1427
  C  C657  1  0.183660  0.690300  0.967390  1.0  0.0585
  C  C658  1  0.213350  0.719080  0.966320  1.0  -0.0633
  C  C659  1  0.226980  0.733390  0.929970  1.0  -0.0406
  C  C660  1  0.210200  0.730400  0.848100  1.0  0.3635
  C  C661  1  0.056700  0.550500  0.001300  1.0  0.7202
  C  C662  1  0.229100  0.725700  0.159100  1.0  0.6428
  C  C663  1  0.308330  0.185380  0.460200  1.0  0.1306
  C  C664  1  0.277860  0.168750  0.437700  1.0  -0.0734
  C  C665  1  0.268580  0.184500  0.400590  1.0  -0.0794
  C  C666  1  0.289800  0.216900  0.385980  1.0  -0.0446
  C  C667  1  0.320200  0.233520  0.408470  1.0  -0.0225
  C  C668  1  0.329520  0.217770  0.445590  1.0  -0.183
  C  C669  1  0.415920  0.081830  0.498800  1.0  -0.094
  C  C670  1  0.398690  0.093230  0.462900  1.0  -0.0761
  C  C671  1  0.375250  0.127280  0.461170  1.0  -0.1218
  C  C672  1  0.369040  0.149910  0.495230  1.0  0.057
  C  C673  1  0.386270  0.138510  0.531070  1.0  0.167
  C  C674  1  0.409710  0.104470  0.532900  1.0  -0.0503
  C  C675  1  0.289100  0.218910  0.605300  1.0  -0.1218
  C  C676  1  0.318800  0.190130  0.604220  1.0  -0.0457
  C  C677  1  0.332410  0.175830  0.567880  1.0  0.1449
  C  C678  1  0.316340  0.190300  0.532610  1.0  0.0586
  C  C679  1  0.286650  0.219080  0.533680  1.0  -0.0629
  C  C680  1  0.273020  0.233390  0.570030  1.0  -0.0414
  C  C681  1  0.289800  0.230400  0.651900  1.0  0.3628
  C  C682  1  0.443300  0.050500  0.498700  1.0  0.7213
  C  C683  1  0.270900  0.225700  0.340900  1.0  0.6435
  C  C684  1  0.808330  0.685380  0.960200  1.0  0.1306
  C  C685  1  0.777860  0.668750  0.937700  1.0  -0.0734
  C  C686  1  0.768580  0.684500  0.900590  1.0  -0.0794
  C  C687  1  0.789800  0.716900  0.885980  1.0  -0.0446
  C  C688  1  0.820200  0.733520  0.908470  1.0  -0.0225
  C  C689  1  0.829520  0.717770  0.945590  1.0  -0.183
  C  C690  1  0.915920  0.581830  0.998800  1.0  -0.094
  C  C691  1  0.898690  0.593230  0.962900  1.0  -0.0761
  C  C692  1  0.875250  0.627280  0.961170  1.0  -0.1218
  C  C693  1  0.869040  0.649910  0.995230  1.0  0.057
  C  C694  1  0.886270  0.638510  0.031070  1.0  0.167
  C  C695  1  0.909710  0.604470  0.032900  1.0  -0.0503
  C  C696  1  0.789100  0.718910  0.105300  1.0  -0.1218
  C  C697  1  0.818800  0.690130  0.104220  1.0  -0.0457
  C  C698  1  0.832410  0.675830  0.067880  1.0  0.1449
  C  C699  1  0.816340  0.690300  0.032610  1.0  0.0586
  C  C700  1  0.786650  0.719080  0.033680  1.0  -0.0629
  C  C701  1  0.773020  0.733390  0.070030  1.0  -0.0414
  C  C702  1  0.789800  0.730400  0.151900  1.0  0.3628
  C  C703  1  0.943300  0.550500  0.998700  1.0  0.7213
  C  C704  1  0.770900  0.725700  0.840900  1.0  0.6435
  C  C705  1  0.691670  0.814620  0.460200  1.0  0.131
  C  C706  1  0.722140  0.831250  0.437700  1.0  -0.0732
  C  C707  1  0.731420  0.815500  0.400590  1.0  -0.0813
  C  C708  1  0.710200  0.783100  0.385980  1.0  -0.0457
  C  C709  1  0.679800  0.766480  0.408470  1.0  -0.0242
  C  C710  1  0.670480  0.782230  0.445590  1.0  -0.1861
  C  C711  1  0.584080  0.918170  0.498800  1.0  -0.0942
  C  C712  1  0.601310  0.906770  0.462900  1.0  -0.0759
  C  C713  1  0.624750  0.872720  0.461170  1.0  -0.1215
  C  C714  1  0.630960  0.850090  0.495230  1.0  0.0564
  C  C715  1  0.613730  0.861490  0.531070  1.0  0.1671
  C  C716  1  0.590290  0.895530  0.532900  1.0  -0.0512
  C  C717  1  0.710900  0.781090  0.605300  1.0  -0.1207
  C  C718  1  0.681200  0.809870  0.604220  1.0  -0.0485
  C  C719  1  0.667590  0.824170  0.567880  1.0  0.1447
  C  C720  1  0.683660  0.809700  0.532610  1.0  0.0596
  C  C721  1  0.713350  0.780920  0.533680  1.0  -0.0635
  C  C722  1  0.726980  0.766610  0.570030  1.0  -0.0405
  C  C723  1  0.710200  0.769600  0.651900  1.0  0.3628
  C  C724  1  0.556700  0.949500  0.498700  1.0  0.7194
  C  C725  1  0.729100  0.774300  0.340900  1.0  0.6427
  C  C726  1  0.191670  0.314620  0.960200  1.0  0.131
  C  C727  1  0.222140  0.331250  0.937700  1.0  -0.0732
  C  C728  1  0.231420  0.315500  0.900590  1.0  -0.0813
  C  C729  1  0.210200  0.283100  0.885980  1.0  -0.0457
  C  C730  1  0.179800  0.266480  0.908470  1.0  -0.0242
  C  C731  1  0.170480  0.282230  0.945590  1.0  -0.1861
  C  C732  1  0.084080  0.418170  0.998800  1.0  -0.0942
  C  C733  1  0.101310  0.406770  0.962900  1.0  -0.0759
  C  C734  1  0.124750  0.372720  0.961170  1.0  -0.1215
  C  C735  1  0.130960  0.350090  0.995230  1.0  0.0564
  C  C736  1  0.113730  0.361490  0.031070  1.0  0.1671
  C  C737  1  0.090290  0.395530  0.032900  1.0  -0.0512
  C  C738  1  0.210900  0.281090  0.105300  1.0  -0.1207
  C  C739  1  0.181200  0.309870  0.104220  1.0  -0.0485
  C  C740  1  0.167590  0.324170  0.067880  1.0  0.1447
  C  C741  1  0.183660  0.309700  0.032610  1.0  0.0596
  C  C742  1  0.213350  0.280920  0.033680  1.0  -0.0635
  C  C743  1  0.226980  0.266610  0.070030  1.0  -0.0405
  C  C744  1  0.210200  0.269600  0.151900  1.0  0.3628
  C  C745  1  0.056700  0.449500  0.998700  1.0  0.7194
  C  C746  1  0.229100  0.274300  0.840900  1.0  0.6427
  C  C747  1  0.308330  0.814620  0.539800  1.0  0.1312
  C  C748  1  0.277860  0.831250  0.562300  1.0  -0.0736
  C  C749  1  0.268580  0.815500  0.599410  1.0  -0.08
  C  C750  1  0.289800  0.783100  0.614020  1.0  -0.0455
  C  C751  1  0.320200  0.766480  0.591530  1.0  -0.0231
  C  C752  1  0.329520  0.782230  0.554410  1.0  -0.1843
  C  C753  1  0.415920  0.918170  0.501200  1.0  -0.0942
  C  C754  1  0.398690  0.906770  0.537100  1.0  -0.0774
  C  C755  1  0.375250  0.872720  0.538830  1.0  -0.1225
  C  C756  1  0.369040  0.850090  0.504770  1.0  0.0572
  C  C757  1  0.386270  0.861490  0.468930  1.0  0.1675
  C  C758  1  0.409710  0.895530  0.467100  1.0  -0.0524
  C  C759  1  0.289100  0.781090  0.394700  1.0  -0.1231
  C  C760  1  0.318800  0.809870  0.395780  1.0  -0.0483
  C  C761  1  0.332410  0.824170  0.432120  1.0  0.145
  C  C762  1  0.316340  0.809700  0.467390  1.0  0.0577
  C  C763  1  0.286650  0.780920  0.466320  1.0  -0.0625
  C  C764  1  0.273020  0.766610  0.429970  1.0  -0.0408
  C  C765  1  0.289800  0.769600  0.348100  1.0  0.3641
  C  C766  1  0.443300  0.949500  0.501300  1.0  0.7212
  C  C767  1  0.270900  0.774300  0.659100  1.0  0.6427
  C  C768  1  0.808330  0.314620  0.039800  1.0  0.1312
  C  C769  1  0.777860  0.331250  0.062300  1.0  -0.0736
  C  C770  1  0.768580  0.315500  0.099410  1.0  -0.08
  C  C771  1  0.789800  0.283100  0.114020  1.0  -0.0455
  C  C772  1  0.820200  0.266480  0.091530  1.0  -0.0231
  C  C773  1  0.829520  0.282230  0.054410  1.0  -0.1843
  C  C774  1  0.915920  0.418170  0.001200  1.0  -0.0942
  C  C775  1  0.898690  0.406770  0.037100  1.0  -0.0774
  C  C776  1  0.875250  0.372720  0.038830  1.0  -0.1225
  C  C777  1  0.869040  0.350090  0.004770  1.0  0.0572
  C  C778  1  0.886270  0.361490  0.968930  1.0  0.1675
  C  C779  1  0.909710  0.395530  0.967100  1.0  -0.0524
  C  C780  1  0.789100  0.281090  0.894700  1.0  -0.1231
  C  C781  1  0.818800  0.309870  0.895780  1.0  -0.0483
  C  C782  1  0.832410  0.324170  0.932120  1.0  0.145
  C  C783  1  0.816340  0.309700  0.967390  1.0  0.0577
  C  C784  1  0.786650  0.280920  0.966320  1.0  -0.0625
  C  C785  1  0.773020  0.266610  0.929970  1.0  -0.0408
  C  C786  1  0.789800  0.269600  0.848100  1.0  0.3641
  C  C787  1  0.943300  0.449500  0.001300  1.0  0.7212
  C  C788  1  0.770900  0.274300  0.159100  1.0  0.6427
  N  N789  1  0.506200  0.671500  0.172100  1.0  -0.1972
  N  N790  1  0.006200  0.171500  0.672100  1.0  -0.1972
  N  N791  1  0.493800  0.328500  0.172100  1.0  -0.1972
  N  N792  1  0.993800  0.828500  0.672100  1.0  -0.1972
  N  N793  1  0.493800  0.671500  0.827900  1.0  -0.1969
  N  N794  1  0.993800  0.171500  0.327900  1.0  -0.1969
  N  N795  1  0.506200  0.328500  0.827900  1.0  -0.1967
  N  N796  1  0.006200  0.828500  0.327900  1.0  -0.1967
  N  N797  1  0.172100  0.506200  0.671500  1.0  -0.1978
  N  N798  1  0.672100  0.006200  0.171500  1.0  -0.1978
  N  N799  1  0.172100  0.493800  0.328500  1.0  -0.1968
  N  N800  1  0.672100  0.993800  0.828500  1.0  -0.1968
  N  N801  1  0.827900  0.493800  0.671500  1.0  -0.1968
  N  N802  1  0.327900  0.993800  0.171500  1.0  -0.1968
  N  N803  1  0.827900  0.506200  0.328500  1.0  -0.1966
  N  N804  1  0.327900  0.006200  0.828500  1.0  -0.1966
  N  N805  1  0.671500  0.172100  0.506200  1.0  -0.1975
  N  N806  1  0.171500  0.672100  0.006200  1.0  -0.1975
  N  N807  1  0.328500  0.172100  0.493800  1.0  -0.1963
  N  N808  1  0.828500  0.672100  0.993800  1.0  -0.1963
  N  N809  1  0.671500  0.827900  0.493800  1.0  -0.1965
  N  N810  1  0.171500  0.327900  0.993800  1.0  -0.1965
  N  N811  1  0.328500  0.827900  0.506200  1.0  -0.1969
  N  N812  1  0.828500  0.327900  0.006200  1.0  -0.1969
  O  O813  1  0.322500  0.694700  0.214400  1.0  -0.5191
  O  O814  1  0.351700  0.749700  0.251700  1.0  -0.7304
  O  O815  1  0.533200  0.545300  0.039400  1.0  -0.5755
  O  O816  1  0.468700  0.539900  0.042600  1.0  -0.6204
  O  O817  1  0.435000  0.632200  0.148800  1.0  -0.3903
  O  O818  1  0.672700  0.748800  0.199200  1.0  -0.5172
  O  O819  1  0.671200  0.713700  0.256200  1.0  -0.5465
  O  O820  1  0.822500  0.194700  0.714400  1.0  -0.5191
  O  O821  1  0.851700  0.249700  0.751700  1.0  -0.7304
  O  O822  1  0.033200  0.045300  0.539400  1.0  -0.5755
  O  O823  1  0.968700  0.039900  0.542600  1.0  -0.6204
  O  O824  1  0.935000  0.132200  0.648800  1.0  -0.3903
  O  O825  1  0.172700  0.248800  0.699200  1.0  -0.5172
  O  O826  1  0.171200  0.213700  0.756200  1.0  -0.5465
  O  O827  1  0.677500  0.305300  0.214400  1.0  -0.52
  O  O828  1  0.648300  0.250300  0.251700  1.0  -0.7274
  O  O829  1  0.466800  0.454700  0.039400  1.0  -0.5767
  O  O830  1  0.531300  0.460100  0.042600  1.0  -0.6193
  O  O831  1  0.565000  0.367800  0.148800  1.0  -0.3935
  O  O832  1  0.327300  0.251200  0.199200  1.0  -0.5157
  O  O833  1  0.328800  0.286300  0.256200  1.0  -0.546
  O  O834  1  0.177500  0.805300  0.714400  1.0  -0.52
  O  O835  1  0.148300  0.750300  0.751700  1.0  -0.7274
  O  O836  1  0.966800  0.954700  0.539400  1.0  -0.5767
  O  O837  1  0.031300  0.960100  0.542600  1.0  -0.6193
  O  O838  1  0.065000  0.867800  0.648800  1.0  -0.3935
  O  O839  1  0.827300  0.751200  0.699200  1.0  -0.5157
  O  O840  1  0.828800  0.786300  0.756200  1.0  -0.546
  O  O841  1  0.677500  0.694700  0.785600  1.0  -0.5194
  O  O842  1  0.648300  0.749700  0.748300  1.0  -0.7312
  O  O843  1  0.466800  0.545300  0.960600  1.0  -0.5761
  O  O844  1  0.531300  0.539900  0.957400  1.0  -0.6193
  O  O845  1  0.565000  0.632200  0.851200  1.0  -0.3925
  O  O846  1  0.327300  0.748800  0.800800  1.0  -0.5168
  O  O847  1  0.328800  0.713700  0.743800  1.0  -0.5454
  O  O848  1  0.177500  0.194700  0.285600  1.0  -0.5194
  O  O849  1  0.148300  0.249700  0.248300  1.0  -0.7312
  O  O850  1  0.966800  0.045300  0.460600  1.0  -0.5761
  O  O851  1  0.031300  0.039900  0.457400  1.0  -0.6193
  O  O852  1  0.065000  0.132200  0.351200  1.0  -0.3925
  O  O853  1  0.827300  0.248800  0.300800  1.0  -0.5168
  O  O854  1  0.828800  0.213700  0.243800  1.0  -0.5454
  O  O855  1  0.322500  0.305300  0.785600  1.0  -0.5193
  O  O856  1  0.351700  0.250300  0.748300  1.0  -0.7278
  O  O857  1  0.533200  0.454700  0.960600  1.0  -0.5755
  O  O858  1  0.468700  0.460100  0.957400  1.0  -0.6205
  O  O859  1  0.435000  0.367800  0.851200  1.0  -0.3896
  O  O860  1  0.672700  0.251200  0.800800  1.0  -0.5173
  O  O861  1  0.671200  0.286300  0.743800  1.0  -0.5473
  O  O862  1  0.822500  0.805300  0.285600  1.0  -0.5193
  O  O863  1  0.851700  0.750300  0.248300  1.0  -0.7278
  O  O864  1  0.033200  0.954700  0.460600  1.0  -0.5755
  O  O865  1  0.968700  0.960100  0.457400  1.0  -0.6205
  O  O866  1  0.935000  0.867800  0.351200  1.0  -0.3896
  O  O867  1  0.172700  0.751200  0.300800  1.0  -0.5173
  O  O868  1  0.171200  0.786300  0.243800  1.0  -0.5473
  O  O869  1  0.214400  0.322500  0.694700  1.0  -0.5196
  O  O870  1  0.251700  0.351700  0.749700  1.0  -0.7267
  O  O871  1  0.039400  0.533200  0.545300  1.0  -0.5752
  O  O872  1  0.042600  0.468700  0.539900  1.0  -0.6215
  O  O873  1  0.148800  0.435000  0.632200  1.0  -0.3898
  O  O874  1  0.199200  0.672700  0.748800  1.0  -0.517
  O  O875  1  0.256200  0.671200  0.713700  1.0  -0.5469
  O  O876  1  0.714400  0.822500  0.194700  1.0  -0.5196
  O  O877  1  0.751700  0.851700  0.249700  1.0  -0.7267
  O  O878  1  0.539400  0.033200  0.045300  1.0  -0.5752
  O  O879  1  0.542600  0.968700  0.039900  1.0  -0.6215
  O  O880  1  0.648800  0.935000  0.132200  1.0  -0.3898
  O  O881  1  0.699200  0.172700  0.248800  1.0  -0.517
  O  O882  1  0.756200  0.171200  0.213700  1.0  -0.5469
  O  O883  1  0.214400  0.677500  0.305300  1.0  -0.5198
  O  O884  1  0.251700  0.648300  0.250300  1.0  -0.7294
  O  O885  1  0.039400  0.466800  0.454700  1.0  -0.5747
  O  O886  1  0.042600  0.531300  0.460100  1.0  -0.6212
  O  O887  1  0.148800  0.565000  0.367800  1.0  -0.3896
  O  O888  1  0.199200  0.327300  0.251200  1.0  -0.5164
  O  O889  1  0.256200  0.328800  0.286300  1.0  -0.5471
  O  O890  1  0.714400  0.177500  0.805300  1.0  -0.5198
  O  O891  1  0.751700  0.148300  0.750300  1.0  -0.7294
  O  O892  1  0.539400  0.966800  0.954700  1.0  -0.5747
  O  O893  1  0.542600  0.031300  0.960100  1.0  -0.6212
  O  O894  1  0.648800  0.065000  0.867800  1.0  -0.3896
  O  O895  1  0.699200  0.827300  0.751200  1.0  -0.5164
  O  O896  1  0.756200  0.828800  0.786300  1.0  -0.5471
  O  O897  1  0.785600  0.677500  0.694700  1.0  -0.5209
  O  O898  1  0.748300  0.648300  0.749700  1.0  -0.7268
  O  O899  1  0.960600  0.466800  0.545300  1.0  -0.574
  O  O900  1  0.957400  0.531300  0.539900  1.0  -0.6223
  O  O901  1  0.851200  0.565000  0.632200  1.0  -0.3899
  O  O902  1  0.800800  0.327300  0.748800  1.0  -0.5173
  O  O903  1  0.743800  0.328800  0.713700  1.0  -0.5473
  O  O904  1  0.285600  0.177500  0.194700  1.0  -0.5209
  O  O905  1  0.248300  0.148300  0.249700  1.0  -0.7268
  O  O906  1  0.460600  0.966800  0.045300  1.0  -0.574
  O  O907  1  0.457400  0.031300  0.039900  1.0  -0.6223
  O  O908  1  0.351200  0.065000  0.132200  1.0  -0.3899
  O  O909  1  0.300800  0.827300  0.248800  1.0  -0.5173
  O  O910  1  0.243800  0.828800  0.213700  1.0  -0.5473
  O  O911  1  0.785600  0.322500  0.305300  1.0  -0.5198
  O  O912  1  0.748300  0.351700  0.250300  1.0  -0.7284
  O  O913  1  0.960600  0.533200  0.454700  1.0  -0.5746
  O  O914  1  0.957400  0.468700  0.460100  1.0  -0.622
  O  O915  1  0.851200  0.435000  0.367800  1.0  -0.389
  O  O916  1  0.800800  0.672700  0.251200  1.0  -0.5171
  O  O917  1  0.743800  0.671200  0.286300  1.0  -0.5469
  O  O918  1  0.285600  0.822500  0.805300  1.0  -0.5198
  O  O919  1  0.248300  0.851700  0.750300  1.0  -0.7284
  O  O920  1  0.460600  0.033200  0.954700  1.0  -0.5746
  O  O921  1  0.457400  0.968700  0.960100  1.0  -0.622
  O  O922  1  0.351200  0.935000  0.867800  1.0  -0.389
  O  O923  1  0.300800  0.172700  0.751200  1.0  -0.5171
  O  O924  1  0.243800  0.171200  0.786300  1.0  -0.5469
  O  O925  1  0.694700  0.214400  0.322500  1.0  -0.5201
  O  O926  1  0.749700  0.251700  0.351700  1.0  -0.728
  O  O927  1  0.545300  0.039400  0.533200  1.0  -0.575
  O  O928  1  0.539900  0.042600  0.468700  1.0  -0.6231
  O  O929  1  0.632200  0.148800  0.435000  1.0  -0.3901
  O  O930  1  0.748800  0.199200  0.672700  1.0  -0.5167
  O  O931  1  0.713700  0.256200  0.671200  1.0  -0.5474
  O  O932  1  0.194700  0.714400  0.822500  1.0  -0.5201
  O  O933  1  0.249700  0.751700  0.851700  1.0  -0.728
  O  O934  1  0.045300  0.539400  0.033200  1.0  -0.575
  O  O935  1  0.039900  0.542600  0.968700  1.0  -0.6231
  O  O936  1  0.132200  0.648800  0.935000  1.0  -0.3901
  O  O937  1  0.248800  0.699200  0.172700  1.0  -0.5167
  O  O938  1  0.213700  0.756200  0.171200  1.0  -0.5474
  O  O939  1  0.305300  0.214400  0.677500  1.0  -0.5207
  O  O940  1  0.250300  0.251700  0.648300  1.0  -0.7282
  O  O941  1  0.454700  0.039400  0.466800  1.0  -0.573
  O  O942  1  0.460100  0.042600  0.531300  1.0  -0.6208
  O  O943  1  0.367800  0.148800  0.565000  1.0  -0.3872
  O  O944  1  0.251200  0.199200  0.327300  1.0  -0.5171
  O  O945  1  0.286300  0.256200  0.328800  1.0  -0.5469
  O  O946  1  0.805300  0.714400  0.177500  1.0  -0.5207
  O  O947  1  0.750300  0.751700  0.148300  1.0  -0.7282
  O  O948  1  0.954700  0.539400  0.966800  1.0  -0.573
  O  O949  1  0.960100  0.542600  0.031300  1.0  -0.6208
  O  O950  1  0.867800  0.648800  0.065000  1.0  -0.3872
  O  O951  1  0.751200  0.699200  0.827300  1.0  -0.5171
  O  O952  1  0.786300  0.756200  0.828800  1.0  -0.5469
  O  O953  1  0.694700  0.785600  0.677500  1.0  -0.5208
  O  O954  1  0.749700  0.748300  0.648300  1.0  -0.7277
  O  O955  1  0.545300  0.960600  0.466800  1.0  -0.5733
  O  O956  1  0.539900  0.957400  0.531300  1.0  -0.621
  O  O957  1  0.632200  0.851200  0.565000  1.0  -0.389
  O  O958  1  0.748800  0.800800  0.327300  1.0  -0.5175
  O  O959  1  0.713700  0.743800  0.328800  1.0  -0.5464
  O  O960  1  0.194700  0.285600  0.177500  1.0  -0.5208
  O  O961  1  0.249700  0.248300  0.148300  1.0  -0.7277
  O  O962  1  0.045300  0.460600  0.966800  1.0  -0.5733
  O  O963  1  0.039900  0.457400  0.031300  1.0  -0.621
  O  O964  1  0.132200  0.351200  0.065000  1.0  -0.389
  O  O965  1  0.248800  0.300800  0.827300  1.0  -0.5175
  O  O966  1  0.213700  0.243800  0.828800  1.0  -0.5464
  O  O967  1  0.305300  0.785600  0.322500  1.0  -0.5206
  O  O968  1  0.250300  0.748300  0.351700  1.0  -0.7265
  O  O969  1  0.454700  0.960600  0.533200  1.0  -0.5747
  O  O970  1  0.460100  0.957400  0.468700  1.0  -0.6223
  O  O971  1  0.367800  0.851200  0.435000  1.0  -0.3907
  O  O972  1  0.251200  0.800800  0.672700  1.0  -0.5165
  O  O973  1  0.286300  0.743800  0.671200  1.0  -0.5474
  O  O974  1  0.805300  0.285600  0.822500  1.0  -0.5206
  O  O975  1  0.750300  0.248300  0.851700  1.0  -0.7265
  O  O976  1  0.954700  0.460600  0.033200  1.0  -0.5747
  O  O977  1  0.960100  0.457400  0.968700  1.0  -0.6223
  O  O978  1  0.867800  0.351200  0.935000  1.0  -0.3907
  O  O979  1  0.751200  0.300800  0.172700  1.0  -0.5165
  O  O980  1  0.786300  0.243800  0.171200  1.0  -0.5474
  O  O981  1  0.755330  0.755330  0.244670  1.0  -1.1734
  O  O982  1  0.255330  0.255330  0.744670  1.0  -1.1734
  O  O983  1  0.244670  0.244670  0.244670  1.0  -1.1733
  O  O984  1  0.744670  0.744670  0.744670  1.0  -1.1733
  O  O985  1  0.244670  0.755330  0.755330  1.0  -1.1737
  O  O986  1  0.744670  0.255330  0.255330  1.0  -1.1737
  O  O987  1  0.755330  0.244670  0.755330  1.0  -1.1736
  O  O988  1  0.255330  0.744670  0.255330  1.0  -1.1736
