# generated using pymatgen
data_CdH51(C19N2)3
_symmetry_space_group_name_H-M   'P 1'
_cell_length_a   28.34250000
_cell_length_b   28.34250000
_cell_length_c   28.34250000
_cell_angle_alpha   109.47100000
_cell_angle_beta   109.47100000
_cell_angle_gamma   109.47100000
_symmetry_Int_Tables_number   1
_chemical_formula_structural   CdH51(C19N2)3
_chemical_formula_sum   'Cd8 H408 C456 N48'
_cell_volume   17526.53735348
_cell_formula_units_Z   8
loop_
 _symmetry_equiv_pos_site_id
 _symmetry_equiv_pos_as_xyz
  1  'x, y, z'
loop_
 _atom_site_type_symbol
 _atom_site_label
 _atom_site_symmetry_multiplicity
 _atom_site_fract_x
 _atom_site_fract_y
 _atom_site_fract_z
 _atom_site_occupancy
 _atom_site_charge
  Cd  Cd1  1  0.500000  0.000000  0.000000  1.0  0.6676
  Cd  Cd2  1  0.500000  0.500000  0.500000  1.0  0.6688
  Cd  Cd3  1  0.000000  0.500000  0.000000  1.0  0.6675
  Cd  Cd4  1  0.000000  0.000000  0.500000  1.0  0.6681
  Cd  Cd5  1  0.000000  0.000000  0.000000  1.0  0.6691
  Cd  Cd6  1  0.500000  0.000000  0.500000  1.0  0.6686
  Cd  Cd7  1  0.500000  0.500000  0.000000  1.0  0.6673
  Cd  Cd8  1  0.000000  0.500000  0.500000  1.0  0.6673
  H  H9  1  0.585660  0.135880  0.062990  1.0  0.0494
  H  H10  1  0.620380  0.216220  0.038630  1.0  0.0588
  H  H11  1  0.471390  0.098190  0.869180  1.0  0.0582
  H  H12  1  0.445240  0.030140  0.899950  1.0  0.0318
  H  H13  1  0.660870  0.190490  0.897750  1.0  0.0624
  H  H14  1  0.585110  0.129410  0.855220  1.0  0.0635
  H  H15  1  0.628860  0.156920  0.933830  1.0  0.072
  H  H16  1  0.572900  0.522670  0.437010  1.0  0.0495
  H  H17  1  0.677590  0.581750  0.461370  1.0  0.0489
  H  H18  1  0.729010  0.602210  0.630820  1.0  0.054
  H  H19  1  0.630200  0.545290  0.600050  1.0  0.0298
  H  H20  1  0.725800  0.699230  0.562240  1.0  0.0663
  H  H21  1  0.797740  0.766290  0.610790  1.0  0.0529
  H  H22  1  0.766470  0.722510  0.640160  1.0  0.0641
  H  H23  1  0.927100  0.364120  0.949780  1.0  0.0496
  H  H24  1  0.822410  0.283780  0.904160  1.0  0.0571
  H  H25  1  0.770990  0.401810  0.873200  1.0  0.061
  H  H26  1  0.869800  0.469860  0.915100  1.0  0.036
  H  H27  1  0.771320  0.331620  0.974360  1.0  0.0648
  H  H28  1  0.699330  0.316310  0.967130  1.0  0.0531
  H  H29  1  0.739340  0.375260  0.956540  1.0  0.0767
  H  H30  1  0.914340  0.977330  0.550220  1.0  0.0473
  H  H31  1  0.879620  0.918250  0.595840  1.0  0.0553
  H  H32  1  0.028610  0.897790  0.626800  1.0  0.0559
  H  H33  1  0.054760  0.954710  0.584900  1.0  0.0349
  H  H34  1  0.835380  0.740770  0.528100  1.0  0.0671
  H  H35  1  0.911200  0.763480  0.544310  1.0  0.0743
  H  H36  1  0.878590  0.807720  0.529570  1.0  0.0656
  H  H37  1  0.062990  0.585660  0.135880  1.0  0.0485
  H  H38  1  0.038630  0.620380  0.216220  1.0  0.0556
  H  H39  1  0.869180  0.471390  0.098190  1.0  0.0577
  H  H40  1  0.899950  0.445240  0.030140  1.0  0.04
  H  H41  1  0.852930  0.587720  0.132060  1.0  0.0555
  H  H42  1  0.930470  0.623370  0.152530  1.0  0.0633
  H  H43  1  0.903400  0.663740  0.192220  1.0  0.0677
  H  H44  1  0.437010  0.572900  0.522670  1.0  0.0501
  H  H45  1  0.461370  0.677590  0.581750  1.0  0.0575
  H  H46  1  0.630820  0.729010  0.602210  1.0  0.0602
  H  H47  1  0.600050  0.630200  0.545290  1.0  0.0354
  H  H48  1  0.639240  0.765120  0.721260  1.0  0.0684
  H  H49  1  0.561720  0.726410  0.700060  1.0  0.0728
  H  H50  1  0.612240  0.798480  0.766700  1.0  0.0536
  H  H51  1  0.949780  0.927100  0.364120  1.0  0.0502
  H  H52  1  0.904160  0.822410  0.283780  1.0  0.0567
  H  H53  1  0.873200  0.770990  0.401810  1.0  0.0532
  H  H54  1  0.915100  0.869800  0.469860  1.0  0.0326
  H  H55  1  0.971310  0.710390  0.308070  1.0  0.0638
  H  H56  1  0.955660  0.721810  0.368480  1.0  0.0592
  H  H57  1  0.971060  0.777790  0.346630  1.0  0.065
  H  H58  1  0.550220  0.914340  0.977330  1.0  0.0474
  H  H59  1  0.595840  0.879620  0.918250  1.0  0.0538
  H  H60  1  0.626800  0.028610  0.897790  1.0  0.0597
  H  H61  1  0.584900  0.054760  0.954710  1.0  0.0293
  H  H62  1  0.523980  0.843800  0.784440  1.0  0.0712
  H  H63  1  0.536720  0.863970  0.731880  1.0  0.0409
  H  H64  1  0.541280  0.917400  0.795650  1.0  0.0739
  H  H65  1  0.135880  0.062990  0.585660  1.0  0.0498
  H  H66  1  0.216220  0.038630  0.620380  1.0  0.0586
  H  H67  1  0.098190  0.869180  0.471390  1.0  0.0588
  H  H68  1  0.030140  0.899950  0.445240  1.0  0.0305
  H  H69  1  0.185990  0.887260  0.654100  1.0  0.0543
  H  H70  1  0.125750  0.861090  0.581930  1.0  0.0719
  H  H71  1  0.165070  0.938450  0.638810  1.0  0.0702
  H  H72  1  0.522670  0.437010  0.572900  1.0  0.0521
  H  H73  1  0.581750  0.461370  0.677590  1.0  0.0592
  H  H74  1  0.602210  0.630820  0.729010  1.0  0.0589
  H  H75  1  0.545290  0.600050  0.630200  1.0  0.0362
  H  H76  1  0.692520  0.570320  0.721930  1.0  0.0647
  H  H77  1  0.759690  0.595410  0.787940  1.0  0.0693
  H  H78  1  0.735820  0.647470  0.780140  1.0  0.0614
  H  H79  1  0.364120  0.949780  0.927100  1.0  0.0492
  H  H80  1  0.283780  0.904160  0.822410  1.0  0.0526
  H  H81  1  0.401810  0.873200  0.770990  1.0  0.0573
  H  H82  1  0.469860  0.915100  0.869800  1.0  0.0388
  H  H83  1  0.308280  0.971160  0.709870  1.0  0.0622
  H  H84  1  0.368840  0.955660  0.722440  1.0  0.0564
  H  H85  1  0.346060  0.971210  0.777680  1.0  0.067
  H  H86  1  0.977330  0.550220  0.914340  1.0  0.0503
  H  H87  1  0.918250  0.595840  0.879620  1.0  0.0601
  H  H88  1  0.897790  0.626800  0.028610  1.0  0.0577
  H  H89  1  0.954710  0.584900  0.054760  1.0  0.0293
  H  H90  1  0.801520  0.526790  0.864290  1.0  0.0708
  H  H91  1  0.734140  0.531150  0.843560  1.0  0.0586
  H  H92  1  0.776310  0.544030  0.917310  1.0  0.0614
  H  H93  1  0.977330  0.927100  0.062990  1.0  0.0526
  H  H94  1  0.918250  0.822410  0.038630  1.0  0.0569
  H  H95  1  0.897790  0.770990  0.869180  1.0  0.0575
  H  H96  1  0.954710  0.869800  0.899950  1.0  0.0334
  H  H97  1  0.733840  0.695260  0.861520  1.0  0.0575
  H  H98  1  0.801000  0.761270  0.886620  1.0  0.0744
  H  H99  1  0.777130  0.753470  0.938670  1.0  0.0779
  H  H100  1  0.364120  0.914340  0.437010  1.0  0.0494
  H  H101  1  0.283780  0.879620  0.461370  1.0  0.0606
  H  H102  1  0.401810  0.028610  0.630820  1.0  0.0593
  H  H103  1  0.469860  0.054760  0.600050  1.0  0.0379
  H  H104  1  0.368120  0.904210  0.596060  1.0  0.0605
  H  H105  1  0.307870  0.832040  0.569880  1.0  0.0675
  H  H106  1  0.347200  0.888920  0.647250  1.0  0.0731
  H  H107  1  0.522670  0.585660  0.949780  1.0  0.0494
  H  H108  1  0.581750  0.620380  0.904160  1.0  0.0604
  H  H109  1  0.602210  0.471390  0.873200  1.0  0.0588
  H  H110  1  0.545290  0.445240  0.915100  1.0  0.0413
  H  H111  1  0.760210  0.614180  0.958810  1.0  0.0613
  H  H112  1  0.692820  0.593450  0.963170  1.0  0.0648
  H  H113  1  0.735000  0.667200  0.976050  1.0  0.0715
  H  H114  1  0.135880  0.572900  0.550220  1.0  0.0473
  H  H115  1  0.216220  0.677590  0.595840  1.0  0.0576
  H  H116  1  0.098190  0.729010  0.626800  1.0  0.0565
  H  H117  1  0.030140  0.630200  0.584900  1.0  0.0285
  H  H118  1  0.126160  0.736540  0.539140  1.0  0.0678
  H  H119  1  0.186720  0.749110  0.523640  1.0  0.0719
  H  H120  1  0.163940  0.804350  0.539190  1.0  0.0566
  H  H121  1  0.572900  0.550220  0.135880  1.0  0.0506
  H  H122  1  0.677590  0.595840  0.216220  1.0  0.0571
  H  H123  1  0.729010  0.626800  0.098190  1.0  0.0535
  H  H124  1  0.630200  0.584900  0.030140  1.0  0.0332
  H  H125  1  0.798000  0.542350  0.149490  1.0  0.0817
  H  H126  1  0.726000  0.535110  0.134180  1.0  0.0616
  H  H127  1  0.766010  0.524520  0.193130  1.0  0.0632
  H  H128  1  0.585660  0.949780  0.522670  1.0  0.0484
  H  H129  1  0.620380  0.904160  0.581750  1.0  0.0587
  H  H130  1  0.471390  0.873200  0.602210  1.0  0.0581
  H  H131  1  0.445240  0.915100  0.545290  1.0  0.0319
  H  H132  1  0.585270  0.960110  0.699460  1.0  0.0754
  H  H133  1  0.661090  0.976320  0.722160  1.0  0.0781
  H  H134  1  0.628480  0.961590  0.766410  1.0  0.0429
  H  H135  1  0.914340  0.437010  0.364120  1.0  0.0492
  H  H136  1  0.879620  0.461370  0.283780  1.0  0.0594
  H  H137  1  0.028610  0.630820  0.401810  1.0  0.0588
  H  H138  1  0.054760  0.600050  0.469860  1.0  0.0413
  H  H139  1  0.910980  0.606550  0.372610  1.0  0.0629
  H  H140  1  0.835220  0.564020  0.311540  1.0  0.0644
  H  H141  1  0.878970  0.642630  0.339040  1.0  0.0627
  H  H142  1  0.927100  0.062990  0.977330  1.0  0.0503
  H  H143  1  0.822410  0.038630  0.918250  1.0  0.0683
  H  H144  1  0.770990  0.869180  0.897790  1.0  0.0592
  H  H145  1  0.869800  0.899950  0.954710  1.0  0.0404
  H  H146  1  0.699130  0.853450  0.740540  1.0  0.0639
  H  H147  1  0.771070  0.901990  0.807600  1.0  0.0635
  H  H148  1  0.739800  0.931370  0.763830  1.0  0.0668
  H  H149  1  0.949780  0.522670  0.585660  1.0  0.05
  H  H150  1  0.904160  0.581750  0.620380  1.0  0.0581
  H  H151  1  0.873200  0.602210  0.471390  1.0  0.0567
  H  H152  1  0.915100  0.545290  0.445240  1.0  0.0305
  H  H153  1  0.956000  0.743130  0.593690  1.0  0.0776
  H  H154  1  0.968730  0.690570  0.613860  1.0  0.0656
  H  H155  1  0.973290  0.754330  0.667290  1.0  0.0676
  H  H156  1  0.550220  0.135880  0.572900  1.0  0.0502
  H  H157  1  0.595840  0.216220  0.677590  1.0  0.0619
  H  H158  1  0.626800  0.098190  0.729010  1.0  0.0569
  H  H159  1  0.584900  0.030140  0.630200  1.0  0.0385
  H  H160  1  0.539290  0.125950  0.737070  1.0  0.0694
  H  H161  1  0.523640  0.186360  0.748480  1.0  0.0705
  H  H162  1  0.539040  0.164510  0.804460  1.0  0.0527
  H  H163  1  0.062990  0.977330  0.927100  1.0  0.0484
  H  H164  1  0.038630  0.918250  0.822410  1.0  0.0563
  H  H165  1  0.869180  0.897790  0.770990  1.0  0.0575
  H  H166  1  0.899950  0.954710  0.869800  1.0  0.0313
  H  H167  1  0.930440  0.762580  0.738450  1.0  0.059
  H  H168  1  0.852920  0.741380  0.699730  1.0  0.0642
  H  H169  1  0.903450  0.808020  0.771810  1.0  0.0605
  H  H170  1  0.437010  0.364120  0.914340  1.0  0.0479
  H  H171  1  0.461370  0.283780  0.879620  1.0  0.0596
  H  H172  1  0.630820  0.401810  0.028610  1.0  0.0582
  H  H173  1  0.600050  0.469860  0.054760  1.0  0.0328
  H  H174  1  0.561730  0.314190  0.837830  1.0  0.073
  H  H175  1  0.639270  0.334660  0.873480  1.0  0.042
  H  H176  1  0.612200  0.374350  0.913850  1.0  0.0707
  H  H177  1  0.414340  0.864120  0.937010  1.0  0.0491
  H  H178  1  0.379620  0.783780  0.961370  1.0  0.0606
  H  H179  1  0.528610  0.901810  0.130820  1.0  0.0578
  H  H180  1  0.554760  0.969860  0.100050  1.0  0.0395
  H  H181  1  0.335220  0.811540  0.064020  1.0  0.0598
  H  H182  1  0.410980  0.872610  0.106550  1.0  0.0664
  H  H183  1  0.378970  0.839040  0.142630  1.0  0.0601
  H  H184  1  0.427100  0.477330  0.562990  1.0  0.0504
  H  H185  1  0.322410  0.418250  0.538630  1.0  0.0636
  H  H186  1  0.270990  0.397790  0.369180  1.0  0.0556
  H  H187  1  0.369800  0.454710  0.399950  1.0  0.0378
  H  H188  1  0.271070  0.307600  0.401990  1.0  0.0626
  H  H189  1  0.199130  0.240540  0.353450  1.0  0.0659
  H  H190  1  0.239800  0.263830  0.431370  1.0  0.0675
  H  H191  1  0.072900  0.635880  0.050220  1.0  0.0462
  H  H192  1  0.177590  0.716220  0.095840  1.0  0.0609
  H  H193  1  0.229010  0.598190  0.126800  1.0  0.0524
  H  H194  1  0.130200  0.530140  0.084900  1.0  0.0331
  H  H195  1  0.226000  0.634180  0.035110  1.0  0.061
  H  H196  1  0.298000  0.649490  0.042350  1.0  0.0822
  H  H197  1  0.266010  0.693130  0.024520  1.0  0.063
  H  H198  1  0.085660  0.022670  0.449780  1.0  0.048
  H  H199  1  0.120380  0.081750  0.404160  1.0  0.0586
  H  H200  1  0.971390  0.102210  0.373200  1.0  0.0576
  H  H201  1  0.945240  0.045290  0.415100  1.0  0.0303
  H  H202  1  0.161090  0.222160  0.476320  1.0  0.0769
  H  H203  1  0.085270  0.199460  0.460110  1.0  0.0743
  H  H204  1  0.128480  0.266410  0.461590  1.0  0.0441
  H  H205  1  0.937010  0.414340  0.864120  1.0  0.0468
  H  H206  1  0.961370  0.379620  0.783780  1.0  0.0585
  H  H207  1  0.130820  0.528610  0.901810  1.0  0.0606
  H  H208  1  0.100050  0.554760  0.969860  1.0  0.0336
  H  H209  1  0.139270  0.373480  0.834660  1.0  0.046
  H  H210  1  0.061730  0.337830  0.814190  1.0  0.0776
  H  H211  1  0.112200  0.413850  0.874350  1.0  0.0677
  H  H212  1  0.562990  0.427100  0.477330  1.0  0.0486
  H  H213  1  0.538630  0.322410  0.418250  1.0  0.0562
  H  H214  1  0.369180  0.270990  0.397790  1.0  0.0585
  H  H215  1  0.399950  0.369800  0.454710  1.0  0.0318
  H  H216  1  0.352920  0.199730  0.241380  1.0  0.0604
  H  H217  1  0.430440  0.238450  0.262580  1.0  0.0593
  H  H218  1  0.403450  0.271810  0.308020  1.0  0.0642
  H  H219  1  0.050220  0.072900  0.635880  1.0  0.0504
  H  H220  1  0.095840  0.177590  0.716220  1.0  0.058
  H  H221  1  0.126800  0.229010  0.598190  1.0  0.0564
  H  H222  1  0.084900  0.130200  0.530140  1.0  0.0377
  H  H223  1  0.023640  0.248480  0.686360  1.0  0.0725
  H  H224  1  0.039290  0.237070  0.625950  1.0  0.0677
  H  H225  1  0.039040  0.304460  0.664510  1.0  0.0506
  H  H226  1  0.449780  0.085660  0.022670  1.0  0.0483
  H  H227  1  0.404160  0.120380  0.081750  1.0  0.0594
  H  H228  1  0.373200  0.971390  0.102210  1.0  0.0581
  H  H229  1  0.415100  0.945240  0.045290  1.0  0.0328
  H  H230  1  0.468730  0.113860  0.190570  1.0  0.0645
  H  H231  1  0.456000  0.093690  0.243130  1.0  0.0781
  H  H232  1  0.473290  0.167290  0.254330  1.0  0.0707
  H  H233  1  0.864120  0.937010  0.414340  1.0  0.0516
  H  H234  1  0.783780  0.961370  0.379620  1.0  0.0614
  H  H235  1  0.901810  0.130820  0.528610  1.0  0.0593
  H  H236  1  0.969860  0.100050  0.554760  1.0  0.0379
  H  H237  1  0.807870  0.069880  0.332040  1.0  0.0638
  H  H238  1  0.868120  0.096060  0.404210  1.0  0.0606
  H  H239  1  0.847200  0.147250  0.388920  1.0  0.0735
  H  H240  1  0.477330  0.562990  0.427100  1.0  0.052
  H  H241  1  0.418250  0.538630  0.322410  1.0  0.0602
  H  H242  1  0.397790  0.369180  0.270990  1.0  0.0564
  H  H243  1  0.454710  0.399950  0.369800  1.0  0.0347
  H  H244  1  0.301000  0.386620  0.261270  1.0  0.0728
  H  H245  1  0.233840  0.361520  0.195260  1.0  0.0602
  H  H246  1  0.277130  0.438670  0.253470  1.0  0.0788
  H  H247  1  0.635880  0.050220  0.072900  1.0  0.0473
  H  H248  1  0.716220  0.095840  0.177590  1.0  0.0572
  H  H249  1  0.598190  0.126800  0.229010  1.0  0.0557
  H  H250  1  0.530140  0.084900  0.130200  1.0  0.0293
  H  H251  1  0.686720  0.023640  0.249110  1.0  0.0727
  H  H252  1  0.626160  0.039140  0.236540  1.0  0.067
  H  H253  1  0.663940  0.039190  0.304350  1.0  0.0594
  H  H254  1  0.022670  0.449780  0.085660  1.0  0.0505
  H  H255  1  0.081750  0.404160  0.120380  1.0  0.0573
  H  H256  1  0.102210  0.373200  0.971390  1.0  0.0561
  H  H257  1  0.045290  0.415100  0.945240  1.0  0.0391
  H  H258  1  0.192820  0.463170  0.093450  1.0  0.0694
  H  H259  1  0.260210  0.458810  0.114180  1.0  0.0613
  H  H260  1  0.235000  0.476050  0.167200  1.0  0.0704
  H  H261  1  0.022670  0.072900  0.937010  1.0  0.0513
  H  H262  1  0.081750  0.177590  0.961370  1.0  0.0612
  H  H263  1  0.102210  0.229010  0.130820  1.0  0.0567
  H  H264  1  0.045290  0.130200  0.100050  1.0  0.0351
  H  H265  1  0.259690  0.287940  0.095410  1.0  0.0653
  H  H266  1  0.192520  0.221930  0.070320  1.0  0.0664
  H  H267  1  0.235820  0.280140  0.147470  1.0  0.0593
  H  H268  1  0.635880  0.085660  0.562990  1.0  0.048
  H  H269  1  0.716220  0.120380  0.538630  1.0  0.0582
  H  H270  1  0.598190  0.971390  0.369180  1.0  0.0593
  H  H271  1  0.530140  0.945240  0.399950  1.0  0.0303
  H  H272  1  0.625750  0.081930  0.361090  1.0  0.0701
  H  H273  1  0.685990  0.154100  0.387260  1.0  0.0539
  H  H274  1  0.665070  0.138810  0.438450  1.0  0.0704
  H  H275  1  0.477330  0.414340  0.050220  1.0  0.0481
  H  H276  1  0.418250  0.379620  0.095840  1.0  0.0584
  H  H277  1  0.397790  0.528610  0.126800  1.0  0.0544
  H  H278  1  0.454710  0.554760  0.084900  1.0  0.0314
  H  H279  1  0.234140  0.343560  0.031150  1.0  0.0614
  H  H280  1  0.301520  0.364290  0.026790  1.0  0.0703
  H  H281  1  0.276310  0.417310  0.044030  1.0  0.064
  H  H282  1  0.864120  0.427100  0.449780  1.0  0.0494
  H  H283  1  0.783780  0.322410  0.404160  1.0  0.0529
  H  H284  1  0.901810  0.270990  0.373200  1.0  0.0578
  H  H285  1  0.969860  0.369800  0.415100  1.0  0.0394
  H  H286  1  0.868840  0.222440  0.455660  1.0  0.058
  H  H287  1  0.808280  0.209870  0.471160  1.0  0.0647
  H  H288  1  0.846060  0.277680  0.471210  1.0  0.0684
  H  H289  1  0.427100  0.449780  0.864120  1.0  0.0512
  H  H290  1  0.322410  0.404160  0.783780  1.0  0.0562
  H  H291  1  0.270990  0.373200  0.901810  1.0  0.0611
  H  H292  1  0.369800  0.415100  0.969860  1.0  0.035
  H  H293  1  0.199330  0.467130  0.816310  1.0  0.0533
  H  H294  1  0.271320  0.474360  0.831620  1.0  0.0657
  H  H295  1  0.239340  0.456540  0.875260  1.0  0.0739
  H  H296  1  0.414340  0.050220  0.477330  1.0  0.048
  H  H297  1  0.379620  0.095840  0.418250  1.0  0.0551
  H  H298  1  0.528610  0.126800  0.397790  1.0  0.056
  H  H299  1  0.554760  0.084900  0.454710  1.0  0.0356
  H  H300  1  0.411200  0.044310  0.263480  1.0  0.0726
  H  H301  1  0.335380  0.028100  0.240770  1.0  0.066
  H  H302  1  0.378590  0.029570  0.307720  1.0  0.0677
  H  H303  1  0.085660  0.562990  0.635880  1.0  0.05
  H  H304  1  0.120380  0.538630  0.716220  1.0  0.0572
  H  H305  1  0.971390  0.369180  0.598190  1.0  0.0593
  H  H306  1  0.945240  0.399950  0.530140  1.0  0.0323
  H  H307  1  0.085110  0.355220  0.629410  1.0  0.0628
  H  H308  1  0.160870  0.397750  0.690490  1.0  0.0658
  H  H309  1  0.128860  0.433830  0.656920  1.0  0.0711
  H  H310  1  0.072900  0.937010  0.022670  1.0  0.0498
  H  H311  1  0.177590  0.961370  0.081750  1.0  0.0507
  H  H312  1  0.229010  0.130820  0.102210  1.0  0.0569
  H  H313  1  0.130200  0.100050  0.045290  1.0  0.0307
  H  H314  1  0.297740  0.110790  0.266290  1.0  0.0531
  H  H315  1  0.225800  0.062240  0.199230  1.0  0.0699
  H  H316  1  0.266470  0.140160  0.222510  1.0  0.0664
  H  H317  1  0.050220  0.477330  0.414340  1.0  0.05
  H  H318  1  0.095840  0.418250  0.379620  1.0  0.0524
  H  H319  1  0.126800  0.397790  0.528610  1.0  0.0577
  H  H320  1  0.084900  0.454710  0.554760  1.0  0.0282
  H  H321  1  0.036720  0.231880  0.363970  1.0  0.0406
  H  H322  1  0.023980  0.284440  0.343800  1.0  0.0692
  H  H323  1  0.041280  0.295650  0.417400  1.0  0.0725
  H  H324  1  0.449780  0.864120  0.427100  1.0  0.0502
  H  H325  1  0.404160  0.783780  0.322410  1.0  0.0569
  H  H326  1  0.373200  0.901810  0.270990  1.0  0.0536
  H  H327  1  0.415100  0.969860  0.369800  1.0  0.0327
  H  H328  1  0.455660  0.868480  0.221810  1.0  0.0627
  H  H329  1  0.471310  0.808070  0.210390  1.0  0.0592
  H  H330  1  0.471060  0.846630  0.277790  1.0  0.0639
  H  H331  1  0.937010  0.022670  0.072900  1.0  0.0488
  H  H332  1  0.961370  0.081750  0.177590  1.0  0.0565
  H  H333  1  0.130820  0.102210  0.229010  1.0  0.0596
  H  H334  1  0.100050  0.045290  0.130200  1.0  0.0356
  H  H335  1  0.061720  0.200060  0.226410  1.0  0.0702
  H  H336  1  0.139240  0.221260  0.265120  1.0  0.0674
  H  H337  1  0.112240  0.266700  0.298480  1.0  0.0572
  H  H338  1  0.562990  0.635880  0.085660  1.0  0.0492
  H  H339  1  0.538630  0.716220  0.120380  1.0  0.0562
  H  H340  1  0.369180  0.598190  0.971390  1.0  0.0555
  H  H341  1  0.399950  0.530140  0.945240  1.0  0.0387
  H  H342  1  0.430470  0.652530  0.123370  1.0  0.0623
  H  H343  1  0.352930  0.632060  0.087720  1.0  0.0571
  H  H344  1  0.403400  0.692220  0.163740  1.0  0.0641
  H  H345  1  0.538770  0.248520  0.025390  1.0  0.0667
  H  H346  1  0.469640  0.210540  0.956260  1.0  0.0709
  H  H347  1  0.511660  0.290940  0.998280  1.0  0.0575
  H  H348  1  0.789210  0.513380  0.495220  1.0  0.0563
  H  H349  1  0.719930  0.513380  0.479040  1.0  0.0671
  H  H350  1  0.760920  0.513380  0.545810  1.0  0.0668
  H  H351  1  0.706260  0.210540  0.719640  1.0  0.056
  H  H352  1  0.775390  0.248520  0.788770  1.0  0.0664
  H  H353  1  0.748280  0.290940  0.761660  1.0  0.0702
  H  H354  1  0.956550  0.986620  0.715660  1.0  0.0646
  H  H355  1  0.025830  0.986620  0.731840  1.0  0.0748
  H  H356  1  0.997540  0.986620  0.782430  1.0  0.0512
  H  H357  1  0.025390  0.538770  0.248520  1.0  0.0682
  H  H358  1  0.956260  0.469640  0.210540  1.0  0.0681
  H  H359  1  0.998280  0.511660  0.290940  1.0  0.0559
  H  H360  1  0.469930  0.729040  0.513380  1.0  0.068
  H  H361  1  0.539210  0.745220  0.513380  1.0  0.0786
  H  H362  1  0.510920  0.795810  0.513380  1.0  0.0538
  H  H363  1  0.719640  0.706260  0.210540  1.0  0.0542
  H  H364  1  0.788770  0.775390  0.248520  1.0  0.0673
  H  H365  1  0.761660  0.748280  0.290940  1.0  0.0669
  H  H366  1  0.775830  0.981840  0.986620  1.0  0.0576
  H  H367  1  0.706550  0.965660  0.986620  1.0  0.0686
  H  H368  1  0.747540  0.032430  0.986620  1.0  0.0693
  H  H369  1  0.206430  0.960150  0.473530  1.0  0.0779
  H  H370  1  0.285720  0.990170  0.503550  1.0  0.0533
  H  H371  1  0.257850  0.029610  0.542980  1.0  0.0677
  H  H372  1  0.513380  0.489860  0.716640  1.0  0.0617
  H  H373  1  0.513380  0.546740  0.773520  1.0  0.0705
  H  H374  1  0.513380  0.483470  0.779910  1.0  0.0633
  H  H375  1  0.285720  0.753550  0.740170  1.0  0.0679
  H  H376  1  0.206430  0.723530  0.710150  1.0  0.0567
  H  H377  1  0.257850  0.792980  0.779610  1.0  0.0662
  H  H378  1  0.986620  0.703260  0.976480  1.0  0.0631
  H  H379  1  0.986620  0.760140  0.033360  1.0  0.071
  H  H380  1  0.986620  0.766530  0.970090  1.0  0.0641
  H  H381  1  0.456260  0.710540  0.969640  1.0  0.0694
  H  H382  1  0.525390  0.748520  0.038770  1.0  0.0679
  H  H383  1  0.498280  0.790940  0.011660  1.0  0.0573
  H  H384  1  0.206550  0.486620  0.465660  1.0  0.07
  H  H385  1  0.275830  0.486620  0.481840  1.0  0.056
  H  H386  1  0.247540  0.486620  0.532430  1.0  0.0682
  H  H387  1  0.288770  0.748520  0.275390  1.0  0.0687
  H  H388  1  0.219640  0.710540  0.206260  1.0  0.0569
  H  H389  1  0.261660  0.790940  0.248280  1.0  0.0695
  H  H390  1  0.039210  0.013380  0.245220  1.0  0.0766
  H  H391  1  0.969930  0.013380  0.229040  1.0  0.0645
  H  H392  1  0.010920  0.013380  0.295810  1.0  0.0539
  H  H393  1  0.969640  0.456260  0.710540  1.0  0.0683
  H  H394  1  0.038770  0.525390  0.748520  1.0  0.0657
  H  H395  1  0.011660  0.498280  0.790940  1.0  0.0554
  H  H396  1  0.525830  0.231840  0.486620  1.0  0.0732
  H  H397  1  0.456550  0.215660  0.486620  1.0  0.0647
  H  H398  1  0.497540  0.282430  0.486620  1.0  0.0523
  H  H399  1  0.275390  0.288770  0.748520  1.0  0.0673
  H  H400  1  0.206260  0.219640  0.710540  1.0  0.0561
  H  H401  1  0.248280  0.261660  0.790940  1.0  0.0683
  H  H402  1  0.219930  0.979040  0.013380  1.0  0.07
  H  H403  1  0.289210  0.995220  0.013380  1.0  0.0565
  H  H404  1  0.260920  0.045810  0.013380  1.0  0.0662
  H  H405  1  0.785720  0.003550  0.490170  1.0  0.0554
  H  H406  1  0.706430  0.973530  0.460150  1.0  0.0763
  H  H407  1  0.757850  0.042980  0.529610  1.0  0.0649
  H  H408  1  0.486620  0.453260  0.226480  1.0  0.0702
  H  H409  1  0.486620  0.510140  0.283360  1.0  0.0622
  H  H410  1  0.486620  0.516530  0.220090  1.0  0.0655
  H  H411  1  0.706430  0.210150  0.223530  1.0  0.0545
  H  H412  1  0.785720  0.240170  0.253550  1.0  0.068
  H  H413  1  0.757850  0.279610  0.292980  1.0  0.0664
  H  H414  1  0.013380  0.273520  0.046740  1.0  0.0726
  H  H415  1  0.013380  0.216640  0.989860  1.0  0.0613
  H  H416  1  0.013380  0.279910  0.983470  1.0  0.0632
  C  C417  1  0.560710  0.127860  0.017570  1.0  0.1543
  C  C418  1  0.579100  0.173200  0.004500  1.0  0.1471
  C  C419  1  0.545600  0.161900  0.951300  1.0  0.1446
  C  C420  1  0.500100  0.110300  0.915400  1.0  -0.0498
  C  C421  1  0.487120  0.073400  0.930720  1.0  0.098
  C  C422  1  0.565800  0.208100  0.936900  1.0  -0.0828
  C  C423  1  0.599000  0.210700  0.912100  1.0  0.084
  C  C424  1  0.619600  0.169600  0.899000  1.0  -0.4154
  C  C425  1  0.610290  0.543140  0.482430  1.0  0.1552
  C  C426  1  0.668700  0.574600  0.495500  1.0  0.1601
  C  C427  1  0.710600  0.594300  0.548700  1.0  0.1453
  C  C428  1  0.694900  0.584700  0.584600  1.0  -0.0446
  C  C429  1  0.642680  0.556400  0.569280  1.0  0.1055
  C  C430  1  0.771200  0.628900  0.563100  1.0  -0.0766
  C  C431  1  0.798600  0.686900  0.587900  1.0  0.0836
  C  C432  1  0.770600  0.720600  0.601000  1.0  -0.4061
  C  C433  1  0.889710  0.372140  0.932850  1.0  0.1662
  C  C434  1  0.831300  0.326800  0.905900  1.0  0.1466
  C  C435  1  0.789400  0.338100  0.883700  1.0  0.1508
  C  C436  1  0.805100  0.389700  0.889800  1.0  -0.0602
  C  C437  1  0.857320  0.426600  0.913720  1.0  0.0986
  C  C438  1  0.728800  0.291900  0.857700  1.0  -0.0803
  C  C439  1  0.701400  0.289300  0.888300  1.0  0.0833
  C  C440  1  0.729400  0.330400  0.950000  1.0  -0.4237
  C  C441  1  0.939290  0.956860  0.567150  1.0  0.155
  C  C442  1  0.920900  0.925400  0.594100  1.0  0.1402
  C  C443  1  0.954400  0.905700  0.616300  1.0  0.1524
  C  C444  1  0.999900  0.915300  0.610200  1.0  -0.0306
  C  C445  1  0.012880  0.943600  0.586280  1.0  0.0953
  C  C446  1  0.934200  0.871100  0.642300  1.0  -0.0711
  C  C447  1  0.901000  0.813100  0.611700  1.0  0.076
  C  C448  1  0.880400  0.779400  0.550000  1.0  -0.4371
  C  C449  1  0.017570  0.560710  0.127860  1.0  0.1503
  C  C450  1  0.004500  0.579100  0.173200  1.0  0.1446
  C  C451  1  0.951300  0.545600  0.161900  1.0  0.1431
  C  C452  1  0.915400  0.500100  0.110300  1.0  -0.0443
  C  C453  1  0.930720  0.487120  0.073400  1.0  0.1027
  C  C454  1  0.936900  0.565800  0.208100  1.0  -0.0773
  C  C455  1  0.912100  0.599000  0.210700  1.0  0.0827
  C  C456  1  0.899000  0.619600  0.169600  1.0  -0.4058
  C  C457  1  0.482430  0.610290  0.543140  1.0  0.154
  C  C458  1  0.495500  0.668700  0.574600  1.0  0.1482
  C  C459  1  0.548700  0.710600  0.594300  1.0  0.1508
  C  C460  1  0.584600  0.694900  0.584700  1.0  -0.0707
  C  C461  1  0.569280  0.642680  0.556400  1.0  0.1002
  C  C462  1  0.563100  0.771200  0.628900  1.0  -0.0764
  C  C463  1  0.587900  0.798600  0.686900  1.0  0.0746
  C  C464  1  0.601000  0.770600  0.720600  1.0  -0.4201
  C  C465  1  0.932850  0.889710  0.372140  1.0  0.1698
  C  C466  1  0.905900  0.831300  0.326800  1.0  0.1602
  C  C467  1  0.883700  0.789400  0.338100  1.0  0.1512
  C  C468  1  0.889800  0.805100  0.389700  1.0  -0.0358
  C  C469  1  0.913720  0.857320  0.426600  1.0  0.1024
  C  C470  1  0.857700  0.728800  0.291900  1.0  -0.0839
  C  C471  1  0.888300  0.701400  0.289300  1.0  0.088
  C  C472  1  0.950000  0.729400  0.330400  1.0  -0.3906
  C  C473  1  0.567150  0.939290  0.956860  1.0  0.162
  C  C474  1  0.594100  0.920900  0.925400  1.0  0.1571
  C  C475  1  0.616300  0.954400  0.905700  1.0  0.1463
  C  C476  1  0.610200  0.999900  0.915300  1.0  -0.0549
  C  C477  1  0.586280  0.012880  0.943600  1.0  0.1068
  C  C478  1  0.642300  0.934200  0.871100  1.0  -0.0885
  C  C479  1  0.611700  0.901000  0.813100  1.0  0.0805
  C  C480  1  0.550000  0.880400  0.779400  1.0  -0.4334
  C  C481  1  0.127860  0.017570  0.560710  1.0  0.1529
  C  C482  1  0.173200  0.004500  0.579100  1.0  0.1537
  C  C483  1  0.161900  0.951300  0.545600  1.0  0.149
  C  C484  1  0.110300  0.915400  0.500100  1.0  -0.0628
  C  C485  1  0.073400  0.930720  0.487120  1.0  0.0994
  C  C486  1  0.208100  0.936900  0.565800  1.0  -0.0774
  C  C487  1  0.210700  0.912100  0.599000  1.0  0.0834
  C  C488  1  0.169600  0.899000  0.619600  1.0  -0.4331
  C  C489  1  0.543140  0.482430  0.610290  1.0  0.17
  C  C490  1  0.574600  0.495500  0.668700  1.0  0.165
  C  C491  1  0.594300  0.548700  0.710600  1.0  0.1498
  C  C492  1  0.584700  0.584600  0.694900  1.0  -0.0304
  C  C493  1  0.556400  0.569280  0.642680  1.0  0.1034
  C  C494  1  0.628900  0.563100  0.771200  1.0  -0.0827
  C  C495  1  0.686900  0.587900  0.798600  1.0  0.0904
  C  C496  1  0.720600  0.601000  0.770600  1.0  -0.4354
  C  C497  1  0.372140  0.932850  0.889710  1.0  0.1604
  C  C498  1  0.326800  0.905900  0.831300  1.0  0.1559
  C  C499  1  0.338100  0.883700  0.789400  1.0  0.1454
  C  C500  1  0.389700  0.889800  0.805100  1.0  -0.0451
  C  C501  1  0.426600  0.913720  0.857320  1.0  0.0915
  C  C502  1  0.291900  0.857700  0.728800  1.0  -0.0842
  C  C503  1  0.289300  0.888300  0.701400  1.0  0.0816
  C  C504  1  0.330400  0.950000  0.729400  1.0  -0.4151
  C  C505  1  0.956860  0.567150  0.939290  1.0  0.1773
  C  C506  1  0.925400  0.594100  0.920900  1.0  0.1647
  C  C507  1  0.905700  0.616300  0.954400  1.0  0.158
  C  C508  1  0.915300  0.610200  0.999900  1.0  -0.0301
  C  C509  1  0.943600  0.586280  0.012880  1.0  0.1022
  C  C510  1  0.871100  0.642300  0.934200  1.0  -0.0852
  C  C511  1  0.813100  0.611700  0.901000  1.0  0.0816
  C  C512  1  0.779400  0.550000  0.880400  1.0  -0.4062
  C  C513  1  0.956860  0.889710  0.017570  1.0  0.1524
  C  C514  1  0.925400  0.831300  0.004500  1.0  0.1499
  C  C515  1  0.905700  0.789400  0.951300  1.0  0.1404
  C  C516  1  0.915300  0.805100  0.915400  1.0  -0.054
  C  C517  1  0.943600  0.857320  0.930720  1.0  0.11
  C  C518  1  0.871100  0.728800  0.936900  1.0  -0.0826
  C  C519  1  0.813100  0.701400  0.912100  1.0  0.0539
  C  C520  1  0.779400  0.729400  0.899000  1.0  -0.4405
  C  C521  1  0.372140  0.939290  0.482430  1.0  0.1754
  C  C522  1  0.326800  0.920900  0.495500  1.0  0.1536
  C  C523  1  0.338100  0.954400  0.548700  1.0  0.1597
  C  C524  1  0.389700  0.999900  0.584600  1.0  -0.0417
  C  C525  1  0.426600  0.012880  0.569280  1.0  0.1022
  C  C526  1  0.291900  0.934200  0.563100  1.0  -0.0855
  C  C527  1  0.289300  0.901000  0.587900  1.0  0.0545
  C  C528  1  0.330400  0.880400  0.601000  1.0  -0.4399
  C  C529  1  0.543140  0.560710  0.932850  1.0  0.1502
  C  C530  1  0.574600  0.579100  0.905900  1.0  0.1395
  C  C531  1  0.594300  0.545600  0.883700  1.0  0.1605
  C  C532  1  0.584700  0.500100  0.889800  1.0  -0.0457
  C  C533  1  0.556400  0.487120  0.913720  1.0  0.1063
  C  C534  1  0.628900  0.565800  0.857700  1.0  -0.0807
  C  C535  1  0.686900  0.599000  0.888300  1.0  0.0715
  C  C536  1  0.720600  0.619600  0.950000  1.0  -0.4534
  C  C537  1  0.127860  0.610290  0.567150  1.0  0.1548
  C  C538  1  0.173200  0.668700  0.594100  1.0  0.1478
  C  C539  1  0.161900  0.710600  0.616300  1.0  0.1494
  C  C540  1  0.110300  0.694900  0.610200  1.0  -0.0383
  C  C541  1  0.073400  0.642680  0.586280  1.0  0.1066
  C  C542  1  0.208100  0.771200  0.642300  1.0  -0.0892
  C  C543  1  0.210700  0.798600  0.611700  1.0  0.0678
  C  C544  1  0.169600  0.770600  0.550000  1.0  -0.4439
  C  C545  1  0.610290  0.567150  0.127860  1.0  0.1742
  C  C546  1  0.668700  0.594100  0.173200  1.0  0.1555
  C  C547  1  0.710600  0.616300  0.161900  1.0  0.1633
  C  C548  1  0.694900  0.610200  0.110300  1.0  -0.0405
  C  C549  1  0.642680  0.586280  0.073400  1.0  0.1013
  C  C550  1  0.771200  0.642300  0.208100  1.0  -0.0837
  C  C551  1  0.798600  0.611700  0.210700  1.0  0.0467
  C  C552  1  0.770600  0.550000  0.169600  1.0  -0.4111
  C  C553  1  0.560710  0.932850  0.543140  1.0  0.1799
  C  C554  1  0.579100  0.905900  0.574600  1.0  0.1557
  C  C555  1  0.545600  0.883700  0.594300  1.0  0.1518
  C  C556  1  0.500100  0.889800  0.584700  1.0  -0.0407
  C  C557  1  0.487120  0.913720  0.556400  1.0  0.0982
  C  C558  1  0.565800  0.857700  0.628900  1.0  -0.0865
  C  C559  1  0.599000  0.888300  0.686900  1.0  0.0699
  C  C560  1  0.619600  0.950000  0.720600  1.0  -0.4388
  C  C561  1  0.939290  0.482430  0.372140  1.0  0.1691
  C  C562  1  0.920900  0.495500  0.326800  1.0  0.1508
  C  C563  1  0.954400  0.548700  0.338100  1.0  0.1587
  C  C564  1  0.999900  0.584600  0.389700  1.0  -0.0411
  C  C565  1  0.012880  0.569280  0.426600  1.0  0.1024
  C  C566  1  0.934200  0.563100  0.291900  1.0  -0.0831
  C  C567  1  0.901000  0.587900  0.289300  1.0  0.047
  C  C568  1  0.880400  0.601000  0.330400  1.0  -0.4516
  C  C569  1  0.889710  0.017570  0.956860  1.0  0.1436
  C  C570  1  0.831300  0.004500  0.925400  1.0  0.1414
  C  C571  1  0.789400  0.951300  0.905700  1.0  0.1595
  C  C572  1  0.805100  0.915400  0.915300  1.0  -0.0364
  C  C573  1  0.857320  0.930720  0.943600  1.0  0.1086
  C  C574  1  0.728800  0.936900  0.871100  1.0  -0.0851
  C  C575  1  0.701400  0.912100  0.813100  1.0  0.0713
  C  C576  1  0.729400  0.899000  0.779400  1.0  -0.4573
  C  C577  1  0.932850  0.543140  0.560710  1.0  0.1498
  C  C578  1  0.905900  0.574600  0.579100  1.0  0.1678
  C  C579  1  0.883700  0.594300  0.545600  1.0  0.1618
  C  C580  1  0.889800  0.584700  0.500100  1.0  -0.0344
  C  C581  1  0.913720  0.556400  0.487120  1.0  0.101
  C  C582  1  0.857700  0.628900  0.565800  1.0  -0.0767
  C  C583  1  0.888300  0.686900  0.599000  1.0  0.0433
  C  C584  1  0.950000  0.720600  0.619600  1.0  -0.424
  C  C585  1  0.567150  0.127860  0.610290  1.0  0.1751
  C  C586  1  0.594100  0.173200  0.668700  1.0  0.1557
  C  C587  1  0.616300  0.161900  0.710600  1.0  0.1524
  C  C588  1  0.610200  0.110300  0.694900  1.0  -0.0423
  C  C589  1  0.586280  0.073400  0.642680  1.0  0.1017
  C  C590  1  0.642300  0.208100  0.771200  1.0  -0.093
  C  C591  1  0.611700  0.210700  0.798600  1.0  0.0506
  C  C592  1  0.550000  0.169600  0.770600  1.0  -0.4525
  C  C593  1  0.017570  0.956860  0.889710  1.0  0.1735
  C  C594  1  0.004500  0.925400  0.831300  1.0  0.1554
  C  C595  1  0.951300  0.905700  0.789400  1.0  0.1617
  C  C596  1  0.915400  0.915300  0.805100  1.0  -0.046
  C  C597  1  0.930720  0.943600  0.857320  1.0  0.1052
  C  C598  1  0.936900  0.871100  0.728800  1.0  -0.0834
  C  C599  1  0.912100  0.813100  0.701400  1.0  0.0726
  C  C600  1  0.899000  0.779400  0.729400  1.0  -0.436
  C  C601  1  0.482430  0.372140  0.939290  1.0  0.1661
  C  C602  1  0.495500  0.326800  0.920900  1.0  0.1453
  C  C603  1  0.548700  0.338100  0.954400  1.0  0.1455
  C  C604  1  0.584600  0.389700  0.999900  1.0  -0.0402
  C  C605  1  0.569280  0.426600  0.012880  1.0  0.1014
  C  C606  1  0.563100  0.291900  0.934200  1.0  -0.0952
  C  C607  1  0.587900  0.289300  0.901000  1.0  0.0717
  C  C608  1  0.601000  0.330400  0.880400  1.0  -0.4718
  C  C609  1  0.439290  0.872140  0.982430  1.0  0.1694
  C  C610  1  0.420900  0.826800  0.995500  1.0  0.1475
  C  C611  1  0.454400  0.838100  0.048700  1.0  0.1593
  C  C612  1  0.499900  0.889700  0.084600  1.0  -0.0423
  C  C613  1  0.512880  0.926600  0.069280  1.0  0.1018
  C  C614  1  0.434200  0.791900  0.063100  1.0  -0.0838
  C  C615  1  0.401000  0.789300  0.087900  1.0  0.0488
  C  C616  1  0.380400  0.830400  0.101000  1.0  -0.4534
  C  C617  1  0.389710  0.456860  0.517570  1.0  0.1482
  C  C618  1  0.331300  0.425400  0.504500  1.0  0.1488
  C  C619  1  0.289400  0.405700  0.451300  1.0  0.1605
  C  C620  1  0.305100  0.415300  0.415400  1.0  -0.029
  C  C621  1  0.357320  0.443600  0.430720  1.0  0.1099
  C  C622  1  0.228800  0.371100  0.436900  1.0  -0.0848
  C  C623  1  0.201400  0.313100  0.412100  1.0  0.0711
  C  C624  1  0.229400  0.279400  0.399000  1.0  -0.4584
  C  C625  1  0.110290  0.627860  0.067150  1.0  0.1694
  C  C626  1  0.168700  0.673200  0.094100  1.0  0.152
  C  C627  1  0.210600  0.661900  0.116300  1.0  0.1619
  C  C628  1  0.194900  0.610300  0.110200  1.0  -0.0482
  C  C629  1  0.142680  0.573400  0.086280  1.0  0.0959
  C  C630  1  0.271200  0.708100  0.142300  1.0  -0.0835
  C  C631  1  0.298600  0.710700  0.111700  1.0  0.0478
  C  C632  1  0.270600  0.669600  0.050000  1.0  -0.4108
  C  C633  1  0.060710  0.043140  0.432850  1.0  0.1781
  C  C634  1  0.079100  0.074600  0.405900  1.0  0.1584
  C  C635  1  0.045600  0.094300  0.383700  1.0  0.1519
  C  C636  1  0.000100  0.084700  0.389800  1.0  -0.0422
  C  C637  1  0.987120  0.056400  0.413720  1.0  0.1008
  C  C638  1  0.065800  0.128900  0.357700  1.0  -0.0876
  C  C639  1  0.099000  0.186900  0.388300  1.0  0.0696
  C  C640  1  0.119600  0.220600  0.450000  1.0  -0.4368
  C  C641  1  0.982430  0.439290  0.872140  1.0  0.1678
  C  C642  1  0.995500  0.420900  0.826800  1.0  0.1474
  C  C643  1  0.048700  0.454400  0.838100  1.0  0.1444
  C  C644  1  0.084600  0.499900  0.889700  1.0  -0.04
  C  C645  1  0.069280  0.512880  0.926600  1.0  0.1061
  C  C646  1  0.063100  0.434200  0.791900  1.0  -0.0948
  C  C647  1  0.087900  0.401000  0.789300  1.0  0.073
  C  C648  1  0.101000  0.380400  0.830400  1.0  -0.4713
  C  C649  1  0.517570  0.389710  0.456860  1.0  0.1723
  C  C650  1  0.504500  0.331300  0.425400  1.0  0.1532
  C  C651  1  0.451300  0.289400  0.405700  1.0  0.1619
  C  C652  1  0.415400  0.305100  0.415300  1.0  -0.045
  C  C653  1  0.430720  0.357320  0.443600  1.0  0.1025
  C  C654  1  0.436900  0.228800  0.371100  1.0  -0.0841
  C  C655  1  0.412100  0.201400  0.313100  1.0  0.0698
  C  C656  1  0.399000  0.229400  0.279400  1.0  -0.4368
  C  C657  1  0.067150  0.110290  0.627860  1.0  0.1791
  C  C658  1  0.094100  0.168700  0.673200  1.0  0.1619
  C  C659  1  0.116300  0.210600  0.661900  1.0  0.1533
  C  C660  1  0.110200  0.194900  0.610300  1.0  -0.0339
  C  C661  1  0.086280  0.142680  0.573400  1.0  0.1056
  C  C662  1  0.142300  0.271200  0.708100  1.0  -0.0934
  C  C663  1  0.111700  0.298600  0.710700  1.0  0.0496
  C  C664  1  0.050000  0.270600  0.669600  1.0  -0.4519
  C  C665  1  0.432850  0.060710  0.043140  1.0  0.1489
  C  C666  1  0.405900  0.079100  0.074600  1.0  0.1587
  C  C667  1  0.383700  0.045600  0.094300  1.0  0.1621
  C  C668  1  0.389800  0.000100  0.084700  1.0  -0.0363
  C  C669  1  0.413720  0.987120  0.056400  1.0  0.0997
  C  C670  1  0.357700  0.065800  0.128900  1.0  -0.0758
  C  C671  1  0.388300  0.099000  0.186900  1.0  0.0443
  C  C672  1  0.450000  0.119600  0.220600  1.0  -0.4237
  C  C673  1  0.872140  0.982430  0.439290  1.0  0.1721
  C  C674  1  0.826800  0.995500  0.420900  1.0  0.1542
  C  C675  1  0.838100  0.048700  0.454400  1.0  0.1582
  C  C676  1  0.889700  0.084600  0.499900  1.0  -0.0415
  C  C677  1  0.926600  0.069280  0.512880  1.0  0.1009
  C  C678  1  0.791900  0.063100  0.434200  1.0  -0.086
  C  C679  1  0.789300  0.087900  0.401000  1.0  0.053
  C  C680  1  0.830400  0.101000  0.380400  1.0  -0.4397
  C  C681  1  0.456860  0.517570  0.389710  1.0  0.1724
  C  C682  1  0.425400  0.504500  0.331300  1.0  0.1485
  C  C683  1  0.405700  0.451300  0.289400  1.0  0.1517
  C  C684  1  0.415300  0.415400  0.305100  1.0  -0.033
  C  C685  1  0.443600  0.430720  0.357320  1.0  0.1095
  C  C686  1  0.371100  0.436900  0.228800  1.0  -0.0836
  C  C687  1  0.313100  0.412100  0.201400  1.0  0.0535
  C  C688  1  0.279400  0.399000  0.229400  1.0  -0.4367
  C  C689  1  0.627860  0.067150  0.110290  1.0  0.1569
  C  C690  1  0.673200  0.094100  0.168700  1.0  0.148
  C  C691  1  0.661900  0.116300  0.210600  1.0  0.1483
  C  C692  1  0.610300  0.110200  0.194900  1.0  -0.0376
  C  C693  1  0.573400  0.086280  0.142680  1.0  0.1062
  C  C694  1  0.708100  0.142300  0.271200  1.0  -0.0874
  C  C695  1  0.710700  0.111700  0.298600  1.0  0.0673
  C  C696  1  0.669600  0.050000  0.270600  1.0  -0.4424
  C  C697  1  0.043140  0.432850  0.060710  1.0  0.154
  C  C698  1  0.074600  0.405900  0.079100  1.0  0.1425
  C  C699  1  0.094300  0.383700  0.045600  1.0  0.161
  C  C700  1  0.084700  0.389800  0.000100  1.0  -0.0388
  C  C701  1  0.056400  0.413720  0.987120  1.0  0.1064
  C  C702  1  0.128900  0.357700  0.065800  1.0  -0.081
  C  C703  1  0.186900  0.388300  0.099000  1.0  0.0695
  C  C704  1  0.220600  0.450000  0.119600  1.0  -0.4535
  C  C705  1  0.043140  0.110290  0.982430  1.0  0.1736
  C  C706  1  0.074600  0.168700  0.995500  1.0  0.168
  C  C707  1  0.094300  0.210600  0.048700  1.0  0.1517
  C  C708  1  0.084700  0.194900  0.084600  1.0  -0.0229
  C  C709  1  0.056400  0.142680  0.069280  1.0  0.1067
  C  C710  1  0.128900  0.271200  0.063100  1.0  -0.0827
  C  C711  1  0.186900  0.298600  0.087900  1.0  0.0884
  C  C712  1  0.220600  0.270600  0.101000  1.0  -0.4372
  C  C713  1  0.627860  0.060710  0.517570  1.0  0.1589
  C  C714  1  0.673200  0.079100  0.504500  1.0  0.1542
  C  C715  1  0.661900  0.045600  0.451300  1.0  0.1505
  C  C716  1  0.610300  0.000100  0.415400  1.0  -0.0611
  C  C717  1  0.573400  0.987120  0.430720  1.0  0.0985
  C  C718  1  0.708100  0.065800  0.436900  1.0  -0.0757
  C  C719  1  0.710700  0.099000  0.412100  1.0  0.0848
  C  C720  1  0.669600  0.119600  0.399000  1.0  -0.4335
  C  C721  1  0.456860  0.439290  0.067150  1.0  0.1516
  C  C722  1  0.425400  0.420900  0.094100  1.0  0.1419
  C  C723  1  0.405700  0.454400  0.116300  1.0  0.1527
  C  C724  1  0.415300  0.499900  0.110200  1.0  -0.0563
  C  C725  1  0.443600  0.512880  0.086280  1.0  0.1004
  C  C726  1  0.371100  0.434200  0.142300  1.0  -0.0766
  C  C727  1  0.313100  0.401000  0.111700  1.0  0.0825
  C  C728  1  0.279400  0.380400  0.050000  1.0  -0.4053
  C  C729  1  0.872140  0.389710  0.432850  1.0  0.1569
  C  C730  1  0.826800  0.331300  0.405900  1.0  0.1546
  C  C731  1  0.838100  0.289400  0.383700  1.0  0.1445
  C  C732  1  0.889700  0.305100  0.389800  1.0  -0.0467
  C  C733  1  0.926600  0.357320  0.413720  1.0  0.0936
  C  C734  1  0.791900  0.228800  0.357700  1.0  -0.0863
  C  C735  1  0.789300  0.201400  0.388300  1.0  0.0799
  C  C736  1  0.830400  0.229400  0.450000  1.0  -0.416
  C  C737  1  0.389710  0.432850  0.872140  1.0  0.1701
  C  C738  1  0.331300  0.405900  0.826800  1.0  0.1552
  C  C739  1  0.289400  0.383700  0.838100  1.0  0.151
  C  C740  1  0.305100  0.389800  0.889700  1.0  -0.0498
  C  C741  1  0.357320  0.413720  0.926600  1.0  0.1014
  C  C742  1  0.228800  0.357700  0.791900  1.0  -0.0799
  C  C743  1  0.201400  0.388300  0.789300  1.0  0.0843
  C  C744  1  0.229400  0.450000  0.830400  1.0  -0.4245
  C  C745  1  0.439290  0.067150  0.456860  1.0  0.1576
  C  C746  1  0.420900  0.094100  0.425400  1.0  0.1434
  C  C747  1  0.454400  0.116300  0.405700  1.0  0.1536
  C  C748  1  0.499900  0.110200  0.415300  1.0  -0.0313
  C  C749  1  0.512880  0.086280  0.443600  1.0  0.0926
  C  C750  1  0.434200  0.142300  0.371100  1.0  -0.0692
  C  C751  1  0.401000  0.111700  0.313100  1.0  0.0753
  C  C752  1  0.380400  0.050000  0.279400  1.0  -0.4401
  C  C753  1  0.060710  0.517570  0.627860  1.0  0.1513
  C  C754  1  0.079100  0.504500  0.673200  1.0  0.1471
  C  C755  1  0.045600  0.451300  0.661900  1.0  0.1444
  C  C756  1  0.000100  0.415400  0.610300  1.0  -0.0508
  C  C757  1  0.987120  0.430720  0.573400  1.0  0.0995
  C  C758  1  0.065800  0.436900  0.708100  1.0  -0.0845
  C  C759  1  0.099000  0.412100  0.710700  1.0  0.0836
  C  C760  1  0.119600  0.399000  0.669600  1.0  -0.412
  C  C761  1  0.110290  0.982430  0.043140  1.0  0.1545
  C  C762  1  0.168700  0.995500  0.074600  1.0  0.1555
  C  C763  1  0.210600  0.048700  0.094300  1.0  0.1448
  C  C764  1  0.194900  0.084600  0.084700  1.0  -0.053
  C  C765  1  0.142680  0.069280  0.056400  1.0  0.1034
  C  C766  1  0.271200  0.063100  0.128900  1.0  -0.0764
  C  C767  1  0.298600  0.087900  0.186900  1.0  0.0827
  C  C768  1  0.270600  0.101000  0.220600  1.0  -0.4077
  C  C769  1  0.067150  0.456860  0.439290  1.0  0.1567
  C  C770  1  0.094100  0.425400  0.420900  1.0  0.162
  C  C771  1  0.116300  0.405700  0.454400  1.0  0.1455
  C  C772  1  0.110200  0.415300  0.499900  1.0  -0.0525
  C  C773  1  0.086280  0.443600  0.512880  1.0  0.1082
  C  C774  1  0.142300  0.371100  0.434200  1.0  -0.0903
  C  C775  1  0.111700  0.313100  0.401000  1.0  0.0804
  C  C776  1  0.050000  0.279400  0.380400  1.0  -0.4335
  C  C777  1  0.432850  0.872140  0.389710  1.0  0.1685
  C  C778  1  0.405900  0.826800  0.331300  1.0  0.1513
  C  C779  1  0.383700  0.838100  0.289400  1.0  0.1503
  C  C780  1  0.389800  0.889700  0.305100  1.0  -0.0414
  C  C781  1  0.413720  0.926600  0.357320  1.0  0.0965
  C  C782  1  0.357700  0.791900  0.228800  1.0  -0.0815
  C  C783  1  0.388300  0.789300  0.201400  1.0  0.0903
  C  C784  1  0.450000  0.830400  0.229400  1.0  -0.3927
  C  C785  1  0.982430  0.043140  0.110290  1.0  0.154
  C  C786  1  0.995500  0.074600  0.168700  1.0  0.1486
  C  C787  1  0.048700  0.094300  0.210600  1.0  0.1484
  C  C788  1  0.084600  0.084700  0.194900  1.0  -0.0678
  C  C789  1  0.069280  0.056400  0.142680  1.0  0.1009
  C  C790  1  0.063100  0.128900  0.271200  1.0  -0.0761
  C  C791  1  0.087900  0.186900  0.298600  1.0  0.0765
  C  C792  1  0.101000  0.220600  0.270600  1.0  -0.4166
  C  C793  1  0.517570  0.627860  0.060710  1.0  0.1504
  C  C794  1  0.504500  0.673200  0.079100  1.0  0.1452
  C  C795  1  0.451300  0.661900  0.045600  1.0  0.1434
  C  C796  1  0.415400  0.610300  0.000100  1.0  -0.043
  C  C797  1  0.430720  0.573400  0.987120  1.0  0.0997
  C  C798  1  0.436900  0.708100  0.065800  1.0  -0.0777
  C  C799  1  0.412100  0.710700  0.099000  1.0  0.0809
  C  C800  1  0.399000  0.669600  0.119600  1.0  -0.4061
  C  C801  1  0.514900  0.250000  0.985100  1.0  -0.4481
  C  C802  1  0.549300  0.250000  0.950700  1.0  -0.0853
  C  C803  1  0.607600  0.250000  0.892400  1.0  -0.0831
  C  C804  1  0.764900  0.529800  0.514900  1.0  -0.44
  C  C805  1  0.799300  0.598600  0.549300  1.0  -0.0955
  C  C806  1  0.857600  0.715200  0.607600  1.0  -0.1555
  C  C807  1  0.735100  0.250000  0.764900  1.0  -0.4506
  C  C808  1  0.700700  0.250000  0.799300  1.0  -0.0836
  C  C809  1  0.642400  0.250000  0.857600  1.0  -0.1633
  C  C810  1  0.985100  0.970200  0.735100  1.0  -0.4449
  C  C811  1  0.950700  0.901400  0.700700  1.0  -0.0822
  C  C812  1  0.892400  0.784800  0.642400  1.0  -0.1434
  C  C813  1  0.985100  0.514900  0.250000  1.0  -0.4486
  C  C814  1  0.950700  0.549300  0.250000  1.0  -0.0945
  C  C815  1  0.892400  0.607600  0.250000  1.0  -0.1872
  C  C816  1  0.514900  0.764900  0.529800  1.0  -0.4468
  C  C817  1  0.549300  0.799300  0.598600  1.0  -0.0827
  C  C818  1  0.607600  0.857600  0.715200  1.0  -0.106
  C  C819  1  0.764900  0.735100  0.250000  1.0  -0.4521
  C  C820  1  0.799300  0.700700  0.250000  1.0  -0.0823
  C  C821  1  0.857600  0.642400  0.250000  1.0  -0.1484
  C  C822  1  0.735100  0.985100  0.970200  1.0  -0.4421
  C  C823  1  0.700700  0.950700  0.901400  1.0  -0.0869
  C  C824  1  0.642400  0.892400  0.784800  1.0  -0.1458
  C  C825  1  0.250000  0.985100  0.514900  1.0  -0.4474
  C  C826  1  0.250000  0.950700  0.549300  1.0  -0.0831
  C  C827  1  0.250000  0.892400  0.607600  1.0  -0.1315
  C  C828  1  0.529800  0.514900  0.764900  1.0  -0.4396
  C  C829  1  0.598600  0.549300  0.799300  1.0  -0.0846
  C  C830  1  0.715200  0.607600  0.857600  1.0  -0.1282
  C  C831  1  0.250000  0.764900  0.735100  1.0  -0.4436
  C  C832  1  0.250000  0.799300  0.700700  1.0  -0.0854
  C  C833  1  0.250000  0.857600  0.642400  1.0  -0.1337
  C  C834  1  0.970200  0.735100  0.985100  1.0  -0.4387
  C  C835  1  0.901400  0.700700  0.950700  1.0  -0.0937
  C  C836  1  0.784800  0.642400  0.892400  1.0  -0.1937
  C  C837  1  0.485100  0.750000  0.014900  1.0  -0.4483
  C  C838  1  0.450700  0.750000  0.049300  1.0  -0.0935
  C  C839  1  0.392400  0.750000  0.107600  1.0  -0.1885
  C  C840  1  0.235100  0.470200  0.485100  1.0  -0.4401
  C  C841  1  0.200700  0.401400  0.450700  1.0  -0.0854
  C  C842  1  0.142400  0.284800  0.392400  1.0  -0.1453
  C  C843  1  0.264900  0.750000  0.235100  1.0  -0.4517
  C  C844  1  0.299300  0.750000  0.200700  1.0  -0.084
  C  C845  1  0.357600  0.750000  0.142400  1.0  -0.1486
  C  C846  1  0.014900  0.029800  0.264900  1.0  -0.4456
  C  C847  1  0.049300  0.098600  0.299300  1.0  -0.0835
  C  C848  1  0.107600  0.215200  0.357600  1.0  -0.1064
  C  C849  1  0.014900  0.485100  0.750000  1.0  -0.4486
  C  C850  1  0.049300  0.450700  0.750000  1.0  -0.0865
  C  C851  1  0.107600  0.392400  0.750000  1.0  -0.0833
  C  C852  1  0.485100  0.235100  0.470200  1.0  -0.4495
  C  C853  1  0.450700  0.200700  0.401400  1.0  -0.0827
  C  C854  1  0.392400  0.142400  0.284800  1.0  -0.1435
  C  C855  1  0.235100  0.264900  0.750000  1.0  -0.4509
  C  C856  1  0.200700  0.299300  0.750000  1.0  -0.0863
  C  C857  1  0.142400  0.357600  0.750000  1.0  -0.1632
  C  C858  1  0.264900  0.014900  0.029800  1.0  -0.4433
  C  C859  1  0.299300  0.049300  0.098600  1.0  -0.0939
  C  C860  1  0.357600  0.107600  0.215200  1.0  -0.1558
  C  C861  1  0.750000  0.014900  0.485100  1.0  -0.4504
  C  C862  1  0.750000  0.049300  0.450700  1.0  -0.0837
  C  C863  1  0.750000  0.107600  0.392400  1.0  -0.1313
  C  C864  1  0.470200  0.485100  0.235100  1.0  -0.4389
  C  C865  1  0.401400  0.450700  0.200700  1.0  -0.0951
  C  C866  1  0.284800  0.392400  0.142400  1.0  -0.1933
  C  C867  1  0.750000  0.235100  0.264900  1.0  -0.4413
  C  C868  1  0.750000  0.200700  0.299300  1.0  -0.0831
  C  C869  1  0.750000  0.142400  0.357600  1.0  -0.1333
  C  C870  1  0.029800  0.264900  0.014900  1.0  -0.4401
  C  C871  1  0.098600  0.299300  0.049300  1.0  -0.0849
  C  C872  1  0.215200  0.357600  0.107600  1.0  -0.1282
  N  N873  1  0.517380  0.077620  0.981560  1.0  -0.3493
  N  N874  1  0.596060  0.535820  0.518440  1.0  -0.3587
  N  N875  1  0.903940  0.422380  0.939760  1.0  -0.3513
  N  N876  1  0.982620  0.964180  0.560240  1.0  -0.3267
  N  N877  1  0.981560  0.517380  0.077620  1.0  -0.3457
  N  N878  1  0.518440  0.596060  0.535820  1.0  -0.3587
  N  N879  1  0.939760  0.903940  0.422380  1.0  -0.3517
  N  N880  1  0.560240  0.982620  0.964180  1.0  -0.3276
  N  N881  1  0.077620  0.981560  0.517380  1.0  -0.3488
  N  N882  1  0.535820  0.518440  0.596060  1.0  -0.3579
  N  N883  1  0.422380  0.939760  0.903940  1.0  -0.3514
  N  N884  1  0.964180  0.560240  0.982620  1.0  -0.3289
  N  N885  1  0.964180  0.903940  0.981560  1.0  -0.3584
  N  N886  1  0.422380  0.982620  0.518440  1.0  -0.3467
  N  N887  1  0.535820  0.517380  0.939760  1.0  -0.3294
  N  N888  1  0.077620  0.596060  0.560240  1.0  -0.3531
  N  N889  1  0.596060  0.560240  0.077620  1.0  -0.3524
  N  N890  1  0.517380  0.939760  0.535820  1.0  -0.3283
  N  N891  1  0.982620  0.518440  0.422380  1.0  -0.3468
  N  N892  1  0.903940  0.981560  0.964180  1.0  -0.3573
  N  N893  1  0.939760  0.535820  0.517380  1.0  -0.3277
  N  N894  1  0.560240  0.077620  0.596060  1.0  -0.3541
  N  N895  1  0.981560  0.964180  0.903940  1.0  -0.3594
  N  N896  1  0.518440  0.422380  0.982620  1.0  -0.3468
  N  N897  1  0.482620  0.922380  0.018440  1.0  -0.3489
  N  N898  1  0.403940  0.464180  0.481560  1.0  -0.3571
  N  N899  1  0.096060  0.577620  0.060240  1.0  -0.3515
  N  N900  1  0.017380  0.035820  0.439760  1.0  -0.3286
  N  N901  1  0.018440  0.482620  0.922380  1.0  -0.3476
  N  N902  1  0.481560  0.403940  0.464180  1.0  -0.3576
  N  N903  1  0.060240  0.096060  0.577620  1.0  -0.352
  N  N904  1  0.439760  0.017380  0.035820  1.0  -0.3286
  N  N905  1  0.922380  0.018440  0.482620  1.0  -0.3469
  N  N906  1  0.464180  0.481560  0.403940  1.0  -0.3585
  N  N907  1  0.577620  0.060240  0.096060  1.0  -0.3539
  N  N908  1  0.035820  0.439760  0.017380  1.0  -0.3284
  N  N909  1  0.035820  0.096060  0.018440  1.0  -0.3583
  N  N910  1  0.577620  0.017380  0.481560  1.0  -0.348
  N  N911  1  0.464180  0.482620  0.060240  1.0  -0.3256
  N  N912  1  0.922380  0.403940  0.439760  1.0  -0.3523
  N  N913  1  0.403940  0.439760  0.922380  1.0  -0.3509
  N  N914  1  0.482620  0.060240  0.464180  1.0  -0.3294
  N  N915  1  0.017380  0.481560  0.577620  1.0  -0.3464
  N  N916  1  0.096060  0.018440  0.035820  1.0  -0.3606
  N  N917  1  0.060240  0.464180  0.482620  1.0  -0.3271
  N  N918  1  0.439760  0.922380  0.403940  1.0  -0.3533
  N  N919  1  0.018440  0.035820  0.096060  1.0  -0.3577
  N  N920  1  0.481560  0.577620  0.017380  1.0  -0.3482
