# generated using pymatgen
data_ZnH42C57N6ClO3
_symmetry_space_group_name_H-M   'P 1'
_cell_length_a   27.88430000
_cell_length_b   27.88430000
_cell_length_c   27.88430000
_cell_angle_alpha   109.47100000
_cell_angle_beta   109.47100000
_cell_angle_gamma   109.47100000
_symmetry_Int_Tables_number   1
_chemical_formula_structural   ZnH42C57N6ClO3
_chemical_formula_sum   'Zn8 H336 C456 N48 Cl8 O24'
_cell_volume   16690.17523582
_cell_formula_units_Z   8
loop_
 _symmetry_equiv_pos_site_id
 _symmetry_equiv_pos_as_xyz
  1  'x, y, z'
loop_
 _atom_site_type_symbol
 _atom_site_label
 _atom_site_symmetry_multiplicity
 _atom_site_fract_x
 _atom_site_fract_y
 _atom_site_fract_z
 _atom_site_occupancy
 _atom_site_charge
  Zn  Zn1  1  0.000000  0.000000  0.000000  1.0  0.4216
  Zn  Zn2  1  0.500000  0.000000  0.500000  1.0  0.4216
  Zn  Zn3  1  0.000000  0.500000  0.500000  1.0  0.4216
  Zn  Zn4  1  0.500000  0.500000  0.000000  1.0  0.4216
  Zn  Zn5  1  0.500000  0.500000  0.500000  1.0  0.4216
  Zn  Zn6  1  0.500000  0.000000  0.000000  1.0  0.4216
  Zn  Zn7  1  0.000000  0.500000  0.000000  1.0  0.4216
  Zn  Zn8  1  0.000000  0.000000  0.500000  1.0  0.4216
  H  H9  1  0.072800  0.047500  0.132300  1.0  0.0904
  H  H10  1  0.171100  0.090600  0.207700  1.0  0.1507
  H  H11  1  0.220500  0.125900  0.101000  1.0  0.1264
  H  H12  1  0.130700  0.087600  0.036900  1.0  0.0906
  H  H13  1  0.226200  0.032800  0.142400  1.0  0.1399
  H  H14  1  0.270300  0.026500  0.188800  1.0  0.1384
  H  H15  1  0.284200  0.038600  0.142600  1.0  0.1328
  H  H16  1  0.415200  0.940500  0.367700  1.0  0.0899
  H  H17  1  0.382900  0.963400  0.292300  1.0  0.1499
  H  H18  1  0.524900  0.119500  0.399000  1.0  0.1249
  H  H19  1  0.550700  0.093800  0.463100  1.0  0.092
  H  H20  1  0.390400  0.083800  0.357600  1.0  0.1383
  H  H21  1  0.337700  0.081500  0.311200  1.0  0.1404
  H  H22  1  0.396000  0.141600  0.357400  1.0  0.1349
  H  H23  1  0.084800  0.452500  0.525300  1.0  0.0895
  H  H24  1  0.117100  0.409400  0.580500  1.0  0.1513
  H  H25  1  0.975100  0.374100  0.594600  1.0  0.1257
  H  H26  1  0.949300  0.412400  0.543100  1.0  0.0915
  H  H27  1  0.109600  0.467200  0.693400  1.0  0.1381
  H  H28  1  0.162300  0.473500  0.743800  1.0  0.1372
  H  H29  1  0.104000  0.461400  0.745600  1.0  0.1333
  H  H30  1  0.427200  0.559500  0.974700  1.0  0.089
  H  H31  1  0.328900  0.536600  0.919500  1.0  0.1512
  H  H32  1  0.279500  0.380500  0.905400  1.0  0.126
  H  H33  1  0.369300  0.406200  0.956900  1.0  0.0883
  H  H34  1  0.273800  0.416200  0.806600  1.0  0.1384
  H  H35  1  0.229700  0.418500  0.756200  1.0  0.1378
  H  H36  1  0.215800  0.358400  0.754400  1.0  0.135
  H  H37  1  0.025300  0.084800  0.952500  1.0  0.0899
  H  H38  1  0.080500  0.117100  0.909400  1.0  0.1509
  H  H39  1  0.094600  0.975100  0.874100  1.0  0.1244
  H  H40  1  0.043100  0.949300  0.912400  1.0  0.0911
  H  H41  1  0.193400  0.109600  0.967200  1.0  0.1352
  H  H42  1  0.243800  0.162300  0.973500  1.0  0.1364
  H  H43  1  0.245600  0.104000  0.961400  1.0  0.1339
  H  H44  1  0.474700  0.427200  0.059500  1.0  0.0909
  H  H45  1  0.419500  0.328900  0.036600  1.0  0.1496
  H  H46  1  0.405400  0.279500  0.880500  1.0  0.1255
  H  H47  1  0.456900  0.369300  0.906200  1.0  0.0898
  H  H48  1  0.306600  0.273800  0.916200  1.0  0.1398
  H  H49  1  0.256200  0.229700  0.918500  1.0  0.1388
  H  H50  1  0.254400  0.215800  0.858400  1.0  0.1348
  H  H51  1  0.632300  0.072800  0.547500  1.0  0.0882
  H  H52  1  0.707700  0.171100  0.590600  1.0  0.1499
  H  H53  1  0.601000  0.220500  0.625900  1.0  0.126
  H  H54  1  0.536900  0.130700  0.587600  1.0  0.0877
  H  H55  1  0.642400  0.226200  0.532800  1.0  0.1367
  H  H56  1  0.688800  0.270300  0.526500  1.0  0.1367
  H  H57  1  0.642600  0.284200  0.538600  1.0  0.132
  H  H58  1  0.867700  0.415200  0.440500  1.0  0.0895
  H  H59  1  0.792300  0.382900  0.463400  1.0  0.1499
  H  H60  1  0.899000  0.524900  0.619500  1.0  0.1252
  H  H61  1  0.963100  0.550700  0.593800  1.0  0.0919
  H  H62  1  0.857600  0.390400  0.583800  1.0  0.1365
  H  H63  1  0.811200  0.337700  0.581500  1.0  0.1355
  H  H64  1  0.857400  0.396000  0.641600  1.0  0.1352
  H  H65  1  0.940500  0.867700  0.915200  1.0  0.0892
  H  H66  1  0.963400  0.792300  0.882900  1.0  0.1499
  H  H67  1  0.119500  0.899000  0.024900  1.0  0.1262
  H  H68  1  0.093800  0.963100  0.050700  1.0  0.0916
  H  H69  1  0.083800  0.857600  0.890400  1.0  0.1378
  H  H70  1  0.081500  0.811200  0.837700  1.0  0.1363
  H  H71  1  0.141600  0.857400  0.896000  1.0  0.1324
  H  H72  1  0.047500  0.632300  0.572800  1.0  0.091
  H  H73  1  0.090600  0.707700  0.671100  1.0  0.1506
  H  H74  1  0.125900  0.601000  0.720500  1.0  0.1257
  H  H75  1  0.087600  0.536900  0.630700  1.0  0.0891
  H  H76  1  0.032800  0.642400  0.726200  1.0  0.1388
  H  H77  1  0.026500  0.688800  0.770300  1.0  0.1377
  H  H78  1  0.038600  0.642600  0.784200  1.0  0.1355
  H  H79  1  0.559500  0.474700  0.927200  1.0  0.0888
  H  H80  1  0.536600  0.419500  0.828900  1.0  0.15
  H  H81  1  0.380500  0.405400  0.779500  1.0  0.1233
  H  H82  1  0.406200  0.456900  0.869300  1.0  0.0891
  H  H83  1  0.416200  0.306600  0.773800  1.0  0.139
  H  H84  1  0.418500  0.256200  0.729700  1.0  0.134
  H  H85  1  0.358400  0.254400  0.715800  1.0  0.1333
  H  H86  1  0.452500  0.025300  0.584800  1.0  0.0911
  H  H87  1  0.409400  0.080500  0.617100  1.0  0.1496
  H  H88  1  0.374100  0.094600  0.475100  1.0  0.1255
  H  H89  1  0.412400  0.043100  0.449300  1.0  0.0906
  H  H90  1  0.467200  0.193400  0.609600  1.0  0.1402
  H  H91  1  0.473500  0.243800  0.662300  1.0  0.138
  H  H92  1  0.461400  0.245600  0.604000  1.0  0.1356
  H  H93  1  0.452500  0.427200  0.367700  1.0  0.0918
  H  H94  1  0.409400  0.328900  0.292300  1.0  0.1504
  H  H95  1  0.374100  0.279500  0.399000  1.0  0.1262
  H  H96  1  0.412400  0.369300  0.463100  1.0  0.0894
  H  H97  1  0.467200  0.273800  0.357600  1.0  0.1387
  H  H98  1  0.473500  0.229700  0.311200  1.0  0.1377
  H  H99  1  0.461400  0.215800  0.357400  1.0  0.1344
  H  H100  1  0.559500  0.084800  0.132300  1.0  0.0898
  H  H101  1  0.536600  0.117100  0.207700  1.0  0.1499
  H  H102  1  0.380500  0.975100  0.101000  1.0  0.1254
  H  H103  1  0.406200  0.949300  0.036900  1.0  0.0942
  H  H104  1  0.416200  0.109600  0.142400  1.0  0.1351
  H  H105  1  0.418500  0.162300  0.188800  1.0  0.1361
  H  H106  1  0.358400  0.104000  0.142600  1.0  0.1333
  H  H107  1  0.047500  0.415200  0.974700  1.0  0.0891
  H  H108  1  0.090600  0.382900  0.919500  1.0  0.1501
  H  H109  1  0.125900  0.524900  0.905400  1.0  0.1254
  H  H110  1  0.087600  0.550700  0.956900  1.0  0.09
  H  H111  1  0.032800  0.390400  0.806600  1.0  0.137
  H  H112  1  0.026500  0.337700  0.756200  1.0  0.1356
  H  H113  1  0.038600  0.396000  0.754400  1.0  0.1342
  H  H114  1  0.940500  0.072800  0.525300  1.0  0.0872
  H  H115  1  0.963400  0.171100  0.580500  1.0  0.1504
  H  H116  1  0.119500  0.220500  0.594600  1.0  0.1253
  H  H117  1  0.093800  0.130700  0.543100  1.0  0.0871
  H  H118  1  0.083800  0.226200  0.693400  1.0  0.1367
  H  H119  1  0.081500  0.270300  0.743800  1.0  0.1378
  H  H120  1  0.141600  0.284200  0.745600  1.0  0.1334
  H  H121  1  0.415200  0.474700  0.547500  1.0  0.0885
  H  H122  1  0.382900  0.419500  0.590600  1.0  0.1502
  H  H123  1  0.524900  0.405400  0.625900  1.0  0.1248
  H  H124  1  0.550700  0.456900  0.587600  1.0  0.0902
  H  H125  1  0.390400  0.306600  0.532800  1.0  0.1383
  H  H126  1  0.337700  0.256200  0.526500  1.0  0.1368
  H  H127  1  0.396000  0.254400  0.538600  1.0  0.1328
  H  H128  1  0.072800  0.025300  0.440500  1.0  0.092
  H  H129  1  0.171100  0.080500  0.463400  1.0  0.1501
  H  H130  1  0.220500  0.094600  0.619500  1.0  0.126
  H  H131  1  0.130700  0.043100  0.593800  1.0  0.0901
  H  H132  1  0.226200  0.193400  0.583800  1.0  0.1389
  H  H133  1  0.270300  0.243800  0.581500  1.0  0.1371
  H  H134  1  0.284200  0.245600  0.641600  1.0  0.135
  H  H135  1  0.427200  0.867700  0.952500  1.0  0.0899
  H  H136  1  0.328900  0.792300  0.909400  1.0  0.1503
  H  H137  1  0.279500  0.899000  0.874100  1.0  0.1266
  H  H138  1  0.369300  0.963100  0.912400  1.0  0.0887
  H  H139  1  0.273800  0.857600  0.967200  1.0  0.1381
  H  H140  1  0.229700  0.811200  0.973500  1.0  0.1366
  H  H141  1  0.215800  0.857400  0.961400  1.0  0.1319
  H  H142  1  0.084800  0.632300  0.059500  1.0  0.0906
  H  H143  1  0.117100  0.707700  0.036600  1.0  0.1499
  H  H144  1  0.975100  0.601000  0.880500  1.0  0.1258
  H  H145  1  0.949300  0.536900  0.906200  1.0  0.0912
  H  H146  1  0.109600  0.642400  0.916200  1.0  0.1401
  H  H147  1  0.162300  0.688800  0.918500  1.0  0.1359
  H  H148  1  0.104000  0.642600  0.858400  1.0  0.1355
  H  H149  1  0.632300  0.559500  0.584800  1.0  0.089
  H  H150  1  0.707700  0.536600  0.617100  1.0  0.1499
  H  H151  1  0.601000  0.380500  0.475100  1.0  0.1258
  H  H152  1  0.536900  0.406200  0.449300  1.0  0.0902
  H  H153  1  0.642400  0.416200  0.609600  1.0  0.1368
  H  H154  1  0.688800  0.418500  0.662300  1.0  0.138
  H  H155  1  0.642600  0.358400  0.604000  1.0  0.1355
  H  H156  1  0.867700  0.452500  0.927200  1.0  0.089
  H  H157  1  0.792300  0.409400  0.828900  1.0  0.1521
  H  H158  1  0.899000  0.374100  0.779500  1.0  0.1252
  H  H159  1  0.963100  0.412400  0.869300  1.0  0.0912
  H  H160  1  0.857600  0.467200  0.773800  1.0  0.1376
  H  H161  1  0.811200  0.473500  0.729700  1.0  0.1384
  H  H162  1  0.857400  0.461400  0.715800  1.0  0.1327
  H  H163  1  0.025300  0.940500  0.572800  1.0  0.0904
  H  H164  1  0.080500  0.963400  0.671100  1.0  0.1505
  H  H165  1  0.094600  0.119500  0.720500  1.0  0.1253
  H  H166  1  0.043100  0.093800  0.630700  1.0  0.0893
  H  H167  1  0.193400  0.083800  0.726200  1.0  0.1377
  H  H168  1  0.243800  0.081500  0.770300  1.0  0.1353
  H  H169  1  0.245600  0.141600  0.784200  1.0  0.1354
  H  H170  1  0.474700  0.047500  0.915200  1.0  0.0922
  H  H171  1  0.419500  0.090600  0.882900  1.0  0.151
  H  H172  1  0.405400  0.125900  0.024900  1.0  0.1266
  H  H173  1  0.456900  0.087600  0.050700  1.0  0.0903
  H  H174  1  0.306600  0.032800  0.890400  1.0  0.1393
  H  H175  1  0.256200  0.026500  0.837700  1.0  0.1367
  H  H176  1  0.254400  0.038600  0.896000  1.0  0.1338
  H  H177  1  0.927200  0.952500  0.867700  1.0  0.092
  H  H178  1  0.828900  0.909400  0.792300  1.0  0.151
  H  H179  1  0.779500  0.874100  0.899000  1.0  0.1265
  H  H180  1  0.869300  0.912400  0.963100  1.0  0.0905
  H  H181  1  0.773800  0.967200  0.857600  1.0  0.1396
  H  H182  1  0.729700  0.973500  0.811200  1.0  0.1377
  H  H183  1  0.715800  0.961400  0.857400  1.0  0.1332
  H  H184  1  0.584800  0.059500  0.632300  1.0  0.0909
  H  H185  1  0.617100  0.036600  0.707700  1.0  0.1501
  H  H186  1  0.475100  0.880500  0.601000  1.0  0.1255
  H  H187  1  0.449300  0.906200  0.536900  1.0  0.0919
  H  H188  1  0.609600  0.916200  0.642400  1.0  0.1381
  H  H189  1  0.662300  0.918500  0.688800  1.0  0.137
  H  H190  1  0.604000  0.858400  0.642600  1.0  0.1349
  H  H191  1  0.915200  0.547500  0.474700  1.0  0.089
  H  H192  1  0.882900  0.590600  0.419500  1.0  0.1522
  H  H193  1  0.024900  0.625900  0.405400  1.0  0.1256
  H  H194  1  0.050700  0.587600  0.456900  1.0  0.0907
  H  H195  1  0.890400  0.532800  0.306600  1.0  0.1383
  H  H196  1  0.837700  0.526500  0.256200  1.0  0.1381
  H  H197  1  0.896000  0.538600  0.254400  1.0  0.1333
  H  H198  1  0.572800  0.440500  0.025300  1.0  0.0882
  H  H199  1  0.671100  0.463400  0.080500  1.0  0.15
  H  H200  1  0.720500  0.619500  0.094600  1.0  0.1256
  H  H201  1  0.630700  0.593800  0.043100  1.0  0.0869
  H  H202  1  0.726200  0.583800  0.193400  1.0  0.1376
  H  H203  1  0.770300  0.581500  0.243800  1.0  0.1379
  H  H204  1  0.784200  0.641600  0.245600  1.0  0.1347
  H  H205  1  0.974700  0.915200  0.047500  1.0  0.0895
  H  H206  1  0.919500  0.882900  0.090600  1.0  0.1504
  H  H207  1  0.905400  0.024900  0.125900  1.0  0.1255
  H  H208  1  0.956900  0.050700  0.087600  1.0  0.091
  H  H209  1  0.806600  0.890400  0.032800  1.0  0.1352
  H  H210  1  0.756200  0.837700  0.026500  1.0  0.1338
  H  H211  1  0.754400  0.896000  0.038600  1.0  0.1329
  H  H212  1  0.525300  0.572800  0.940500  1.0  0.0921
  H  H213  1  0.580500  0.671100  0.963400  1.0  0.1504
  H  H214  1  0.594600  0.720500  0.119500  1.0  0.1258
  H  H215  1  0.543100  0.630700  0.093800  1.0  0.0897
  H  H216  1  0.693400  0.726200  0.083800  1.0  0.1389
  H  H217  1  0.743800  0.770300  0.081500  1.0  0.1374
  H  H218  1  0.745600  0.784200  0.141600  1.0  0.1346
  H  H219  1  0.367700  0.927200  0.452500  1.0  0.0878
  H  H220  1  0.292300  0.828900  0.409400  1.0  0.1505
  H  H221  1  0.399000  0.779500  0.374100  1.0  0.1252
  H  H222  1  0.463100  0.869300  0.412400  1.0  0.0872
  H  H223  1  0.357600  0.773800  0.467200  1.0  0.1371
  H  H224  1  0.311200  0.729700  0.473500  1.0  0.1381
  H  H225  1  0.357400  0.715800  0.461400  1.0  0.1333
  H  H226  1  0.132300  0.584800  0.559500  1.0  0.0902
  H  H227  1  0.207700  0.617100  0.536600  1.0  0.15
  H  H228  1  0.101000  0.475100  0.380500  1.0  0.1254
  H  H229  1  0.036900  0.449300  0.406200  1.0  0.0926
  H  H230  1  0.142400  0.609600  0.416200  1.0  0.1368
  H  H231  1  0.188800  0.662300  0.418500  1.0  0.1373
  H  H232  1  0.142600  0.604000  0.358400  1.0  0.1349
  H  H233  1  0.059500  0.132300  0.084800  1.0  0.0899
  H  H234  1  0.036600  0.207700  0.117100  1.0  0.1498
  H  H235  1  0.880500  0.101000  0.975100  1.0  0.1268
  H  H236  1  0.906200  0.036900  0.949300  1.0  0.0917
  H  H237  1  0.916200  0.142400  0.109600  1.0  0.1391
  H  H238  1  0.918500  0.188800  0.162300  1.0  0.1368
  H  H239  1  0.858400  0.142600  0.104000  1.0  0.1327
  H  H240  1  0.952500  0.367700  0.427200  1.0  0.09
  H  H241  1  0.909400  0.292300  0.328900  1.0  0.1501
  H  H242  1  0.874100  0.399000  0.279500  1.0  0.1258
  H  H243  1  0.912400  0.463100  0.369300  1.0  0.0883
  H  H244  1  0.967200  0.357600  0.273800  1.0  0.1399
  H  H245  1  0.973500  0.311200  0.229700  1.0  0.1353
  H  H246  1  0.961400  0.357400  0.215800  1.0  0.135
  H  H247  1  0.440500  0.525300  0.072800  1.0  0.089
  H  H248  1  0.463400  0.580500  0.171100  1.0  0.1503
  H  H249  1  0.619500  0.594600  0.220500  1.0  0.1251
  H  H250  1  0.593800  0.543100  0.130700  1.0  0.0903
  H  H251  1  0.583800  0.693400  0.226200  1.0  0.1384
  H  H252  1  0.581500  0.743800  0.270300  1.0  0.1362
  H  H253  1  0.641600  0.745600  0.284200  1.0  0.133
  H  H254  1  0.547500  0.974700  0.415200  1.0  0.092
  H  H255  1  0.590600  0.919500  0.382900  1.0  0.15
  H  H256  1  0.625900  0.905400  0.524900  1.0  0.1257
  H  H257  1  0.587600  0.956900  0.550700  1.0  0.0902
  H  H258  1  0.532800  0.806600  0.390400  1.0  0.1388
  H  H259  1  0.526500  0.756200  0.337700  1.0  0.1372
  H  H260  1  0.538600  0.754400  0.396000  1.0  0.1357
  H  H261  1  0.547500  0.572800  0.632300  1.0  0.0909
  H  H262  1  0.590600  0.671100  0.707700  1.0  0.1494
  H  H263  1  0.625900  0.720500  0.601000  1.0  0.1261
  H  H264  1  0.587600  0.630700  0.536900  1.0  0.0893
  H  H265  1  0.532800  0.726200  0.642400  1.0  0.1377
  H  H266  1  0.526500  0.770300  0.688800  1.0  0.139
  H  H267  1  0.538600  0.784200  0.642600  1.0  0.1342
  H  H268  1  0.440500  0.915200  0.867700  1.0  0.0889
  H  H269  1  0.463400  0.882900  0.792300  1.0  0.1499
  H  H270  1  0.619500  0.024900  0.899000  1.0  0.1245
  H  H271  1  0.593800  0.050700  0.963100  1.0  0.094
  H  H272  1  0.583800  0.890400  0.857600  1.0  0.1358
  H  H273  1  0.581500  0.837700  0.811200  1.0  0.1348
  H  H274  1  0.641600  0.896000  0.857400  1.0  0.1345
  H  H275  1  0.952500  0.584800  0.025300  1.0  0.0905
  H  H276  1  0.909400  0.617100  0.080500  1.0  0.1509
  H  H277  1  0.874100  0.475100  0.094600  1.0  0.1255
  H  H278  1  0.912400  0.449300  0.043100  1.0  0.0894
  H  H279  1  0.967200  0.609600  0.193400  1.0  0.1363
  H  H280  1  0.973500  0.662300  0.243800  1.0  0.1373
  H  H281  1  0.961400  0.604000  0.245600  1.0  0.1352
  H  H282  1  0.059500  0.927200  0.474700  1.0  0.0877
  H  H283  1  0.036600  0.828900  0.419500  1.0  0.15
  H  H284  1  0.880500  0.779500  0.405400  1.0  0.1256
  H  H285  1  0.906200  0.869300  0.456900  1.0  0.0878
  H  H286  1  0.916200  0.773800  0.306600  1.0  0.1381
  H  H287  1  0.918500  0.729700  0.256200  1.0  0.1374
  H  H288  1  0.858400  0.715800  0.254400  1.0  0.1324
  H  H289  1  0.584800  0.525300  0.452500  1.0  0.0884
  H  H290  1  0.617100  0.580500  0.409400  1.0  0.1501
  H  H291  1  0.475100  0.594600  0.374100  1.0  0.1234
  H  H292  1  0.449300  0.543100  0.412400  1.0  0.0889
  H  H293  1  0.609600  0.693400  0.467200  1.0  0.1387
  H  H294  1  0.662300  0.743800  0.473500  1.0  0.1349
  H  H295  1  0.604000  0.745600  0.461400  1.0  0.1327
  H  H296  1  0.927200  0.974700  0.559500  1.0  0.0907
  H  H297  1  0.828900  0.919500  0.536600  1.0  0.1496
  H  H298  1  0.779500  0.905400  0.380500  1.0  0.1255
  H  H299  1  0.869300  0.956900  0.406200  1.0  0.0906
  H  H300  1  0.773800  0.806600  0.416200  1.0  0.1405
  H  H301  1  0.729700  0.756200  0.418500  1.0  0.1378
  H  H302  1  0.715800  0.754400  0.358400  1.0  0.1356
  H  H303  1  0.572800  0.132300  0.047500  1.0  0.0898
  H  H304  1  0.671100  0.207700  0.090600  1.0  0.1509
  H  H305  1  0.720500  0.101000  0.125900  1.0  0.1267
  H  H306  1  0.630700  0.036900  0.087600  1.0  0.0896
  H  H307  1  0.726200  0.142400  0.032800  1.0  0.1373
  H  H308  1  0.770300  0.188800  0.026500  1.0  0.1365
  H  H309  1  0.784200  0.142600  0.038600  1.0  0.1325
  H  H310  1  0.915200  0.367700  0.940500  1.0  0.0904
  H  H311  1  0.882900  0.292300  0.963400  1.0  0.1495
  H  H312  1  0.024900  0.399000  0.119500  1.0  0.1255
  H  H313  1  0.050700  0.463100  0.093800  1.0  0.0913
  H  H314  1  0.890400  0.357600  0.083800  1.0  0.139
  H  H315  1  0.837700  0.311200  0.081500  1.0  0.1377
  H  H316  1  0.896000  0.357400  0.141600  1.0  0.1343
  H  H317  1  0.367700  0.440500  0.415200  1.0  0.0882
  H  H318  1  0.292300  0.463400  0.382900  1.0  0.1492
  H  H319  1  0.399000  0.619500  0.524900  1.0  0.126
  H  H320  1  0.463100  0.593800  0.550700  1.0  0.0909
  H  H321  1  0.357600  0.583800  0.390400  1.0  0.1379
  H  H322  1  0.311200  0.581500  0.337700  1.0  0.1372
  H  H323  1  0.357400  0.641600  0.396000  1.0  0.135
  H  H324  1  0.132300  0.547500  0.072800  1.0  0.0896
  H  H325  1  0.207700  0.590600  0.171100  1.0  0.1513
  H  H326  1  0.101000  0.625900  0.220500  1.0  0.1257
  H  H327  1  0.036900  0.587600  0.130700  1.0  0.0913
  H  H328  1  0.142400  0.532800  0.226200  1.0  0.1378
  H  H329  1  0.188800  0.526500  0.270300  1.0  0.1366
  H  H330  1  0.142600  0.538600  0.284200  1.0  0.1342
  H  H331  1  0.974700  0.059500  0.427200  1.0  0.0905
  H  H332  1  0.919500  0.036600  0.328900  1.0  0.1519
  H  H333  1  0.905400  0.880500  0.279500  1.0  0.1249
  H  H334  1  0.956900  0.906200  0.369300  1.0  0.0887
  H  H335  1  0.806600  0.916200  0.273800  1.0  0.1378
  H  H336  1  0.756200  0.918500  0.229700  1.0  0.1392
  H  H337  1  0.754400  0.858400  0.215800  1.0  0.1353
  H  H338  1  0.525300  0.952500  0.084800  1.0  0.0903
  H  H339  1  0.580500  0.909400  0.117100  1.0  0.1505
  H  H340  1  0.594600  0.874100  0.975100  1.0  0.1264
  H  H341  1  0.543100  0.912400  0.949300  1.0  0.0909
  H  H342  1  0.693400  0.967200  0.109600  1.0  0.1397
  H  H343  1  0.743800  0.973500  0.162300  1.0  0.1378
  H  H344  1  0.745600  0.961400  0.104000  1.0  0.1327
  C  C345  1  0.103120  0.062410  0.125050  1.0  0.0949
  C  C346  1  0.163100  0.090010  0.172310  1.0  -0.2149
  C  C347  1  0.206930  0.114860  0.162110  1.0  0.1715
  C  C348  1  0.191480  0.110580  0.109700  1.0  -0.2089
  C  C349  1  0.137850  0.085940  0.071170  1.0  0.1962
  C  C350  1  0.268270  0.143540  0.208050  1.0  -0.0255
  C  C351  1  0.298900  0.112660  0.209160  1.0  0.0488
  C  C352  1  0.266910  0.046490  0.166800  1.0  -0.4063
  C  C353  1  0.437360  0.978070  0.374950  1.0  0.0944
  C  C354  1  0.417700  0.990790  0.327690  1.0  -0.2137
  C  C355  1  0.452750  0.044820  0.337890  1.0  0.1705
  C  C356  1  0.500880  0.081780  0.390300  1.0  -0.2064
  C  C357  1  0.514770  0.066680  0.428830  1.0  0.1992
  C  C358  1  0.435490  0.060220  0.291950  1.0  -0.0266
  C  C359  1  0.403500  0.089740  0.290840  1.0  0.0489
  C  C360  1  0.379690  0.100110  0.333200  1.0  -0.4054
  C  C361  1  0.062640  0.437590  0.540710  1.0  0.0931
  C  C362  1  0.082300  0.409990  0.573090  1.0  -0.2217
  C  C363  1  0.047250  0.385140  0.592070  1.0  0.1715
  C  C364  1  0.999120  0.389420  0.580900  1.0  -0.204
  C  C365  1  0.985230  0.414060  0.551910  1.0  0.1964
  C  C366  1  0.064510  0.356460  0.624730  1.0  -0.0285
  C  C367  1  0.096500  0.387340  0.686240  1.0  0.0492
  C  C368  1  0.120310  0.453510  0.720420  1.0  -0.4067
  C  C369  1  0.396880  0.521930  0.959290  1.0  0.0954
  C  C370  1  0.336900  0.509210  0.926910  1.0  -0.2202
  C  C371  1  0.293070  0.455180  0.907930  1.0  0.1707
  C  C372  1  0.308520  0.418220  0.919100  1.0  -0.2108
  C  C373  1  0.362150  0.433320  0.948090  1.0  0.1958
  C  C374  1  0.231730  0.439780  0.875270  1.0  -0.0267
  C  C375  1  0.201100  0.410260  0.813760  1.0  0.0477
  C  C376  1  0.233090  0.399890  0.779580  1.0  -0.4043
  C  C377  1  0.040710  0.062640  0.937590  1.0  0.0925
  C  C378  1  0.073090  0.082300  0.909990  1.0  -0.2226
  C  C379  1  0.092070  0.047250  0.885140  1.0  0.1711
  C  C380  1  0.080900  0.999120  0.889420  1.0  -0.2067
  C  C381  1  0.051910  0.985230  0.914060  1.0  0.2001
  C  C382  1  0.124730  0.064510  0.856460  1.0  -0.0255
  C  C383  1  0.186240  0.096500  0.887340  1.0  0.0471
  C  C384  1  0.220420  0.120310  0.953510  1.0  -0.4068
  C  C385  1  0.459290  0.396880  0.021930  1.0  0.0968
  C  C386  1  0.426910  0.336900  0.009210  1.0  -0.2145
  C  C387  1  0.407930  0.293070  0.955180  1.0  0.169
  C  C388  1  0.419100  0.308520  0.918220  1.0  -0.2053
  C  C389  1  0.448090  0.362150  0.933320  1.0  0.1976
  C  C390  1  0.375270  0.231730  0.939780  1.0  -0.0267
  C  C391  1  0.313760  0.201100  0.910260  1.0  0.0494
  C  C392  1  0.279580  0.233090  0.899890  1.0  -0.4046
  C  C393  1  0.625050  0.103120  0.562410  1.0  0.0931
  C  C394  1  0.672310  0.163100  0.590010  1.0  -0.22
  C  C395  1  0.662110  0.206930  0.614860  1.0  0.169
  C  C396  1  0.609700  0.191480  0.610580  1.0  -0.2093
  C  C397  1  0.571170  0.137850  0.585940  1.0  0.1943
  C  C398  1  0.708050  0.268270  0.643540  1.0  -0.0252
  C  C399  1  0.709160  0.298900  0.612660  1.0  0.0502
  C  C400  1  0.666800  0.266910  0.546490  1.0  -0.4064
  C  C401  1  0.874950  0.437360  0.478070  1.0  0.0945
  C  C402  1  0.827690  0.417700  0.490790  1.0  -0.2193
  C  C403  1  0.837890  0.452750  0.544820  1.0  0.1703
  C  C404  1  0.890300  0.500880  0.581780  1.0  -0.2058
  C  C405  1  0.928830  0.514770  0.566680  1.0  0.1958
  C  C406  1  0.791950  0.435490  0.560220  1.0  -0.0285
  C  C407  1  0.790840  0.403500  0.589740  1.0  0.0493
  C  C408  1  0.833200  0.379690  0.600110  1.0  -0.4053
  C  C409  1  0.978070  0.874950  0.937360  1.0  0.0913
  C  C410  1  0.990790  0.827690  0.917700  1.0  -0.218
  C  C411  1  0.044820  0.837890  0.952750  1.0  0.171
  C  C412  1  0.081780  0.890300  0.000880  1.0  -0.2082
  C  C413  1  0.066680  0.928830  0.014770  1.0  0.1953
  C  C414  1  0.060220  0.791950  0.935490  1.0  -0.0245
  C  C415  1  0.089740  0.790840  0.903500  1.0  0.0486
  C  C416  1  0.100110  0.833200  0.879690  1.0  -0.4038
  C  C417  1  0.062410  0.625050  0.603120  1.0  0.0943
  C  C418  1  0.090010  0.672310  0.663100  1.0  -0.2216
  C  C419  1  0.114860  0.662110  0.706930  1.0  0.1706
  C  C420  1  0.110580  0.609700  0.691480  1.0  -0.201
  C  C421  1  0.085940  0.571170  0.637850  1.0  0.1982
  C  C422  1  0.143540  0.708050  0.768270  1.0  -0.028
  C  C423  1  0.112660  0.709160  0.798900  1.0  0.0491
  C  C424  1  0.046490  0.666800  0.766910  1.0  -0.4064
  C  C425  1  0.521930  0.459290  0.896880  1.0  0.0939
  C  C426  1  0.509210  0.426910  0.836900  1.0  -0.2173
  C  C427  1  0.455180  0.407930  0.793070  1.0  0.1725
  C  C428  1  0.418220  0.419100  0.808520  1.0  -0.2062
  C  C429  1  0.433320  0.448090  0.862150  1.0  0.1995
  C  C430  1  0.439780  0.375270  0.731730  1.0  -0.0255
  C  C431  1  0.410260  0.313760  0.701100  1.0  0.0484
  C  C432  1  0.399890  0.279580  0.733090  1.0  -0.405
  C  C433  1  0.437590  0.040710  0.562640  1.0  0.0956
  C  C434  1  0.409990  0.073090  0.582300  1.0  -0.2164
  C  C435  1  0.385140  0.092070  0.547250  1.0  0.1697
  C  C436  1  0.389420  0.080900  0.499120  1.0  -0.2077
  C  C437  1  0.414060  0.051910  0.485230  1.0  0.1986
  C  C438  1  0.356460  0.124730  0.564510  1.0  -0.0273
  C  C439  1  0.387340  0.186240  0.596500  1.0  0.047
  C  C440  1  0.453510  0.220420  0.620310  1.0  -0.4043
  C  C441  1  0.437590  0.396880  0.374950  1.0  0.0981
  C  C442  1  0.409990  0.336900  0.327690  1.0  -0.2106
  C  C443  1  0.385140  0.293070  0.337890  1.0  0.1691
  C  C444  1  0.389420  0.308520  0.390300  1.0  -0.2025
  C  C445  1  0.414060  0.362150  0.428830  1.0  0.1944
  C  C446  1  0.356460  0.231730  0.291950  1.0  -0.0277
  C  C447  1  0.387340  0.201100  0.290840  1.0  0.0469
  C  C448  1  0.453510  0.233090  0.333200  1.0  -0.4052
  C  C449  1  0.521930  0.062640  0.125050  1.0  0.0916
  C  C450  1  0.509210  0.082300  0.172310  1.0  -0.2159
  C  C451  1  0.455180  0.047250  0.162110  1.0  0.1712
  C  C452  1  0.418220  0.999120  0.109700  1.0  -0.2096
  C  C453  1  0.433320  0.985230  0.071170  1.0  0.1999
  C  C454  1  0.439780  0.064510  0.208050  1.0  -0.0244
  C  C455  1  0.410260  0.096500  0.209160  1.0  0.0468
  C  C456  1  0.399890  0.120310  0.166800  1.0  -0.4075
  C  C457  1  0.062410  0.437360  0.959290  1.0  0.0959
  C  C458  1  0.090010  0.417700  0.926910  1.0  -0.2213
  C  C459  1  0.114860  0.452750  0.907930  1.0  0.1696
  C  C460  1  0.110580  0.500880  0.919100  1.0  -0.2057
  C  C461  1  0.085940  0.514770  0.948090  1.0  0.1985
  C  C462  1  0.143540  0.435490  0.875270  1.0  -0.0266
  C  C463  1  0.112660  0.403500  0.813760  1.0  0.0498
  C  C464  1  0.046490  0.379690  0.779580  1.0  -0.4053
  C  C465  1  0.978070  0.103120  0.540710  1.0  0.0918
  C  C466  1  0.990790  0.163100  0.573090  1.0  -0.2194
  C  C467  1  0.044820  0.206930  0.592070  1.0  0.1695
  C  C468  1  0.081780  0.191480  0.580900  1.0  -0.2073
  C  C469  1  0.066680  0.137850  0.551910  1.0  0.1944
  C  C470  1  0.060220  0.268270  0.624730  1.0  -0.0282
  C  C471  1  0.089740  0.298900  0.686240  1.0  0.0496
  C  C472  1  0.100110  0.266910  0.720420  1.0  -0.407
  C  C473  1  0.437360  0.459290  0.562410  1.0  0.0925
  C  C474  1  0.417700  0.426910  0.590010  1.0  -0.2199
  C  C475  1  0.452750  0.407930  0.614860  1.0  0.1727
  C  C476  1  0.500880  0.419100  0.610580  1.0  -0.2067
  C  C477  1  0.514770  0.448090  0.585940  1.0  0.1983
  C  C478  1  0.435490  0.375270  0.643540  1.0  -0.0258
  C  C479  1  0.403500  0.313760  0.612660  1.0  0.0482
  C  C480  1  0.379690  0.279580  0.546490  1.0  -0.4057
  C  C481  1  0.103120  0.040710  0.478070  1.0  0.097
  C  C482  1  0.163100  0.073090  0.490790  1.0  -0.2119
  C  C483  1  0.206930  0.092070  0.544820  1.0  0.1698
  C  C484  1  0.191480  0.080900  0.581780  1.0  -0.2043
  C  C485  1  0.137850  0.051910  0.566680  1.0  0.197
  C  C486  1  0.268270  0.124730  0.560220  1.0  -0.0287
  C  C487  1  0.298900  0.186240  0.589740  1.0  0.0466
  C  C488  1  0.266910  0.220420  0.600110  1.0  -0.4052
  C  C489  1  0.396880  0.874950  0.937590  1.0  0.091
  C  C490  1  0.336900  0.827690  0.909990  1.0  -0.2203
  C  C491  1  0.293070  0.837890  0.885140  1.0  0.1711
  C  C492  1  0.308520  0.890300  0.889420  1.0  -0.21
  C  C493  1  0.362150  0.928830  0.914060  1.0  0.1951
  C  C494  1  0.231730  0.791950  0.856460  1.0  -0.0256
  C  C495  1  0.201100  0.790840  0.887340  1.0  0.0492
  C  C496  1  0.233090  0.833200  0.953510  1.0  -0.4044
  C  C497  1  0.062640  0.625050  0.021930  1.0  0.0964
  C  C498  1  0.082300  0.672310  0.009210  1.0  -0.2176
  C  C499  1  0.047250  0.662110  0.955180  1.0  0.171
  C  C500  1  0.999120  0.609700  0.918220  1.0  -0.2033
  C  C501  1  0.985230  0.571170  0.933320  1.0  0.1975
  C  C502  1  0.064510  0.708050  0.939780  1.0  -0.028
  C  C503  1  0.096500  0.709160  0.910260  1.0  0.0494
  C  C504  1  0.120310  0.666800  0.899890  1.0  -0.4045
  C  C505  1  0.625050  0.521930  0.562640  1.0  0.094
  C  C506  1  0.672310  0.509210  0.582300  1.0  -0.2151
  C  C507  1  0.662110  0.455180  0.547250  1.0  0.17
  C  C508  1  0.609700  0.418220  0.499120  1.0  -0.2105
  C  C509  1  0.571170  0.433320  0.485230  1.0  0.1969
  C  C510  1  0.708050  0.439780  0.564510  1.0  -0.0283
  C  C511  1  0.709160  0.410260  0.596500  1.0  0.0495
  C  C512  1  0.666800  0.399890  0.620310  1.0  -0.4046
  C  C513  1  0.874950  0.437590  0.896880  1.0  0.0944
  C  C514  1  0.827690  0.409990  0.836900  1.0  -0.2221
  C  C515  1  0.837890  0.385140  0.793070  1.0  0.172
  C  C516  1  0.890300  0.389420  0.808520  1.0  -0.2028
  C  C517  1  0.928830  0.414060  0.862150  1.0  0.1963
  C  C518  1  0.791950  0.356460  0.731730  1.0  -0.0273
  C  C519  1  0.790840  0.387340  0.701100  1.0  0.0497
  C  C520  1  0.833200  0.453510  0.733090  1.0  -0.4059
  C  C521  1  0.040710  0.978070  0.603120  1.0  0.0952
  C  C522  1  0.073090  0.990790  0.663100  1.0  -0.219
  C  C523  1  0.092070  0.044820  0.706930  1.0  0.1715
  C  C524  1  0.080900  0.081780  0.691480  1.0  -0.2101
  C  C525  1  0.051910  0.066680  0.637850  1.0  0.1992
  C  C526  1  0.124730  0.060220  0.768270  1.0  -0.0262
  C  C527  1  0.186240  0.089740  0.798900  1.0  0.0469
  C  C528  1  0.220420  0.100110  0.766910  1.0  -0.4068
  C  C529  1  0.459290  0.062410  0.937360  1.0  0.0974
  C  C530  1  0.426910  0.090010  0.917700  1.0  -0.2131
  C  C531  1  0.407930  0.114860  0.952750  1.0  0.1725
  C  C532  1  0.419100  0.110580  0.000880  1.0  -0.2098
  C  C533  1  0.448090  0.085940  0.014770  1.0  0.1944
  C  C534  1  0.375270  0.143540  0.935490  1.0  -0.0263
  C  C535  1  0.313760  0.112660  0.903500  1.0  0.0481
  C  C536  1  0.279580  0.046490  0.879690  1.0  -0.4067
  C  C537  1  0.896880  0.937590  0.874950  1.0  0.0962
  C  C538  1  0.836900  0.909990  0.827690  1.0  -0.2127
  C  C539  1  0.793070  0.885140  0.837890  1.0  0.1717
  C  C540  1  0.808520  0.889420  0.890300  1.0  -0.2071
  C  C541  1  0.862150  0.914060  0.928830  1.0  0.1942
  C  C542  1  0.731730  0.856460  0.791950  1.0  -0.0265
  C  C543  1  0.701100  0.887340  0.790840  1.0  0.0473
  C  C544  1  0.733090  0.953510  0.833200  1.0  -0.4067
  C  C545  1  0.562640  0.021930  0.625050  1.0  0.0933
  C  C546  1  0.582300  0.009210  0.672310  1.0  -0.2142
  C  C547  1  0.547250  0.955180  0.662110  1.0  0.1723
  C  C548  1  0.499120  0.918220  0.609700  1.0  -0.2107
  C  C549  1  0.485230  0.933320  0.571170  1.0  0.1991
  C  C550  1  0.564510  0.939780  0.708050  1.0  -0.0264
  C  C551  1  0.596500  0.910260  0.709160  1.0  0.0463
  C  C552  1  0.620310  0.899890  0.666800  1.0  -0.4059
  C  C553  1  0.937360  0.562410  0.459290  1.0  0.0947
  C  C554  1  0.917700  0.590010  0.426910  1.0  -0.2216
  C  C555  1  0.952750  0.614860  0.407930  1.0  0.1728
  C  C556  1  0.000880  0.610580  0.419100  1.0  -0.2049
  C  C557  1  0.014770  0.585940  0.448090  1.0  0.1966
  C  C558  1  0.935490  0.643540  0.375270  1.0  -0.0272
  C  C559  1  0.903500  0.612660  0.313760  1.0  0.0501
  C  C560  1  0.879690  0.546490  0.279580  1.0  -0.406
  C  C561  1  0.603120  0.478070  0.040710  1.0  0.095
  C  C562  1  0.663100  0.490790  0.073090  1.0  -0.219
  C  C563  1  0.706930  0.544820  0.092070  1.0  0.1697
  C  C564  1  0.691480  0.581780  0.080900  1.0  -0.2097
  C  C565  1  0.637850  0.566680  0.051910  1.0  0.1961
  C  C566  1  0.768270  0.560220  0.124730  1.0  -0.028
  C  C567  1  0.798900  0.589740  0.186240  1.0  0.0499
  C  C568  1  0.766910  0.600110  0.220420  1.0  -0.4045
  C  C569  1  0.959290  0.937360  0.062410  1.0  0.0933
  C  C570  1  0.926910  0.917700  0.090010  1.0  -0.2201
  C  C571  1  0.907930  0.952750  0.114860  1.0  0.1712
  C  C572  1  0.919100  0.000880  0.110580  1.0  -0.2112
  C  C573  1  0.948090  0.014770  0.085940  1.0  0.1996
  C  C574  1  0.875270  0.935490  0.143540  1.0  -0.0248
  C  C575  1  0.813760  0.903500  0.112660  1.0  0.0473
  C  C576  1  0.779580  0.879690  0.046490  1.0  -0.4082
  C  C577  1  0.540710  0.603120  0.978070  1.0  0.098
  C  C578  1  0.573090  0.663100  0.990790  1.0  -0.2109
  C  C579  1  0.592070  0.706930  0.044820  1.0  0.1695
  C  C580  1  0.580900  0.691480  0.081780  1.0  -0.2038
  C  C581  1  0.551910  0.637850  0.066680  1.0  0.195
  C  C582  1  0.624730  0.768270  0.060220  1.0  -0.0277
  C  C583  1  0.686240  0.798900  0.089740  1.0  0.048
  C  C584  1  0.720420  0.766910  0.100110  1.0  -0.4055
  C  C585  1  0.374950  0.896880  0.437590  1.0  0.0912
  C  C586  1  0.327690  0.836900  0.409990  1.0  -0.2194
  C  C587  1  0.337890  0.793070  0.385140  1.0  0.1683
  C  C588  1  0.390300  0.808520  0.389420  1.0  -0.208
  C  C589  1  0.428830  0.862150  0.414060  1.0  0.1941
  C  C590  1  0.291950  0.731730  0.356460  1.0  -0.0277
  C  C591  1  0.290840  0.701100  0.387340  1.0  0.0487
  C  C592  1  0.333200  0.733090  0.453510  1.0  -0.4064
  C  C593  1  0.125050  0.562640  0.521930  1.0  0.0949
  C  C594  1  0.172310  0.582300  0.509210  1.0  -0.217
  C  C595  1  0.162110  0.547250  0.455180  1.0  0.1696
  C  C596  1  0.109700  0.499120  0.418220  1.0  -0.2037
  C  C597  1  0.071170  0.485230  0.433320  1.0  0.1985
  C  C598  1  0.208050  0.564510  0.439780  1.0  -0.0262
  C  C599  1  0.209160  0.596500  0.410260  1.0  0.0497
  C  C600  1  0.166800  0.620310  0.399890  1.0  -0.4048
  C  C601  1  0.021930  0.125050  0.062640  1.0  0.091
  C  C602  1  0.009210  0.172310  0.082300  1.0  -0.2182
  C  C603  1  0.955180  0.162110  0.047250  1.0  0.1722
  C  C604  1  0.918220  0.109700  0.999120  1.0  -0.209
  C  C605  1  0.933320  0.071170  0.985230  1.0  0.1955
  C  C606  1  0.939780  0.208050  0.064510  1.0  -0.0259
  C  C607  1  0.910260  0.209160  0.096500  1.0  0.0493
  C  C608  1  0.899890  0.166800  0.120310  1.0  -0.4051
  C  C609  1  0.937590  0.374950  0.396880  1.0  0.0965
  C  C610  1  0.909990  0.327690  0.336900  1.0  -0.2216
  C  C611  1  0.885140  0.337890  0.293070  1.0  0.1704
  C  C612  1  0.889420  0.390300  0.308520  1.0  -0.2037
  C  C613  1  0.914060  0.428830  0.362150  1.0  0.1976
  C  C614  1  0.856460  0.291950  0.231730  1.0  -0.0275
  C  C615  1  0.887340  0.290840  0.201100  1.0  0.0493
  C  C616  1  0.953510  0.333200  0.233090  1.0  -0.4046
  C  C617  1  0.478070  0.540710  0.103120  1.0  0.0934
  C  C618  1  0.490790  0.573090  0.163100  1.0  -0.2201
  C  C619  1  0.544820  0.592070  0.206930  1.0  0.172
  C  C620  1  0.581780  0.580900  0.191480  1.0  -0.2066
  C  C621  1  0.566680  0.551910  0.137850  1.0  0.1982
  C  C622  1  0.560220  0.624730  0.268270  1.0  -0.026
  C  C623  1  0.589740  0.686240  0.298900  1.0  0.0478
  C  C624  1  0.600110  0.720420  0.266910  1.0  -0.4058
  C  C625  1  0.562410  0.959290  0.437360  1.0  0.0966
  C  C626  1  0.590010  0.926910  0.417700  1.0  -0.2122
  C  C627  1  0.614860  0.907930  0.452750  1.0  0.1697
  C  C628  1  0.610580  0.919100  0.500880  1.0  -0.2046
  C  C629  1  0.585940  0.948090  0.514770  1.0  0.1968
  C  C630  1  0.643540  0.875270  0.435490  1.0  -0.0278
  C  C631  1  0.612660  0.813760  0.403500  1.0  0.0472
  C  C632  1  0.546490  0.779580  0.379690  1.0  -0.4051
  C  C633  1  0.562410  0.603120  0.625050  1.0  0.097
  C  C634  1  0.590010  0.663100  0.672310  1.0  -0.2142
  C  C635  1  0.614860  0.706930  0.662110  1.0  0.1692
  C  C636  1  0.610580  0.691480  0.609700  1.0  -0.2063
  C  C637  1  0.585940  0.637850  0.571170  1.0  0.197
  C  C638  1  0.643540  0.768270  0.708050  1.0  -0.0266
  C  C639  1  0.612660  0.798900  0.709160  1.0  0.0507
  C  C640  1  0.546490  0.766910  0.666800  1.0  -0.4052
  C  C641  1  0.478070  0.937360  0.874950  1.0  0.0924
  C  C642  1  0.490790  0.917700  0.827690  1.0  -0.2201
  C  C643  1  0.544820  0.952750  0.837890  1.0  0.1708
  C  C644  1  0.581780  0.000880  0.890300  1.0  -0.2073
  C  C645  1  0.566680  0.014770  0.928830  1.0  0.2001
  C  C646  1  0.560220  0.935490  0.791950  1.0  -0.0255
  C  C647  1  0.589740  0.903500  0.790840  1.0  0.0475
  C  C648  1  0.600110  0.879690  0.833200  1.0  -0.4073
  C  C649  1  0.937590  0.562640  0.040710  1.0  0.0934
  C  C650  1  0.909990  0.582300  0.073090  1.0  -0.2223
  C  C651  1  0.885140  0.547250  0.092070  1.0  0.1701
  C  C652  1  0.889420  0.499120  0.080900  1.0  -0.2041
  C  C653  1  0.914060  0.485230  0.051910  1.0  0.1962
  C  C654  1  0.856460  0.564510  0.124730  1.0  -0.0285
  C  C655  1  0.887340  0.596500  0.186240  1.0  0.0492
  C  C656  1  0.953510  0.620310  0.220420  1.0  -0.4046
  C  C657  1  0.021930  0.896880  0.459290  1.0  0.0931
  C  C658  1  0.009210  0.836900  0.426910  1.0  -0.2201
  C  C659  1  0.955180  0.793070  0.407930  1.0  0.169
  C  C660  1  0.918220  0.808520  0.419100  1.0  -0.2082
  C  C661  1  0.933320  0.862150  0.448090  1.0  0.1938
  C  C662  1  0.939780  0.731730  0.375270  1.0  -0.0252
  C  C663  1  0.910260  0.701100  0.313760  1.0  0.0489
  C  C664  1  0.899890  0.733090  0.279580  1.0  -0.4059
  C  C665  1  0.562640  0.540710  0.437590  1.0  0.0936
  C  C666  1  0.582300  0.573090  0.409990  1.0  -0.2176
  C  C667  1  0.547250  0.592070  0.385140  1.0  0.1723
  C  C668  1  0.499120  0.580900  0.389420  1.0  -0.2061
  C  C669  1  0.485230  0.551910  0.414060  1.0  0.1997
  C  C670  1  0.564510  0.624730  0.356460  1.0  -0.0263
  C  C671  1  0.596500  0.686240  0.387340  1.0  0.0478
  C  C672  1  0.620310  0.720420  0.453510  1.0  -0.4042
  C  C673  1  0.896880  0.959290  0.521930  1.0  0.0947
  C  C674  1  0.836900  0.926910  0.509210  1.0  -0.2167
  C  C675  1  0.793070  0.907930  0.455180  1.0  0.1705
  C  C676  1  0.808520  0.919100  0.418220  1.0  -0.2088
  C  C677  1  0.862150  0.948090  0.433320  1.0  0.1985
  C  C678  1  0.731730  0.875270  0.439780  1.0  -0.0269
  C  C679  1  0.701100  0.813760  0.410260  1.0  0.0476
  C  C680  1  0.733090  0.779580  0.399890  1.0  -0.4041
  C  C681  1  0.603120  0.125050  0.062410  1.0  0.0898
  C  C682  1  0.663100  0.172310  0.090010  1.0  -0.2225
  C  C683  1  0.706930  0.162110  0.114860  1.0  0.1712
  C  C684  1  0.691480  0.109700  0.110580  1.0  -0.207
  C  C685  1  0.637850  0.071170  0.085940  1.0  0.1958
  C  C686  1  0.768270  0.208050  0.143540  1.0  -0.0252
  C  C687  1  0.798900  0.209160  0.112660  1.0  0.0489
  C  C688  1  0.766910  0.166800  0.046490  1.0  -0.4039
  C  C689  1  0.937360  0.374950  0.978070  1.0  0.0956
  C  C690  1  0.917700  0.327690  0.990790  1.0  -0.2158
  C  C691  1  0.952750  0.337890  0.044820  1.0  0.1702
  C  C692  1  0.000880  0.390300  0.081780  1.0  -0.2022
  C  C693  1  0.014770  0.428830  0.066680  1.0  0.1979
  C  C694  1  0.935490  0.291950  0.060220  1.0  -0.0276
  C  C695  1  0.903500  0.290840  0.089740  1.0  0.0488
  C  C696  1  0.879690  0.333200  0.100110  1.0  -0.4061
  C  C697  1  0.374950  0.478070  0.437360  1.0  0.0954
  C  C698  1  0.327690  0.490790  0.417700  1.0  -0.2161
  C  C699  1  0.337890  0.544820  0.452750  1.0  0.1695
  C  C700  1  0.390300  0.581780  0.500880  1.0  -0.2111
  C  C701  1  0.428830  0.566680  0.514770  1.0  0.1954
  C  C702  1  0.291950  0.560220  0.435490  1.0  -0.0257
  C  C703  1  0.290840  0.589740  0.403500  1.0  0.0478
  C  C704  1  0.333200  0.600110  0.379690  1.0  -0.4052
  C  C705  1  0.125050  0.562410  0.103120  1.0  0.0936
  C  C706  1  0.172310  0.590010  0.163100  1.0  -0.2213
  C  C707  1  0.162110  0.614860  0.206930  1.0  0.1723
  C  C708  1  0.109700  0.610580  0.191480  1.0  -0.2074
  C  C709  1  0.071170  0.585940  0.137850  1.0  0.1961
  C  C710  1  0.208050  0.643540  0.268270  1.0  -0.0278
  C  C711  1  0.209160  0.612660  0.298900  1.0  0.0498
  C  C712  1  0.166800  0.546490  0.266910  1.0  -0.4065
  C  C713  1  0.959290  0.021930  0.396880  1.0  0.0957
  C  C714  1  0.926910  0.009210  0.336900  1.0  -0.2193
  C  C715  1  0.907930  0.955180  0.293070  1.0  0.1714
  C  C716  1  0.919100  0.918220  0.308520  1.0  -0.2071
  C  C717  1  0.948090  0.933320  0.362150  1.0  0.2005
  C  C718  1  0.875270  0.939780  0.231730  1.0  -0.0269
  C  C719  1  0.813760  0.910260  0.201100  1.0  0.0489
  C  C720  1  0.779580  0.899890  0.233090  1.0  -0.4055
  C  C721  1  0.540710  0.937590  0.062640  1.0  0.0951
  C  C722  1  0.573090  0.909990  0.082300  1.0  -0.2152
  C  C723  1  0.592070  0.885140  0.047250  1.0  0.1705
  C  C724  1  0.580900  0.889420  0.999120  1.0  -0.207
  C  C725  1  0.551910  0.914060  0.985230  1.0  0.197
  C  C726  1  0.624730  0.856460  0.064510  1.0  -0.0261
  C  C727  1  0.686240  0.887340  0.096500  1.0  0.0477
  C  C728  1  0.720420  0.953510  0.120310  1.0  -0.4066
  C  C729  1  0.262860  0.237140  0.250000  1.0  -0.0743
  C  C730  1  0.297990  0.202010  0.250000  1.0  0.018
  C  C731  1  0.358760  0.141240  0.250000  1.0  -0.02
  C  C732  1  0.487140  0.012860  0.250000  1.0  -0.0774
  C  C733  1  0.452010  0.047990  0.250000  1.0  0.0157
  C  C734  1  0.391240  0.108760  0.250000  1.0  -0.0198
  C  C735  1  0.012860  0.262860  0.525720  1.0  -0.0757
  C  C736  1  0.047990  0.297990  0.595980  1.0  0.0232
  C  C737  1  0.108760  0.358760  0.717520  1.0  -0.0193
  C  C738  1  0.237140  0.487140  0.974280  1.0  -0.0743
  C  C739  1  0.202010  0.452010  0.904020  1.0  0.0339
  C  C740  1  0.141240  0.391240  0.782480  1.0  -0.0195
  C  C741  1  0.025720  0.012860  0.762860  1.0  -0.0747
  C  C742  1  0.095980  0.047990  0.797990  1.0  0.0152
  C  C743  1  0.217520  0.108760  0.858760  1.0  -0.0199
  C  C744  1  0.474280  0.237140  0.987140  1.0  -0.0761
  C  C745  1  0.404020  0.202010  0.952010  1.0  0.0162
  C  C746  1  0.282480  0.141240  0.891240  1.0  -0.02
  C  C747  1  0.750000  0.262860  0.737140  1.0  -0.076
  C  C748  1  0.750000  0.297990  0.702010  1.0  0.0337
  C  C749  1  0.750000  0.358760  0.641240  1.0  -0.0192
  C  C750  1  0.750000  0.487140  0.512860  1.0  -0.0772
  C  C751  1  0.750000  0.452010  0.547990  1.0  0.0253
  C  C752  1  0.750000  0.391240  0.608760  1.0  -0.0194
  C  C753  1  0.012860  0.750000  0.987140  1.0  -0.0746
  C  C754  1  0.047990  0.750000  0.952010  1.0  0.0344
  C  C755  1  0.108760  0.750000  0.891240  1.0  -0.0192
  C  C756  1  0.237140  0.750000  0.762860  1.0  -0.0783
  C  C757  1  0.202010  0.750000  0.797990  1.0  0.0224
  C  C758  1  0.141240  0.750000  0.858760  1.0  -0.0195
  C  C759  1  0.487140  0.474280  0.737140  1.0  -0.078
  C  C760  1  0.452010  0.404020  0.702010  1.0  0.0209
  C  C761  1  0.391240  0.282480  0.641240  1.0  -0.0198
  C  C762  1  0.262860  0.025720  0.512860  1.0  -0.0763
  C  C763  1  0.297990  0.095980  0.547990  1.0  0.0236
  C  C764  1  0.358760  0.217520  0.608760  1.0  -0.0204
  C  C765  1  0.737140  0.762860  0.750000  1.0  -0.0767
  C  C766  1  0.702010  0.797990  0.750000  1.0  0.0156
  C  C767  1  0.641240  0.858760  0.750000  1.0  -0.0198
  C  C768  1  0.512860  0.987140  0.750000  1.0  -0.075
  C  C769  1  0.547990  0.952010  0.750000  1.0  0.0181
  C  C770  1  0.608760  0.891240  0.750000  1.0  -0.02
  C  C771  1  0.987140  0.737140  0.474280  1.0  -0.0743
  C  C772  1  0.952010  0.702010  0.404020  1.0  0.0339
  C  C773  1  0.891240  0.641240  0.282480  1.0  -0.0195
  C  C774  1  0.762860  0.512860  0.025720  1.0  -0.0757
  C  C775  1  0.797990  0.547990  0.095980  1.0  0.0232
  C  C776  1  0.858760  0.608760  0.217520  1.0  -0.0193
  C  C777  1  0.974280  0.987140  0.237140  1.0  -0.0761
  C  C778  1  0.904020  0.952010  0.202010  1.0  0.0162
  C  C779  1  0.782480  0.891240  0.141240  1.0  -0.02
  C  C780  1  0.525720  0.762860  0.012860  1.0  -0.0747
  C  C781  1  0.595980  0.797990  0.047990  1.0  0.0152
  C  C782  1  0.717520  0.858760  0.108760  1.0  -0.0198
  C  C783  1  0.250000  0.737140  0.262860  1.0  -0.0766
  C  C784  1  0.250000  0.702010  0.297990  1.0  0.0252
  C  C785  1  0.250000  0.641240  0.358760  1.0  -0.0194
  C  C786  1  0.250000  0.512860  0.487140  1.0  -0.0767
  C  C787  1  0.250000  0.547990  0.452010  1.0  0.0338
  C  C788  1  0.250000  0.608760  0.391240  1.0  -0.0192
  C  C789  1  0.987140  0.250000  0.012860  1.0  -0.079
  C  C790  1  0.952010  0.250000  0.047990  1.0  0.0225
  C  C791  1  0.891240  0.250000  0.108760  1.0  -0.0195
  C  C792  1  0.762860  0.250000  0.237140  1.0  -0.0739
  C  C793  1  0.797990  0.250000  0.202010  1.0  0.0343
  C  C794  1  0.858760  0.250000  0.141240  1.0  -0.0192
  C  C795  1  0.512860  0.525720  0.262860  1.0  -0.0763
  C  C796  1  0.547990  0.595980  0.297990  1.0  0.0237
  C  C797  1  0.608760  0.717520  0.358760  1.0  -0.0205
  C  C798  1  0.737140  0.974280  0.487140  1.0  -0.078
  C  C799  1  0.702010  0.904020  0.452010  1.0  0.0209
  C  C800  1  0.641240  0.782480  0.391240  1.0  -0.0199
  N  N801  1  0.089260  0.057220  0.074000  1.0  -0.28
  N  N802  1  0.483220  0.015260  0.426000  1.0  -0.2805
  N  N803  1  0.016780  0.442780  0.532040  1.0  -0.2759
  N  N804  1  0.410740  0.484740  0.967960  1.0  -0.2806
  N  N805  1  0.032040  0.016780  0.942780  1.0  -0.2748
  N  N806  1  0.467960  0.410740  0.984740  1.0  -0.2791
  N  N807  1  0.574000  0.089260  0.557220  1.0  -0.2827
  N  N808  1  0.926000  0.483220  0.515260  1.0  -0.2838
  N  N809  1  0.015260  0.926000  0.983220  1.0  -0.2836
  N  N810  1  0.057220  0.574000  0.589260  1.0  -0.2826
  N  N811  1  0.484740  0.467960  0.910740  1.0  -0.2828
  N  N812  1  0.442780  0.032040  0.516780  1.0  -0.2727
  N  N813  1  0.442780  0.410740  0.426000  1.0  -0.2818
  N  N814  1  0.484740  0.016780  0.074000  1.0  -0.2802
  N  N815  1  0.057220  0.483220  0.967960  1.0  -0.2752
  N  N816  1  0.015260  0.089260  0.532040  1.0  -0.2813
  N  N817  1  0.483220  0.467960  0.557220  1.0  -0.2739
  N  N818  1  0.089260  0.032040  0.515260  1.0  -0.2812
  N  N819  1  0.410740  0.926000  0.942780  1.0  -0.2808
  N  N820  1  0.016780  0.574000  0.984740  1.0  -0.2834
  N  N821  1  0.574000  0.484740  0.516780  1.0  -0.2825
  N  N822  1  0.926000  0.442780  0.910740  1.0  -0.2839
  N  N823  1  0.032040  0.015260  0.589260  1.0  -0.2792
  N  N824  1  0.467960  0.057220  0.983220  1.0  -0.2742
  N  N825  1  0.910740  0.942780  0.926000  1.0  -0.2824
  N  N826  1  0.516780  0.984740  0.574000  1.0  -0.2795
  N  N827  1  0.983220  0.557220  0.467960  1.0  -0.2756
  N  N828  1  0.589260  0.515260  0.032040  1.0  -0.2821
  N  N829  1  0.967960  0.983220  0.057220  1.0  -0.273
  N  N830  1  0.532040  0.589260  0.015260  1.0  -0.2811
  N  N831  1  0.426000  0.910740  0.442780  1.0  -0.2823
  N  N832  1  0.074000  0.516780  0.484740  1.0  -0.2822
  N  N833  1  0.984740  0.074000  0.016780  1.0  -0.2803
  N  N834  1  0.942780  0.426000  0.410740  1.0  -0.2845
  N  N835  1  0.515260  0.532040  0.089260  1.0  -0.2808
  N  N836  1  0.557220  0.967960  0.483220  1.0  -0.2749
  N  N837  1  0.557220  0.589260  0.574000  1.0  -0.2798
  N  N838  1  0.515260  0.983220  0.926000  1.0  -0.2831
  N  N839  1  0.942780  0.516780  0.032040  1.0  -0.2761
  N  N840  1  0.984740  0.910740  0.467960  1.0  -0.282
  N  N841  1  0.516780  0.532040  0.442780  1.0  -0.2741
  N  N842  1  0.910740  0.967960  0.484740  1.0  -0.2796
  N  N843  1  0.589260  0.074000  0.057220  1.0  -0.2825
  N  N844  1  0.983220  0.426000  0.015260  1.0  -0.2833
  N  N845  1  0.426000  0.515260  0.483220  1.0  -0.2812
  N  N846  1  0.074000  0.557220  0.089260  1.0  -0.283
  N  N847  1  0.967960  0.984740  0.410740  1.0  -0.2802
  N  N848  1  0.532040  0.942780  0.016780  1.0  -0.2737
  Cl  Cl849  1  0.750000  0.000000  0.000000  1.0  0.0691
  Cl  Cl850  1  0.500000  0.750000  0.500000  1.0  0.069
  Cl  Cl851  1  0.000000  0.500000  0.250000  1.0  0.069
  Cl  Cl852  1  0.750000  0.750000  0.250000  1.0  0.069
  Cl  Cl853  1  0.250000  0.000000  0.000000  1.0  0.0689
  Cl  Cl854  1  0.500000  0.250000  0.500000  1.0  0.0691
  Cl  Cl855  1  0.000000  0.500000  0.750000  1.0  0.069
  Cl  Cl856  1  0.250000  0.250000  0.750000  1.0  0.069
  O  O857  1  0.781000  0.031000  0.062000  1.0  -0.5689
  O  O858  1  0.750000  0.031000  0.969000  1.0  -0.5707
  O  O859  1  0.719000  0.938000  0.969000  1.0  -0.569
  O  O860  1  0.469000  0.719000  0.438000  1.0  -0.5709
  O  O861  1  0.562000  0.781000  0.531000  1.0  -0.5689
  O  O862  1  0.469000  0.750000  0.531000  1.0  -0.5685
  O  O863  1  0.031000  0.469000  0.250000  1.0  -0.5688
  O  O864  1  0.938000  0.469000  0.219000  1.0  -0.5671
  O  O865  1  0.031000  0.562000  0.281000  1.0  -0.5704
  O  O866  1  0.719000  0.781000  0.250000  1.0  -0.5675
  O  O867  1  0.750000  0.719000  0.281000  1.0  -0.5686
  O  O868  1  0.781000  0.750000  0.219000  1.0  -0.5704
  O  O869  1  0.219000  0.969000  0.938000  1.0  -0.5709
  O  O870  1  0.250000  0.969000  0.031000  1.0  -0.5685
  O  O871  1  0.281000  0.062000  0.031000  1.0  -0.5704
  O  O872  1  0.531000  0.281000  0.562000  1.0  -0.5689
  O  O873  1  0.438000  0.219000  0.469000  1.0  -0.5671
  O  O874  1  0.531000  0.250000  0.469000  1.0  -0.5703
  O  O875  1  0.969000  0.531000  0.750000  1.0  -0.5675
  O  O876  1  0.062000  0.531000  0.781000  1.0  -0.5689
  O  O877  1  0.969000  0.438000  0.719000  1.0  -0.569
  O  O878  1  0.281000  0.219000  0.750000  1.0  -0.5689
  O  O879  1  0.250000  0.281000  0.719000  1.0  -0.5708
  O  O880  1  0.219000  0.250000  0.781000  1.0  -0.5686
