# generated using pymatgen
data_Fe2Ni3H66(C3N2)12
_symmetry_space_group_name_H-M   'P 1'
_cell_length_a   15.29100000
_cell_length_b   15.65600000
_cell_length_c   50.91200000
_cell_angle_alpha   90.00000000
_cell_angle_beta   90.00000000
_cell_angle_gamma   90.00000000
_symmetry_Int_Tables_number   1
_chemical_formula_structural   Fe2Ni3H66(C3N2)12
_chemical_formula_sum   'Fe16 Ni24 H528 C288 N192'
_cell_volume   12188.12385715
_cell_formula_units_Z   8
loop_
 _symmetry_equiv_pos_site_id
 _symmetry_equiv_pos_as_xyz
  1  'x, y, z'
loop_
 _atom_site_type_symbol
 _atom_site_label
 _atom_site_symmetry_multiplicity
 _atom_site_fract_x
 _atom_site_fract_y
 _atom_site_fract_z
 _atom_site_occupancy
 _atom_site_charge
  Fe  Fe1  1  0.100300  0.247490  0.459820  1.0  -0.342
  Fe  Fe2  1  0.411370  0.353500  0.293880  1.0  0.3296
  Fe  Fe3  1  0.899700  0.252510  0.959820  1.0  -0.3462
  Fe  Fe4  1  0.588630  0.146500  0.793880  1.0  0.3238
  Fe  Fe5  1  0.600300  0.752510  0.040180  1.0  -0.3436
  Fe  Fe6  1  0.911370  0.646500  0.206120  1.0  0.332
  Fe  Fe7  1  0.399700  0.747490  0.540180  1.0  -0.3481
  Fe  Fe8  1  0.088630  0.853500  0.706120  1.0  0.3236
  Fe  Fe9  1  0.899700  0.752510  0.540180  1.0  -0.3482
  Fe  Fe10  1  0.588630  0.646500  0.706120  1.0  0.3244
  Fe  Fe11  1  0.100300  0.747490  0.040180  1.0  -0.3442
  Fe  Fe12  1  0.411370  0.853500  0.206120  1.0  0.3306
  Fe  Fe13  1  0.399700  0.247490  0.959820  1.0  -0.3459
  Fe  Fe14  1  0.088630  0.353500  0.793880  1.0  0.3228
  Fe  Fe15  1  0.600300  0.252510  0.459820  1.0  -0.3416
  Fe  Fe16  1  0.911370  0.146500  0.293880  1.0  0.3311
  Ni  Ni17  1  0.297260  0.453980  0.506330  1.0  0.645
  Ni  Ni18  1  0.282880  0.223090  0.375450  1.0  0.6046
  Ni  Ni19  1  0.612880  0.521820  0.235170  1.0  0.6288
  Ni  Ni20  1  0.702740  0.046020  0.006330  1.0  0.6459
  Ni  Ni21  1  0.717120  0.276910  0.875450  1.0  0.6052
  Ni  Ni22  1  0.387120  0.978180  0.735170  1.0  0.6293
  Ni  Ni23  1  0.797260  0.546020  0.993670  1.0  0.6448
  Ni  Ni24  1  0.782880  0.776910  0.124550  1.0  0.6048
  Ni  Ni25  1  0.112880  0.478180  0.264830  1.0  0.6279
  Ni  Ni26  1  0.202740  0.953980  0.493670  1.0  0.6459
  Ni  Ni27  1  0.217120  0.723090  0.624550  1.0  0.6045
  Ni  Ni28  1  0.887120  0.021820  0.764830  1.0  0.6291
  Ni  Ni29  1  0.702740  0.546020  0.493670  1.0  0.6459
  Ni  Ni30  1  0.717120  0.776910  0.624550  1.0  0.6048
  Ni  Ni31  1  0.387120  0.478180  0.764830  1.0  0.6286
  Ni  Ni32  1  0.297260  0.953980  0.993670  1.0  0.6448
  Ni  Ni33  1  0.282880  0.723090  0.124550  1.0  0.6044
  Ni  Ni34  1  0.612880  0.021820  0.264830  1.0  0.6284
  Ni  Ni35  1  0.202740  0.453980  0.006330  1.0  0.646
  Ni  Ni36  1  0.217120  0.223090  0.875450  1.0  0.6049
  Ni  Ni37  1  0.887120  0.521820  0.735170  1.0  0.6295
  Ni  Ni38  1  0.797260  0.046020  0.506330  1.0  0.6449
  Ni  Ni39  1  0.782880  0.276910  0.375450  1.0  0.6049
  Ni  Ni40  1  0.112880  0.978180  0.235170  1.0  0.6286
  H  H41  1  0.642100  0.409700  0.269900  1.0  0.1432
  H  H42  1  0.392000  0.352000  0.531500  1.0  0.2625
  H  H43  1  0.372000  0.421000  0.549800  1.0  0.2098
  H  H44  1  0.265000  0.283000  0.538300  1.0  0.0894
  H  H45  1  0.323000  0.295000  0.564700  1.0  0.1313
  H  H46  1  0.247000  0.426000  0.575500  1.0  0.0809
  H  H47  1  0.194000  0.341000  0.576400  1.0  0.1961
  H  H48  1  0.131000  0.361000  0.534200  1.0  0.0739
  H  H49  1  0.102000  0.427000  0.553600  1.0  0.2167
  H  H50  1  0.191000  0.514000  0.537400  1.0  0.1805
  H  H51  1  0.064000  0.539000  0.520300  1.0  0.0806
  H  H52  1  0.086000  0.458000  0.501100  1.0  0.0765
  H  H53  1  0.179000  0.622000  0.500400  1.0  0.0849
  H  H54  1  0.111000  0.588000  0.478600  1.0  0.0814
  H  H55  1  0.205000  0.485000  0.468700  1.0  0.2466
  H  H56  1  0.297000  0.636000  0.471200  1.0  0.0894
  H  H57  1  0.239000  0.605000  0.446600  1.0  0.0898
  H  H58  1  0.369000  0.578000  0.431100  1.0  0.1125
  H  H59  1  0.329000  0.486000  0.436500  1.0  0.083
  H  H60  1  0.480000  0.497000  0.450300  1.0  0.0846
  H  H61  1  0.437000  0.562000  0.476000  1.0  0.0881
  H  H62  1  0.454000  0.422000  0.488800  1.0  0.236
  H  H63  1  0.397000  0.395000  0.469100  1.0  0.1413
  H  H64  1  0.353000  0.361000  0.367400  1.0  0.2171
  H  H65  1  0.362000  0.349000  0.394900  1.0  0.1534
  H  H66  1  0.287000  0.480000  0.385400  1.0  0.0825
  H  H67  1  0.236000  0.408000  0.401800  1.0  0.0898
  H  H68  1  0.157000  0.464000  0.366200  1.0  0.1846
  H  H69  1  0.210000  0.415000  0.346100  1.0  0.0998
  H  H70  1  0.102000  0.331000  0.381900  1.0  0.084
  H  H71  1  0.075000  0.346000  0.351800  1.0  0.112
  H  H72  1  0.174000  0.264000  0.341200  1.0  0.2397
  H  H73  1  0.084000  0.185000  0.380200  1.0  0.0766
  H  H74  1  0.045000  0.197000  0.350900  1.0  0.0815
  H  H75  1  0.115000  0.057000  0.356600  1.0  0.0899
  H  H76  1  0.173000  0.103000  0.335500  1.0  0.1013
  H  H77  1  0.214000  0.080000  0.388400  1.0  0.1866
  H  H78  1  0.244000  0.971000  0.369400  1.0  0.1143
  H  H79  1  0.304000  0.036000  0.347400  1.0  0.0876
  H  H80  1  0.384000  0.965000  0.382600  1.0  0.0922
  H  H81  1  0.335000  0.025000  0.402500  1.0  0.0912
  H  H82  1  0.442000  0.094000  0.360400  1.0  0.0785
  H  H83  1  0.486000  0.079000  0.393000  1.0  0.1085
  H  H84  1  0.387000  0.170000  0.408700  1.0  0.1804
  H  H85  1  0.434000  0.218000  0.391600  1.0  0.1959
  H  H86  1  0.507000  0.636000  0.220500  1.0  0.2053
  H  H87  1  0.565000  0.621000  0.199300  1.0  0.1866
  H  H88  1  0.420000  0.526000  0.211200  1.0  0.1082
  H  H89  1  0.430000  0.599000  0.186600  1.0  0.0724
  H  H90  1  0.445000  0.466000  0.168600  1.0  0.0851
  H  H91  1  0.547000  0.502000  0.170400  1.0  0.1702
  H  H92  1  0.474000  0.392000  0.205700  1.0  0.0964
  H  H93  1  0.536000  0.353000  0.181000  1.0  0.0704
  H  H94  1  0.646000  0.423000  0.198100  1.0  0.2079
  H  H95  1  0.648000  0.295000  0.209600  1.0  0.0892
  H  H96  1  0.581000  0.320000  0.234800  1.0  0.0847
  H  H97  1  0.751000  0.379000  0.229700  1.0  0.1446
  H  H98  1  0.726000  0.309000  0.251300  1.0  0.0798
  H  H99  1  0.808000  0.480000  0.261100  1.0  0.1033
  H  H100  1  0.785000  0.405000  0.287200  1.0  0.0757
  H  H101  1  0.678000  0.526000  0.298100  1.0  0.1778
  H  H102  1  0.780000  0.544000  0.304700  1.0  0.0905
  H  H103  1  0.710000  0.670000  0.295500  1.0  0.0945
  H  H104  1  0.771000  0.636000  0.263800  1.0  0.0344
  H  H105  1  0.588000  0.621000  0.277400  1.0  0.1004
  H  H106  1  0.616000  0.665000  0.253200  1.0  0.2502
  H  H107  1  0.357900  0.090300  0.769900  1.0  0.1447
  H  H108  1  0.608000  0.148000  0.031500  1.0  0.2625
  H  H109  1  0.628000  0.079000  0.049800  1.0  0.2101
  H  H110  1  0.735000  0.217000  0.038300  1.0  0.0896
  H  H111  1  0.677000  0.205000  0.064700  1.0  0.132
  H  H112  1  0.753000  0.074000  0.075500  1.0  0.0824
  H  H113  1  0.806000  0.159000  0.076400  1.0  0.1958
  H  H114  1  0.869000  0.139000  0.034200  1.0  0.074
  H  H115  1  0.898000  0.073000  0.053600  1.0  0.2178
  H  H116  1  0.809000  0.986000  0.037400  1.0  0.1822
  H  H117  1  0.936000  0.961000  0.020300  1.0  0.0801
  H  H118  1  0.914000  0.042000  0.001100  1.0  0.0768
  H  H119  1  0.821000  0.878000  0.000400  1.0  0.0835
  H  H120  1  0.889000  0.912000  0.978600  1.0  0.0804
  H  H121  1  0.795000  0.015000  0.968700  1.0  0.2468
  H  H122  1  0.703000  0.864000  0.971200  1.0  0.0912
  H  H123  1  0.761000  0.895000  0.946600  1.0  0.0897
  H  H124  1  0.631000  0.922000  0.931100  1.0  0.1129
  H  H125  1  0.671000  0.014000  0.936500  1.0  0.0819
  H  H126  1  0.520000  0.003000  0.950300  1.0  0.0844
  H  H127  1  0.563000  0.938000  0.976000  1.0  0.0874
  H  H128  1  0.546000  0.078000  0.988800  1.0  0.2353
  H  H129  1  0.603000  0.105000  0.969100  1.0  0.1405
  H  H130  1  0.647000  0.139000  0.867400  1.0  0.2185
  H  H131  1  0.638000  0.151000  0.894900  1.0  0.1523
  H  H132  1  0.713000  0.020000  0.885400  1.0  0.08
  H  H133  1  0.764000  0.092000  0.901800  1.0  0.0903
  H  H134  1  0.843000  0.036000  0.866200  1.0  0.1847
  H  H135  1  0.790000  0.085000  0.846100  1.0  0.1002
  H  H136  1  0.898000  0.169000  0.881900  1.0  0.0849
  H  H137  1  0.925000  0.154000  0.851800  1.0  0.1109
  H  H138  1  0.826000  0.236000  0.841200  1.0  0.2392
  H  H139  1  0.916000  0.315000  0.880200  1.0  0.0764
  H  H140  1  0.955000  0.303000  0.850900  1.0  0.0834
  H  H141  1  0.885000  0.443000  0.856600  1.0  0.0904
  H  H142  1  0.827000  0.397000  0.835500  1.0  0.1015
  H  H143  1  0.786000  0.420000  0.888400  1.0  0.186
  H  H144  1  0.756000  0.529000  0.869400  1.0  0.1119
  H  H145  1  0.696000  0.464000  0.847400  1.0  0.0868
  H  H146  1  0.616000  0.535000  0.882600  1.0  0.0939
  H  H147  1  0.665000  0.475000  0.902500  1.0  0.0918
  H  H148  1  0.558000  0.406000  0.860400  1.0  0.0774
  H  H149  1  0.514000  0.421000  0.893000  1.0  0.1073
  H  H150  1  0.613000  0.330000  0.908700  1.0  0.1814
  H  H151  1  0.566000  0.282000  0.891600  1.0  0.1962
  H  H152  1  0.493000  0.864000  0.720500  1.0  0.2034
  H  H153  1  0.435000  0.879000  0.699300  1.0  0.1858
  H  H154  1  0.580000  0.974000  0.711200  1.0  0.1064
  H  H155  1  0.570000  0.901000  0.686600  1.0  0.0709
  H  H156  1  0.555000  0.034000  0.668600  1.0  0.0854
  H  H157  1  0.453000  0.998000  0.670400  1.0  0.1697
  H  H158  1  0.526000  0.108000  0.705700  1.0  0.0964
  H  H159  1  0.464000  0.147000  0.681000  1.0  0.0719
  H  H160  1  0.354000  0.077000  0.698100  1.0  0.206
  H  H161  1  0.352000  0.205000  0.709600  1.0  0.0901
  H  H162  1  0.419000  0.180000  0.734800  1.0  0.0856
  H  H163  1  0.249000  0.121000  0.729700  1.0  0.1453
  H  H164  1  0.274000  0.191000  0.751300  1.0  0.0795
  H  H165  1  0.192000  0.020000  0.761100  1.0  0.1027
  H  H166  1  0.215000  0.095000  0.787200  1.0  0.0759
  H  H167  1  0.322000  0.974000  0.798100  1.0  0.177
  H  H168  1  0.220000  0.956000  0.804700  1.0  0.0926
  H  H169  1  0.290000  0.830000  0.795500  1.0  0.0942
  H  H170  1  0.229000  0.864000  0.763800  1.0  0.0338
  H  H171  1  0.412000  0.879000  0.777400  1.0  0.1011
  H  H172  1  0.384000  0.835000  0.753200  1.0  0.2492
  H  H173  1  0.142100  0.590300  0.230100  1.0  0.1432
  H  H174  1  0.892000  0.648000  0.968500  1.0  0.261
  H  H175  1  0.872000  0.579000  0.950200  1.0  0.2093
  H  H176  1  0.765000  0.717000  0.961700  1.0  0.0889
  H  H177  1  0.823000  0.705000  0.935300  1.0  0.133
  H  H178  1  0.747000  0.574000  0.924500  1.0  0.0805
  H  H179  1  0.694000  0.659000  0.923600  1.0  0.1964
  H  H180  1  0.631000  0.639000  0.965800  1.0  0.0751
  H  H181  1  0.602000  0.573000  0.946400  1.0  0.2182
  H  H182  1  0.691000  0.486000  0.962600  1.0  0.1844
  H  H183  1  0.564000  0.461000  0.979700  1.0  0.0808
  H  H184  1  0.586000  0.542000  0.998900  1.0  0.0757
  H  H185  1  0.679000  0.378000  0.999600  1.0  0.0838
  H  H186  1  0.611000  0.412000  0.021400  1.0  0.0807
  H  H187  1  0.705000  0.515000  0.031300  1.0  0.2467
  H  H188  1  0.797000  0.364000  0.028800  1.0  0.0916
  H  H189  1  0.739000  0.395000  0.053400  1.0  0.091
  H  H190  1  0.869000  0.422000  0.068900  1.0  0.1135
  H  H191  1  0.829000  0.514000  0.063500  1.0  0.0815
  H  H192  1  0.980000  0.503000  0.049700  1.0  0.0843
  H  H193  1  0.937000  0.438000  0.024000  1.0  0.089
  H  H194  1  0.954000  0.578000  0.011200  1.0  0.2351
  H  H195  1  0.897000  0.605000  0.030900  1.0  0.1399
  H  H196  1  0.853000  0.639000  0.132600  1.0  0.218
  H  H197  1  0.862000  0.651000  0.105100  1.0  0.1541
  H  H198  1  0.787000  0.520000  0.114600  1.0  0.0815
  H  H199  1  0.736000  0.592000  0.098200  1.0  0.0909
  H  H200  1  0.657000  0.536000  0.133800  1.0  0.1838
  H  H201  1  0.710000  0.585000  0.153900  1.0  0.102
  H  H202  1  0.602000  0.669000  0.118100  1.0  0.0821
  H  H203  1  0.575000  0.654000  0.148200  1.0  0.1104
  H  H204  1  0.674000  0.736000  0.158800  1.0  0.2392
  H  H205  1  0.584000  0.815000  0.119800  1.0  0.0775
  H  H206  1  0.545000  0.803000  0.149100  1.0  0.0834
  H  H207  1  0.615000  0.943000  0.143400  1.0  0.091
  H  H208  1  0.673000  0.897000  0.164500  1.0  0.1008
  H  H209  1  0.714000  0.920000  0.111600  1.0  0.1883
  H  H210  1  0.744000  0.029000  0.130600  1.0  0.1137
  H  H211  1  0.804000  0.964000  0.152600  1.0  0.0878
  H  H212  1  0.884000  0.035000  0.117400  1.0  0.0937
  H  H213  1  0.835000  0.975000  0.097500  1.0  0.092
  H  H214  1  0.942000  0.906000  0.139600  1.0  0.0782
  H  H215  1  0.986000  0.921000  0.107000  1.0  0.1079
  H  H216  1  0.887000  0.830000  0.091300  1.0  0.1844
  H  H217  1  0.934000  0.782000  0.108400  1.0  0.1954
  H  H218  1  0.007000  0.364000  0.279500  1.0  0.2011
  H  H219  1  0.065000  0.379000  0.300700  1.0  0.1874
  H  H220  1  0.920000  0.474000  0.288800  1.0  0.1093
  H  H221  1  0.930000  0.401000  0.313400  1.0  0.0716
  H  H222  1  0.945000  0.534000  0.331400  1.0  0.083
  H  H223  1  0.047000  0.498000  0.329600  1.0  0.1692
  H  H224  1  0.974000  0.608000  0.294300  1.0  0.0968
  H  H225  1  0.036000  0.647000  0.319000  1.0  0.0716
  H  H226  1  0.146000  0.577000  0.301900  1.0  0.2048
  H  H227  1  0.148000  0.705000  0.290400  1.0  0.0897
  H  H228  1  0.081000  0.680000  0.265200  1.0  0.0858
  H  H229  1  0.251000  0.621000  0.270300  1.0  0.1447
  H  H230  1  0.226000  0.691000  0.248700  1.0  0.0791
  H  H231  1  0.308000  0.520000  0.238900  1.0  0.1032
  H  H232  1  0.285000  0.595000  0.212800  1.0  0.075
  H  H233  1  0.178000  0.474000  0.201900  1.0  0.1795
  H  H234  1  0.280000  0.456000  0.195300  1.0  0.0927
  H  H235  1  0.210000  0.330000  0.204500  1.0  0.0918
  H  H236  1  0.271000  0.364000  0.236200  1.0  0.0325
  H  H237  1  0.088000  0.379000  0.222600  1.0  0.0984
  H  H238  1  0.116000  0.335000  0.246800  1.0  0.2506
  H  H239  1  0.857900  0.909700  0.730100  1.0  0.1441
  H  H240  1  0.108000  0.852000  0.468500  1.0  0.2622
  H  H241  1  0.128000  0.921000  0.450200  1.0  0.2102
  H  H242  1  0.235000  0.783000  0.461700  1.0  0.0877
  H  H243  1  0.177000  0.795000  0.435300  1.0  0.131
  H  H244  1  0.253000  0.926000  0.424500  1.0  0.0791
  H  H245  1  0.306000  0.841000  0.423600  1.0  0.1958
  H  H246  1  0.369000  0.861000  0.465800  1.0  0.0747
  H  H247  1  0.398000  0.927000  0.446400  1.0  0.2186
  H  H248  1  0.309000  0.014000  0.462600  1.0  0.1829
  H  H249  1  0.436000  0.039000  0.479700  1.0  0.0801
  H  H250  1  0.414000  0.958000  0.498900  1.0  0.0768
  H  H251  1  0.321000  0.122000  0.499600  1.0  0.0859
  H  H252  1  0.389000  0.088000  0.521400  1.0  0.0797
  H  H253  1  0.295000  0.985000  0.531300  1.0  0.2463
  H  H254  1  0.203000  0.136000  0.528800  1.0  0.0914
  H  H255  1  0.261000  0.105000  0.553400  1.0  0.0908
  H  H256  1  0.131000  0.078000  0.568900  1.0  0.1125
  H  H257  1  0.171000  0.986000  0.563500  1.0  0.0823
  H  H258  1  0.020000  0.997000  0.549700  1.0  0.0856
  H  H259  1  0.063000  0.062000  0.524000  1.0  0.0895
  H  H260  1  0.046000  0.922000  0.511200  1.0  0.2349
  H  H261  1  0.103000  0.895000  0.530900  1.0  0.141
  H  H262  1  0.147000  0.861000  0.632600  1.0  0.217
  H  H263  1  0.138000  0.849000  0.605100  1.0  0.1539
  H  H264  1  0.213000  0.980000  0.614600  1.0  0.0821
  H  H265  1  0.264000  0.908000  0.598200  1.0  0.0904
  H  H266  1  0.343000  0.964000  0.633800  1.0  0.1853
  H  H267  1  0.290000  0.915000  0.653900  1.0  0.1016
  H  H268  1  0.398000  0.831000  0.618100  1.0  0.0827
  H  H269  1  0.425000  0.846000  0.648200  1.0  0.1098
  H  H270  1  0.326000  0.764000  0.658800  1.0  0.2389
  H  H271  1  0.416000  0.685000  0.619800  1.0  0.0766
  H  H272  1  0.455000  0.697000  0.649100  1.0  0.0844
  H  H273  1  0.385000  0.557000  0.643400  1.0  0.0904
  H  H274  1  0.327000  0.603000  0.664500  1.0  0.1
  H  H275  1  0.286000  0.580000  0.611600  1.0  0.1872
  H  H276  1  0.256000  0.471000  0.630600  1.0  0.1142
  H  H277  1  0.196000  0.536000  0.652600  1.0  0.0881
  H  H278  1  0.116000  0.465000  0.617400  1.0  0.0924
  H  H279  1  0.165000  0.525000  0.597500  1.0  0.0915
  H  H280  1  0.058000  0.594000  0.639600  1.0  0.0776
  H  H281  1  0.014000  0.579000  0.607000  1.0  0.1055
  H  H282  1  0.113000  0.670000  0.591300  1.0  0.1837
  H  H283  1  0.066000  0.718000  0.608400  1.0  0.1967
  H  H284  1  0.993000  0.136000  0.779500  1.0  0.2038
  H  H285  1  0.935000  0.121000  0.800700  1.0  0.1864
  H  H286  1  0.080000  0.026000  0.788800  1.0  0.1065
  H  H287  1  0.070000  0.099000  0.813400  1.0  0.0725
  H  H288  1  0.055000  0.966000  0.831400  1.0  0.0855
  H  H289  1  0.953000  0.002000  0.829600  1.0  0.1695
  H  H290  1  0.026000  0.892000  0.794300  1.0  0.0973
  H  H291  1  0.964000  0.853000  0.819000  1.0  0.0738
  H  H292  1  0.854000  0.923000  0.801900  1.0  0.2068
  H  H293  1  0.852000  0.795000  0.790400  1.0  0.0911
  H  H294  1  0.919000  0.820000  0.765200  1.0  0.0861
  H  H295  1  0.749000  0.879000  0.770300  1.0  0.144
  H  H296  1  0.774000  0.809000  0.748700  1.0  0.0792
  H  H297  1  0.692000  0.980000  0.738900  1.0  0.1025
  H  H298  1  0.715000  0.905000  0.712800  1.0  0.0759
  H  H299  1  0.822000  0.026000  0.701900  1.0  0.1774
  H  H300  1  0.720000  0.044000  0.695300  1.0  0.0942
  H  H301  1  0.790000  0.170000  0.704500  1.0  0.0931
  H  H302  1  0.729000  0.136000  0.736200  1.0  0.0333
  H  H303  1  0.912000  0.121000  0.722600  1.0  0.0999
  H  H304  1  0.884000  0.165000  0.746800  1.0  0.2492
  H  H305  1  0.357900  0.590300  0.730100  1.0  0.1446
  H  H306  1  0.608000  0.648000  0.468500  1.0  0.2622
  H  H307  1  0.628000  0.579000  0.450200  1.0  0.2091
  H  H308  1  0.735000  0.717000  0.461700  1.0  0.0885
  H  H309  1  0.677000  0.705000  0.435300  1.0  0.1317
  H  H310  1  0.753000  0.574000  0.424500  1.0  0.0826
  H  H311  1  0.806000  0.659000  0.423600  1.0  0.1967
  H  H312  1  0.869000  0.639000  0.465800  1.0  0.0743
  H  H313  1  0.898000  0.573000  0.446400  1.0  0.2187
  H  H314  1  0.809000  0.486000  0.462600  1.0  0.1845
  H  H315  1  0.936000  0.461000  0.479700  1.0  0.0795
  H  H316  1  0.914000  0.542000  0.498900  1.0  0.0759
  H  H317  1  0.821000  0.378000  0.499600  1.0  0.0837
  H  H318  1  0.889000  0.412000  0.521400  1.0  0.0803
  H  H319  1  0.795000  0.515000  0.531300  1.0  0.2461
  H  H320  1  0.703000  0.364000  0.528800  1.0  0.0922
  H  H321  1  0.761000  0.395000  0.553400  1.0  0.091
  H  H322  1  0.631000  0.422000  0.568900  1.0  0.1138
  H  H323  1  0.671000  0.514000  0.563500  1.0  0.0811
  H  H324  1  0.520000  0.503000  0.549700  1.0  0.0854
  H  H325  1  0.563000  0.438000  0.524000  1.0  0.0887
  H  H326  1  0.546000  0.578000  0.511200  1.0  0.2351
  H  H327  1  0.603000  0.605000  0.530900  1.0  0.1393
  H  H328  1  0.647000  0.639000  0.632600  1.0  0.2176
  H  H329  1  0.638000  0.651000  0.605100  1.0  0.1531
  H  H330  1  0.713000  0.520000  0.614600  1.0  0.0802
  H  H331  1  0.764000  0.592000  0.598200  1.0  0.0905
  H  H332  1  0.843000  0.536000  0.633800  1.0  0.1832
  H  H333  1  0.790000  0.585000  0.653900  1.0  0.1011
  H  H334  1  0.898000  0.669000  0.618100  1.0  0.0822
  H  H335  1  0.925000  0.654000  0.648200  1.0  0.1101
  H  H336  1  0.826000  0.736000  0.658800  1.0  0.2387
  H  H337  1  0.916000  0.815000  0.619800  1.0  0.0767
  H  H338  1  0.955000  0.803000  0.649100  1.0  0.0842
  H  H339  1  0.885000  0.943000  0.643400  1.0  0.0901
  H  H340  1  0.827000  0.897000  0.664500  1.0  0.1006
  H  H341  1  0.786000  0.920000  0.611600  1.0  0.1875
  H  H342  1  0.756000  0.029000  0.630600  1.0  0.1118
  H  H343  1  0.696000  0.964000  0.652600  1.0  0.0875
  H  H344  1  0.616000  0.035000  0.617400  1.0  0.0937
  H  H345  1  0.665000  0.975000  0.597500  1.0  0.092
  H  H346  1  0.558000  0.906000  0.639600  1.0  0.0772
  H  H347  1  0.514000  0.921000  0.607000  1.0  0.1066
  H  H348  1  0.613000  0.830000  0.591300  1.0  0.1844
  H  H349  1  0.566000  0.782000  0.608400  1.0  0.1946
  H  H350  1  0.493000  0.364000  0.779500  1.0  0.2014
  H  H351  1  0.435000  0.379000  0.800700  1.0  0.1862
  H  H352  1  0.580000  0.474000  0.788800  1.0  0.1071
  H  H353  1  0.570000  0.401000  0.813400  1.0  0.0713
  H  H354  1  0.555000  0.534000  0.831400  1.0  0.0822
  H  H355  1  0.453000  0.498000  0.829600  1.0  0.1686
  H  H356  1  0.526000  0.608000  0.794300  1.0  0.0971
  H  H357  1  0.464000  0.647000  0.819000  1.0  0.0719
  H  H358  1  0.354000  0.577000  0.801900  1.0  0.2061
  H  H359  1  0.352000  0.705000  0.790400  1.0  0.0895
  H  H360  1  0.419000  0.680000  0.765200  1.0  0.0863
  H  H361  1  0.249000  0.621000  0.770300  1.0  0.1445
  H  H362  1  0.274000  0.691000  0.748700  1.0  0.0802
  H  H363  1  0.192000  0.520000  0.738900  1.0  0.1026
  H  H364  1  0.215000  0.595000  0.712800  1.0  0.0757
  H  H365  1  0.322000  0.474000  0.701900  1.0  0.1771
  H  H366  1  0.220000  0.456000  0.695300  1.0  0.0937
  H  H367  1  0.290000  0.330000  0.704500  1.0  0.0921
  H  H368  1  0.229000  0.364000  0.736200  1.0  0.0328
  H  H369  1  0.412000  0.379000  0.722600  1.0  0.0996
  H  H370  1  0.384000  0.335000  0.746800  1.0  0.2498
  H  H371  1  0.642100  0.909700  0.230100  1.0  0.1428
  H  H372  1  0.392000  0.852000  0.968500  1.0  0.2627
  H  H373  1  0.372000  0.921000  0.950200  1.0  0.2098
  H  H374  1  0.265000  0.783000  0.961700  1.0  0.0883
  H  H375  1  0.323000  0.795000  0.935300  1.0  0.1321
  H  H376  1  0.247000  0.926000  0.924500  1.0  0.0797
  H  H377  1  0.194000  0.841000  0.923600  1.0  0.1955
  H  H378  1  0.131000  0.861000  0.965800  1.0  0.0757
  H  H379  1  0.102000  0.927000  0.946400  1.0  0.2182
  H  H380  1  0.191000  0.014000  0.962600  1.0  0.1829
  H  H381  1  0.064000  0.039000  0.979700  1.0  0.0815
  H  H382  1  0.086000  0.958000  0.998900  1.0  0.0768
  H  H383  1  0.179000  0.122000  0.999600  1.0  0.0854
  H  H384  1  0.111000  0.088000  0.021400  1.0  0.0801
  H  H385  1  0.205000  0.985000  0.031300  1.0  0.247
  H  H386  1  0.297000  0.136000  0.028800  1.0  0.0907
  H  H387  1  0.239000  0.105000  0.053400  1.0  0.0903
  H  H388  1  0.369000  0.078000  0.068900  1.0  0.1121
  H  H389  1  0.329000  0.986000  0.063500  1.0  0.0831
  H  H390  1  0.480000  0.997000  0.049700  1.0  0.0846
  H  H391  1  0.437000  0.062000  0.024000  1.0  0.0888
  H  H392  1  0.454000  0.922000  0.011200  1.0  0.235
  H  H393  1  0.397000  0.895000  0.030900  1.0  0.1415
  H  H394  1  0.353000  0.861000  0.132600  1.0  0.2161
  H  H395  1  0.362000  0.849000  0.105100  1.0  0.1543
  H  H396  1  0.287000  0.980000  0.114600  1.0  0.0822
  H  H397  1  0.236000  0.908000  0.098200  1.0  0.0909
  H  H398  1  0.157000  0.964000  0.133800  1.0  0.1855
  H  H399  1  0.210000  0.915000  0.153900  1.0  0.101
  H  H400  1  0.102000  0.831000  0.118100  1.0  0.0829
  H  H401  1  0.075000  0.846000  0.148200  1.0  0.1102
  H  H402  1  0.174000  0.764000  0.158800  1.0  0.2394
  H  H403  1  0.084000  0.685000  0.119800  1.0  0.0772
  H  H404  1  0.045000  0.697000  0.149100  1.0  0.0829
  H  H405  1  0.115000  0.557000  0.143400  1.0  0.0893
  H  H406  1  0.173000  0.603000  0.164500  1.0  0.1003
  H  H407  1  0.214000  0.580000  0.111600  1.0  0.1884
  H  H408  1  0.244000  0.471000  0.130600  1.0  0.1142
  H  H409  1  0.304000  0.536000  0.152600  1.0  0.0886
  H  H410  1  0.384000  0.465000  0.117400  1.0  0.0925
  H  H411  1  0.335000  0.525000  0.097500  1.0  0.0911
  H  H412  1  0.442000  0.594000  0.139600  1.0  0.0789
  H  H413  1  0.486000  0.579000  0.107000  1.0  0.1074
  H  H414  1  0.387000  0.670000  0.091300  1.0  0.1838
  H  H415  1  0.434000  0.718000  0.108400  1.0  0.1962
  H  H416  1  0.507000  0.136000  0.279500  1.0  0.2041
  H  H417  1  0.565000  0.121000  0.300700  1.0  0.1874
  H  H418  1  0.420000  0.026000  0.288800  1.0  0.1088
  H  H419  1  0.430000  0.099000  0.313400  1.0  0.0728
  H  H420  1  0.445000  0.966000  0.331400  1.0  0.0856
  H  H421  1  0.547000  0.002000  0.329600  1.0  0.1711
  H  H422  1  0.474000  0.892000  0.294300  1.0  0.0964
  H  H423  1  0.536000  0.853000  0.319000  1.0  0.073
  H  H424  1  0.646000  0.923000  0.301900  1.0  0.2064
  H  H425  1  0.648000  0.795000  0.290400  1.0  0.0912
  H  H426  1  0.581000  0.820000  0.265200  1.0  0.0852
  H  H427  1  0.751000  0.879000  0.270300  1.0  0.1451
  H  H428  1  0.726000  0.809000  0.248700  1.0  0.079
  H  H429  1  0.808000  0.980000  0.238900  1.0  0.1031
  H  H430  1  0.785000  0.905000  0.212800  1.0  0.0753
  H  H431  1  0.678000  0.026000  0.201900  1.0  0.1802
  H  H432  1  0.780000  0.044000  0.195300  1.0  0.0922
  H  H433  1  0.710000  0.170000  0.204500  1.0  0.0926
  H  H434  1  0.771000  0.136000  0.236200  1.0  0.0328
  H  H435  1  0.588000  0.121000  0.222600  1.0  0.0982
  H  H436  1  0.616000  0.165000  0.246800  1.0  0.2497
  H  H437  1  0.857900  0.409700  0.769900  1.0  0.1448
  H  H438  1  0.108000  0.352000  0.031500  1.0  0.2629
  H  H439  1  0.128000  0.421000  0.049800  1.0  0.2104
  H  H440  1  0.235000  0.283000  0.038300  1.0  0.0887
  H  H441  1  0.177000  0.295000  0.064700  1.0  0.1327
  H  H442  1  0.253000  0.426000  0.075500  1.0  0.0799
  H  H443  1  0.306000  0.341000  0.076400  1.0  0.196
  H  H444  1  0.369000  0.361000  0.034200  1.0  0.0731
  H  H445  1  0.398000  0.427000  0.053600  1.0  0.218
  H  H446  1  0.309000  0.514000  0.037400  1.0  0.1804
  H  H447  1  0.436000  0.539000  0.020300  1.0  0.0797
  H  H448  1  0.414000  0.458000  0.001100  1.0  0.0771
  H  H449  1  0.321000  0.622000  0.000400  1.0  0.0853
  H  H450  1  0.389000  0.588000  0.978600  1.0  0.081
  H  H451  1  0.295000  0.485000  0.968700  1.0  0.2465
  H  H452  1  0.203000  0.636000  0.971200  1.0  0.0896
  H  H453  1  0.261000  0.605000  0.946600  1.0  0.0909
  H  H454  1  0.131000  0.578000  0.931100  1.0  0.113
  H  H455  1  0.171000  0.486000  0.936500  1.0  0.0821
  H  H456  1  0.020000  0.497000  0.950300  1.0  0.0847
  H  H457  1  0.063000  0.562000  0.976000  1.0  0.0877
  H  H458  1  0.046000  0.422000  0.988800  1.0  0.2349
  H  H459  1  0.103000  0.395000  0.969100  1.0  0.1407
  H  H460  1  0.147000  0.361000  0.867400  1.0  0.2183
  H  H461  1  0.138000  0.349000  0.894900  1.0  0.1525
  H  H462  1  0.213000  0.480000  0.885400  1.0  0.0821
  H  H463  1  0.264000  0.408000  0.901800  1.0  0.0896
  H  H464  1  0.343000  0.464000  0.866200  1.0  0.1848
  H  H465  1  0.290000  0.415000  0.846100  1.0  0.101
  H  H466  1  0.398000  0.331000  0.881900  1.0  0.0839
  H  H467  1  0.425000  0.346000  0.851800  1.0  0.1112
  H  H468  1  0.326000  0.264000  0.841200  1.0  0.2393
  H  H469  1  0.416000  0.185000  0.880200  1.0  0.0763
  H  H470  1  0.455000  0.197000  0.850900  1.0  0.083
  H  H471  1  0.385000  0.057000  0.856600  1.0  0.0909
  H  H472  1  0.327000  0.103000  0.835500  1.0  0.1011
  H  H473  1  0.286000  0.080000  0.888400  1.0  0.1865
  H  H474  1  0.256000  0.971000  0.869400  1.0  0.1142
  H  H475  1  0.196000  0.036000  0.847400  1.0  0.0868
  H  H476  1  0.116000  0.965000  0.882600  1.0  0.0922
  H  H477  1  0.165000  0.025000  0.902500  1.0  0.092
  H  H478  1  0.058000  0.094000  0.860400  1.0  0.0775
  H  H479  1  0.014000  0.079000  0.893000  1.0  0.1068
  H  H480  1  0.113000  0.170000  0.908700  1.0  0.1809
  H  H481  1  0.066000  0.218000  0.891600  1.0  0.197
  H  H482  1  0.993000  0.636000  0.720500  1.0  0.2044
  H  H483  1  0.935000  0.621000  0.699300  1.0  0.1857
  H  H484  1  0.080000  0.526000  0.711200  1.0  0.1063
  H  H485  1  0.070000  0.599000  0.686600  1.0  0.072
  H  H486  1  0.055000  0.466000  0.668600  1.0  0.0848
  H  H487  1  0.953000  0.502000  0.670400  1.0  0.1687
  H  H488  1  0.026000  0.392000  0.705700  1.0  0.0981
  H  H489  1  0.964000  0.353000  0.681000  1.0  0.0709
  H  H490  1  0.854000  0.423000  0.698100  1.0  0.206
  H  H491  1  0.852000  0.295000  0.709600  1.0  0.0887
  H  H492  1  0.919000  0.320000  0.734800  1.0  0.086
  H  H493  1  0.749000  0.379000  0.729700  1.0  0.1448
  H  H494  1  0.774000  0.309000  0.751300  1.0  0.0799
  H  H495  1  0.692000  0.480000  0.761100  1.0  0.1029
  H  H496  1  0.715000  0.405000  0.787200  1.0  0.0763
  H  H497  1  0.822000  0.526000  0.798100  1.0  0.1767
  H  H498  1  0.720000  0.544000  0.804700  1.0  0.0918
  H  H499  1  0.790000  0.670000  0.795500  1.0  0.0943
  H  H500  1  0.729000  0.636000  0.763800  1.0  0.0347
  H  H501  1  0.912000  0.621000  0.777400  1.0  0.1012
  H  H502  1  0.884000  0.665000  0.753200  1.0  0.2493
  H  H503  1  0.142100  0.090300  0.269900  1.0  0.1432
  H  H504  1  0.892000  0.148000  0.531500  1.0  0.2605
  H  H505  1  0.872000  0.079000  0.549800  1.0  0.2098
  H  H506  1  0.765000  0.217000  0.538300  1.0  0.0903
  H  H507  1  0.823000  0.205000  0.564700  1.0  0.1306
  H  H508  1  0.747000  0.074000  0.575500  1.0  0.0808
  H  H509  1  0.694000  0.159000  0.576400  1.0  0.196
  H  H510  1  0.631000  0.139000  0.534200  1.0  0.0747
  H  H511  1  0.602000  0.073000  0.553600  1.0  0.2171
  H  H512  1  0.691000  0.986000  0.537400  1.0  0.1822
  H  H513  1  0.564000  0.961000  0.520300  1.0  0.081
  H  H514  1  0.586000  0.042000  0.501100  1.0  0.0766
  H  H515  1  0.679000  0.878000  0.500400  1.0  0.084
  H  H516  1  0.611000  0.912000  0.478600  1.0  0.0807
  H  H517  1  0.705000  0.015000  0.468700  1.0  0.2475
  H  H518  1  0.797000  0.864000  0.471200  1.0  0.0909
  H  H519  1  0.739000  0.895000  0.446600  1.0  0.089
  H  H520  1  0.869000  0.922000  0.431100  1.0  0.1128
  H  H521  1  0.829000  0.014000  0.436500  1.0  0.0824
  H  H522  1  0.980000  0.003000  0.450300  1.0  0.0845
  H  H523  1  0.937000  0.938000  0.476000  1.0  0.0873
  H  H524  1  0.954000  0.078000  0.488800  1.0  0.2342
  H  H525  1  0.897000  0.105000  0.469100  1.0  0.1413
  H  H526  1  0.853000  0.139000  0.367400  1.0  0.2183
  H  H527  1  0.862000  0.151000  0.394900  1.0  0.1538
  H  H528  1  0.787000  0.020000  0.385400  1.0  0.0815
  H  H529  1  0.736000  0.092000  0.401800  1.0  0.0904
  H  H530  1  0.657000  0.036000  0.366200  1.0  0.185
  H  H531  1  0.710000  0.085000  0.346100  1.0  0.1004
  H  H532  1  0.602000  0.169000  0.381900  1.0  0.0845
  H  H533  1  0.575000  0.154000  0.351800  1.0  0.1114
  H  H534  1  0.674000  0.236000  0.341200  1.0  0.2396
  H  H535  1  0.584000  0.315000  0.380200  1.0  0.0768
  H  H536  1  0.545000  0.303000  0.350900  1.0  0.0826
  H  H537  1  0.615000  0.443000  0.356600  1.0  0.0912
  H  H538  1  0.673000  0.397000  0.335500  1.0  0.1014
  H  H539  1  0.714000  0.420000  0.388400  1.0  0.1865
  H  H540  1  0.744000  0.529000  0.369400  1.0  0.1138
  H  H541  1  0.804000  0.464000  0.347400  1.0  0.0872
  H  H542  1  0.884000  0.535000  0.382600  1.0  0.0936
  H  H543  1  0.835000  0.475000  0.402500  1.0  0.0914
  H  H544  1  0.942000  0.406000  0.360400  1.0  0.0783
  H  H545  1  0.986000  0.421000  0.393000  1.0  0.1085
  H  H546  1  0.887000  0.330000  0.408700  1.0  0.1809
  H  H547  1  0.934000  0.282000  0.391600  1.0  0.1961
  H  H548  1  0.007000  0.864000  0.220500  1.0  0.2041
  H  H549  1  0.065000  0.879000  0.199300  1.0  0.1859
  H  H550  1  0.920000  0.974000  0.211200  1.0  0.1083
  H  H551  1  0.930000  0.901000  0.186600  1.0  0.0714
  H  H552  1  0.945000  0.034000  0.168600  1.0  0.0867
  H  H553  1  0.047000  0.998000  0.170400  1.0  0.1705
  H  H554  1  0.974000  0.108000  0.205700  1.0  0.0954
  H  H555  1  0.036000  0.147000  0.181000  1.0  0.0715
  H  H556  1  0.146000  0.077000  0.198100  1.0  0.207
  H  H557  1  0.148000  0.205000  0.209600  1.0  0.0903
  H  H558  1  0.081000  0.180000  0.234800  1.0  0.0848
  H  H559  1  0.251000  0.121000  0.229700  1.0  0.145
  H  H560  1  0.226000  0.191000  0.251300  1.0  0.0786
  H  H561  1  0.308000  0.020000  0.261100  1.0  0.1033
  H  H562  1  0.285000  0.095000  0.287200  1.0  0.0753
  H  H563  1  0.178000  0.974000  0.298100  1.0  0.1775
  H  H564  1  0.280000  0.956000  0.304700  1.0  0.0924
  H  H565  1  0.210000  0.830000  0.295500  1.0  0.0945
  H  H566  1  0.271000  0.864000  0.263800  1.0  0.0339
  H  H567  1  0.088000  0.879000  0.277400  1.0  0.1009
  H  H568  1  0.116000  0.835000  0.253200  1.0  0.2498
  C  C569  1  0.294800  0.324900  0.551490  1.0  0.0206
  C  C570  1  0.220700  0.374700  0.564520  1.0  -0.085
  C  C571  1  0.151400  0.407400  0.545980  1.0  -0.0297
  C  C572  1  0.114600  0.507200  0.510640  1.0  -0.0356
  C  C573  1  0.154200  0.567900  0.491130  1.0  -0.0136
  C  C574  1  0.276300  0.584200  0.460110  1.0  -0.0136
  C  C575  1  0.351000  0.540100  0.446050  1.0  -0.1305
  C  C576  1  0.427500  0.513900  0.463780  1.0  -0.0417
  C  C577  1  0.192000  0.302800  0.479530  1.0  0.1684
  C  C578  1  0.072100  0.361100  0.447380  1.0  0.1971
  C  C579  1  0.179100  0.235800  0.430310  1.0  0.2013
  C  C580  1  0.008400  0.195500  0.438470  1.0  0.209
  C  C581  1  0.133500  0.134200  0.471610  1.0  0.2077
  C  C582  1  0.027200  0.252500  0.491240  1.0  0.1348
  C  C583  1  0.257100  0.417200  0.384290  1.0  -0.0192
  C  C584  1  0.187200  0.414300  0.363290  1.0  -0.1633
  C  C585  1  0.124900  0.340100  0.365000  1.0  -0.008
  C  C586  1  0.103600  0.185100  0.361420  1.0  -0.005
  C  C587  1  0.152000  0.104500  0.354970  1.0  0.0038
  C  C588  1  0.283000  0.025100  0.366770  1.0  -0.028
  C  C589  1  0.360000  0.019800  0.385880  1.0  -0.1583
  C  C590  1  0.427900  0.089300  0.382080  1.0  -0.0313
  C  C591  1  0.366700  0.272100  0.319990  1.0  0.1656
  C  C592  1  0.401500  0.274400  0.264800  1.0  0.1508
  C  C593  1  0.530100  0.310300  0.297780  1.0  0.1828
  C  C594  1  0.461300  0.434500  0.269140  1.0  0.1259
  C  C595  1  0.426900  0.435800  0.322230  1.0  0.1987
  C  C596  1  0.294700  0.400700  0.287550  1.0  0.2009
  C  C597  1  0.463900  0.553500  0.196200  1.0  -0.0421
  C  C598  1  0.498000  0.483600  0.178720  1.0  -0.1524
  C  C599  1  0.526400  0.404400  0.192690  1.0  -0.0111
  C  C600  1  0.632400  0.340800  0.222660  1.0  0.0012
  C  C601  1  0.706600  0.360700  0.240510  1.0  -0.011
  C  C602  1  0.755800  0.460500  0.274510  1.0  0.0377
  C  C603  1  0.729500  0.533300  0.292120  1.0  -0.1627
  C  C604  1  0.712800  0.619500  0.278730  1.0  0.1311
  C  C605  1  0.705200  0.175100  0.051490  1.0  0.018
  C  C606  1  0.779300  0.125300  0.064520  1.0  -0.0862
  C  C607  1  0.848600  0.092600  0.045980  1.0  -0.0311
  C  C608  1  0.885400  0.992800  0.010640  1.0  -0.0351
  C  C609  1  0.845800  0.932100  0.991130  1.0  -0.0134
  C  C610  1  0.723700  0.915800  0.960110  1.0  -0.0151
  C  C611  1  0.649000  0.959900  0.946050  1.0  -0.1284
  C  C612  1  0.572500  0.986100  0.963780  1.0  -0.0405
  C  C613  1  0.808000  0.197200  0.979530  1.0  0.1671
  C  C614  1  0.927900  0.138900  0.947380  1.0  0.1962
  C  C615  1  0.820900  0.264200  0.930310  1.0  0.2023
  C  C616  1  0.991600  0.304500  0.938470  1.0  0.2104
  C  C617  1  0.866500  0.365800  0.971610  1.0  0.2068
  C  C618  1  0.972800  0.247500  0.991240  1.0  0.1352
  C  C619  1  0.742900  0.082800  0.884290  1.0  -0.0194
  C  C620  1  0.812800  0.085700  0.863290  1.0  -0.1618
  C  C621  1  0.875100  0.159900  0.865000  1.0  -0.0051
  C  C622  1  0.896400  0.314900  0.861420  1.0  -0.0055
  C  C623  1  0.848000  0.395500  0.854970  1.0  0.0025
  C  C624  1  0.717000  0.474900  0.866770  1.0  -0.0301
  C  C625  1  0.640000  0.480200  0.885880  1.0  -0.1584
  C  C626  1  0.572100  0.410700  0.882080  1.0  -0.0311
  C  C627  1  0.633300  0.227900  0.819990  1.0  0.1669
  C  C628  1  0.598500  0.225600  0.764800  1.0  0.1506
  C  C629  1  0.469900  0.189700  0.797780  1.0  0.1831
  C  C630  1  0.538700  0.065500  0.769140  1.0  0.1259
  C  C631  1  0.573100  0.064200  0.822230  1.0  0.1993
  C  C632  1  0.705300  0.099300  0.787550  1.0  0.2017
  C  C633  1  0.536100  0.946500  0.696200  1.0  -0.0428
  C  C634  1  0.502000  0.016400  0.678720  1.0  -0.1523
  C  C635  1  0.473600  0.095600  0.692690  1.0  -0.0162
  C  C636  1  0.367600  0.159200  0.722660  1.0  0.0017
  C  C637  1  0.293400  0.139300  0.740510  1.0  -0.0091
  C  C638  1  0.244200  0.039500  0.774510  1.0  0.0382
  C  C639  1  0.270500  0.966700  0.792120  1.0  -0.1594
  C  C640  1  0.287200  0.880500  0.778730  1.0  0.131
  C  C641  1  0.794800  0.675100  0.948510  1.0  0.0186
  C  C642  1  0.720700  0.625300  0.935480  1.0  -0.0864
  C  C643  1  0.651400  0.592600  0.954020  1.0  -0.031
  C  C644  1  0.614600  0.492800  0.989360  1.0  -0.0357
  C  C645  1  0.654200  0.432100  0.008870  1.0  -0.012
  C  C646  1  0.776300  0.415800  0.039890  1.0  -0.0126
  C  C647  1  0.851000  0.459900  0.053950  1.0  -0.1262
  C  C648  1  0.927500  0.486100  0.036220  1.0  -0.0435
  C  C649  1  0.692000  0.697200  0.020470  1.0  0.1684
  C  C650  1  0.572100  0.638900  0.052620  1.0  0.1965
  C  C651  1  0.679100  0.764200  0.069690  1.0  0.2004
  C  C652  1  0.508400  0.804500  0.061530  1.0  0.2087
  C  C653  1  0.633500  0.865800  0.028390  1.0  0.2093
  C  C654  1  0.527200  0.747500  0.008760  1.0  0.1341
  C  C655  1  0.757100  0.582800  0.115710  1.0  -0.0196
  C  C656  1  0.687200  0.585700  0.136710  1.0  -0.1612
  C  C657  1  0.624900  0.659900  0.135000  1.0  -0.0087
  C  C658  1  0.603600  0.814900  0.138580  1.0  -0.0048
  C  C659  1  0.652000  0.895500  0.145030  1.0  0.0033
  C  C660  1  0.783000  0.974900  0.133230  1.0  -0.0305
  C  C661  1  0.860000  0.980200  0.114120  1.0  -0.1584
  C  C662  1  0.927900  0.910700  0.117920  1.0  -0.032
  C  C663  1  0.866700  0.727900  0.180010  1.0  0.1657
  C  C664  1  0.901500  0.725600  0.235200  1.0  0.1516
  C  C665  1  0.030100  0.689700  0.202220  1.0  0.183
  C  C666  1  0.961300  0.565500  0.230860  1.0  0.1253
  C  C667  1  0.926900  0.564200  0.177770  1.0  0.1999
  C  C668  1  0.794700  0.599300  0.212450  1.0  0.2023
  C  C669  1  0.963900  0.446500  0.303800  1.0  -0.0412
  C  C670  1  0.998000  0.516400  0.321280  1.0  -0.153
  C  C671  1  0.026400  0.595600  0.307310  1.0  -0.0164
  C  C672  1  0.132400  0.659200  0.277340  1.0  -0.0003
  C  C673  1  0.206600  0.639300  0.259490  1.0  -0.011
  C  C674  1  0.255800  0.539500  0.225490  1.0  0.0377
  C  C675  1  0.229500  0.466700  0.207880  1.0  -0.1593
  C  C676  1  0.212800  0.380500  0.221270  1.0  0.1303
  C  C677  1  0.205200  0.824900  0.448510  1.0  0.0195
  C  C678  1  0.279300  0.874700  0.435480  1.0  -0.0858
  C  C679  1  0.348600  0.907400  0.454020  1.0  -0.032
  C  C680  1  0.385400  0.007200  0.489360  1.0  -0.0353
  C  C681  1  0.345800  0.067900  0.508870  1.0  -0.0139
  C  C682  1  0.223700  0.084200  0.539890  1.0  -0.0143
  C  C683  1  0.149000  0.040100  0.553950  1.0  -0.1286
  C  C684  1  0.072500  0.013900  0.536220  1.0  -0.0428
  C  C685  1  0.308000  0.802800  0.520470  1.0  0.1699
  C  C686  1  0.427900  0.861100  0.552620  1.0  0.1962
  C  C687  1  0.320900  0.735800  0.569690  1.0  0.2
  C  C688  1  0.491600  0.695500  0.561530  1.0  0.2086
  C  C689  1  0.366500  0.634200  0.528390  1.0  0.2062
  C  C690  1  0.472800  0.752500  0.508760  1.0  0.1339
  C  C691  1  0.242900  0.917200  0.615710  1.0  -0.0179
  C  C692  1  0.312800  0.914300  0.636710  1.0  -0.1627
  C  C693  1  0.375100  0.840100  0.635000  1.0  -0.0048
  C  C694  1  0.396400  0.685100  0.638580  1.0  -0.0063
  C  C695  1  0.348000  0.604500  0.645030  1.0  0.0033
  C  C696  1  0.217000  0.525100  0.633230  1.0  -0.0286
  C  C697  1  0.140000  0.519800  0.614120  1.0  -0.1569
  C  C698  1  0.072100  0.589300  0.617920  1.0  -0.0324
  C  C699  1  0.133300  0.772100  0.680010  1.0  0.1643
  C  C700  1  0.098500  0.774400  0.735200  1.0  0.1503
  C  C701  1  0.969900  0.810300  0.702220  1.0  0.1821
  C  C702  1  0.038700  0.934500  0.730860  1.0  0.1252
  C  C703  1  0.073100  0.935800  0.677770  1.0  0.1992
  C  C704  1  0.205300  0.900700  0.712450  1.0  0.2014
  C  C705  1  0.036100  0.053500  0.803800  1.0  -0.0423
  C  C706  1  0.002000  0.983600  0.821280  1.0  -0.1514
  C  C707  1  0.973600  0.904400  0.807310  1.0  -0.0142
  C  C708  1  0.867600  0.840800  0.777340  1.0  0.0007
  C  C709  1  0.793400  0.860700  0.759490  1.0  -0.0091
  C  C710  1  0.744200  0.960500  0.725490  1.0  0.039
  C  C711  1  0.770500  0.033300  0.707880  1.0  -0.1584
  C  C712  1  0.787200  0.119500  0.721270  1.0  0.1312
  C  C713  1  0.705200  0.675100  0.448510  1.0  0.0192
  C  C714  1  0.779300  0.625300  0.435480  1.0  -0.0864
  C  C715  1  0.848600  0.592600  0.454020  1.0  -0.0308
  C  C716  1  0.885400  0.492800  0.489360  1.0  -0.0353
  C  C717  1  0.845800  0.432100  0.508870  1.0  -0.0129
  C  C718  1  0.723700  0.415800  0.539890  1.0  -0.013
  C  C719  1  0.649000  0.459900  0.553950  1.0  -0.1264
  C  C720  1  0.572500  0.486100  0.536220  1.0  -0.0428
  C  C721  1  0.808000  0.697200  0.520470  1.0  0.1685
  C  C722  1  0.927900  0.638900  0.552620  1.0  0.1961
  C  C723  1  0.820900  0.764200  0.569690  1.0  0.2
  C  C724  1  0.991600  0.804500  0.561530  1.0  0.2092
  C  C725  1  0.866500  0.865800  0.528390  1.0  0.2076
  C  C726  1  0.972800  0.747500  0.508760  1.0  0.1342
  C  C727  1  0.742900  0.582800  0.615710  1.0  -0.0193
  C  C728  1  0.812800  0.585700  0.636710  1.0  -0.1609
  C  C729  1  0.875100  0.659900  0.635000  1.0  -0.0053
  C  C730  1  0.896400  0.814900  0.638580  1.0  -0.0051
  C  C731  1  0.848000  0.895500  0.645030  1.0  0.0018
  C  C732  1  0.717000  0.974900  0.633230  1.0  -0.031
  C  C733  1  0.640000  0.980200  0.614120  1.0  -0.157
  C  C734  1  0.572100  0.910700  0.617920  1.0  -0.0324
  C  C735  1  0.633300  0.727900  0.680010  1.0  0.1659
  C  C736  1  0.598500  0.725600  0.735200  1.0  0.1508
  C  C737  1  0.469900  0.689700  0.702220  1.0  0.1829
  C  C738  1  0.538700  0.565500  0.730860  1.0  0.1255
  C  C739  1  0.573100  0.564200  0.677770  1.0  0.1999
  C  C740  1  0.705300  0.599300  0.712450  1.0  0.2022
  C  C741  1  0.536100  0.446500  0.803800  1.0  -0.0421
  C  C742  1  0.502000  0.516400  0.821280  1.0  -0.1537
  C  C743  1  0.473600  0.595600  0.807310  1.0  -0.0175
  C  C744  1  0.367600  0.659200  0.777340  1.0  -0.0009
  C  C745  1  0.293400  0.639300  0.759490  1.0  -0.0092
  C  C746  1  0.244200  0.539500  0.725490  1.0  0.0384
  C  C747  1  0.270500  0.466700  0.707880  1.0  -0.1584
  C  C748  1  0.287200  0.380500  0.721270  1.0  0.131
  C  C749  1  0.294800  0.824900  0.948510  1.0  0.0183
  C  C750  1  0.220700  0.874700  0.935480  1.0  -0.0856
  C  C751  1  0.151400  0.907400  0.954020  1.0  -0.0298
  C  C752  1  0.114600  0.007200  0.989360  1.0  -0.0353
  C  C753  1  0.154200  0.067900  0.008870  1.0  -0.0129
  C  C754  1  0.276300  0.084200  0.039890  1.0  -0.0146
  C  C755  1  0.351000  0.040100  0.053950  1.0  -0.1285
  C  C756  1  0.427500  0.013900  0.036220  1.0  -0.0435
  C  C757  1  0.192000  0.802800  0.020470  1.0  0.1701
  C  C758  1  0.072100  0.861100  0.052620  1.0  0.1966
  C  C759  1  0.179100  0.735800  0.069690  1.0  0.2002
  C  C760  1  0.008400  0.695500  0.061530  1.0  0.2077
  C  C761  1  0.133500  0.634200  0.028390  1.0  0.2079
  C  C762  1  0.027200  0.752500  0.008760  1.0  0.1338
  C  C763  1  0.257100  0.917200  0.115710  1.0  -0.0179
  C  C764  1  0.187200  0.914300  0.136710  1.0  -0.1637
  C  C765  1  0.124900  0.840100  0.135000  1.0  -0.0079
  C  C766  1  0.103600  0.685100  0.138580  1.0  -0.0054
  C  C767  1  0.152000  0.604500  0.145030  1.0  0.005
  C  C768  1  0.283000  0.525100  0.133230  1.0  -0.0276
  C  C769  1  0.360000  0.519800  0.114120  1.0  -0.1582
  C  C770  1  0.427900  0.589300  0.117920  1.0  -0.0327
  C  C771  1  0.366700  0.772100  0.180010  1.0  0.1644
  C  C772  1  0.401500  0.774400  0.235200  1.0  0.1509
  C  C773  1  0.530100  0.810300  0.202220  1.0  0.1828
  C  C774  1  0.461300  0.934500  0.230860  1.0  0.1257
  C  C775  1  0.426900  0.935800  0.177770  1.0  0.1988
  C  C776  1  0.294700  0.900700  0.212450  1.0  0.2018
  C  C777  1  0.463900  0.053500  0.303800  1.0  -0.0416
  C  C778  1  0.498000  0.983600  0.321280  1.0  -0.1514
  C  C779  1  0.526400  0.904400  0.307310  1.0  -0.0115
  C  C780  1  0.632400  0.840800  0.277340  1.0  0.0017
  C  C781  1  0.706600  0.860700  0.259490  1.0  -0.0106
  C  C782  1  0.755800  0.960500  0.225490  1.0  0.038
  C  C783  1  0.729500  0.033300  0.207880  1.0  -0.1595
  C  C784  1  0.712800  0.119500  0.221270  1.0  0.1318
  C  C785  1  0.205200  0.324900  0.051490  1.0  0.0199
  C  C786  1  0.279300  0.374700  0.064520  1.0  -0.0842
  C  C787  1  0.348600  0.407400  0.045980  1.0  -0.0311
  C  C788  1  0.385400  0.507200  0.010640  1.0  -0.0352
  C  C789  1  0.345800  0.567900  0.991130  1.0  -0.0142
  C  C790  1  0.223700  0.584200  0.960110  1.0  -0.0143
  C  C791  1  0.149000  0.540100  0.946050  1.0  -0.1284
  C  C792  1  0.072500  0.513900  0.963780  1.0  -0.0403
  C  C793  1  0.308000  0.302800  0.979530  1.0  0.1679
  C  C794  1  0.427900  0.361100  0.947380  1.0  0.1966
  C  C795  1  0.320900  0.235800  0.930310  1.0  0.2022
  C  C796  1  0.491600  0.195500  0.938470  1.0  0.2098
  C  C797  1  0.366500  0.134200  0.971610  1.0  0.2061
  C  C798  1  0.472800  0.252500  0.991240  1.0  0.1348
  C  C799  1  0.242900  0.417200  0.884290  1.0  -0.0191
  C  C800  1  0.312800  0.414300  0.863290  1.0  -0.1624
  C  C801  1  0.375100  0.340100  0.865000  1.0  -0.0045
  C  C802  1  0.396400  0.185100  0.861420  1.0  -0.0061
  C  C803  1  0.348000  0.104500  0.854970  1.0  0.0024
  C  C804  1  0.217000  0.025100  0.866770  1.0  -0.0289
  C  C805  1  0.140000  0.019800  0.885880  1.0  -0.157
  C  C806  1  0.072100  0.089300  0.882080  1.0  -0.0309
  C  C807  1  0.133300  0.272100  0.819990  1.0  0.166
  C  C808  1  0.098500  0.274400  0.764800  1.0  0.1502
  C  C809  1  0.969900  0.310300  0.797780  1.0  0.1823
  C  C810  1  0.038700  0.434500  0.769140  1.0  0.1252
  C  C811  1  0.073100  0.435800  0.822230  1.0  0.1992
  C  C812  1  0.205300  0.400700  0.787550  1.0  0.2009
  C  C813  1  0.036100  0.553500  0.696200  1.0  -0.043
  C  C814  1  0.002000  0.483600  0.678720  1.0  -0.1519
  C  C815  1  0.973600  0.404400  0.692690  1.0  -0.0154
  C  C816  1  0.867600  0.340800  0.722660  1.0  0.0009
  C  C817  1  0.793400  0.360700  0.740510  1.0  -0.0092
  C  C818  1  0.744200  0.460500  0.774510  1.0  0.0387
  C  C819  1  0.770500  0.533300  0.792120  1.0  -0.1599
  C  C820  1  0.787200  0.619500  0.778730  1.0  0.1298
  C  C821  1  0.794800  0.175100  0.551490  1.0  0.0194
  C  C822  1  0.720700  0.125300  0.564520  1.0  -0.0874
  C  C823  1  0.651400  0.092600  0.545980  1.0  -0.0327
  C  C824  1  0.614600  0.992800  0.510640  1.0  -0.0358
  C  C825  1  0.654200  0.932100  0.491130  1.0  -0.0129
  C  C826  1  0.776300  0.915800  0.460110  1.0  -0.0129
  C  C827  1  0.851000  0.959900  0.446050  1.0  -0.1303
  C  C828  1  0.927500  0.986100  0.463780  1.0  -0.0421
  C  C829  1  0.692000  0.197200  0.479530  1.0  0.1675
  C  C830  1  0.572100  0.138900  0.447380  1.0  0.1967
  C  C831  1  0.679100  0.264200  0.430310  1.0  0.2017
  C  C832  1  0.508400  0.304500  0.438470  1.0  0.2099
  C  C833  1  0.633500  0.365800  0.471610  1.0  0.2084
  C  C834  1  0.527200  0.247500  0.491240  1.0  0.1352
  C  C835  1  0.757100  0.082800  0.384290  1.0  -0.0198
  C  C836  1  0.687200  0.085700  0.363290  1.0  -0.1617
  C  C837  1  0.624900  0.159900  0.365000  1.0  -0.0088
  C  C838  1  0.603600  0.314900  0.361420  1.0  -0.0049
  C  C839  1  0.652000  0.395500  0.354970  1.0  0.0036
  C  C840  1  0.783000  0.474900  0.366770  1.0  -0.0295
  C  C841  1  0.860000  0.480200  0.385880  1.0  -0.1591
  C  C842  1  0.927900  0.410700  0.382080  1.0  -0.031
  C  C843  1  0.866700  0.227900  0.319990  1.0  0.1664
  C  C844  1  0.901500  0.225600  0.264800  1.0  0.1514
  C  C845  1  0.030100  0.189700  0.297780  1.0  0.1831
  C  C846  1  0.961300  0.065500  0.269140  1.0  0.1258
  C  C847  1  0.926900  0.064200  0.322230  1.0  0.1992
  C  C848  1  0.794700  0.099300  0.287550  1.0  0.2017
  C  C849  1  0.963900  0.946500  0.196200  1.0  -0.0418
  C  C850  1  0.998000  0.016400  0.178720  1.0  -0.1524
  C  C851  1  0.026400  0.095600  0.192690  1.0  -0.0139
  C  C852  1  0.132400  0.159200  0.222660  1.0  0.0022
  C  C853  1  0.206600  0.139300  0.240510  1.0  -0.0113
  C  C854  1  0.255800  0.039500  0.274510  1.0  0.0374
  C  C855  1  0.229500  0.966700  0.292120  1.0  -0.1617
  C  C856  1  0.212800  0.880500  0.278730  1.0  0.1315
  N  N857  1  0.353900  0.383600  0.536970  1.0  -0.6036
  N  N858  1  0.183400  0.475700  0.528810  1.0  -0.2158
  N  N859  1  0.227200  0.524900  0.477260  1.0  -0.3627
  N  N860  1  0.404400  0.440100  0.480730  1.0  -0.5763
  N  N861  1  0.242100  0.343400  0.490620  1.0  -0.4678
  N  N862  1  0.060900  0.430300  0.439640  1.0  -0.4743
  N  N863  1  0.224000  0.230000  0.412210  1.0  -0.4489
  N  N864  1  0.958500  0.162600  0.425420  1.0  -0.452
  N  N865  1  0.151900  0.067200  0.479170  1.0  -0.4385
  N  N866  1  0.989700  0.251200  0.510830  1.0  -0.5014
  N  N867  1  0.324500  0.350600  0.380550  1.0  -0.5902
  N  N868  1  0.164000  0.257500  0.357460  1.0  -0.4008
  N  N869  1  0.228600  0.099100  0.372440  1.0  -0.3513
  N  N870  1  0.397700  0.173100  0.391800  1.0  -0.6386
  N  N871  1  0.341800  0.230300  0.336970  1.0  -0.506
  N  N872  1  0.402800  0.228900  0.247060  1.0  -0.5053
  N  N873  1  0.601300  0.285600  0.298620  1.0  -0.4598
  N  N874  1  0.499800  0.477500  0.254900  1.0  -0.4668
  N  N875  1  0.436300  0.484600  0.339130  1.0  -0.4609
  N  N876  1  0.227800  0.431200  0.283040  1.0  -0.4681
  N  N877  1  0.533700  0.597100  0.211340  1.0  -0.693
  N  N878  1  0.607200  0.418500  0.208420  1.0  -0.3497
  N  N879  1  0.682800  0.432200  0.258240  1.0  -0.4052
  N  N880  1  0.630400  0.619500  0.263040  1.0  -0.5712
  N  N881  1  0.646100  0.116400  0.036970  1.0  -0.6059
  N  N882  1  0.816600  0.024300  0.028810  1.0  -0.2151
  N  N883  1  0.772800  0.975100  0.977260  1.0  -0.3619
  N  N884  1  0.595600  0.059900  0.980730  1.0  -0.5788
  N  N885  1  0.757900  0.156600  0.990620  1.0  -0.4687
  N  N886  1  0.939100  0.069700  0.939640  1.0  -0.4736
  N  N887  1  0.776000  0.270000  0.912210  1.0  -0.449
  N  N888  1  0.041500  0.337400  0.925420  1.0  -0.4529
  N  N889  1  0.848100  0.432800  0.979170  1.0  -0.4384
  N  N890  1  0.010300  0.248800  0.010830  1.0  -0.5012
  N  N891  1  0.675500  0.149400  0.880550  1.0  -0.5906
  N  N892  1  0.836000  0.242500  0.857460  1.0  -0.4015
  N  N893  1  0.771400  0.400900  0.872440  1.0  -0.3512
  N  N894  1  0.602300  0.326900  0.891800  1.0  -0.6398
  N  N895  1  0.658200  0.269700  0.836970  1.0  -0.5064
  N  N896  1  0.597200  0.271100  0.747060  1.0  -0.505
  N  N897  1  0.398700  0.214400  0.798620  1.0  -0.4593
  N  N898  1  0.500200  0.022500  0.754900  1.0  -0.4673
  N  N899  1  0.563700  0.015400  0.839130  1.0  -0.4576
  N  N900  1  0.772200  0.068800  0.783040  1.0  -0.4689
  N  N901  1  0.466300  0.902900  0.711340  1.0  -0.6911
  N  N902  1  0.392800  0.081500  0.708420  1.0  -0.3514
  N  N903  1  0.317200  0.067800  0.758240  1.0  -0.4065
  N  N904  1  0.369600  0.880500  0.763040  1.0  -0.5713
  N  N905  1  0.853900  0.616400  0.963030  1.0  -0.6053
  N  N906  1  0.683400  0.524300  0.971190  1.0  -0.2138
  N  N907  1  0.727200  0.475100  0.022740  1.0  -0.3618
  N  N908  1  0.904400  0.559900  0.019270  1.0  -0.5788
  N  N909  1  0.742100  0.656600  0.009380  1.0  -0.4686
  N  N910  1  0.560900  0.569700  0.060360  1.0  -0.4733
  N  N911  1  0.724000  0.770000  0.087790  1.0  -0.4467
  N  N912  1  0.458500  0.837400  0.074580  1.0  -0.4536
  N  N913  1  0.651900  0.932800  0.020830  1.0  -0.4394
  N  N914  1  0.489700  0.748800  0.989170  1.0  -0.5015
  N  N915  1  0.824500  0.649400  0.119450  1.0  -0.5903
  N  N916  1  0.664000  0.742500  0.142540  1.0  -0.4017
  N  N917  1  0.728600  0.900900  0.127560  1.0  -0.3509
  N  N918  1  0.897700  0.826900  0.108200  1.0  -0.6418
  N  N919  1  0.841800  0.769700  0.163030  1.0  -0.5042
  N  N920  1  0.902800  0.771100  0.252940  1.0  -0.504
  N  N921  1  0.101300  0.714400  0.201380  1.0  -0.4596
  N  N922  1  0.999800  0.522500  0.245100  1.0  -0.4671
  N  N923  1  0.936300  0.515400  0.160870  1.0  -0.4578
  N  N924  1  0.727800  0.568800  0.216960  1.0  -0.469
  N  N925  1  0.033700  0.402900  0.288660  1.0  -0.6924
  N  N926  1  0.107200  0.581500  0.291580  1.0  -0.3511
  N  N927  1  0.182800  0.567800  0.241760  1.0  -0.4026
  N  N928  1  0.130400  0.380500  0.236960  1.0  -0.5739
  N  N929  1  0.146100  0.883600  0.463030  1.0  -0.6062
  N  N930  1  0.316600  0.975700  0.471190  1.0  -0.2131
  N  N931  1  0.272800  0.024900  0.522740  1.0  -0.3611
  N  N932  1  0.095600  0.940100  0.519270  1.0  -0.5757
  N  N933  1  0.257900  0.843400  0.509380  1.0  -0.4678
  N  N934  1  0.439100  0.930300  0.560360  1.0  -0.4743
  N  N935  1  0.276000  0.730000  0.587790  1.0  -0.4475
  N  N936  1  0.541500  0.662600  0.574580  1.0  -0.4535
  N  N937  1  0.348100  0.567200  0.520830  1.0  -0.44
  N  N938  1  0.510300  0.751200  0.489170  1.0  -0.5012
  N  N939  1  0.175500  0.850600  0.619450  1.0  -0.5911
  N  N940  1  0.336000  0.757500  0.642540  1.0  -0.4026
  N  N941  1  0.271400  0.599100  0.627560  1.0  -0.349
  N  N942  1  0.102300  0.673100  0.608200  1.0  -0.6423
  N  N943  1  0.158200  0.730300  0.663030  1.0  -0.5042
  N  N944  1  0.097200  0.728900  0.752940  1.0  -0.5034
  N  N945  1  0.898700  0.785600  0.701380  1.0  -0.4596
  N  N946  1  0.000200  0.977500  0.745100  1.0  -0.4691
  N  N947  1  0.063700  0.984600  0.660870  1.0  -0.4603
  N  N948  1  0.272200  0.931200  0.716960  1.0  -0.4693
  N  N949  1  0.966300  0.097100  0.788660  1.0  -0.691
  N  N950  1  0.892800  0.918500  0.791580  1.0  -0.3529
  N  N951  1  0.817200  0.932200  0.741760  1.0  -0.4037
  N  N952  1  0.869600  0.119500  0.736960  1.0  -0.573
  N  N953  1  0.646100  0.616400  0.463030  1.0  -0.6062
  N  N954  1  0.816600  0.524300  0.471190  1.0  -0.2132
  N  N955  1  0.772800  0.475100  0.522740  1.0  -0.3611
  N  N956  1  0.595600  0.559900  0.519270  1.0  -0.5777
  N  N957  1  0.757900  0.656600  0.509380  1.0  -0.4687
  N  N958  1  0.939100  0.569700  0.560360  1.0  -0.4727
  N  N959  1  0.776000  0.770000  0.587790  1.0  -0.4476
  N  N960  1  0.041500  0.837400  0.574580  1.0  -0.4539
  N  N961  1  0.848100  0.932800  0.520830  1.0  -0.4394
  N  N962  1  0.010300  0.748800  0.489170  1.0  -0.5019
  N  N963  1  0.675500  0.649400  0.619450  1.0  -0.5912
  N  N964  1  0.836000  0.742500  0.642540  1.0  -0.4017
  N  N965  1  0.771400  0.900900  0.627560  1.0  -0.3495
  N  N966  1  0.602300  0.826900  0.608200  1.0  -0.6409
  N  N967  1  0.658200  0.769700  0.663030  1.0  -0.5045
  N  N968  1  0.597200  0.771100  0.752940  1.0  -0.5042
  N  N969  1  0.398700  0.714400  0.701380  1.0  -0.4592
  N  N970  1  0.500200  0.522500  0.745100  1.0  -0.469
  N  N971  1  0.563700  0.515400  0.660870  1.0  -0.4577
  N  N972  1  0.772200  0.568800  0.716960  1.0  -0.4692
  N  N973  1  0.466300  0.402900  0.788660  1.0  -0.6909
  N  N974  1  0.392800  0.581500  0.791580  1.0  -0.3533
  N  N975  1  0.317200  0.567800  0.741760  1.0  -0.4038
  N  N976  1  0.369600  0.380500  0.736960  1.0  -0.5727
  N  N977  1  0.353900  0.883600  0.963030  1.0  -0.605
  N  N978  1  0.183400  0.975700  0.971190  1.0  -0.2127
  N  N979  1  0.227200  0.024900  0.022740  1.0  -0.362
  N  N980  1  0.404400  0.940100  0.019270  1.0  -0.576
  N  N981  1  0.242100  0.843400  0.009380  1.0  -0.4679
  N  N982  1  0.060900  0.930300  0.060360  1.0  -0.475
  N  N983  1  0.224000  0.730000  0.087790  1.0  -0.4466
  N  N984  1  0.958500  0.662600  0.074580  1.0  -0.4532
  N  N985  1  0.151900  0.567200  0.020830  1.0  -0.4398
  N  N986  1  0.989700  0.751200  0.989170  1.0  -0.5011
  N  N987  1  0.324500  0.850600  0.119450  1.0  -0.5901
  N  N988  1  0.164000  0.757500  0.142540  1.0  -0.4025
  N  N989  1  0.228600  0.599100  0.127560  1.0  -0.3512
  N  N990  1  0.397700  0.673100  0.108200  1.0  -0.6427
  N  N991  1  0.341800  0.730300  0.163030  1.0  -0.504
  N  N992  1  0.402800  0.728900  0.252940  1.0  -0.5037
  N  N993  1  0.601300  0.785600  0.201380  1.0  -0.4597
  N  N994  1  0.499800  0.977500  0.245100  1.0  -0.467
  N  N995  1  0.436300  0.984600  0.160870  1.0  -0.4605
  N  N996  1  0.227800  0.931200  0.216960  1.0  -0.4689
  N  N997  1  0.533700  0.097100  0.288660  1.0  -0.6923
  N  N998  1  0.607200  0.918500  0.291580  1.0  -0.3506
  N  N999  1  0.682800  0.932200  0.241760  1.0  -0.4029
  N  N1000  1  0.630400  0.119500  0.236960  1.0  -0.5724
  N  N1001  1  0.146100  0.383600  0.036970  1.0  -0.6058
  N  N1002  1  0.316600  0.475700  0.028810  1.0  -0.216
  N  N1003  1  0.272800  0.524900  0.977260  1.0  -0.3624
  N  N1004  1  0.095600  0.440100  0.980730  1.0  -0.5756
  N  N1005  1  0.257900  0.343400  0.990620  1.0  -0.4683
  N  N1006  1  0.439100  0.430300  0.939640  1.0  -0.4737
  N  N1007  1  0.276000  0.230000  0.912210  1.0  -0.4492
  N  N1008  1  0.541500  0.162600  0.925420  1.0  -0.4524
  N  N1009  1  0.348100  0.067200  0.979170  1.0  -0.4391
  N  N1010  1  0.510300  0.251200  0.010830  1.0  -0.5016
  N  N1011  1  0.175500  0.350600  0.880550  1.0  -0.591
  N  N1012  1  0.336000  0.257500  0.857460  1.0  -0.402
  N  N1013  1  0.271400  0.099100  0.872440  1.0  -0.3501
  N  N1014  1  0.102300  0.173100  0.891800  1.0  -0.64
  N  N1015  1  0.158200  0.230300  0.836970  1.0  -0.5057
  N  N1016  1  0.097200  0.228900  0.747060  1.0  -0.5052
  N  N1017  1  0.898700  0.285600  0.798620  1.0  -0.4596
  N  N1018  1  0.000200  0.477500  0.754900  1.0  -0.4676
  N  N1019  1  0.063700  0.484600  0.839130  1.0  -0.4611
  N  N1020  1  0.272200  0.431200  0.783040  1.0  -0.469
  N  N1021  1  0.966300  0.597100  0.711340  1.0  -0.6926
  N  N1022  1  0.892800  0.418500  0.708420  1.0  -0.3524
  N  N1023  1  0.817200  0.432200  0.758240  1.0  -0.4062
  N  N1024  1  0.869600  0.619500  0.763040  1.0  -0.5716
  N  N1025  1  0.853900  0.116400  0.536970  1.0  -0.6041
  N  N1026  1  0.683400  0.024300  0.528810  1.0  -0.2157
  N  N1027  1  0.727200  0.975100  0.477260  1.0  -0.3623
  N  N1028  1  0.904400  0.059900  0.480730  1.0  -0.5803
  N  N1029  1  0.742100  0.156600  0.490620  1.0  -0.4684
  N  N1030  1  0.560900  0.069700  0.439640  1.0  -0.474
  N  N1031  1  0.724000  0.270000  0.412210  1.0  -0.4488
  N  N1032  1  0.458500  0.337400  0.425420  1.0  -0.4525
  N  N1033  1  0.651900  0.432800  0.479170  1.0  -0.4379
  N  N1034  1  0.489700  0.248800  0.510830  1.0  -0.5009
  N  N1035  1  0.824500  0.149400  0.380550  1.0  -0.5901
  N  N1036  1  0.664000  0.242500  0.357460  1.0  -0.4005
  N  N1037  1  0.728600  0.400900  0.372440  1.0  -0.3517
  N  N1038  1  0.897700  0.326900  0.391800  1.0  -0.6391
  N  N1039  1  0.841800  0.269700  0.336970  1.0  -0.5066
  N  N1040  1  0.902800  0.271100  0.247060  1.0  -0.505
  N  N1041  1  0.101300  0.214400  0.298620  1.0  -0.4598
  N  N1042  1  0.999800  0.022500  0.254900  1.0  -0.4664
  N  N1043  1  0.936300  0.015400  0.339130  1.0  -0.4574
  N  N1044  1  0.727800  0.068800  0.283040  1.0  -0.4684
  N  N1045  1  0.033700  0.902900  0.211340  1.0  -0.6918
  N  N1046  1  0.107200  0.081500  0.208420  1.0  -0.3486
  N  N1047  1  0.182800  0.067800  0.258240  1.0  -0.405
  N  N1048  1  0.130400  0.880500  0.263040  1.0  -0.573
