# generated using pymatgen
data_Zn2Mo6H8C12NO14
_symmetry_space_group_name_H-M   'P 1'
_cell_length_a   29.44360000
_cell_length_b   29.44360000
_cell_length_c   54.54300000
_cell_angle_alpha   90.00000000
_cell_angle_beta   90.00000000
_cell_angle_gamma   90.00000000
_symmetry_Int_Tables_number   1
_chemical_formula_structural   Zn2Mo6H8C12NO14
_chemical_formula_sum   'Zn64 Mo192 H256 C384 N32 O448'
_cell_volume   47284.72196230
_cell_formula_units_Z   32
loop_
 _symmetry_equiv_pos_site_id
 _symmetry_equiv_pos_as_xyz
  1  'x, y, z'
loop_
 _atom_site_type_symbol
 _atom_site_label
 _atom_site_symmetry_multiplicity
 _atom_site_fract_x
 _atom_site_fract_y
 _atom_site_fract_z
 _atom_site_occupancy
 _atom_site_charge
  Zn  Zn1  1  0.839760  0.311660  0.084740  1.0  1.1181
  Zn  Zn2  1  0.850800  0.514380  0.092520  1.0  1.0696
  Zn  Zn3  1  0.339760  0.811660  0.584740  1.0  1.1181
  Zn  Zn4  1  0.350800  0.014380  0.592520  1.0  1.0696
  Zn  Zn5  1  0.938340  0.410240  0.165260  1.0  1.1189
  Zn  Zn6  1  0.735620  0.399200  0.157480  1.0  1.0692
  Zn  Zn7  1  0.438340  0.910240  0.665260  1.0  1.1189
  Zn  Zn8  1  0.235620  0.899200  0.657480  1.0  1.0692
  Zn  Zn9  1  0.339760  0.311660  0.415260  1.0  1.1184
  Zn  Zn10  1  0.350800  0.514380  0.407480  1.0  1.0695
  Zn  Zn11  1  0.839760  0.811660  0.915260  1.0  1.1184
  Zn  Zn12  1  0.850800  0.014380  0.907480  1.0  1.0695
  Zn  Zn13  1  0.438340  0.410240  0.334740  1.0  1.1189
  Zn  Zn14  1  0.235620  0.399200  0.342520  1.0  1.069
  Zn  Zn15  1  0.938340  0.910240  0.834740  1.0  1.1189
  Zn  Zn16  1  0.735620  0.899200  0.842520  1.0  1.069
  Zn  Zn17  1  0.660240  0.688340  0.584740  1.0  1.1193
  Zn  Zn18  1  0.649200  0.485620  0.592520  1.0  1.0704
  Zn  Zn19  1  0.160240  0.188340  0.084740  1.0  1.1193
  Zn  Zn20  1  0.149200  0.985620  0.092520  1.0  1.0704
  Zn  Zn21  1  0.561660  0.589760  0.665260  1.0  1.1179
  Zn  Zn22  1  0.764380  0.600800  0.657480  1.0  1.0697
  Zn  Zn23  1  0.061660  0.089760  0.165260  1.0  1.1179
  Zn  Zn24  1  0.264380  0.100800  0.157480  1.0  1.0697
  Zn  Zn25  1  0.160240  0.688340  0.915260  1.0  1.1192
  Zn  Zn26  1  0.149200  0.485620  0.907480  1.0  1.0707
  Zn  Zn27  1  0.660240  0.188340  0.415260  1.0  1.1192
  Zn  Zn28  1  0.649200  0.985620  0.407480  1.0  1.0707
  Zn  Zn29  1  0.061660  0.589760  0.834740  1.0  1.1179
  Zn  Zn30  1  0.264380  0.600800  0.842520  1.0  1.0695
  Zn  Zn31  1  0.561660  0.089760  0.334740  1.0  1.1179
  Zn  Zn32  1  0.764380  0.100800  0.342520  1.0  1.0695
  Zn  Zn33  1  0.938340  0.589760  0.334740  1.0  1.1189
  Zn  Zn34  1  0.735620  0.600800  0.342520  1.0  1.0691
  Zn  Zn35  1  0.438340  0.089760  0.834740  1.0  1.1189
  Zn  Zn36  1  0.235620  0.100800  0.842520  1.0  1.0691
  Zn  Zn37  1  0.839760  0.688340  0.415260  1.0  1.1188
  Zn  Zn38  1  0.850800  0.485620  0.407480  1.0  1.0704
  Zn  Zn39  1  0.339760  0.188340  0.915260  1.0  1.1188
  Zn  Zn40  1  0.350800  0.985620  0.907480  1.0  1.0704
  Zn  Zn41  1  0.438340  0.589760  0.165260  1.0  1.1189
  Zn  Zn42  1  0.235620  0.600800  0.157480  1.0  1.0693
  Zn  Zn43  1  0.938340  0.089760  0.665260  1.0  1.1189
  Zn  Zn44  1  0.735620  0.100800  0.657480  1.0  1.0693
  Zn  Zn45  1  0.339760  0.688340  0.084740  1.0  1.1185
  Zn  Zn46  1  0.350800  0.485620  0.092520  1.0  1.0702
  Zn  Zn47  1  0.839760  0.188340  0.584740  1.0  1.1185
  Zn  Zn48  1  0.850800  0.985620  0.592520  1.0  1.0702
  Zn  Zn49  1  0.561660  0.410240  0.834740  1.0  1.1187
  Zn  Zn50  1  0.764380  0.399200  0.842520  1.0  1.0693
  Zn  Zn51  1  0.061660  0.910240  0.334740  1.0  1.1187
  Zn  Zn52  1  0.264380  0.899200  0.342520  1.0  1.0693
  Zn  Zn53  1  0.660240  0.311660  0.915260  1.0  1.1184
  Zn  Zn54  1  0.649200  0.514380  0.907480  1.0  1.0699
  Zn  Zn55  1  0.160240  0.811660  0.415260  1.0  1.1184
  Zn  Zn56  1  0.149200  0.014380  0.407480  1.0  1.0699
  Zn  Zn57  1  0.061660  0.410240  0.665260  1.0  1.1186
  Zn  Zn58  1  0.264380  0.399200  0.657480  1.0  1.0696
  Zn  Zn59  1  0.561660  0.910240  0.165260  1.0  1.1186
  Zn  Zn60  1  0.764380  0.899200  0.157480  1.0  1.0696
  Zn  Zn61  1  0.160240  0.311660  0.584740  1.0  1.1185
  Zn  Zn62  1  0.149200  0.514380  0.592520  1.0  1.07
  Zn  Zn63  1  0.660240  0.811660  0.084740  1.0  1.1185
  Zn  Zn64  1  0.649200  0.014380  0.092520  1.0  1.07
  Mo  Mo65  1  0.803640  0.417140  0.060310  1.0  1.103
  Mo  Mo66  1  0.778170  0.511590  0.143960  1.0  0.9839
  Mo  Mo67  1  0.893140  0.415480  0.062920  1.0  1.0589
  Mo  Mo68  1  0.947740  0.350110  0.109270  1.0  1.0425
  Mo  Mo69  1  0.953460  0.466460  0.109600  1.0  1.1163
  Mo  Mo70  1  0.894420  0.515580  0.151260  1.0  1.086
  Mo  Mo71  1  0.303640  0.917140  0.560310  1.0  1.103
  Mo  Mo72  1  0.278170  0.011590  0.643960  1.0  0.9839
  Mo  Mo73  1  0.393140  0.915480  0.562920  1.0  1.0589
  Mo  Mo74  1  0.447740  0.850110  0.609270  1.0  1.0425
  Mo  Mo75  1  0.453460  0.966460  0.609600  1.0  1.1163
  Mo  Mo76  1  0.394420  0.015580  0.651260  1.0  1.086
  Mo  Mo77  1  0.832860  0.446360  0.189690  1.0  1.0969
  Mo  Mo78  1  0.738410  0.471830  0.106040  1.0  0.9842
  Mo  Mo79  1  0.834520  0.356860  0.187080  1.0  1.0573
  Mo  Mo80  1  0.899890  0.302260  0.140730  1.0  1.0421
  Mo  Mo81  1  0.783540  0.296540  0.140400  1.0  1.1175
  Mo  Mo82  1  0.734420  0.355580  0.098740  1.0  1.0848
  Mo  Mo83  1  0.332860  0.946360  0.689690  1.0  1.0969
  Mo  Mo84  1  0.238410  0.971830  0.606040  1.0  0.9842
  Mo  Mo85  1  0.334520  0.856860  0.687080  1.0  1.0573
  Mo  Mo86  1  0.399890  0.802260  0.640730  1.0  1.0421
  Mo  Mo87  1  0.283540  0.796540  0.640400  1.0  1.1175
  Mo  Mo88  1  0.234420  0.855580  0.598740  1.0  1.0848
  Mo  Mo89  1  0.303640  0.417140  0.439690  1.0  1.0985
  Mo  Mo90  1  0.278170  0.511590  0.356040  1.0  0.984
  Mo  Mo91  1  0.393140  0.415480  0.437080  1.0  1.0566
  Mo  Mo92  1  0.447740  0.350110  0.390730  1.0  1.0414
  Mo  Mo93  1  0.453460  0.466460  0.390400  1.0  1.1162
  Mo  Mo94  1  0.394420  0.515580  0.348740  1.0  1.087
  Mo  Mo95  1  0.803640  0.917140  0.939690  1.0  1.0985
  Mo  Mo96  1  0.778170  0.011590  0.856040  1.0  0.984
  Mo  Mo97  1  0.893140  0.915480  0.937080  1.0  1.0566
  Mo  Mo98  1  0.947740  0.850110  0.890730  1.0  1.0414
  Mo  Mo99  1  0.953460  0.966460  0.890400  1.0  1.1162
  Mo  Mo100  1  0.894420  0.015580  0.848740  1.0  1.087
  Mo  Mo101  1  0.332860  0.446360  0.310310  1.0  1.1002
  Mo  Mo102  1  0.238410  0.471830  0.393960  1.0  0.9838
  Mo  Mo103  1  0.334520  0.356860  0.312920  1.0  1.0611
  Mo  Mo104  1  0.399890  0.302260  0.359270  1.0  1.0428
  Mo  Mo105  1  0.283540  0.296540  0.359600  1.0  1.1179
  Mo  Mo106  1  0.234420  0.355580  0.401260  1.0  1.0842
  Mo  Mo107  1  0.832860  0.946360  0.810310  1.0  1.1002
  Mo  Mo108  1  0.738410  0.971830  0.893960  1.0  0.9838
  Mo  Mo109  1  0.834520  0.856860  0.812920  1.0  1.0611
  Mo  Mo110  1  0.899890  0.802260  0.859270  1.0  1.0428
  Mo  Mo111  1  0.783540  0.796540  0.859600  1.0  1.1179
  Mo  Mo112  1  0.734420  0.855580  0.901260  1.0  1.0842
  Mo  Mo113  1  0.696360  0.582860  0.560310  1.0  1.1009
  Mo  Mo114  1  0.721830  0.488410  0.643960  1.0  0.9828
  Mo  Mo115  1  0.606860  0.584520  0.562920  1.0  1.0612
  Mo  Mo116  1  0.552260  0.649890  0.609270  1.0  1.0418
  Mo  Mo117  1  0.546540  0.533540  0.609600  1.0  1.1169
  Mo  Mo118  1  0.605580  0.484420  0.651260  1.0  1.0854
  Mo  Mo119  1  0.196360  0.082860  0.060310  1.0  1.1009
  Mo  Mo120  1  0.221830  0.988410  0.143960  1.0  0.9828
  Mo  Mo121  1  0.106860  0.084520  0.062920  1.0  1.0612
  Mo  Mo122  1  0.052260  0.149890  0.109270  1.0  1.0418
  Mo  Mo123  1  0.046540  0.033540  0.109600  1.0  1.1169
  Mo  Mo124  1  0.105580  0.984420  0.151260  1.0  1.0854
  Mo  Mo125  1  0.667140  0.553640  0.689690  1.0  1.0964
  Mo  Mo126  1  0.761590  0.528170  0.606040  1.0  0.9836
  Mo  Mo127  1  0.665480  0.643140  0.687080  1.0  1.0581
  Mo  Mo128  1  0.600110  0.697740  0.640730  1.0  1.0432
  Mo  Mo129  1  0.716460  0.703460  0.640400  1.0  1.1171
  Mo  Mo130  1  0.765580  0.644420  0.598740  1.0  1.0867
  Mo  Mo131  1  0.167140  0.053640  0.189690  1.0  1.0964
  Mo  Mo132  1  0.261590  0.028170  0.106040  1.0  0.9836
  Mo  Mo133  1  0.165480  0.143140  0.187080  1.0  1.0581
  Mo  Mo134  1  0.100110  0.197740  0.140730  1.0  1.0432
  Mo  Mo135  1  0.216460  0.203460  0.140400  1.0  1.1171
  Mo  Mo136  1  0.265580  0.144420  0.098740  1.0  1.0867
  Mo  Mo137  1  0.196360  0.582860  0.939690  1.0  1.0983
  Mo  Mo138  1  0.221830  0.488410  0.856040  1.0  0.9835
  Mo  Mo139  1  0.106860  0.584520  0.937080  1.0  1.0571
  Mo  Mo140  1  0.052260  0.649890  0.890730  1.0  1.0416
  Mo  Mo141  1  0.046540  0.533540  0.890400  1.0  1.1166
  Mo  Mo142  1  0.105580  0.484420  0.848740  1.0  1.0864
  Mo  Mo143  1  0.696360  0.082860  0.439690  1.0  1.0983
  Mo  Mo144  1  0.721830  0.988410  0.356040  1.0  0.9835
  Mo  Mo145  1  0.606860  0.084520  0.437080  1.0  1.0571
  Mo  Mo146  1  0.552260  0.149890  0.390730  1.0  1.0416
  Mo  Mo147  1  0.546540  0.033540  0.390400  1.0  1.1166
  Mo  Mo148  1  0.605580  0.984420  0.348740  1.0  1.0864
  Mo  Mo149  1  0.167140  0.553640  0.810310  1.0  1.1009
  Mo  Mo150  1  0.261590  0.528170  0.893960  1.0  0.9828
  Mo  Mo151  1  0.165480  0.643140  0.812920  1.0  1.0596
  Mo  Mo152  1  0.100110  0.697740  0.859270  1.0  1.0436
  Mo  Mo153  1  0.216460  0.703460  0.859600  1.0  1.1175
  Mo  Mo154  1  0.265580  0.644420  0.901260  1.0  1.0858
  Mo  Mo155  1  0.667140  0.053640  0.310310  1.0  1.1009
  Mo  Mo156  1  0.761590  0.028170  0.393960  1.0  0.9828
  Mo  Mo157  1  0.665480  0.143140  0.312920  1.0  1.0596
  Mo  Mo158  1  0.600110  0.197740  0.359270  1.0  1.0436
  Mo  Mo159  1  0.716460  0.203460  0.359600  1.0  1.1175
  Mo  Mo160  1  0.765580  0.144420  0.401260  1.0  1.0858
  Mo  Mo161  1  0.832860  0.553640  0.310310  1.0  1.1026
  Mo  Mo162  1  0.738410  0.528170  0.393960  1.0  0.9841
  Mo  Mo163  1  0.834520  0.643140  0.312920  1.0  1.0598
  Mo  Mo164  1  0.899890  0.697740  0.359270  1.0  1.0427
  Mo  Mo165  1  0.783540  0.703460  0.359600  1.0  1.1177
  Mo  Mo166  1  0.734420  0.644420  0.401260  1.0  1.0835
  Mo  Mo167  1  0.332860  0.053640  0.810310  1.0  1.1026
  Mo  Mo168  1  0.238410  0.028170  0.893960  1.0  0.9841
  Mo  Mo169  1  0.334520  0.143140  0.812920  1.0  1.0598
  Mo  Mo170  1  0.399890  0.197740  0.859270  1.0  1.0427
  Mo  Mo171  1  0.283540  0.203460  0.859600  1.0  1.1177
  Mo  Mo172  1  0.234420  0.144420  0.901260  1.0  1.0835
  Mo  Mo173  1  0.803640  0.582860  0.439690  1.0  1.0961
  Mo  Mo174  1  0.778170  0.488410  0.356040  1.0  0.9835
  Mo  Mo175  1  0.893140  0.584520  0.437080  1.0  1.0566
  Mo  Mo176  1  0.947740  0.649890  0.390730  1.0  1.0416
  Mo  Mo177  1  0.953460  0.533540  0.390400  1.0  1.1159
  Mo  Mo178  1  0.894420  0.484420  0.348740  1.0  1.0872
  Mo  Mo179  1  0.303640  0.082860  0.939690  1.0  1.0961
  Mo  Mo180  1  0.278170  0.988410  0.856040  1.0  0.9835
  Mo  Mo181  1  0.393140  0.084520  0.937080  1.0  1.0566
  Mo  Mo182  1  0.447740  0.149890  0.890730  1.0  1.0416
  Mo  Mo183  1  0.453460  0.033540  0.890400  1.0  1.1159
  Mo  Mo184  1  0.394420  0.984420  0.848740  1.0  1.0872
  Mo  Mo185  1  0.332860  0.553640  0.189690  1.0  1.0986
  Mo  Mo186  1  0.238410  0.528170  0.106040  1.0  0.9845
  Mo  Mo187  1  0.334520  0.643140  0.187080  1.0  1.058
  Mo  Mo188  1  0.399890  0.697740  0.140730  1.0  1.0423
  Mo  Mo189  1  0.283540  0.703460  0.140400  1.0  1.1171
  Mo  Mo190  1  0.234420  0.644420  0.098740  1.0  1.0842
  Mo  Mo191  1  0.832860  0.053640  0.689690  1.0  1.0986
  Mo  Mo192  1  0.738410  0.028170  0.606040  1.0  0.9845
  Mo  Mo193  1  0.834520  0.143140  0.687080  1.0  1.058
  Mo  Mo194  1  0.899890  0.197740  0.640730  1.0  1.0423
  Mo  Mo195  1  0.783540  0.203460  0.640400  1.0  1.1171
  Mo  Mo196  1  0.734420  0.144420  0.598740  1.0  1.0842
  Mo  Mo197  1  0.303640  0.582860  0.060310  1.0  1.101
  Mo  Mo198  1  0.278170  0.488410  0.143960  1.0  0.9831
  Mo  Mo199  1  0.393140  0.584520  0.062920  1.0  1.0589
  Mo  Mo200  1  0.447740  0.649890  0.109270  1.0  1.0428
  Mo  Mo201  1  0.453460  0.533540  0.109600  1.0  1.1159
  Mo  Mo202  1  0.394420  0.484420  0.151260  1.0  1.0864
  Mo  Mo203  1  0.803640  0.082860  0.560310  1.0  1.101
  Mo  Mo204  1  0.778170  0.988410  0.643960  1.0  0.9831
  Mo  Mo205  1  0.893140  0.084520  0.562920  1.0  1.0589
  Mo  Mo206  1  0.947740  0.149890  0.609270  1.0  1.0428
  Mo  Mo207  1  0.953460  0.033540  0.609600  1.0  1.1159
  Mo  Mo208  1  0.894420  0.984420  0.651260  1.0  1.0864
  Mo  Mo209  1  0.667140  0.446360  0.810310  1.0  1.1022
  Mo  Mo210  1  0.761590  0.471830  0.893960  1.0  0.9835
  Mo  Mo211  1  0.665480  0.356860  0.812920  1.0  1.0607
  Mo  Mo212  1  0.600110  0.302260  0.859270  1.0  1.0437
  Mo  Mo213  1  0.716460  0.296540  0.859600  1.0  1.1174
  Mo  Mo214  1  0.765580  0.355580  0.901260  1.0  1.0856
  Mo  Mo215  1  0.167140  0.946360  0.310310  1.0  1.1022
  Mo  Mo216  1  0.261590  0.971830  0.393960  1.0  0.9835
  Mo  Mo217  1  0.165480  0.856860  0.312920  1.0  1.0607
  Mo  Mo218  1  0.100110  0.802260  0.359270  1.0  1.0437
  Mo  Mo219  1  0.216460  0.796540  0.359600  1.0  1.1174
  Mo  Mo220  1  0.265580  0.855580  0.401260  1.0  1.0856
  Mo  Mo221  1  0.696360  0.417140  0.939690  1.0  1.0962
  Mo  Mo222  1  0.721830  0.511590  0.856040  1.0  0.9841
  Mo  Mo223  1  0.606860  0.415480  0.937080  1.0  1.057
  Mo  Mo224  1  0.552260  0.350110  0.890730  1.0  1.0421
  Mo  Mo225  1  0.546540  0.466460  0.890400  1.0  1.1165
  Mo  Mo226  1  0.605580  0.515580  0.848740  1.0  1.086
  Mo  Mo227  1  0.196360  0.917140  0.439690  1.0  1.0962
  Mo  Mo228  1  0.221830  0.011590  0.356040  1.0  0.9841
  Mo  Mo229  1  0.106860  0.915480  0.437080  1.0  1.057
  Mo  Mo230  1  0.052260  0.850110  0.390730  1.0  1.0421
  Mo  Mo231  1  0.046540  0.966460  0.390400  1.0  1.1165
  Mo  Mo232  1  0.105580  0.015580  0.348740  1.0  1.086
  Mo  Mo233  1  0.167140  0.446360  0.689690  1.0  1.0991
  Mo  Mo234  1  0.261590  0.471830  0.606040  1.0  0.9845
  Mo  Mo235  1  0.165480  0.356860  0.687080  1.0  1.0572
  Mo  Mo236  1  0.100110  0.302260  0.640730  1.0  1.0431
  Mo  Mo237  1  0.216460  0.296540  0.640400  1.0  1.1171
  Mo  Mo238  1  0.265580  0.355580  0.598740  1.0  1.0864
  Mo  Mo239  1  0.667140  0.946360  0.189690  1.0  1.0991
  Mo  Mo240  1  0.761590  0.971830  0.106040  1.0  0.9845
  Mo  Mo241  1  0.665480  0.856860  0.187080  1.0  1.0572
  Mo  Mo242  1  0.600110  0.802260  0.140730  1.0  1.0431
  Mo  Mo243  1  0.716460  0.796540  0.140400  1.0  1.1171
  Mo  Mo244  1  0.765580  0.855580  0.098740  1.0  1.0864
  Mo  Mo245  1  0.196360  0.417140  0.560310  1.0  1.0992
  Mo  Mo246  1  0.221830  0.511590  0.643960  1.0  0.9837
  Mo  Mo247  1  0.106860  0.415480  0.562920  1.0  1.0612
  Mo  Mo248  1  0.052260  0.350110  0.609270  1.0  1.0423
  Mo  Mo249  1  0.046540  0.466460  0.609600  1.0  1.1167
  Mo  Mo250  1  0.105580  0.515580  0.651260  1.0  1.0846
  Mo  Mo251  1  0.696360  0.917140  0.060310  1.0  1.0992
  Mo  Mo252  1  0.721830  0.011590  0.143960  1.0  0.9837
  Mo  Mo253  1  0.606860  0.915480  0.062920  1.0  1.0612
  Mo  Mo254  1  0.552260  0.850110  0.109270  1.0  1.0423
  Mo  Mo255  1  0.546540  0.966460  0.109600  1.0  1.1167
  Mo  Mo256  1  0.605580  0.015580  0.151260  1.0  1.0846
  H  H257  1  0.807100  0.212800  0.030600  1.0  0.1084
  H  H258  1  0.804000  0.153400  0.000900  1.0  0.1276
  H  H259  1  0.806500  0.100500  0.979100  1.0  0.1504
  H  H260  1  0.801500  0.045200  0.946900  1.0  0.116
  H  H261  1  0.936400  0.229200  0.015700  1.0  0.1199
  H  H262  1  0.903200  0.158400  0.945000  1.0  0.0967
  H  H263  1  0.900400  0.100500  0.914900  1.0  0.1002
  H  H264  1  0.926800  0.184200  0.980300  1.0  0.1024
  H  H265  1  0.307100  0.712800  0.530600  1.0  0.1084
  H  H266  1  0.304000  0.653400  0.500900  1.0  0.1276
  H  H267  1  0.306500  0.600500  0.479100  1.0  0.1504
  H  H268  1  0.301500  0.545200  0.446900  1.0  0.116
  H  H269  1  0.436400  0.729200  0.515700  1.0  0.1199
  H  H270  1  0.403200  0.658400  0.445000  1.0  0.0967
  H  H271  1  0.400400  0.600500  0.414900  1.0  0.1002
  H  H272  1  0.426800  0.684200  0.480300  1.0  0.1024
  H  H273  1  0.037200  0.442900  0.219400  1.0  0.1076
  H  H274  1  0.096600  0.446000  0.249100  1.0  0.1306
  H  H275  1  0.149500  0.443500  0.270900  1.0  0.1504
  H  H276  1  0.204800  0.448500  0.303100  1.0  0.1155
  H  H277  1  0.020800  0.313600  0.234300  1.0  0.1192
  H  H278  1  0.091600  0.346800  0.305000  1.0  0.0974
  H  H279  1  0.149500  0.349600  0.335100  1.0  0.0969
  H  H280  1  0.065800  0.323200  0.269700  1.0  0.1016
  H  H281  1  0.537200  0.942900  0.719400  1.0  0.1076
  H  H282  1  0.596600  0.946000  0.749100  1.0  0.1306
  H  H283  1  0.649500  0.943500  0.770900  1.0  0.1504
  H  H284  1  0.704800  0.948500  0.803100  1.0  0.1155
  H  H285  1  0.520800  0.813600  0.734300  1.0  0.1192
  H  H286  1  0.591600  0.846800  0.805000  1.0  0.0974
  H  H287  1  0.649500  0.849600  0.835100  1.0  0.0969
  H  H288  1  0.565800  0.823200  0.769700  1.0  0.1016
  H  H289  1  0.307100  0.212800  0.469400  1.0  0.1078
  H  H290  1  0.304000  0.153400  0.499100  1.0  0.128
  H  H291  1  0.306500  0.100500  0.520900  1.0  0.1489
  H  H292  1  0.301500  0.045200  0.553100  1.0  0.1151
  H  H293  1  0.436400  0.229200  0.484300  1.0  0.1201
  H  H294  1  0.403200  0.158400  0.555000  1.0  0.0969
  H  H295  1  0.400400  0.100500  0.585100  1.0  0.0977
  H  H296  1  0.426800  0.184200  0.519700  1.0  0.1023
  H  H297  1  0.807100  0.712800  0.969400  1.0  0.1078
  H  H298  1  0.804000  0.653400  0.999100  1.0  0.128
  H  H299  1  0.806500  0.600500  0.020900  1.0  0.1489
  H  H300  1  0.801500  0.545200  0.053100  1.0  0.1151
  H  H301  1  0.936400  0.729200  0.984300  1.0  0.1201
  H  H302  1  0.903200  0.658400  0.055000  1.0  0.0969
  H  H303  1  0.900400  0.600500  0.085100  1.0  0.0977
  H  H304  1  0.926800  0.684200  0.019700  1.0  0.1023
  H  H305  1  0.537200  0.442900  0.280600  1.0  0.108
  H  H306  1  0.596600  0.446000  0.250900  1.0  0.13
  H  H307  1  0.649500  0.443500  0.229100  1.0  0.1518
  H  H308  1  0.704800  0.448500  0.196900  1.0  0.1159
  H  H309  1  0.520800  0.313600  0.265700  1.0  0.1191
  H  H310  1  0.591600  0.346800  0.195000  1.0  0.0967
  H  H311  1  0.649500  0.349600  0.164900  1.0  0.0983
  H  H312  1  0.565800  0.323200  0.230300  1.0  0.1012
  H  H313  1  0.037200  0.942900  0.780600  1.0  0.108
  H  H314  1  0.096600  0.946000  0.750900  1.0  0.13
  H  H315  1  0.149500  0.943500  0.729100  1.0  0.1518
  H  H316  1  0.204800  0.948500  0.696900  1.0  0.1159
  H  H317  1  0.020800  0.813600  0.765700  1.0  0.1191
  H  H318  1  0.091600  0.846800  0.695000  1.0  0.0967
  H  H319  1  0.149500  0.849600  0.664900  1.0  0.0983
  H  H320  1  0.065800  0.823200  0.730300  1.0  0.1012
  H  H321  1  0.692900  0.787200  0.530600  1.0  0.1086
  H  H322  1  0.696000  0.846600  0.500900  1.0  0.128
  H  H323  1  0.693500  0.899500  0.479100  1.0  0.1519
  H  H324  1  0.698500  0.954800  0.446900  1.0  0.1156
  H  H325  1  0.563600  0.770800  0.515700  1.0  0.1201
  H  H326  1  0.596800  0.841600  0.445000  1.0  0.0965
  H  H327  1  0.599600  0.899500  0.414900  1.0  0.0992
  H  H328  1  0.573200  0.815800  0.480300  1.0  0.1021
  H  H329  1  0.192900  0.287200  0.030600  1.0  0.1086
  H  H330  1  0.196000  0.346600  0.000900  1.0  0.128
  H  H331  1  0.193500  0.399500  0.979100  1.0  0.1519
  H  H332  1  0.198500  0.454800  0.946900  1.0  0.1156
  H  H333  1  0.063600  0.270800  0.015700  1.0  0.1201
  H  H334  1  0.096800  0.341600  0.945000  1.0  0.0965
  H  H335  1  0.099600  0.399500  0.914900  1.0  0.0992
  H  H336  1  0.073200  0.315800  0.980300  1.0  0.1021
  H  H337  1  0.462800  0.557100  0.719400  1.0  0.1073
  H  H338  1  0.403400  0.554000  0.749100  1.0  0.1304
  H  H339  1  0.350500  0.556500  0.770900  1.0  0.1494
  H  H340  1  0.295200  0.551500  0.803100  1.0  0.115
  H  H341  1  0.479200  0.686400  0.734300  1.0  0.1195
  H  H342  1  0.408400  0.653200  0.805000  1.0  0.0971
  H  H343  1  0.350500  0.650400  0.835100  1.0  0.0963
  H  H344  1  0.434200  0.676800  0.769700  1.0  0.1021
  H  H345  1  0.962800  0.057100  0.219400  1.0  0.1073
  H  H346  1  0.903400  0.054000  0.249100  1.0  0.1304
  H  H347  1  0.850500  0.056500  0.270900  1.0  0.1494
  H  H348  1  0.795200  0.051500  0.303100  1.0  0.115
  H  H349  1  0.979200  0.186400  0.234300  1.0  0.1195
  H  H350  1  0.908400  0.153200  0.305000  1.0  0.0971
  H  H351  1  0.850500  0.150400  0.335100  1.0  0.0963
  H  H352  1  0.934200  0.176800  0.269700  1.0  0.1021
  H  H353  1  0.192900  0.787200  0.969400  1.0  0.108
  H  H354  1  0.196000  0.846600  0.999100  1.0  0.1286
  H  H355  1  0.193500  0.899500  0.020900  1.0  0.1499
  H  H356  1  0.198500  0.954800  0.053100  1.0  0.1155
  H  H357  1  0.063600  0.770800  0.984300  1.0  0.1203
  H  H358  1  0.096800  0.841600  0.055000  1.0  0.0972
  H  H359  1  0.099600  0.899500  0.085100  1.0  0.0979
  H  H360  1  0.073200  0.815800  0.019700  1.0  0.1025
  H  H361  1  0.692900  0.287200  0.469400  1.0  0.108
  H  H362  1  0.696000  0.346600  0.499100  1.0  0.1286
  H  H363  1  0.693500  0.399500  0.520900  1.0  0.1499
  H  H364  1  0.698500  0.454800  0.553100  1.0  0.1155
  H  H365  1  0.563600  0.270800  0.484300  1.0  0.1203
  H  H366  1  0.596800  0.341600  0.555000  1.0  0.0972
  H  H367  1  0.599600  0.399500  0.585100  1.0  0.0979
  H  H368  1  0.573200  0.315800  0.519700  1.0  0.1025
  H  H369  1  0.962800  0.557100  0.780600  1.0  0.108
  H  H370  1  0.903400  0.554000  0.750900  1.0  0.1305
  H  H371  1  0.850500  0.556500  0.729100  1.0  0.151
  H  H372  1  0.795200  0.551500  0.696900  1.0  0.1156
  H  H373  1  0.979200  0.686400  0.765700  1.0  0.1193
  H  H374  1  0.908400  0.653200  0.695000  1.0  0.097
  H  H375  1  0.850500  0.650400  0.664900  1.0  0.0982
  H  H376  1  0.934200  0.676800  0.730300  1.0  0.1021
  H  H377  1  0.462800  0.057100  0.280600  1.0  0.108
  H  H378  1  0.403400  0.054000  0.250900  1.0  0.1305
  H  H379  1  0.350500  0.056500  0.229100  1.0  0.151
  H  H380  1  0.295200  0.051500  0.196900  1.0  0.1156
  H  H381  1  0.479200  0.186400  0.265700  1.0  0.1193
  H  H382  1  0.408400  0.153200  0.195000  1.0  0.097
  H  H383  1  0.350500  0.150400  0.164900  1.0  0.0982
  H  H384  1  0.434200  0.176800  0.230300  1.0  0.1021
  H  H385  1  0.037200  0.557100  0.280600  1.0  0.1079
  H  H386  1  0.096600  0.554000  0.250900  1.0  0.1303
  H  H387  1  0.149500  0.556500  0.229100  1.0  0.151
  H  H388  1  0.204800  0.551500  0.196900  1.0  0.1162
  H  H389  1  0.020800  0.686400  0.265700  1.0  0.1194
  H  H390  1  0.091600  0.653200  0.195000  1.0  0.0967
  H  H391  1  0.149500  0.650400  0.164900  1.0  0.0982
  H  H392  1  0.065800  0.676800  0.230300  1.0  0.1019
  H  H393  1  0.537200  0.057100  0.780600  1.0  0.1079
  H  H394  1  0.596600  0.054000  0.750900  1.0  0.1303
  H  H395  1  0.649500  0.056500  0.729100  1.0  0.151
  H  H396  1  0.704800  0.051500  0.696900  1.0  0.1162
  H  H397  1  0.520800  0.186400  0.765700  1.0  0.1194
  H  H398  1  0.591600  0.153200  0.695000  1.0  0.0967
  H  H399  1  0.649500  0.150400  0.664900  1.0  0.0982
  H  H400  1  0.565800  0.176800  0.730300  1.0  0.1019
  H  H401  1  0.807100  0.787200  0.469400  1.0  0.1081
  H  H402  1  0.804000  0.846600  0.499100  1.0  0.1286
  H  H403  1  0.806500  0.899500  0.520900  1.0  0.1494
  H  H404  1  0.801500  0.954800  0.553100  1.0  0.1151
  H  H405  1  0.936400  0.770800  0.484300  1.0  0.1198
  H  H406  1  0.903200  0.841600  0.555000  1.0  0.0965
  H  H407  1  0.900400  0.899500  0.585100  1.0  0.0974
  H  H408  1  0.926800  0.815800  0.519700  1.0  0.1028
  H  H409  1  0.307100  0.287200  0.969400  1.0  0.1081
  H  H410  1  0.304000  0.346600  0.999100  1.0  0.1286
  H  H411  1  0.306500  0.399500  0.020900  1.0  0.1494
  H  H412  1  0.301500  0.454800  0.053100  1.0  0.1151
  H  H413  1  0.436400  0.270800  0.984300  1.0  0.1198
  H  H414  1  0.403200  0.341600  0.055000  1.0  0.0965
  H  H415  1  0.400400  0.399500  0.085100  1.0  0.0974
  H  H416  1  0.426800  0.315800  0.019700  1.0  0.1028
  H  H417  1  0.537200  0.557100  0.219400  1.0  0.1071
  H  H418  1  0.596600  0.554000  0.249100  1.0  0.1306
  H  H419  1  0.649500  0.556500  0.270900  1.0  0.1496
  H  H420  1  0.704800  0.551500  0.303100  1.0  0.1155
  H  H421  1  0.520800  0.686400  0.234300  1.0  0.1197
  H  H422  1  0.591600  0.653200  0.305000  1.0  0.0973
  H  H423  1  0.649500  0.650400  0.335100  1.0  0.0966
  H  H424  1  0.565800  0.676800  0.269700  1.0  0.1022
  H  H425  1  0.037200  0.057100  0.719400  1.0  0.1071
  H  H426  1  0.096600  0.054000  0.749100  1.0  0.1306
  H  H427  1  0.149500  0.056500  0.770900  1.0  0.1496
  H  H428  1  0.204800  0.051500  0.803100  1.0  0.1155
  H  H429  1  0.020800  0.186400  0.734300  1.0  0.1197
  H  H430  1  0.091600  0.153200  0.805000  1.0  0.0973
  H  H431  1  0.149500  0.150400  0.835100  1.0  0.0966
  H  H432  1  0.065800  0.176800  0.769700  1.0  0.1022
  H  H433  1  0.307100  0.787200  0.030600  1.0  0.1087
  H  H434  1  0.304000  0.846600  0.000900  1.0  0.1281
  H  H435  1  0.306500  0.899500  0.979100  1.0  0.1513
  H  H436  1  0.301500  0.954800  0.946900  1.0  0.1156
  H  H437  1  0.436400  0.770800  0.015700  1.0  0.1196
  H  H438  1  0.403200  0.841600  0.945000  1.0  0.0965
  H  H439  1  0.400400  0.899500  0.914900  1.0  0.0998
  H  H440  1  0.426800  0.815800  0.980300  1.0  0.1025
  H  H441  1  0.807100  0.287200  0.530600  1.0  0.1087
  H  H442  1  0.804000  0.346600  0.500900  1.0  0.1281
  H  H443  1  0.806500  0.399500  0.479100  1.0  0.1513
  H  H444  1  0.801500  0.454800  0.446900  1.0  0.1156
  H  H445  1  0.936400  0.270800  0.515700  1.0  0.1196
  H  H446  1  0.903200  0.341600  0.445000  1.0  0.0965
  H  H447  1  0.900400  0.399500  0.414900  1.0  0.0998
  H  H448  1  0.926800  0.315800  0.480300  1.0  0.1025
  H  H449  1  0.462800  0.442900  0.780600  1.0  0.1082
  H  H450  1  0.403400  0.446000  0.750900  1.0  0.1297
  H  H451  1  0.350500  0.443500  0.729100  1.0  0.1515
  H  H452  1  0.295200  0.448500  0.696900  1.0  0.1158
  H  H453  1  0.479200  0.313600  0.765700  1.0  0.1192
  H  H454  1  0.408400  0.346800  0.695000  1.0  0.0969
  H  H455  1  0.350500  0.349600  0.664900  1.0  0.098
  H  H456  1  0.434200  0.323200  0.730300  1.0  0.1013
  H  H457  1  0.962800  0.942900  0.280600  1.0  0.1082
  H  H458  1  0.903400  0.946000  0.250900  1.0  0.1297
  H  H459  1  0.850500  0.943500  0.229100  1.0  0.1515
  H  H460  1  0.795200  0.948500  0.196900  1.0  0.1158
  H  H461  1  0.979200  0.813600  0.265700  1.0  0.1192
  H  H462  1  0.908400  0.846800  0.195000  1.0  0.0969
  H  H463  1  0.850500  0.849600  0.164900  1.0  0.098
  H  H464  1  0.934200  0.823200  0.230300  1.0  0.1013
  H  H465  1  0.692900  0.212800  0.969400  1.0  0.108
  H  H466  1  0.696000  0.153400  0.999100  1.0  0.1282
  H  H467  1  0.693500  0.100500  0.020900  1.0  0.1488
  H  H468  1  0.698500  0.045200  0.053100  1.0  0.1156
  H  H469  1  0.563600  0.229200  0.984300  1.0  0.1198
  H  H470  1  0.596800  0.158400  0.055000  1.0  0.0972
  H  H471  1  0.599600  0.100500  0.085100  1.0  0.0978
  H  H472  1  0.573200  0.184200  0.019700  1.0  0.1022
  H  H473  1  0.192900  0.712800  0.469400  1.0  0.108
  H  H474  1  0.196000  0.653400  0.499100  1.0  0.1282
  H  H475  1  0.193500  0.600500  0.520900  1.0  0.1488
  H  H476  1  0.198500  0.545200  0.553100  1.0  0.1156
  H  H477  1  0.063600  0.729200  0.484300  1.0  0.1198
  H  H478  1  0.096800  0.658400  0.555000  1.0  0.0972
  H  H479  1  0.099600  0.600500  0.585100  1.0  0.0978
  H  H480  1  0.073200  0.684200  0.519700  1.0  0.1022
  H  H481  1  0.962800  0.442900  0.719400  1.0  0.1077
  H  H482  1  0.903400  0.446000  0.749100  1.0  0.1301
  H  H483  1  0.850500  0.443500  0.770900  1.0  0.1498
  H  H484  1  0.795200  0.448500  0.803100  1.0  0.1155
  H  H485  1  0.979200  0.313600  0.734300  1.0  0.1192
  H  H486  1  0.908400  0.346800  0.805000  1.0  0.0969
  H  H487  1  0.850500  0.349600  0.835100  1.0  0.0962
  H  H488  1  0.934200  0.323200  0.769700  1.0  0.1016
  H  H489  1  0.462800  0.942900  0.219400  1.0  0.1077
  H  H490  1  0.403400  0.946000  0.249100  1.0  0.1301
  H  H491  1  0.350500  0.943500  0.270900  1.0  0.1498
  H  H492  1  0.295200  0.948500  0.303100  1.0  0.1155
  H  H493  1  0.479200  0.813600  0.234300  1.0  0.1192
  H  H494  1  0.408400  0.846800  0.305000  1.0  0.0969
  H  H495  1  0.350500  0.849600  0.335100  1.0  0.0962
  H  H496  1  0.434200  0.823200  0.269700  1.0  0.1016
  H  H497  1  0.192900  0.212800  0.530600  1.0  0.1084
  H  H498  1  0.196000  0.153400  0.500900  1.0  0.1276
  H  H499  1  0.193500  0.100500  0.479100  1.0  0.1503
  H  H500  1  0.198500  0.045200  0.446900  1.0  0.1163
  H  H501  1  0.063600  0.229200  0.515700  1.0  0.1196
  H  H502  1  0.096800  0.158400  0.445000  1.0  0.0964
  H  H503  1  0.099600  0.100500  0.414900  1.0  0.0991
  H  H504  1  0.073200  0.184200  0.480300  1.0  0.102
  H  H505  1  0.692900  0.712800  0.030600  1.0  0.1084
  H  H506  1  0.696000  0.653400  0.000900  1.0  0.1276
  H  H507  1  0.693500  0.600500  0.979100  1.0  0.1503
  H  H508  1  0.698500  0.545200  0.946900  1.0  0.1163
  H  H509  1  0.563600  0.729200  0.015700  1.0  0.1196
  H  H510  1  0.596800  0.658400  0.945000  1.0  0.0964
  H  H511  1  0.599600  0.600500  0.914900  1.0  0.0991
  H  H512  1  0.573200  0.684200  0.980300  1.0  0.102
  C  C513  1  0.873100  0.222600  0.028100  1.0  -0.0417
  C  C514  1  0.833200  0.204100  0.022200  1.0  -0.0836
  C  C515  1  0.875500  0.256700  0.048300  1.0  0.6548
  C  C516  1  0.861600  0.132000  0.967200  1.0  0.247
  C  C517  1  0.830300  0.170600  0.002700  1.0  -0.1867
  C  C518  1  0.866200  0.164200  0.987100  1.0  0.1517
  C  C519  1  0.828100  0.100600  0.966600  1.0  -0.1603
  C  C520  1  0.824700  0.066700  0.946900  1.0  0.1122
  C  C521  1  0.908500  0.215500  0.012600  1.0  -0.1004
  C  C522  1  0.884000  0.133800  0.947500  1.0  -0.1411
  C  C523  1  0.881200  0.098500  0.928400  1.0  0.1275
  C  C524  1  0.902800  0.186700  0.991400  1.0  -0.1013
  C  C525  1  0.373100  0.722600  0.528100  1.0  -0.0417
  C  C526  1  0.333200  0.704100  0.522200  1.0  -0.0836
  C  C527  1  0.375500  0.756700  0.548300  1.0  0.6548
  C  C528  1  0.361600  0.632000  0.467200  1.0  0.247
  C  C529  1  0.330300  0.670600  0.502700  1.0  -0.1867
  C  C530  1  0.366200  0.664200  0.487100  1.0  0.1517
  C  C531  1  0.328100  0.600600  0.466600  1.0  -0.1603
  C  C532  1  0.324700  0.566700  0.446900  1.0  0.1122
  C  C533  1  0.408500  0.715500  0.512600  1.0  -0.1004
  C  C534  1  0.384000  0.633800  0.447500  1.0  -0.1411
  C  C535  1  0.381200  0.598500  0.428400  1.0  0.1275
  C  C536  1  0.402800  0.686700  0.491400  1.0  -0.1013
  C  C537  1  0.027400  0.376900  0.221900  1.0  -0.0437
  C  C538  1  0.045900  0.416800  0.227800  1.0  -0.0823
  C  C539  1  0.993300  0.374500  0.201700  1.0  0.6544
  C  C540  1  0.118000  0.388400  0.282800  1.0  0.2477
  C  C541  1  0.079400  0.419700  0.247300  1.0  -0.1842
  C  C542  1  0.085800  0.383800  0.262900  1.0  0.1525
  C  C543  1  0.149400  0.421900  0.283400  1.0  -0.1595
  C  C544  1  0.183300  0.425300  0.303100  1.0  0.111
  C  C545  1  0.034500  0.341500  0.237400  1.0  -0.1035
  C  C546  1  0.116200  0.366000  0.302500  1.0  -0.1413
  C  C547  1  0.151500  0.368800  0.321600  1.0  0.1261
  C  C548  1  0.063300  0.347200  0.258600  1.0  -0.1047
  C  C549  1  0.527400  0.876900  0.721900  1.0  -0.0437
  C  C550  1  0.545900  0.916800  0.727800  1.0  -0.0823
  C  C551  1  0.493300  0.874500  0.701700  1.0  0.6544
  C  C552  1  0.618000  0.888400  0.782800  1.0  0.2477
  C  C553  1  0.579400  0.919700  0.747300  1.0  -0.1842
  C  C554  1  0.585800  0.883800  0.762900  1.0  0.1525
  C  C555  1  0.649400  0.921900  0.783400  1.0  -0.1595
  C  C556  1  0.683300  0.925300  0.803100  1.0  0.111
  C  C557  1  0.534500  0.841500  0.737400  1.0  -0.1035
  C  C558  1  0.616200  0.866000  0.802500  1.0  -0.1413
  C  C559  1  0.651500  0.868800  0.821600  1.0  0.1261
  C  C560  1  0.563300  0.847200  0.758600  1.0  -0.1047
  C  C561  1  0.373100  0.222600  0.471900  1.0  -0.0425
  C  C562  1  0.333200  0.204100  0.477800  1.0  -0.0836
  C  C563  1  0.375500  0.256700  0.451700  1.0  0.6558
  C  C564  1  0.361600  0.132000  0.532800  1.0  0.2456
  C  C565  1  0.330300  0.170600  0.497300  1.0  -0.1865
  C  C566  1  0.366200  0.164200  0.512900  1.0  0.1516
  C  C567  1  0.328100  0.100600  0.533400  1.0  -0.1608
  C  C568  1  0.324700  0.066700  0.553100  1.0  0.1122
  C  C569  1  0.408500  0.215500  0.487400  1.0  -0.101
  C  C570  1  0.384000  0.133800  0.552500  1.0  -0.1413
  C  C571  1  0.381200  0.098500  0.571600  1.0  0.1276
  C  C572  1  0.402800  0.186700  0.508600  1.0  -0.1004
  C  C573  1  0.873100  0.722600  0.971900  1.0  -0.0425
  C  C574  1  0.833200  0.704100  0.977800  1.0  -0.0836
  C  C575  1  0.875500  0.756700  0.951700  1.0  0.6558
  C  C576  1  0.861600  0.632000  0.032800  1.0  0.2456
  C  C577  1  0.830300  0.670600  0.997300  1.0  -0.1865
  C  C578  1  0.866200  0.664200  0.012900  1.0  0.1516
  C  C579  1  0.828100  0.600600  0.033400  1.0  -0.1608
  C  C580  1  0.824700  0.566700  0.053100  1.0  0.1122
  C  C581  1  0.908500  0.715500  0.987400  1.0  -0.101
  C  C582  1  0.884000  0.633800  0.052500  1.0  -0.1413
  C  C583  1  0.881200  0.598500  0.071600  1.0  0.1276
  C  C584  1  0.902800  0.686700  0.008600  1.0  -0.1004
  C  C585  1  0.527400  0.376900  0.278100  1.0  -0.0421
  C  C586  1  0.545900  0.416800  0.272200  1.0  -0.0819
  C  C587  1  0.493300  0.374500  0.298300  1.0  0.6528
  C  C588  1  0.618000  0.388400  0.217200  1.0  0.2492
  C  C589  1  0.579400  0.419700  0.252700  1.0  -0.1838
  C  C590  1  0.585800  0.383800  0.237100  1.0  0.1525
  C  C591  1  0.649400  0.421900  0.216600  1.0  -0.1605
  C  C592  1  0.683300  0.425300  0.196900  1.0  0.1107
  C  C593  1  0.534500  0.341500  0.262600  1.0  -0.1036
  C  C594  1  0.616200  0.366000  0.197500  1.0  -0.1413
  C  C595  1  0.651500  0.368800  0.178400  1.0  0.1262
  C  C596  1  0.563300  0.347200  0.241400  1.0  -0.1042
  C  C597  1  0.027400  0.876900  0.778100  1.0  -0.0421
  C  C598  1  0.045900  0.916800  0.772200  1.0  -0.0819
  C  C599  1  0.993300  0.874500  0.798300  1.0  0.6528
  C  C600  1  0.118000  0.888400  0.717200  1.0  0.2492
  C  C601  1  0.079400  0.919700  0.752700  1.0  -0.1838
  C  C602  1  0.085800  0.883800  0.737100  1.0  0.1525
  C  C603  1  0.149400  0.921900  0.716600  1.0  -0.1605
  C  C604  1  0.183300  0.925300  0.696900  1.0  0.1107
  C  C605  1  0.034500  0.841500  0.762600  1.0  -0.1036
  C  C606  1  0.116200  0.866000  0.697500  1.0  -0.1413
  C  C607  1  0.151500  0.868800  0.678400  1.0  0.1262
  C  C608  1  0.063300  0.847200  0.741400  1.0  -0.1042
  C  C609  1  0.626900  0.777400  0.528100  1.0  -0.0434
  C  C610  1  0.666800  0.795900  0.522200  1.0  -0.0813
  C  C611  1  0.624500  0.743300  0.548300  1.0  0.6557
  C  C612  1  0.638400  0.868000  0.467200  1.0  0.2479
  C  C613  1  0.669700  0.829400  0.502700  1.0  -0.1845
  C  C614  1  0.633800  0.835800  0.487100  1.0  0.151
  C  C615  1  0.671900  0.899400  0.466600  1.0  -0.1603
  C  C616  1  0.675300  0.933300  0.446900  1.0  0.1109
  C  C617  1  0.591500  0.784500  0.512600  1.0  -0.1022
  C  C618  1  0.616000  0.866200  0.447500  1.0  -0.1409
  C  C619  1  0.618800  0.901500  0.428400  1.0  0.1282
  C  C620  1  0.597200  0.813300  0.491400  1.0  -0.1002
  C  C621  1  0.126900  0.277400  0.028100  1.0  -0.0434
  C  C622  1  0.166800  0.295900  0.022200  1.0  -0.0813
  C  C623  1  0.124500  0.243300  0.048300  1.0  0.6557
  C  C624  1  0.138400  0.368000  0.967200  1.0  0.2479
  C  C625  1  0.169700  0.329400  0.002700  1.0  -0.1845
  C  C626  1  0.133800  0.335800  0.987100  1.0  0.151
  C  C627  1  0.171900  0.399400  0.966600  1.0  -0.1603
  C  C628  1  0.175300  0.433300  0.946900  1.0  0.1109
  C  C629  1  0.091500  0.284500  0.012600  1.0  -0.1022
  C  C630  1  0.116000  0.366200  0.947500  1.0  -0.1409
  C  C631  1  0.118800  0.401500  0.928400  1.0  0.1282
  C  C632  1  0.097200  0.313300  0.991400  1.0  -0.1002
  C  C633  1  0.472600  0.623100  0.721900  1.0  -0.0422
  C  C634  1  0.454100  0.583200  0.727800  1.0  -0.0819
  C  C635  1  0.506700  0.625500  0.701700  1.0  0.6544
  C  C636  1  0.382000  0.611600  0.782800  1.0  0.2469
  C  C637  1  0.420600  0.580300  0.747300  1.0  -0.1844
  C  C638  1  0.414200  0.616200  0.762900  1.0  0.152
  C  C639  1  0.350600  0.578100  0.783400  1.0  -0.1608
  C  C640  1  0.316700  0.574700  0.803100  1.0  0.1122
  C  C641  1  0.465500  0.658500  0.737400  1.0  -0.1034
  C  C642  1  0.383800  0.634000  0.802500  1.0  -0.142
  C  C643  1  0.348500  0.631200  0.821600  1.0  0.1227
  C  C644  1  0.436700  0.652800  0.758600  1.0  -0.1035
  C  C645  1  0.972600  0.123100  0.221900  1.0  -0.0422
  C  C646  1  0.954100  0.083200  0.227800  1.0  -0.0819
  C  C647  1  0.006700  0.125500  0.201700  1.0  0.6544
  C  C648  1  0.882000  0.111600  0.282800  1.0  0.2469
  C  C649  1  0.920600  0.080300  0.247300  1.0  -0.1844
  C  C650  1  0.914200  0.116200  0.262900  1.0  0.152
  C  C651  1  0.850600  0.078100  0.283400  1.0  -0.1608
  C  C652  1  0.816700  0.074700  0.303100  1.0  0.1122
  C  C653  1  0.965500  0.158500  0.237400  1.0  -0.1034
  C  C654  1  0.883800  0.134000  0.302500  1.0  -0.142
  C  C655  1  0.848500  0.131200  0.321600  1.0  0.1227
  C  C656  1  0.936700  0.152800  0.258600  1.0  -0.1035
  C  C657  1  0.126900  0.777400  0.971900  1.0  -0.0447
  C  C658  1  0.166800  0.795900  0.977800  1.0  -0.0817
  C  C659  1  0.124500  0.743300  0.951700  1.0  0.6565
  C  C660  1  0.138400  0.868000  0.032800  1.0  0.2465
  C  C661  1  0.169700  0.829400  0.997300  1.0  -0.1844
  C  C662  1  0.133800  0.835800  0.012900  1.0  0.1509
  C  C663  1  0.171900  0.899400  0.033400  1.0  -0.1597
  C  C664  1  0.175300  0.933300  0.053100  1.0  0.1112
  C  C665  1  0.091500  0.784500  0.987400  1.0  -0.1018
  C  C666  1  0.116000  0.866200  0.052500  1.0  -0.1416
  C  C667  1  0.118800  0.901500  0.071600  1.0  0.1265
  C  C668  1  0.097200  0.813300  0.008600  1.0  -0.1002
  C  C669  1  0.626900  0.277400  0.471900  1.0  -0.0447
  C  C670  1  0.666800  0.295900  0.477800  1.0  -0.0817
  C  C671  1  0.624500  0.243300  0.451700  1.0  0.6565
  C  C672  1  0.638400  0.368000  0.532800  1.0  0.2465
  C  C673  1  0.669700  0.329400  0.497300  1.0  -0.1844
  C  C674  1  0.633800  0.335800  0.512900  1.0  0.1509
  C  C675  1  0.671900  0.399400  0.533400  1.0  -0.1597
  C  C676  1  0.675300  0.433300  0.553100  1.0  0.1112
  C  C677  1  0.591500  0.284500  0.487400  1.0  -0.1018
  C  C678  1  0.616000  0.366200  0.552500  1.0  -0.1416
  C  C679  1  0.618800  0.401500  0.571600  1.0  0.1265
  C  C680  1  0.597200  0.313300  0.508600  1.0  -0.1002
  C  C681  1  0.972600  0.623100  0.778100  1.0  -0.0412
  C  C682  1  0.954100  0.583200  0.772200  1.0  -0.0813
  C  C683  1  0.006700  0.625500  0.798300  1.0  0.6533
  C  C684  1  0.882000  0.611600  0.717200  1.0  0.2483
  C  C685  1  0.920600  0.580300  0.752700  1.0  -0.1848
  C  C686  1  0.914200  0.616200  0.737100  1.0  0.152
  C  C687  1  0.850600  0.578100  0.716600  1.0  -0.1599
  C  C688  1  0.816700  0.574700  0.696900  1.0  0.1119
  C  C689  1  0.965500  0.658500  0.762600  1.0  -0.1035
  C  C690  1  0.883800  0.634000  0.697500  1.0  -0.142
  C  C691  1  0.848500  0.631200  0.678400  1.0  0.1242
  C  C692  1  0.936700  0.652800  0.741400  1.0  -0.1036
  C  C693  1  0.472600  0.123100  0.278100  1.0  -0.0412
  C  C694  1  0.454100  0.083200  0.272200  1.0  -0.0813
  C  C695  1  0.506700  0.125500  0.298300  1.0  0.6533
  C  C696  1  0.382000  0.111600  0.217200  1.0  0.2483
  C  C697  1  0.420600  0.080300  0.252700  1.0  -0.1848
  C  C698  1  0.414200  0.116200  0.237100  1.0  0.152
  C  C699  1  0.350600  0.078100  0.216600  1.0  -0.1599
  C  C700  1  0.316700  0.074700  0.196900  1.0  0.1119
  C  C701  1  0.465500  0.158500  0.262600  1.0  -0.1035
  C  C702  1  0.383800  0.134000  0.197500  1.0  -0.142
  C  C703  1  0.348500  0.131200  0.178400  1.0  0.1242
  C  C704  1  0.436700  0.152800  0.241400  1.0  -0.1036
  C  C705  1  0.027400  0.623100  0.278100  1.0  -0.0425
  C  C706  1  0.045900  0.583200  0.272200  1.0  -0.0818
  C  C707  1  0.993300  0.625500  0.298300  1.0  0.6524
  C  C708  1  0.118000  0.611600  0.217200  1.0  0.2487
  C  C709  1  0.079400  0.580300  0.252700  1.0  -0.1845
  C  C710  1  0.085800  0.616200  0.237100  1.0  0.1523
  C  C711  1  0.149400  0.578100  0.216600  1.0  -0.1591
  C  C712  1  0.183300  0.574700  0.196900  1.0  0.1107
  C  C713  1  0.034500  0.658500  0.262600  1.0  -0.1033
  C  C714  1  0.116200  0.634000  0.197500  1.0  -0.1423
  C  C715  1  0.151500  0.631200  0.178400  1.0  0.1254
  C  C716  1  0.063300  0.652800  0.241400  1.0  -0.1047
  C  C717  1  0.527400  0.123100  0.778100  1.0  -0.0425
  C  C718  1  0.545900  0.083200  0.772200  1.0  -0.0818
  C  C719  1  0.493300  0.125500  0.798300  1.0  0.6524
  C  C720  1  0.618000  0.111600  0.717200  1.0  0.2487
  C  C721  1  0.579400  0.080300  0.752700  1.0  -0.1845
  C  C722  1  0.585800  0.116200  0.737100  1.0  0.1523
  C  C723  1  0.649400  0.078100  0.716600  1.0  -0.1591
  C  C724  1  0.683300  0.074700  0.696900  1.0  0.1107
  C  C725  1  0.534500  0.158500  0.762600  1.0  -0.1033
  C  C726  1  0.616200  0.134000  0.697500  1.0  -0.1423
  C  C727  1  0.651500  0.131200  0.678400  1.0  0.1254
  C  C728  1  0.563300  0.152800  0.741400  1.0  -0.1047
  C  C729  1  0.873100  0.777400  0.471900  1.0  -0.0431
  C  C730  1  0.833200  0.795900  0.477800  1.0  -0.0834
  C  C731  1  0.875500  0.743300  0.451700  1.0  0.6565
  C  C732  1  0.861600  0.868000  0.532800  1.0  0.2456
  C  C733  1  0.830300  0.829400  0.497300  1.0  -0.1862
  C  C734  1  0.866200  0.835800  0.512900  1.0  0.1515
  C  C735  1  0.828100  0.899400  0.533400  1.0  -0.1594
  C  C736  1  0.824700  0.933300  0.553100  1.0  0.1113
  C  C737  1  0.908500  0.784500  0.487400  1.0  -0.1018
  C  C738  1  0.884000  0.866200  0.552500  1.0  -0.1407
  C  C739  1  0.881200  0.901500  0.571600  1.0  0.1271
  C  C740  1  0.902800  0.813300  0.508600  1.0  -0.1005
  C  C741  1  0.373100  0.277400  0.971900  1.0  -0.0431
  C  C742  1  0.333200  0.295900  0.977800  1.0  -0.0834
  C  C743  1  0.375500  0.243300  0.951700  1.0  0.6565
  C  C744  1  0.361600  0.368000  0.032800  1.0  0.2456
  C  C745  1  0.330300  0.329400  0.997300  1.0  -0.1862
  C  C746  1  0.366200  0.335800  0.012900  1.0  0.1515
  C  C747  1  0.328100  0.399400  0.033400  1.0  -0.1594
  C  C748  1  0.324700  0.433300  0.053100  1.0  0.1113
  C  C749  1  0.408500  0.284500  0.987400  1.0  -0.1018
  C  C750  1  0.384000  0.366200  0.052500  1.0  -0.1407
  C  C751  1  0.381200  0.401500  0.071600  1.0  0.1271
  C  C752  1  0.402800  0.313300  0.008600  1.0  -0.1005
  C  C753  1  0.527400  0.623100  0.221900  1.0  -0.0432
  C  C754  1  0.545900  0.583200  0.227800  1.0  -0.082
  C  C755  1  0.493300  0.625500  0.201700  1.0  0.6543
  C  C756  1  0.618000  0.611600  0.282800  1.0  0.2474
  C  C757  1  0.579400  0.580300  0.247300  1.0  -0.1838
  C  C758  1  0.585800  0.616200  0.262900  1.0  0.1523
  C  C759  1  0.649400  0.578100  0.283400  1.0  -0.1599
  C  C760  1  0.683300  0.574700  0.303100  1.0  0.111
  C  C761  1  0.534500  0.658500  0.237400  1.0  -0.1032
  C  C762  1  0.616200  0.634000  0.302500  1.0  -0.1428
  C  C763  1  0.651500  0.631200  0.321600  1.0  0.1235
  C  C764  1  0.563300  0.652800  0.258600  1.0  -0.1047
  C  C765  1  0.027400  0.123100  0.721900  1.0  -0.0432
  C  C766  1  0.045900  0.083200  0.727800  1.0  -0.082
  C  C767  1  0.993300  0.125500  0.701700  1.0  0.6543
  C  C768  1  0.118000  0.111600  0.782800  1.0  0.2474
  C  C769  1  0.079400  0.080300  0.747300  1.0  -0.1838
  C  C770  1  0.085800  0.116200  0.762900  1.0  0.1523
  C  C771  1  0.149400  0.078100  0.783400  1.0  -0.1599
  C  C772  1  0.183300  0.074700  0.803100  1.0  0.111
  C  C773  1  0.034500  0.158500  0.737400  1.0  -0.1032
  C  C774  1  0.116200  0.134000  0.802500  1.0  -0.1428
  C  C775  1  0.151500  0.131200  0.821600  1.0  0.1235
  C  C776  1  0.063300  0.152800  0.758600  1.0  -0.1047
  C  C777  1  0.373100  0.777400  0.028100  1.0  -0.0419
  C  C778  1  0.333200  0.795900  0.022200  1.0  -0.0833
  C  C779  1  0.375500  0.743300  0.048300  1.0  0.6552
  C  C780  1  0.361600  0.868000  0.967200  1.0  0.2471
  C  C781  1  0.330300  0.829400  0.002700  1.0  -0.1862
  C  C782  1  0.366200  0.835800  0.987100  1.0  0.1516
  C  C783  1  0.328100  0.899400  0.966600  1.0  -0.1599
  C  C784  1  0.324700  0.933300  0.946900  1.0  0.1112
  C  C785  1  0.408500  0.784500  0.012600  1.0  -0.1011
  C  C786  1  0.384000  0.866200  0.947500  1.0  -0.1401
  C  C787  1  0.381200  0.901500  0.928400  1.0  0.1269
  C  C788  1  0.402800  0.813300  0.991400  1.0  -0.1011
  C  C789  1  0.873100  0.277400  0.528100  1.0  -0.0419
  C  C790  1  0.833200  0.295900  0.522200  1.0  -0.0833
  C  C791  1  0.875500  0.243300  0.548300  1.0  0.6552
  C  C792  1  0.861600  0.368000  0.467200  1.0  0.2471
  C  C793  1  0.830300  0.329400  0.502700  1.0  -0.1862
  C  C794  1  0.866200  0.335800  0.487100  1.0  0.1516
  C  C795  1  0.828100  0.399400  0.466600  1.0  -0.1599
  C  C796  1  0.824700  0.433300  0.446900  1.0  0.1112
  C  C797  1  0.908500  0.284500  0.512600  1.0  -0.1011
  C  C798  1  0.884000  0.366200  0.447500  1.0  -0.1401
  C  C799  1  0.881200  0.401500  0.428400  1.0  0.1269
  C  C800  1  0.902800  0.313300  0.491400  1.0  -0.1011
  C  C801  1  0.472600  0.376900  0.778100  1.0  -0.0408
  C  C802  1  0.454100  0.416800  0.772200  1.0  -0.0809
  C  C803  1  0.506700  0.374500  0.798300  1.0  0.6537
  C  C804  1  0.382000  0.388400  0.717200  1.0  0.2488
  C  C805  1  0.420600  0.419700  0.752700  1.0  -0.1843
  C  C806  1  0.414200  0.383800  0.737100  1.0  0.1522
  C  C807  1  0.350600  0.421900  0.716600  1.0  -0.1607
  C  C808  1  0.316700  0.425300  0.696900  1.0  0.1112
  C  C809  1  0.465500  0.341500  0.762600  1.0  -0.1038
  C  C810  1  0.383800  0.366000  0.697500  1.0  -0.1417
  C  C811  1  0.348500  0.368800  0.678400  1.0  0.1249
  C  C812  1  0.436700  0.347200  0.741400  1.0  -0.1037
  C  C813  1  0.972600  0.876900  0.278100  1.0  -0.0408
  C  C814  1  0.954100  0.916800  0.272200  1.0  -0.0809
  C  C815  1  0.006700  0.874500  0.298300  1.0  0.6537
  C  C816  1  0.882000  0.888400  0.217200  1.0  0.2488
  C  C817  1  0.920600  0.919700  0.252700  1.0  -0.1843
  C  C818  1  0.914200  0.883800  0.237100  1.0  0.1522
  C  C819  1  0.850600  0.921900  0.216600  1.0  -0.1607
  C  C820  1  0.816700  0.925300  0.196900  1.0  0.1112
  C  C821  1  0.965500  0.841500  0.262600  1.0  -0.1038
  C  C822  1  0.883800  0.866000  0.197500  1.0  -0.1417
  C  C823  1  0.848500  0.868800  0.178400  1.0  0.1249
  C  C824  1  0.936700  0.847200  0.241400  1.0  -0.1037
  C  C825  1  0.626900  0.222600  0.971900  1.0  -0.0441
  C  C826  1  0.666800  0.204100  0.977800  1.0  -0.0819
  C  C827  1  0.624500  0.256700  0.951700  1.0  0.6561
  C  C828  1  0.638400  0.132000  0.032800  1.0  0.2464
  C  C829  1  0.669700  0.170600  0.997300  1.0  -0.1847
  C  C830  1  0.633800  0.164200  0.012900  1.0  0.151
  C  C831  1  0.671900  0.100600  0.033400  1.0  -0.161
  C  C832  1  0.675300  0.066700  0.053100  1.0  0.1117
  C  C833  1  0.591500  0.215500  0.987400  1.0  -0.102
  C  C834  1  0.616000  0.133800  0.052500  1.0  -0.1416
  C  C835  1  0.618800  0.098500  0.071600  1.0  0.1265
  C  C836  1  0.597200  0.186700  0.008600  1.0  -0.1004
  C  C837  1  0.126900  0.722600  0.471900  1.0  -0.0441
  C  C838  1  0.166800  0.704100  0.477800  1.0  -0.0819
  C  C839  1  0.124500  0.756700  0.451700  1.0  0.6561
  C  C840  1  0.138400  0.632000  0.532800  1.0  0.2464
  C  C841  1  0.169700  0.670600  0.497300  1.0  -0.1847
  C  C842  1  0.133800  0.664200  0.512900  1.0  0.151
  C  C843  1  0.171900  0.600600  0.533400  1.0  -0.161
  C  C844  1  0.175300  0.566700  0.553100  1.0  0.1117
  C  C845  1  0.091500  0.715500  0.487400  1.0  -0.102
  C  C846  1  0.116000  0.633800  0.552500  1.0  -0.1416
  C  C847  1  0.118800  0.598500  0.571600  1.0  0.1265
  C  C848  1  0.097200  0.686700  0.508600  1.0  -0.1004
  C  C849  1  0.972600  0.376900  0.721900  1.0  -0.0425
  C  C850  1  0.954100  0.416800  0.727800  1.0  -0.0819
  C  C851  1  0.006700  0.374500  0.701700  1.0  0.6545
  C  C852  1  0.882000  0.388400  0.782800  1.0  0.2471
  C  C853  1  0.920600  0.419700  0.747300  1.0  -0.1847
  C  C854  1  0.914200  0.383800  0.762900  1.0  0.1521
  C  C855  1  0.850600  0.421900  0.783400  1.0  -0.1601
  C  C856  1  0.816700  0.425300  0.803100  1.0  0.1114
  C  C857  1  0.965500  0.341500  0.737400  1.0  -0.1036
  C  C858  1  0.883800  0.366000  0.802500  1.0  -0.1412
  C  C859  1  0.848500  0.368800  0.821600  1.0  0.125
  C  C860  1  0.936700  0.347200  0.758600  1.0  -0.1042
  C  C861  1  0.472600  0.876900  0.221900  1.0  -0.0425
  C  C862  1  0.454100  0.916800  0.227800  1.0  -0.0819
  C  C863  1  0.506700  0.874500  0.201700  1.0  0.6545
  C  C864  1  0.382000  0.888400  0.282800  1.0  0.2471
  C  C865  1  0.420600  0.919700  0.247300  1.0  -0.1847
  C  C866  1  0.414200  0.883800  0.262900  1.0  0.1521
  C  C867  1  0.350600  0.921900  0.283400  1.0  -0.1601
  C  C868  1  0.316700  0.925300  0.303100  1.0  0.1114
  C  C869  1  0.465500  0.841500  0.237400  1.0  -0.1036
  C  C870  1  0.383800  0.866000  0.302500  1.0  -0.1412
  C  C871  1  0.348500  0.868800  0.321600  1.0  0.125
  C  C872  1  0.436700  0.847200  0.258600  1.0  -0.1042
  C  C873  1  0.126900  0.222600  0.528100  1.0  -0.0433
  C  C874  1  0.166800  0.204100  0.522200  1.0  -0.0818
  C  C875  1  0.124500  0.256700  0.548300  1.0  0.6556
  C  C876  1  0.138400  0.132000  0.467200  1.0  0.2478
  C  C877  1  0.169700  0.170600  0.502700  1.0  -0.1849
  C  C878  1  0.133800  0.164200  0.487100  1.0  0.1511
  C  C879  1  0.171900  0.100600  0.466600  1.0  -0.1605
  C  C880  1  0.175300  0.066700  0.446900  1.0  0.1114
  C  C881  1  0.091500  0.215500  0.512600  1.0  -0.1024
  C  C882  1  0.116000  0.133800  0.447500  1.0  -0.141
  C  C883  1  0.118800  0.098500  0.428400  1.0  0.1283
  C  C884  1  0.097200  0.186700  0.491400  1.0  -0.1006
  C  C885  1  0.626900  0.722600  0.028100  1.0  -0.0433
  C  C886  1  0.666800  0.704100  0.022200  1.0  -0.0818
  C  C887  1  0.624500  0.756700  0.048300  1.0  0.6556
  C  C888  1  0.638400  0.632000  0.967200  1.0  0.2478
  C  C889  1  0.669700  0.670600  0.002700  1.0  -0.1849
  C  C890  1  0.633800  0.664200  0.987100  1.0  0.1511
  C  C891  1  0.671900  0.600600  0.966600  1.0  -0.1605
  C  C892  1  0.675300  0.566700  0.946900  1.0  0.1114
  C  C893  1  0.591500  0.715500  0.012600  1.0  -0.1024
  C  C894  1  0.616000  0.633800  0.947500  1.0  -0.141
  C  C895  1  0.618800  0.598500  0.928400  1.0  0.1283
  C  C896  1  0.597200  0.686700  0.991400  1.0  -0.1006
  N  N897  1  0.855000  0.067300  0.929550  1.0  -0.1311
  N  N898  1  0.355000  0.567300  0.429550  1.0  -0.1311
  N  N899  1  0.182700  0.395000  0.320450  1.0  -0.1343
  N  N900  1  0.682700  0.895000  0.820450  1.0  -0.1343
  N  N901  1  0.355000  0.067300  0.570450  1.0  -0.1307
  N  N902  1  0.855000  0.567300  0.070450  1.0  -0.1307
  N  N903  1  0.682700  0.395000  0.179550  1.0  -0.1343
  N  N904  1  0.182700  0.895000  0.679550  1.0  -0.1343
  N  N905  1  0.645000  0.932700  0.429550  1.0  -0.1318
  N  N906  1  0.145000  0.432700  0.929550  1.0  -0.1318
  N  N907  1  0.317300  0.605000  0.820450  1.0  -0.1308
  N  N908  1  0.817300  0.105000  0.320450  1.0  -0.1308
  N  N909  1  0.145000  0.932700  0.070450  1.0  -0.1323
  N  N910  1  0.645000  0.432700  0.570450  1.0  -0.1323
  N  N911  1  0.817300  0.605000  0.679550  1.0  -0.1304
  N  N912  1  0.317300  0.105000  0.179550  1.0  -0.1304
  N  N913  1  0.182700  0.605000  0.179550  1.0  -0.1341
  N  N914  1  0.682700  0.105000  0.679550  1.0  -0.1341
  N  N915  1  0.855000  0.932700  0.570450  1.0  -0.1325
  N  N916  1  0.355000  0.432700  0.070450  1.0  -0.1325
  N  N917  1  0.682700  0.605000  0.320450  1.0  -0.1341
  N  N918  1  0.182700  0.105000  0.820450  1.0  -0.1341
  N  N919  1  0.355000  0.932700  0.929550  1.0  -0.132
  N  N920  1  0.855000  0.432700  0.429550  1.0  -0.132
  N  N921  1  0.317300  0.395000  0.679550  1.0  -0.1305
  N  N922  1  0.817300  0.895000  0.179550  1.0  -0.1305
  N  N923  1  0.645000  0.067300  0.070450  1.0  -0.1306
  N  N924  1  0.145000  0.567300  0.570450  1.0  -0.1306
  N  N925  1  0.817300  0.395000  0.820450  1.0  -0.1309
  N  N926  1  0.317300  0.895000  0.320450  1.0  -0.1309
  N  N927  1  0.145000  0.067300  0.429550  1.0  -0.131
  N  N928  1  0.645000  0.567300  0.929550  1.0  -0.131
  O  O929  1  0.848400  0.462900  0.069170  1.0  -0.8093
  O  O930  1  0.847500  0.368200  0.065510  1.0  -0.857
  O  O931  1  0.938500  0.465100  0.145890  1.0  -0.7516
  O  O932  1  0.791800  0.510700  0.108530  1.0  -0.7942
  O  O933  1  0.901700  0.509900  0.114610  1.0  -0.8413
  O  O934  1  0.894800  0.311200  0.104900  1.0  -0.8049
  O  O935  1  0.881600  0.492000  0.181250  1.0  -0.6779
  O  O936  1  0.757800  0.460900  0.071880  1.0  -0.6906
  O  O937  1  0.839500  0.542000  0.145930  1.0  -0.6673
  O  O938  1  0.979100  0.410100  0.113000  1.0  -0.6507
  O  O939  1  0.840800  0.262900  0.060670  1.0  -0.5749
  O  O940  1  0.936500  0.460200  0.077960  1.0  -0.6501
  O  O941  1  0.937000  0.366700  0.073590  1.0  -0.6538
  O  O942  1  0.907000  0.286900  0.048500  1.0  -0.4179
  O  O943  1  0.348400  0.962900  0.569170  1.0  -0.8093
  O  O944  1  0.347500  0.868200  0.565510  1.0  -0.857
  O  O945  1  0.438500  0.965100  0.645890  1.0  -0.7516
  O  O946  1  0.291800  0.010700  0.608530  1.0  -0.7942
  O  O947  1  0.401700  0.009900  0.614610  1.0  -0.8413
  O  O948  1  0.394800  0.811200  0.604900  1.0  -0.8049
  O  O949  1  0.381600  0.992000  0.681250  1.0  -0.6779
  O  O950  1  0.257800  0.960900  0.571880  1.0  -0.6906
  O  O951  1  0.339500  0.042000  0.645930  1.0  -0.6673
  O  O952  1  0.479100  0.910100  0.613000  1.0  -0.6507
  O  O953  1  0.340800  0.762900  0.560670  1.0  -0.5749
  O  O954  1  0.436500  0.960200  0.577960  1.0  -0.6501
  O  O955  1  0.437000  0.866700  0.573590  1.0  -0.6538
  O  O956  1  0.407000  0.786900  0.548500  1.0  -0.4179
  O  O957  1  0.787100  0.401600  0.180830  1.0  -0.8079
  O  O958  1  0.881800  0.402500  0.184490  1.0  -0.8552
  O  O959  1  0.784900  0.311500  0.104110  1.0  -0.7552
  O  O960  1  0.739300  0.458200  0.141470  1.0  -0.7933
  O  O961  1  0.740100  0.348300  0.135390  1.0  -0.8408
  O  O962  1  0.938800  0.355200  0.145100  1.0  -0.8058
  O  O963  1  0.758000  0.368400  0.068750  1.0  -0.6734
  O  O964  1  0.789100  0.492200  0.178120  1.0  -0.6907
  O  O965  1  0.708000  0.410500  0.104070  1.0  -0.6656
  O  O966  1  0.839900  0.270900  0.137000  1.0  -0.6556
  O  O967  1  0.987100  0.409200  0.189330  1.0  -0.5751
  O  O968  1  0.789800  0.313500  0.172040  1.0  -0.6528
  O  O969  1  0.883300  0.313000  0.176410  1.0  -0.6543
  O  O970  1  0.963100  0.343000  0.201500  1.0  -0.4176
  O  O971  1  0.287100  0.901600  0.680830  1.0  -0.8079
  O  O972  1  0.381800  0.902500  0.684490  1.0  -0.8552
  O  O973  1  0.284900  0.811500  0.604110  1.0  -0.7552
  O  O974  1  0.239300  0.958200  0.641470  1.0  -0.7933
  O  O975  1  0.240100  0.848300  0.635390  1.0  -0.8408
  O  O976  1  0.438800  0.855200  0.645100  1.0  -0.8058
  O  O977  1  0.258000  0.868400  0.568750  1.0  -0.6734
  O  O978  1  0.289100  0.992200  0.678120  1.0  -0.6907
  O  O979  1  0.208000  0.910500  0.604070  1.0  -0.6656
  O  O980  1  0.339900  0.770900  0.637000  1.0  -0.6556
  O  O981  1  0.487100  0.909200  0.689330  1.0  -0.5751
  O  O982  1  0.289800  0.813500  0.672040  1.0  -0.6528
  O  O983  1  0.383300  0.813000  0.676410  1.0  -0.6543
  O  O984  1  0.463100  0.843000  0.701500  1.0  -0.4176
  O  O985  1  0.348400  0.462900  0.430830  1.0  -0.8079
  O  O986  1  0.347500  0.368200  0.434490  1.0  -0.8558
  O  O987  1  0.438500  0.465100  0.354110  1.0  -0.7518
  O  O988  1  0.291800  0.510700  0.391470  1.0  -0.7936
  O  O989  1  0.401700  0.509900  0.385390  1.0  -0.8413
  O  O990  1  0.394800  0.311200  0.395100  1.0  -0.8055
  O  O991  1  0.381600  0.492000  0.318750  1.0  -0.6764
  O  O992  1  0.257800  0.460900  0.428120  1.0  -0.6904
  O  O993  1  0.339500  0.542000  0.354070  1.0  -0.667
  O  O994  1  0.479100  0.410100  0.387000  1.0  -0.6507
  O  O995  1  0.340800  0.262900  0.439330  1.0  -0.5749
  O  O996  1  0.436500  0.460200  0.422040  1.0  -0.6494
  O  O997  1  0.437000  0.366700  0.426410  1.0  -0.6534
  O  O998  1  0.407000  0.286900  0.451500  1.0  -0.4178
  O  O999  1  0.848400  0.962900  0.930830  1.0  -0.8079
  O  O1000  1  0.847500  0.868200  0.934490  1.0  -0.8558
  O  O1001  1  0.938500  0.965100  0.854110  1.0  -0.7518
  O  O1002  1  0.791800  0.010700  0.891470  1.0  -0.7936
  O  O1003  1  0.901700  0.009900  0.885390  1.0  -0.8413
  O  O1004  1  0.894800  0.811200  0.895100  1.0  -0.8055
  O  O1005  1  0.881600  0.992000  0.818750  1.0  -0.6764
  O  O1006  1  0.757800  0.960900  0.928120  1.0  -0.6904
  O  O1007  1  0.839500  0.042000  0.854070  1.0  -0.667
  O  O1008  1  0.979100  0.910100  0.887000  1.0  -0.6507
  O  O1009  1  0.840800  0.762900  0.939330  1.0  -0.5749
  O  O1010  1  0.936500  0.960200  0.922040  1.0  -0.6494
  O  O1011  1  0.937000  0.866700  0.926410  1.0  -0.6534
  O  O1012  1  0.907000  0.786900  0.951500  1.0  -0.4178
  O  O1013  1  0.287100  0.401600  0.319170  1.0  -0.8093
  O  O1014  1  0.381800  0.402500  0.315510  1.0  -0.8563
  O  O1015  1  0.284900  0.311500  0.395890  1.0  -0.7546
  O  O1016  1  0.239300  0.458200  0.358530  1.0  -0.7939
  O  O1017  1  0.240100  0.348300  0.364610  1.0  -0.8406
  O  O1018  1  0.438800  0.355200  0.354900  1.0  -0.805
  O  O1019  1  0.258000  0.368400  0.431250  1.0  -0.6756
  O  O1020  1  0.289100  0.492200  0.321880  1.0  -0.691
  O  O1021  1  0.208000  0.410500  0.395930  1.0  -0.6655
  O  O1022  1  0.339900  0.270900  0.363000  1.0  -0.6554
  O  O1023  1  0.487100  0.409200  0.310670  1.0  -0.5748
  O  O1024  1  0.289800  0.313500  0.327960  1.0  -0.6521
  O  O1025  1  0.383300  0.313000  0.323590  1.0  -0.6532
  O  O1026  1  0.463100  0.343000  0.298500  1.0  -0.418
  O  O1027  1  0.787100  0.901600  0.819170  1.0  -0.8093
  O  O1028  1  0.881800  0.902500  0.815510  1.0  -0.8563
  O  O1029  1  0.784900  0.811500  0.895890  1.0  -0.7546
  O  O1030  1  0.739300  0.958200  0.858530  1.0  -0.7939
  O  O1031  1  0.740100  0.848300  0.864610  1.0  -0.8406
  O  O1032  1  0.938800  0.855200  0.854900  1.0  -0.805
  O  O1033  1  0.758000  0.868400  0.931250  1.0  -0.6756
  O  O1034  1  0.789100  0.992200  0.821880  1.0  -0.691
  O  O1035  1  0.708000  0.910500  0.895930  1.0  -0.6655
  O  O1036  1  0.839900  0.770900  0.863000  1.0  -0.6554
  O  O1037  1  0.987100  0.909200  0.810670  1.0  -0.5748
  O  O1038  1  0.789800  0.813500  0.827960  1.0  -0.6521
  O  O1039  1  0.883300  0.813000  0.823590  1.0  -0.6532
  O  O1040  1  0.963100  0.843000  0.798500  1.0  -0.418
  O  O1041  1  0.651600  0.537100  0.569170  1.0  -0.8088
  O  O1042  1  0.652500  0.631800  0.565510  1.0  -0.8571
  O  O1043  1  0.561500  0.534900  0.645890  1.0  -0.7529
  O  O1044  1  0.708200  0.489300  0.608530  1.0  -0.794
  O  O1045  1  0.598300  0.490100  0.614610  1.0  -0.8406
  O  O1046  1  0.605200  0.688800  0.604900  1.0  -0.8043
  O  O1047  1  0.618400  0.508000  0.681250  1.0  -0.6795
  O  O1048  1  0.742200  0.539100  0.571880  1.0  -0.6892
  O  O1049  1  0.660500  0.458000  0.645930  1.0  -0.6684
  O  O1050  1  0.520900  0.589900  0.613000  1.0  -0.6483
  O  O1051  1  0.659200  0.737100  0.560670  1.0  -0.5742
  O  O1052  1  0.563500  0.539800  0.577960  1.0  -0.6508
  O  O1053  1  0.563000  0.633300  0.573590  1.0  -0.6529
  O  O1054  1  0.593000  0.713100  0.548500  1.0  -0.4193
  O  O1055  1  0.151600  0.037100  0.069170  1.0  -0.8088
  O  O1056  1  0.152500  0.131800  0.065510  1.0  -0.8571
  O  O1057  1  0.061500  0.034900  0.145890  1.0  -0.7529
  O  O1058  1  0.208200  0.989300  0.108530  1.0  -0.794
  O  O1059  1  0.098300  0.990100  0.114610  1.0  -0.8406
  O  O1060  1  0.105200  0.188800  0.104900  1.0  -0.8043
  O  O1061  1  0.118400  0.008000  0.181250  1.0  -0.6795
  O  O1062  1  0.242200  0.039100  0.071880  1.0  -0.6892
  O  O1063  1  0.160500  0.958000  0.145930  1.0  -0.6684
  O  O1064  1  0.020900  0.089900  0.113000  1.0  -0.6483
  O  O1065  1  0.159200  0.237100  0.060670  1.0  -0.5742
  O  O1066  1  0.063500  0.039800  0.077960  1.0  -0.6508
  O  O1067  1  0.063000  0.133300  0.073590  1.0  -0.6529
  O  O1068  1  0.093000  0.213100  0.048500  1.0  -0.4193
  O  O1069  1  0.712900  0.598400  0.680830  1.0  -0.8071
  O  O1070  1  0.618200  0.597500  0.684490  1.0  -0.8552
  O  O1071  1  0.715100  0.688500  0.604110  1.0  -0.754
  O  O1072  1  0.760700  0.541800  0.641470  1.0  -0.7923
  O  O1073  1  0.759900  0.651700  0.635390  1.0  -0.8411
  O  O1074  1  0.561200  0.644800  0.645100  1.0  -0.8035
  O  O1075  1  0.742000  0.631600  0.568750  1.0  -0.674
  O  O1076  1  0.710900  0.507800  0.678120  1.0  -0.6908
  O  O1077  1  0.792000  0.589500  0.604070  1.0  -0.6668
  O  O1078  1  0.660100  0.729100  0.637000  1.0  -0.6476
  O  O1079  1  0.512900  0.590800  0.689330  1.0  -0.5758
  O  O1080  1  0.710200  0.686500  0.672040  1.0  -0.6498
  O  O1081  1  0.616700  0.687000  0.676410  1.0  -0.6539
  O  O1082  1  0.536900  0.657000  0.701500  1.0  -0.4168
  O  O1083  1  0.212900  0.098400  0.180830  1.0  -0.8071
  O  O1084  1  0.118200  0.097500  0.184490  1.0  -0.8552
  O  O1085  1  0.215100  0.188500  0.104110  1.0  -0.754
  O  O1086  1  0.260700  0.041800  0.141470  1.0  -0.7923
  O  O1087  1  0.259900  0.151700  0.135390  1.0  -0.8411
  O  O1088  1  0.061200  0.144800  0.145100  1.0  -0.8035
  O  O1089  1  0.242000  0.131600  0.068750  1.0  -0.674
  O  O1090  1  0.210900  0.007800  0.178120  1.0  -0.6908
  O  O1091  1  0.292000  0.089500  0.104070  1.0  -0.6668
  O  O1092  1  0.160100  0.229100  0.137000  1.0  -0.6476
  O  O1093  1  0.012900  0.090800  0.189330  1.0  -0.5758
  O  O1094  1  0.210200  0.186500  0.172040  1.0  -0.6498
  O  O1095  1  0.116700  0.187000  0.176410  1.0  -0.6539
  O  O1096  1  0.036900  0.157000  0.201500  1.0  -0.4168
  O  O1097  1  0.151600  0.537100  0.930830  1.0  -0.8072
  O  O1098  1  0.152500  0.631800  0.934490  1.0  -0.856
  O  O1099  1  0.061500  0.534900  0.854110  1.0  -0.7533
  O  O1100  1  0.208200  0.489300  0.891470  1.0  -0.7936
  O  O1101  1  0.098300  0.490100  0.885390  1.0  -0.841
  O  O1102  1  0.105200  0.688800  0.895100  1.0  -0.8044
  O  O1103  1  0.118400  0.508000  0.818750  1.0  -0.6751
  O  O1104  1  0.242200  0.539100  0.928120  1.0  -0.6901
  O  O1105  1  0.160500  0.458000  0.854070  1.0  -0.6675
  O  O1106  1  0.020900  0.589900  0.887000  1.0  -0.6484
  O  O1107  1  0.159200  0.737100  0.939330  1.0  -0.5746
  O  O1108  1  0.063500  0.539800  0.922040  1.0  -0.6501
  O  O1109  1  0.063000  0.633300  0.926410  1.0  -0.6517
  O  O1110  1  0.093000  0.713100  0.951500  1.0  -0.4189
  O  O1111  1  0.651600  0.037100  0.430830  1.0  -0.8072
  O  O1112  1  0.652500  0.131800  0.434490  1.0  -0.856
  O  O1113  1  0.561500  0.034900  0.354110  1.0  -0.7533
  O  O1114  1  0.708200  0.989300  0.391470  1.0  -0.7936
  O  O1115  1  0.598300  0.990100  0.385390  1.0  -0.841
  O  O1116  1  0.605200  0.188800  0.395100  1.0  -0.8044
  O  O1117  1  0.618400  0.008000  0.318750  1.0  -0.6751
  O  O1118  1  0.742200  0.039100  0.428120  1.0  -0.6901
  O  O1119  1  0.660500  0.958000  0.354070  1.0  -0.6675
  O  O1120  1  0.520900  0.089900  0.387000  1.0  -0.6484
  O  O1121  1  0.659200  0.237100  0.439330  1.0  -0.5746
  O  O1122  1  0.563500  0.039800  0.422040  1.0  -0.6501
  O  O1123  1  0.563000  0.133300  0.426410  1.0  -0.6517
  O  O1124  1  0.593000  0.213100  0.451500  1.0  -0.4189
  O  O1125  1  0.212900  0.598400  0.819170  1.0  -0.8085
  O  O1126  1  0.118200  0.597500  0.815510  1.0  -0.8563
  O  O1127  1  0.215100  0.688500  0.895890  1.0  -0.7537
  O  O1128  1  0.260700  0.541800  0.858530  1.0  -0.7926
  O  O1129  1  0.259900  0.651700  0.864610  1.0  -0.841
  O  O1130  1  0.061200  0.644800  0.854900  1.0  -0.8035
  O  O1131  1  0.242000  0.631600  0.931250  1.0  -0.6772
  O  O1132  1  0.210900  0.507800  0.821880  1.0  -0.6899
  O  O1133  1  0.292000  0.589500  0.895930  1.0  -0.6673
  O  O1134  1  0.160100  0.729100  0.863000  1.0  -0.6473
  O  O1135  1  0.012900  0.590800  0.810670  1.0  -0.5749
  O  O1136  1  0.210200  0.686500  0.827960  1.0  -0.6518
  O  O1137  1  0.116700  0.687000  0.823590  1.0  -0.6547
  O  O1138  1  0.036900  0.657000  0.798500  1.0  -0.417
  O  O1139  1  0.712900  0.098400  0.319170  1.0  -0.8085
  O  O1140  1  0.618200  0.097500  0.315510  1.0  -0.8563
  O  O1141  1  0.715100  0.188500  0.395890  1.0  -0.7537
  O  O1142  1  0.760700  0.041800  0.358530  1.0  -0.7926
  O  O1143  1  0.759900  0.151700  0.364610  1.0  -0.841
  O  O1144  1  0.561200  0.144800  0.354900  1.0  -0.8035
  O  O1145  1  0.742000  0.131600  0.431250  1.0  -0.6772
  O  O1146  1  0.710900  0.007800  0.321880  1.0  -0.6899
  O  O1147  1  0.792000  0.089500  0.395930  1.0  -0.6673
  O  O1148  1  0.660100  0.229100  0.363000  1.0  -0.6473
  O  O1149  1  0.512900  0.090800  0.310670  1.0  -0.5749
  O  O1150  1  0.710200  0.186500  0.327960  1.0  -0.6518
  O  O1151  1  0.616700  0.187000  0.323590  1.0  -0.6547
  O  O1152  1  0.536900  0.157000  0.298500  1.0  -0.417
  O  O1153  1  0.787100  0.598400  0.319170  1.0  -0.8094
  O  O1154  1  0.881800  0.597500  0.315510  1.0  -0.8561
  O  O1155  1  0.784900  0.688500  0.395890  1.0  -0.7552
  O  O1156  1  0.739300  0.541800  0.358530  1.0  -0.7933
  O  O1157  1  0.740100  0.651700  0.364610  1.0  -0.8405
  O  O1158  1  0.938800  0.644800  0.354900  1.0  -0.8043
  O  O1159  1  0.758000  0.631600  0.431250  1.0  -0.6765
  O  O1160  1  0.789100  0.507800  0.321880  1.0  -0.6894
  O  O1161  1  0.708000  0.589500  0.395930  1.0  -0.6655
  O  O1162  1  0.839900  0.729100  0.363000  1.0  -0.6472
  O  O1163  1  0.987100  0.590800  0.310670  1.0  -0.5743
  O  O1164  1  0.789800  0.686500  0.327960  1.0  -0.6519
  O  O1165  1  0.883300  0.687000  0.323590  1.0  -0.6545
  O  O1166  1  0.963100  0.657000  0.298500  1.0  -0.4175
  O  O1167  1  0.287100  0.098400  0.819170  1.0  -0.8094
  O  O1168  1  0.381800  0.097500  0.815510  1.0  -0.8561
  O  O1169  1  0.284900  0.188500  0.895890  1.0  -0.7552
  O  O1170  1  0.239300  0.041800  0.858530  1.0  -0.7933
  O  O1171  1  0.240100  0.151700  0.864610  1.0  -0.8405
  O  O1172  1  0.438800  0.144800  0.854900  1.0  -0.8043
  O  O1173  1  0.258000  0.131600  0.931250  1.0  -0.6765
  O  O1174  1  0.289100  0.007800  0.821880  1.0  -0.6894
  O  O1175  1  0.208000  0.089500  0.895930  1.0  -0.6655
  O  O1176  1  0.339900  0.229100  0.863000  1.0  -0.6472
  O  O1177  1  0.487100  0.090800  0.810670  1.0  -0.5743
  O  O1178  1  0.289800  0.186500  0.827960  1.0  -0.6519
  O  O1179  1  0.383300  0.187000  0.823590  1.0  -0.6545
  O  O1180  1  0.463100  0.157000  0.798500  1.0  -0.4175
  O  O1181  1  0.848400  0.537100  0.430830  1.0  -0.8073
  O  O1182  1  0.847500  0.631800  0.434490  1.0  -0.8561
  O  O1183  1  0.938500  0.534900  0.354110  1.0  -0.7519
  O  O1184  1  0.791800  0.489300  0.391470  1.0  -0.7941
  O  O1185  1  0.901700  0.490100  0.385390  1.0  -0.8421
  O  O1186  1  0.894800  0.688800  0.395100  1.0  -0.8052
  O  O1187  1  0.881600  0.508000  0.318750  1.0  -0.676
  O  O1188  1  0.757800  0.539100  0.428120  1.0  -0.6907
  O  O1189  1  0.839500  0.458000  0.354070  1.0  -0.6672
  O  O1190  1  0.979100  0.589900  0.387000  1.0  -0.6504
  O  O1191  1  0.840800  0.737100  0.439330  1.0  -0.5751
  O  O1192  1  0.936500  0.539800  0.422040  1.0  -0.6497
  O  O1193  1  0.937000  0.633300  0.426410  1.0  -0.653
  O  O1194  1  0.907000  0.713100  0.451500  1.0  -0.4175
  O  O1195  1  0.348400  0.037100  0.930830  1.0  -0.8073
  O  O1196  1  0.347500  0.131800  0.934490  1.0  -0.8561
  O  O1197  1  0.438500  0.034900  0.854110  1.0  -0.7519
  O  O1198  1  0.291800  0.989300  0.891470  1.0  -0.7941
  O  O1199  1  0.401700  0.990100  0.885390  1.0  -0.8421
  O  O1200  1  0.394800  0.188800  0.895100  1.0  -0.8052
  O  O1201  1  0.381600  0.008000  0.818750  1.0  -0.676
  O  O1202  1  0.257800  0.039100  0.928120  1.0  -0.6907
  O  O1203  1  0.339500  0.958000  0.854070  1.0  -0.6672
  O  O1204  1  0.479100  0.089900  0.887000  1.0  -0.6504
  O  O1205  1  0.340800  0.237100  0.939330  1.0  -0.5751
  O  O1206  1  0.436500  0.039800  0.922040  1.0  -0.6497
  O  O1207  1  0.437000  0.133300  0.926410  1.0  -0.653
  O  O1208  1  0.407000  0.213100  0.951500  1.0  -0.4175
  O  O1209  1  0.287100  0.598400  0.180830  1.0  -0.808
  O  O1210  1  0.381800  0.597500  0.184490  1.0  -0.8549
  O  O1211  1  0.284900  0.688500  0.104110  1.0  -0.7556
  O  O1212  1  0.239300  0.541800  0.141470  1.0  -0.7928
  O  O1213  1  0.240100  0.651700  0.135390  1.0  -0.8405
  O  O1214  1  0.438800  0.644800  0.145100  1.0  -0.8047
  O  O1215  1  0.258000  0.631600  0.068750  1.0  -0.6743
  O  O1216  1  0.289100  0.507800  0.178120  1.0  -0.6904
  O  O1217  1  0.208000  0.589500  0.104070  1.0  -0.6653
  O  O1218  1  0.339900  0.729100  0.137000  1.0  -0.6475
  O  O1219  1  0.487100  0.590800  0.189330  1.0  -0.5752
  O  O1220  1  0.289800  0.686500  0.172040  1.0  -0.6502
  O  O1221  1  0.383300  0.687000  0.176410  1.0  -0.6537
  O  O1222  1  0.463100  0.657000  0.201500  1.0  -0.4173
  O  O1223  1  0.787100  0.098400  0.680830  1.0  -0.808
  O  O1224  1  0.881800  0.097500  0.684490  1.0  -0.8549
  O  O1225  1  0.784900  0.188500  0.604110  1.0  -0.7556
  O  O1226  1  0.739300  0.041800  0.641470  1.0  -0.7928
  O  O1227  1  0.740100  0.151700  0.635390  1.0  -0.8405
  O  O1228  1  0.938800  0.144800  0.645100  1.0  -0.8047
  O  O1229  1  0.758000  0.131600  0.568750  1.0  -0.6743
  O  O1230  1  0.789100  0.007800  0.678120  1.0  -0.6904
  O  O1231  1  0.708000  0.089500  0.604070  1.0  -0.6653
  O  O1232  1  0.839900  0.229100  0.637000  1.0  -0.6475
  O  O1233  1  0.987100  0.090800  0.689330  1.0  -0.5752
  O  O1234  1  0.789800  0.186500  0.672040  1.0  -0.6502
  O  O1235  1  0.883300  0.187000  0.676410  1.0  -0.6537
  O  O1236  1  0.963100  0.157000  0.701500  1.0  -0.4173
  O  O1237  1  0.348400  0.537100  0.069170  1.0  -0.8091
  O  O1238  1  0.347500  0.631800  0.065510  1.0  -0.8572
  O  O1239  1  0.438500  0.534900  0.145890  1.0  -0.7515
  O  O1240  1  0.291800  0.489300  0.108530  1.0  -0.7945
  O  O1241  1  0.401700  0.490100  0.114610  1.0  -0.8415
  O  O1242  1  0.394800  0.688800  0.104900  1.0  -0.8049
  O  O1243  1  0.381600  0.508000  0.181250  1.0  -0.6797
  O  O1244  1  0.257800  0.539100  0.071880  1.0  -0.6912
  O  O1245  1  0.339500  0.458000  0.145930  1.0  -0.6679
  O  O1246  1  0.479100  0.589900  0.113000  1.0  -0.6504
  O  O1247  1  0.340800  0.737100  0.060670  1.0  -0.5752
  O  O1248  1  0.436500  0.539800  0.077960  1.0  -0.65
  O  O1249  1  0.437000  0.633300  0.073590  1.0  -0.6535
  O  O1250  1  0.407000  0.713100  0.048500  1.0  -0.4178
  O  O1251  1  0.848400  0.037100  0.569170  1.0  -0.8091
  O  O1252  1  0.847500  0.131800  0.565510  1.0  -0.8572
  O  O1253  1  0.938500  0.034900  0.645890  1.0  -0.7515
  O  O1254  1  0.791800  0.989300  0.608530  1.0  -0.7945
  O  O1255  1  0.901700  0.990100  0.614610  1.0  -0.8415
  O  O1256  1  0.894800  0.188800  0.604900  1.0  -0.8049
  O  O1257  1  0.881600  0.008000  0.681250  1.0  -0.6797
  O  O1258  1  0.757800  0.039100  0.571880  1.0  -0.6912
  O  O1259  1  0.839500  0.958000  0.645930  1.0  -0.6679
  O  O1260  1  0.979100  0.089900  0.613000  1.0  -0.6504
  O  O1261  1  0.840800  0.237100  0.560670  1.0  -0.5752
  O  O1262  1  0.936500  0.039800  0.577960  1.0  -0.65
  O  O1263  1  0.937000  0.133300  0.573590  1.0  -0.6535
  O  O1264  1  0.907000  0.213100  0.548500  1.0  -0.4178
  O  O1265  1  0.712900  0.401600  0.819170  1.0  -0.8084
  O  O1266  1  0.618200  0.402500  0.815510  1.0  -0.8565
  O  O1267  1  0.715100  0.311500  0.895890  1.0  -0.7536
  O  O1268  1  0.760700  0.458200  0.858530  1.0  -0.793
  O  O1269  1  0.759900  0.348300  0.864610  1.0  -0.8414
  O  O1270  1  0.561200  0.355200  0.854900  1.0  -0.8041
  O  O1271  1  0.742000  0.368400  0.931250  1.0  -0.6762
  O  O1272  1  0.710900  0.492200  0.821880  1.0  -0.6914
  O  O1273  1  0.792000  0.410500  0.895930  1.0  -0.6673
  O  O1274  1  0.660100  0.270900  0.863000  1.0  -0.656
  O  O1275  1  0.512900  0.409200  0.810670  1.0  -0.5757
  O  O1276  1  0.710200  0.313500  0.827960  1.0  -0.6521
  O  O1277  1  0.616700  0.313000  0.823590  1.0  -0.6536
  O  O1278  1  0.536900  0.343000  0.798500  1.0  -0.4176
  O  O1279  1  0.212900  0.901600  0.319170  1.0  -0.8084
  O  O1280  1  0.118200  0.902500  0.315510  1.0  -0.8565
  O  O1281  1  0.215100  0.811500  0.395890  1.0  -0.7536
  O  O1282  1  0.260700  0.958200  0.358530  1.0  -0.793
  O  O1283  1  0.259900  0.848300  0.364610  1.0  -0.8414
  O  O1284  1  0.061200  0.855200  0.354900  1.0  -0.8041
  O  O1285  1  0.242000  0.868400  0.431250  1.0  -0.6762
  O  O1286  1  0.210900  0.992200  0.321880  1.0  -0.6914
  O  O1287  1  0.292000  0.910500  0.395930  1.0  -0.6673
  O  O1288  1  0.160100  0.770900  0.363000  1.0  -0.656
  O  O1289  1  0.012900  0.909200  0.310670  1.0  -0.5757
  O  O1290  1  0.210200  0.813500  0.327960  1.0  -0.6521
  O  O1291  1  0.116700  0.813000  0.323590  1.0  -0.6536
  O  O1292  1  0.036900  0.843000  0.298500  1.0  -0.4176
  O  O1293  1  0.651600  0.462900  0.930830  1.0  -0.8077
  O  O1294  1  0.652500  0.368200  0.934490  1.0  -0.8556
  O  O1295  1  0.561500  0.465100  0.854110  1.0  -0.7534
  O  O1296  1  0.708200  0.510700  0.891470  1.0  -0.7931
  O  O1297  1  0.598300  0.509900  0.885390  1.0  -0.8405
  O  O1298  1  0.605200  0.311200  0.895100  1.0  -0.8046
  O  O1299  1  0.618400  0.492000  0.818750  1.0  -0.6758
  O  O1300  1  0.742200  0.460900  0.928120  1.0  -0.6898
  O  O1301  1  0.660500  0.542000  0.854070  1.0  -0.6671
  O  O1302  1  0.520900  0.410100  0.887000  1.0  -0.6486
  O  O1303  1  0.659200  0.262900  0.939330  1.0  -0.5744
  O  O1304  1  0.563500  0.460200  0.922040  1.0  -0.6499
  O  O1305  1  0.563000  0.366700  0.926410  1.0  -0.6519
  O  O1306  1  0.593000  0.286900  0.951500  1.0  -0.4181
  O  O1307  1  0.151600  0.962900  0.430830  1.0  -0.8077
  O  O1308  1  0.152500  0.868200  0.434490  1.0  -0.8556
  O  O1309  1  0.061500  0.965100  0.354110  1.0  -0.7534
  O  O1310  1  0.208200  0.010700  0.391470  1.0  -0.7931
  O  O1311  1  0.098300  0.009900  0.385390  1.0  -0.8405
  O  O1312  1  0.105200  0.811200  0.395100  1.0  -0.8046
  O  O1313  1  0.118400  0.992000  0.318750  1.0  -0.6758
  O  O1314  1  0.242200  0.960900  0.428120  1.0  -0.6898
  O  O1315  1  0.160500  0.042000  0.354070  1.0  -0.6671
  O  O1316  1  0.020900  0.910100  0.387000  1.0  -0.6486
  O  O1317  1  0.159200  0.762900  0.439330  1.0  -0.5744
  O  O1318  1  0.063500  0.960200  0.422040  1.0  -0.6499
  O  O1319  1  0.063000  0.866700  0.426410  1.0  -0.6519
  O  O1320  1  0.093000  0.786900  0.451500  1.0  -0.4181
  O  O1321  1  0.212900  0.401600  0.680830  1.0  -0.8071
  O  O1322  1  0.118200  0.402500  0.684490  1.0  -0.8554
  O  O1323  1  0.215100  0.311500  0.604110  1.0  -0.7542
  O  O1324  1  0.260700  0.458200  0.641470  1.0  -0.7924
  O  O1325  1  0.259900  0.348300  0.635390  1.0  -0.8417
  O  O1326  1  0.061200  0.355200  0.645100  1.0  -0.8045
  O  O1327  1  0.242000  0.368400  0.568750  1.0  -0.6734
  O  O1328  1  0.210900  0.492200  0.678120  1.0  -0.6904
  O  O1329  1  0.292000  0.410500  0.604070  1.0  -0.6671
  O  O1330  1  0.160100  0.270900  0.637000  1.0  -0.6561
  O  O1331  1  0.012900  0.409200  0.689330  1.0  -0.5764
  O  O1332  1  0.210200  0.313500  0.672040  1.0  -0.6525
  O  O1333  1  0.116700  0.313000  0.676410  1.0  -0.6544
  O  O1334  1  0.036900  0.343000  0.701500  1.0  -0.4174
  O  O1335  1  0.712900  0.901600  0.180830  1.0  -0.8071
  O  O1336  1  0.618200  0.902500  0.184490  1.0  -0.8554
  O  O1337  1  0.715100  0.811500  0.104110  1.0  -0.7542
  O  O1338  1  0.760700  0.958200  0.141470  1.0  -0.7924
  O  O1339  1  0.759900  0.848300  0.135390  1.0  -0.8417
  O  O1340  1  0.561200  0.855200  0.145100  1.0  -0.8045
  O  O1341  1  0.742000  0.868400  0.068750  1.0  -0.6734
  O  O1342  1  0.710900  0.992200  0.178120  1.0  -0.6904
  O  O1343  1  0.792000  0.910500  0.104070  1.0  -0.6671
  O  O1344  1  0.660100  0.770900  0.137000  1.0  -0.6561
  O  O1345  1  0.512900  0.909200  0.189330  1.0  -0.5764
  O  O1346  1  0.710200  0.813500  0.172040  1.0  -0.6525
  O  O1347  1  0.616700  0.813000  0.176410  1.0  -0.6544
  O  O1348  1  0.536900  0.843000  0.201500  1.0  -0.4174
  O  O1349  1  0.151600  0.462900  0.569170  1.0  -0.8089
  O  O1350  1  0.152500  0.368200  0.565510  1.0  -0.857
  O  O1351  1  0.061500  0.465100  0.645890  1.0  -0.753
  O  O1352  1  0.208200  0.510700  0.608530  1.0  -0.7937
  O  O1353  1  0.098300  0.509900  0.614610  1.0  -0.8406
  O  O1354  1  0.105200  0.311200  0.604900  1.0  -0.8042
  O  O1355  1  0.118400  0.492000  0.681250  1.0  -0.678
  O  O1356  1  0.242200  0.460900  0.571880  1.0  -0.6888
  O  O1357  1  0.160500  0.542000  0.645930  1.0  -0.6675
  O  O1358  1  0.020900  0.410100  0.613000  1.0  -0.6485
  O  O1359  1  0.159200  0.262900  0.560670  1.0  -0.5736
  O  O1360  1  0.063500  0.460200  0.577960  1.0  -0.6512
  O  O1361  1  0.063000  0.366700  0.573590  1.0  -0.6532
  O  O1362  1  0.093000  0.286900  0.548500  1.0  -0.4184
  O  O1363  1  0.651600  0.962900  0.069170  1.0  -0.8089
  O  O1364  1  0.652500  0.868200  0.065510  1.0  -0.857
  O  O1365  1  0.561500  0.965100  0.145890  1.0  -0.753
  O  O1366  1  0.708200  0.010700  0.108530  1.0  -0.7937
  O  O1367  1  0.598300  0.009900  0.114610  1.0  -0.8406
  O  O1368  1  0.605200  0.811200  0.104900  1.0  -0.8042
  O  O1369  1  0.618400  0.992000  0.181250  1.0  -0.678
  O  O1370  1  0.742200  0.960900  0.071880  1.0  -0.6888
  O  O1371  1  0.660500  0.042000  0.145930  1.0  -0.6675
  O  O1372  1  0.520900  0.910100  0.113000  1.0  -0.6485
  O  O1373  1  0.659200  0.762900  0.060670  1.0  -0.5736
  O  O1374  1  0.563500  0.960200  0.077960  1.0  -0.6512
  O  O1375  1  0.563000  0.866700  0.073590  1.0  -0.6532
  O  O1376  1  0.593000  0.786900  0.048500  1.0  -0.4184
