# generated using pymatgen
data_Mn96H320C832N64Cl49O256
_symmetry_space_group_name_H-M   'P 1'
_cell_length_a   38.14280000
_cell_length_b   38.14280000
_cell_length_c   39.24560000
_cell_angle_alpha   66.47770000
_cell_angle_beta   66.47800000
_cell_angle_gamma   100.29500000
_symmetry_Int_Tables_number   1
_chemical_formula_structural   Mn96H320C832N64Cl49O256
_chemical_formula_sum   'Mn96 H320 C832 N64 Cl49 O256'
_cell_volume   43952.36686024
_cell_formula_units_Z   1
loop_
 _symmetry_equiv_pos_site_id
 _symmetry_equiv_pos_as_xyz
  1  'x, y, z'
loop_
 _atom_site_type_symbol
 _atom_site_label
 _atom_site_symmetry_multiplicity
 _atom_site_fract_x
 _atom_site_fract_y
 _atom_site_fract_z
 _atom_site_occupancy
 _atom_site_charge
  Mn  Mn1  1  0.250000  0.000000  0.250000  1.0  0.9771
  Mn  Mn2  1  0.000000  0.250000  0.250000  1.0  0.9774
  Mn  Mn3  1  0.250000  0.250000  0.250000  1.0  1.1037
  Mn  Mn4  1  0.000000  0.000000  0.250000  1.0  1.1041
  Mn  Mn5  1  0.341700  0.341700  0.146170  1.0  1.0059
  Mn  Mn6  1  0.012130  0.012130  0.146170  1.0  1.0091
  Mn  Mn7  1  0.158300  0.158300  0.353830  1.0  1.0104
  Mn  Mn8  1  0.487870  0.487870  0.353830  1.0  0.9987
  Mn  Mn9  1  0.014580  0.292760  0.000000  1.0  1.0944
  Mn  Mn10  1  0.485420  0.207250  0.000000  1.0  1.0973
  Mn  Mn11  1  0.207250  0.485420  0.000000  1.0  1.0967
  Mn  Mn12  1  0.292760  0.014580  0.000000  1.0  1.0965
  Mn  Mn13  1  0.750000  0.000000  0.250000  1.0  0.9691
  Mn  Mn14  1  0.500000  0.250000  0.250000  1.0  0.9767
  Mn  Mn15  1  0.750000  0.250000  0.250000  1.0  1.1037
  Mn  Mn16  1  0.500000  0.000000  0.250000  1.0  1.1021
  Mn  Mn17  1  0.841700  0.341700  0.146170  1.0  1.0077
  Mn  Mn18  1  0.512130  0.012130  0.146170  1.0  1.0063
  Mn  Mn19  1  0.658300  0.158300  0.353830  1.0  1.0127
  Mn  Mn20  1  0.987870  0.487870  0.353830  1.0  1.0031
  Mn  Mn21  1  0.514590  0.292760  0.000000  1.0  1.0944
  Mn  Mn22  1  0.985420  0.207250  0.000000  1.0  1.0973
  Mn  Mn23  1  0.707250  0.485420  0.000000  1.0  1.0967
  Mn  Mn24  1  0.792760  0.014580  0.000000  1.0  1.0965
  Mn  Mn25  1  0.250000  0.500000  0.250000  1.0  0.9779
  Mn  Mn26  1  0.000000  0.750000  0.250000  1.0  0.9774
  Mn  Mn27  1  0.250000  0.750000  0.250000  1.0  1.1037
  Mn  Mn28  1  0.000000  0.500000  0.250000  1.0  1.1041
  Mn  Mn29  1  0.341700  0.841700  0.146170  1.0  1.0047
  Mn  Mn30  1  0.012130  0.512130  0.146170  1.0  1.0091
  Mn  Mn31  1  0.158300  0.658300  0.353830  1.0  1.0103
  Mn  Mn32  1  0.487870  0.987870  0.353830  1.0  1.0042
  Mn  Mn33  1  0.014580  0.792760  0.000000  1.0  1.0943
  Mn  Mn34  1  0.485420  0.707250  0.000000  1.0  1.0973
  Mn  Mn35  1  0.207250  0.985420  0.000000  1.0  1.0967
  Mn  Mn36  1  0.292760  0.514580  0.000000  1.0  1.0965
  Mn  Mn37  1  0.750000  0.500000  0.250000  1.0  0.9779
  Mn  Mn38  1  0.500000  0.750000  0.250000  1.0  0.9767
  Mn  Mn39  1  0.750000  0.750000  0.250000  1.0  1.1037
  Mn  Mn40  1  0.500000  0.500000  0.250000  1.0  1.1041
  Mn  Mn41  1  0.841700  0.841700  0.146170  1.0  1.0077
  Mn  Mn42  1  0.512130  0.512130  0.146170  1.0  1.0088
  Mn  Mn43  1  0.658300  0.658300  0.353830  1.0  1.0045
  Mn  Mn44  1  0.987870  0.987870  0.353830  1.0  1.0049
  Mn  Mn45  1  0.514590  0.792760  0.000000  1.0  1.0944
  Mn  Mn46  1  0.985420  0.707250  0.000000  1.0  1.0973
  Mn  Mn47  1  0.707250  0.985420  0.000000  1.0  1.0967
  Mn  Mn48  1  0.792760  0.514580  0.000000  1.0  1.0965
  Mn  Mn49  1  0.250000  0.000000  0.750000  1.0  0.9779
  Mn  Mn50  1  0.000000  0.250000  0.750000  1.0  0.9767
  Mn  Mn51  1  0.250000  0.250000  0.750000  1.0  1.1037
  Mn  Mn52  1  0.000000  0.000000  0.750000  1.0  1.1041
  Mn  Mn53  1  0.341700  0.341700  0.646170  1.0  0.9995
  Mn  Mn54  1  0.012130  0.012130  0.646170  1.0  1.0088
  Mn  Mn55  1  0.158300  0.158300  0.853830  1.0  1.0045
  Mn  Mn56  1  0.487870  0.487870  0.853830  1.0  1.0031
  Mn  Mn57  1  0.014580  0.292760  0.500000  1.0  1.0944
  Mn  Mn58  1  0.485420  0.207250  0.500000  1.0  1.0973
  Mn  Mn59  1  0.207250  0.485420  0.500000  1.0  1.0967
  Mn  Mn60  1  0.292760  0.014580  0.500000  1.0  1.0965
  Mn  Mn61  1  0.750000  0.000000  0.750000  1.0  0.9779
  Mn  Mn62  1  0.500000  0.250000  0.750000  1.0  0.9774
  Mn  Mn63  1  0.750000  0.250000  0.750000  1.0  1.1037
  Mn  Mn64  1  0.500000  0.000000  0.750000  1.0  1.1021
  Mn  Mn65  1  0.841700  0.341700  0.646170  1.0  1.0059
  Mn  Mn66  1  0.512130  0.012130  0.646170  1.0  1.0083
  Mn  Mn67  1  0.658300  0.158300  0.853830  1.0  1.0103
  Mn  Mn68  1  0.987870  0.487870  0.853830  1.0  1.0042
  Mn  Mn69  1  0.514590  0.292760  0.500000  1.0  1.0944
  Mn  Mn70  1  0.985420  0.207250  0.500000  1.0  1.0973
  Mn  Mn71  1  0.707250  0.485420  0.500000  1.0  1.0967
  Mn  Mn72  1  0.792760  0.014580  0.500000  1.0  1.0965
  Mn  Mn73  1  0.250000  0.500000  0.750000  1.0  0.9771
  Mn  Mn74  1  0.000000  0.750000  0.750000  1.0  0.9767
  Mn  Mn75  1  0.250000  0.750000  0.750000  1.0  1.1037
  Mn  Mn76  1  0.000000  0.500000  0.750000  1.0  1.1041
  Mn  Mn77  1  0.341700  0.841700  0.646170  1.0  1.0077
  Mn  Mn78  1  0.012130  0.512130  0.646170  1.0  1.0088
  Mn  Mn79  1  0.158300  0.658300  0.853830  1.0  1.0127
  Mn  Mn80  1  0.487870  0.987870  0.853830  1.0  1.0031
  Mn  Mn81  1  0.014580  0.792760  0.500000  1.0  1.0943
  Mn  Mn82  1  0.485420  0.707250  0.500000  1.0  1.0973
  Mn  Mn83  1  0.207250  0.985420  0.500000  1.0  1.0967
  Mn  Mn84  1  0.292760  0.514580  0.500000  1.0  1.0965
  Mn  Mn85  1  0.750000  0.500000  0.750000  1.0  0.9779
  Mn  Mn86  1  0.500000  0.750000  0.750000  1.0  0.9774
  Mn  Mn87  1  0.750000  0.750000  0.750000  1.0  1.1037
  Mn  Mn88  1  0.500000  0.500000  0.750000  1.0  1.1041
  Mn  Mn89  1  0.841700  0.841700  0.646170  1.0  1.0059
  Mn  Mn90  1  0.512130  0.512130  0.646170  1.0  1.0036
  Mn  Mn91  1  0.658300  0.658300  0.853830  1.0  1.0103
  Mn  Mn92  1  0.987870  0.987870  0.853830  1.0  0.9987
  Mn  Mn93  1  0.514590  0.792760  0.500000  1.0  1.0944
  Mn  Mn94  1  0.985420  0.707250  0.500000  1.0  1.0973
  Mn  Mn95  1  0.707250  0.985420  0.500000  1.0  1.0967
  Mn  Mn96  1  0.792760  0.514580  0.500000  1.0  1.0965
  H  H97  1  0.351650  0.129850  0.220700  1.0  0.1095
  H  H98  1  0.273200  0.141900  0.135000  1.0  0.1186
  H  H99  1  0.284100  0.167800  0.205500  1.0  0.1064
  H  H100  1  0.386050  0.266950  0.101400  1.0  0.1077
  H  H101  1  0.369650  0.153450  0.117800  1.0  0.1074
  H  H102  1  0.427650  0.149450  0.220700  1.0  0.1103
  H  H103  1  0.091800  0.223100  0.135000  1.0  0.1223
  H  H104  1  0.010400  0.126700  0.205500  1.0  0.1064
  H  H105  1  0.012550  0.131650  0.101400  1.0  0.1066
  H  H106  1  0.012550  0.228750  0.117800  1.0  0.1081
  H  H107  1  0.370150  0.148350  0.279300  1.0  0.1095
  H  H108  1  0.358100  0.226800  0.365000  1.0  0.1229
  H  H109  1  0.332200  0.215900  0.294500  1.0  0.104
  H  H110  1  0.233050  0.113950  0.398600  1.0  0.1071
  H  H111  1  0.346550  0.130350  0.382200  1.0  0.1081
  H  H112  1  0.350550  0.072350  0.279300  1.0  0.1105
  H  H113  1  0.276900  0.408200  0.365000  1.0  0.1198
  H  H114  1  0.373300  0.489600  0.294500  1.0  0.1068
  H  H115  1  0.368350  0.487450  0.398600  1.0  0.1052
  H  H116  1  0.271250  0.487450  0.382200  1.0  0.1085
  H  H117  1  0.148350  0.370150  0.279300  1.0  0.1101
  H  H118  1  0.226800  0.358100  0.365000  1.0  0.1183
  H  H119  1  0.215900  0.332200  0.294500  1.0  0.107
  H  H120  1  0.113950  0.233050  0.398600  1.0  0.1087
  H  H121  1  0.130350  0.346550  0.382200  1.0  0.1074
  H  H122  1  0.072350  0.350550  0.279300  1.0  0.1102
  H  H123  1  0.408200  0.276900  0.365000  1.0  0.1218
  H  H124  1  0.489600  0.373300  0.294500  1.0  0.1065
  H  H125  1  0.487450  0.368350  0.398600  1.0  0.1068
  H  H126  1  0.487450  0.271250  0.382200  1.0  0.1087
  H  H127  1  0.129850  0.351650  0.220700  1.0  0.109
  H  H128  1  0.141900  0.273200  0.135000  1.0  0.1224
  H  H129  1  0.167800  0.284100  0.205500  1.0  0.1039
  H  H130  1  0.266950  0.386050  0.101400  1.0  0.1071
  H  H131  1  0.153450  0.369650  0.117800  1.0  0.1081
  H  H132  1  0.149450  0.427650  0.220700  1.0  0.1103
  H  H133  1  0.223100  0.091800  0.135000  1.0  0.1199
  H  H134  1  0.126700  0.010400  0.205500  1.0  0.1065
  H  H135  1  0.131650  0.012550  0.101400  1.0  0.1056
  H  H136  1  0.228750  0.012550  0.117800  1.0  0.1084
  H  H137  1  0.851650  0.129850  0.220700  1.0  0.1096
  H  H138  1  0.773200  0.141900  0.135000  1.0  0.1191
  H  H139  1  0.784100  0.167800  0.205500  1.0  0.1064
  H  H140  1  0.886050  0.266950  0.101400  1.0  0.1069
  H  H141  1  0.869650  0.153450  0.117800  1.0  0.1043
  H  H142  1  0.927650  0.149450  0.220700  1.0  0.1102
  H  H143  1  0.591800  0.223100  0.135000  1.0  0.1214
  H  H144  1  0.510400  0.126700  0.205500  1.0  0.1057
  H  H145  1  0.512550  0.131650  0.101400  1.0  0.1075
  H  H146  1  0.512550  0.228750  0.117800  1.0  0.1059
  H  H147  1  0.870150  0.148350  0.279300  1.0  0.1094
  H  H148  1  0.858100  0.226800  0.365000  1.0  0.1229
  H  H149  1  0.832200  0.215900  0.294500  1.0  0.1045
  H  H150  1  0.733050  0.113950  0.398600  1.0  0.1071
  H  H151  1  0.846550  0.130350  0.382200  1.0  0.1051
  H  H152  1  0.850550  0.072350  0.279300  1.0  0.1107
  H  H153  1  0.776900  0.408200  0.365000  1.0  0.1203
  H  H154  1  0.873300  0.489600  0.294500  1.0  0.1068
  H  H155  1  0.868350  0.487450  0.398600  1.0  0.1055
  H  H156  1  0.771250  0.487450  0.382200  1.0  0.1085
  H  H157  1  0.648350  0.370150  0.279300  1.0  0.1101
  H  H158  1  0.726800  0.358100  0.365000  1.0  0.1189
  H  H159  1  0.715900  0.332200  0.294500  1.0  0.107
  H  H160  1  0.613950  0.233050  0.398600  1.0  0.1078
  H  H161  1  0.630350  0.346550  0.382200  1.0  0.1074
  H  H162  1  0.572350  0.350550  0.279300  1.0  0.1103
  H  H163  1  0.908200  0.276900  0.365000  1.0  0.1218
  H  H164  1  0.989600  0.373300  0.294500  1.0  0.106
  H  H165  1  0.987450  0.368350  0.398600  1.0  0.107
  H  H166  1  0.987450  0.271250  0.382200  1.0  0.1062
  H  H167  1  0.629850  0.351650  0.220700  1.0  0.1091
  H  H168  1  0.641900  0.273200  0.135000  1.0  0.1231
  H  H169  1  0.667800  0.284100  0.205500  1.0  0.1038
  H  H170  1  0.766950  0.386050  0.101400  1.0  0.1069
  H  H171  1  0.653450  0.369650  0.117800  1.0  0.105
  H  H172  1  0.649450  0.427650  0.220700  1.0  0.1103
  H  H173  1  0.723100  0.091800  0.135000  1.0  0.1203
  H  H174  1  0.626700  0.010400  0.205500  1.0  0.1065
  H  H175  1  0.631650  0.012550  0.101400  1.0  0.1062
  H  H176  1  0.728750  0.012550  0.117800  1.0  0.1066
  H  H177  1  0.351650  0.629850  0.220700  1.0  0.1095
  H  H178  1  0.273200  0.641900  0.135000  1.0  0.1186
  H  H179  1  0.284100  0.667800  0.205500  1.0  0.1065
  H  H180  1  0.386050  0.766950  0.101400  1.0  0.1077
  H  H181  1  0.369650  0.653450  0.117800  1.0  0.1043
  H  H182  1  0.427650  0.649450  0.220700  1.0  0.1103
  H  H183  1  0.091800  0.723100  0.135000  1.0  0.1223
  H  H184  1  0.010400  0.626700  0.205500  1.0  0.1064
  H  H185  1  0.012550  0.631650  0.101400  1.0  0.1066
  H  H186  1  0.012550  0.728750  0.117800  1.0  0.1081
  H  H187  1  0.370150  0.648350  0.279300  1.0  0.1095
  H  H188  1  0.358100  0.726800  0.365000  1.0  0.1229
  H  H189  1  0.332200  0.715900  0.294500  1.0  0.104
  H  H190  1  0.233050  0.613950  0.398600  1.0  0.1072
  H  H191  1  0.346550  0.630350  0.382200  1.0  0.1081
  H  H192  1  0.350550  0.572350  0.279300  1.0  0.1105
  H  H193  1  0.276900  0.908200  0.365000  1.0  0.1199
  H  H194  1  0.373300  0.989600  0.294500  1.0  0.1077
  H  H195  1  0.368350  0.987450  0.398600  1.0  0.1052
  H  H196  1  0.271250  0.987450  0.382200  1.0  0.1074
  H  H197  1  0.148350  0.870150  0.279300  1.0  0.1101
  H  H198  1  0.226800  0.858100  0.365000  1.0  0.1181
  H  H199  1  0.215900  0.832200  0.294500  1.0  0.1064
  H  H200  1  0.113950  0.733050  0.398600  1.0  0.1087
  H  H201  1  0.130350  0.846550  0.382200  1.0  0.1049
  H  H202  1  0.072350  0.850550  0.279300  1.0  0.1102
  H  H203  1  0.408200  0.776900  0.365000  1.0  0.1218
  H  H204  1  0.489600  0.873300  0.294500  1.0  0.1065
  H  H205  1  0.487450  0.868350  0.398600  1.0  0.1058
  H  H206  1  0.487450  0.771250  0.382200  1.0  0.1087
  H  H207  1  0.129850  0.851650  0.220700  1.0  0.109
  H  H208  1  0.141900  0.773200  0.135000  1.0  0.1224
  H  H209  1  0.167800  0.784100  0.205500  1.0  0.1039
  H  H210  1  0.266950  0.886050  0.101400  1.0  0.107
  H  H211  1  0.153450  0.869650  0.117800  1.0  0.1081
  H  H212  1  0.149450  0.927650  0.220700  1.0  0.1105
  H  H213  1  0.223100  0.591800  0.135000  1.0  0.12
  H  H214  1  0.126700  0.510400  0.205500  1.0  0.1079
  H  H215  1  0.131650  0.512550  0.101400  1.0  0.1056
  H  H216  1  0.228750  0.512550  0.117800  1.0  0.1066
  H  H217  1  0.851650  0.629850  0.220700  1.0  0.1095
  H  H218  1  0.773200  0.641900  0.135000  1.0  0.1187
  H  H219  1  0.784100  0.667800  0.205500  1.0  0.1065
  H  H220  1  0.886050  0.766950  0.101400  1.0  0.1069
  H  H221  1  0.869650  0.653450  0.117800  1.0  0.1043
  H  H222  1  0.927650  0.649450  0.220700  1.0  0.1102
  H  H223  1  0.591800  0.723100  0.135000  1.0  0.1214
  H  H224  1  0.510400  0.626700  0.205500  1.0  0.1057
  H  H225  1  0.512550  0.631650  0.101400  1.0  0.1057
  H  H226  1  0.512550  0.728750  0.117800  1.0  0.1059
  H  H227  1  0.870150  0.648350  0.279300  1.0  0.1094
  H  H228  1  0.858100  0.726800  0.365000  1.0  0.1229
  H  H229  1  0.832200  0.715900  0.294500  1.0  0.1045
  H  H230  1  0.733050  0.613950  0.398600  1.0  0.1072
  H  H231  1  0.846550  0.630350  0.382200  1.0  0.1051
  H  H232  1  0.850550  0.572350  0.279300  1.0  0.1105
  H  H233  1  0.776900  0.908200  0.365000  1.0  0.1206
  H  H234  1  0.873300  0.989600  0.294500  1.0  0.1068
  H  H235  1  0.868350  0.987450  0.398600  1.0  0.1055
  H  H236  1  0.771250  0.987450  0.382200  1.0  0.1074
  H  H237  1  0.648350  0.870150  0.279300  1.0  0.1101
  H  H238  1  0.726800  0.858100  0.365000  1.0  0.1191
  H  H239  1  0.715900  0.832200  0.294500  1.0  0.107
  H  H240  1  0.613950  0.733050  0.398600  1.0  0.1078
  H  H241  1  0.630350  0.846550  0.382200  1.0  0.1049
  H  H242  1  0.572350  0.850550  0.279300  1.0  0.1103
  H  H243  1  0.908200  0.776900  0.365000  1.0  0.1218
  H  H244  1  0.989600  0.873300  0.294500  1.0  0.106
  H  H245  1  0.987450  0.868350  0.398600  1.0  0.1058
  H  H246  1  0.987450  0.771250  0.382200  1.0  0.1062
  H  H247  1  0.629850  0.851650  0.220700  1.0  0.1091
  H  H248  1  0.641900  0.773200  0.135000  1.0  0.1231
  H  H249  1  0.667800  0.784100  0.205500  1.0  0.1038
  H  H250  1  0.766950  0.886050  0.101400  1.0  0.1069
  H  H251  1  0.653450  0.869650  0.117800  1.0  0.105
  H  H252  1  0.649450  0.927650  0.220700  1.0  0.1104
  H  H253  1  0.723100  0.591800  0.135000  1.0  0.1201
  H  H254  1  0.626700  0.510400  0.205500  1.0  0.1079
  H  H255  1  0.631650  0.512550  0.101400  1.0  0.1062
  H  H256  1  0.728750  0.512550  0.117800  1.0  0.1066
  H  H257  1  0.351650  0.129850  0.720700  1.0  0.1095
  H  H258  1  0.273200  0.141900  0.635000  1.0  0.1187
  H  H259  1  0.284100  0.167800  0.705500  1.0  0.1065
  H  H260  1  0.386050  0.266950  0.601400  1.0  0.1069
  H  H261  1  0.369650  0.153450  0.617800  1.0  0.1043
  H  H262  1  0.427650  0.149450  0.720700  1.0  0.1102
  H  H263  1  0.091800  0.223100  0.635000  1.0  0.1224
  H  H264  1  0.010400  0.126700  0.705500  1.0  0.1057
  H  H265  1  0.012550  0.131650  0.601400  1.0  0.1066
  H  H266  1  0.012550  0.228750  0.617800  1.0  0.1059
  H  H267  1  0.370150  0.148350  0.779300  1.0  0.1094
  H  H268  1  0.358100  0.226800  0.865000  1.0  0.1229
  H  H269  1  0.332200  0.215900  0.794500  1.0  0.1045
  H  H270  1  0.233050  0.113950  0.898600  1.0  0.1072
  H  H271  1  0.346550  0.130350  0.882200  1.0  0.1051
  H  H272  1  0.350550  0.072350  0.779300  1.0  0.1105
  H  H273  1  0.276900  0.408200  0.865000  1.0  0.1199
  H  H274  1  0.373300  0.489600  0.794500  1.0  0.1077
  H  H275  1  0.368350  0.487450  0.898600  1.0  0.1058
  H  H276  1  0.271250  0.487450  0.882200  1.0  0.1074
  H  H277  1  0.148350  0.370150  0.779300  1.0  0.1101
  H  H278  1  0.226800  0.358100  0.865000  1.0  0.1181
  H  H279  1  0.215900  0.332200  0.794500  1.0  0.1064
  H  H280  1  0.113950  0.233050  0.898600  1.0  0.1078
  H  H281  1  0.130350  0.346550  0.882200  1.0  0.1049
  H  H282  1  0.072350  0.350550  0.779300  1.0  0.1103
  H  H283  1  0.408200  0.276900  0.865000  1.0  0.1218
  H  H284  1  0.489600  0.373300  0.794500  1.0  0.106
  H  H285  1  0.487450  0.368350  0.898600  1.0  0.1068
  H  H286  1  0.487450  0.271250  0.882200  1.0  0.1062
  H  H287  1  0.129850  0.351650  0.720700  1.0  0.1091
  H  H288  1  0.141900  0.273200  0.635000  1.0  0.1226
  H  H289  1  0.167800  0.284100  0.705500  1.0  0.1038
  H  H290  1  0.266950  0.386050  0.601400  1.0  0.107
  H  H291  1  0.153450  0.369650  0.617800  1.0  0.105
  H  H292  1  0.149450  0.427650  0.720700  1.0  0.1105
  H  H293  1  0.223100  0.091800  0.635000  1.0  0.1201
  H  H294  1  0.126700  0.010400  0.705500  1.0  0.1079
  H  H295  1  0.131650  0.012550  0.601400  1.0  0.1062
  H  H296  1  0.228750  0.012550  0.617800  1.0  0.1066
  H  H297  1  0.851650  0.129850  0.720700  1.0  0.1095
  H  H298  1  0.773200  0.141900  0.635000  1.0  0.1187
  H  H299  1  0.784100  0.167800  0.705500  1.0  0.1065
  H  H300  1  0.886050  0.266950  0.601400  1.0  0.1077
  H  H301  1  0.869650  0.153450  0.617800  1.0  0.1043
  H  H302  1  0.927650  0.149450  0.720700  1.0  0.1103
  H  H303  1  0.591800  0.223100  0.635000  1.0  0.1213
  H  H304  1  0.510400  0.126700  0.705500  1.0  0.1064
  H  H305  1  0.512550  0.131650  0.601400  1.0  0.1071
  H  H306  1  0.512550  0.228750  0.617800  1.0  0.1081
  H  H307  1  0.870150  0.148350  0.779300  1.0  0.1095
  H  H308  1  0.858100  0.226800  0.865000  1.0  0.1229
  H  H309  1  0.832200  0.215900  0.794500  1.0  0.104
  H  H310  1  0.733050  0.113950  0.898600  1.0  0.1072
  H  H311  1  0.846550  0.130350  0.882200  1.0  0.1081
  H  H312  1  0.850550  0.072350  0.779300  1.0  0.1105
  H  H313  1  0.776900  0.408200  0.865000  1.0  0.1203
  H  H314  1  0.873300  0.489600  0.794500  1.0  0.1068
  H  H315  1  0.868350  0.487450  0.898600  1.0  0.1062
  H  H316  1  0.771250  0.487450  0.882200  1.0  0.1085
  H  H317  1  0.648350  0.370150  0.779300  1.0  0.1101
  H  H318  1  0.726800  0.358100  0.865000  1.0  0.1189
  H  H319  1  0.715900  0.332200  0.794500  1.0  0.107
  H  H320  1  0.613950  0.233050  0.898600  1.0  0.1087
  H  H321  1  0.630350  0.346550  0.882200  1.0  0.1074
  H  H322  1  0.572350  0.350550  0.779300  1.0  0.1102
  H  H323  1  0.908200  0.276900  0.865000  1.0  0.1218
  H  H324  1  0.989600  0.373300  0.794500  1.0  0.1065
  H  H325  1  0.987450  0.368350  0.898600  1.0  0.1067
  H  H326  1  0.987450  0.271250  0.882200  1.0  0.1087
  H  H327  1  0.629850  0.351650  0.720700  1.0  0.109
  H  H328  1  0.641900  0.273200  0.635000  1.0  0.1231
  H  H329  1  0.667800  0.284100  0.705500  1.0  0.1039
  H  H330  1  0.766950  0.386050  0.601400  1.0  0.1069
  H  H331  1  0.653450  0.369650  0.617800  1.0  0.1081
  H  H332  1  0.649450  0.427650  0.720700  1.0  0.1103
  H  H333  1  0.723100  0.091800  0.635000  1.0  0.1201
  H  H334  1  0.626700  0.010400  0.705500  1.0  0.1079
  H  H335  1  0.631650  0.012550  0.601400  1.0  0.1056
  H  H336  1  0.728750  0.012550  0.617800  1.0  0.1066
  H  H337  1  0.351650  0.629850  0.720700  1.0  0.1095
  H  H338  1  0.273200  0.641900  0.635000  1.0  0.1186
  H  H339  1  0.284100  0.667800  0.705500  1.0  0.1064
  H  H340  1  0.386050  0.766950  0.601400  1.0  0.1069
  H  H341  1  0.369650  0.653450  0.617800  1.0  0.1074
  H  H342  1  0.427650  0.649450  0.720700  1.0  0.1102
  H  H343  1  0.091800  0.723100  0.635000  1.0  0.1224
  H  H344  1  0.010400  0.626700  0.705500  1.0  0.1057
  H  H345  1  0.012550  0.631650  0.601400  1.0  0.1066
  H  H346  1  0.012550  0.728750  0.617800  1.0  0.1059
  H  H347  1  0.370150  0.648350  0.779300  1.0  0.1094
  H  H348  1  0.358100  0.726800  0.865000  1.0  0.1229
  H  H349  1  0.332200  0.715900  0.794500  1.0  0.1045
  H  H350  1  0.233050  0.613950  0.898600  1.0  0.1071
  H  H351  1  0.346550  0.630350  0.882200  1.0  0.1051
  H  H352  1  0.350550  0.572350  0.779300  1.0  0.1105
  H  H353  1  0.276900  0.908200  0.865000  1.0  0.1198
  H  H354  1  0.373300  0.989600  0.794500  1.0  0.1068
  H  H355  1  0.368350  0.987450  0.898600  1.0  0.1058
  H  H356  1  0.271250  0.987450  0.882200  1.0  0.1085
  H  H357  1  0.148350  0.870150  0.779300  1.0  0.1101
  H  H358  1  0.226800  0.858100  0.865000  1.0  0.1183
  H  H359  1  0.215900  0.832200  0.794500  1.0  0.107
  H  H360  1  0.113950  0.733050  0.898600  1.0  0.1078
  H  H361  1  0.130350  0.846550  0.882200  1.0  0.1074
  H  H362  1  0.072350  0.850550  0.779300  1.0  0.1103
  H  H363  1  0.408200  0.776900  0.865000  1.0  0.1218
  H  H364  1  0.489600  0.873300  0.794500  1.0  0.106
  H  H365  1  0.487450  0.868350  0.898600  1.0  0.1068
  H  H366  1  0.487450  0.771250  0.882200  1.0  0.1062
  H  H367  1  0.129850  0.851650  0.720700  1.0  0.1091
  H  H368  1  0.141900  0.773200  0.635000  1.0  0.1226
  H  H369  1  0.167800  0.784100  0.705500  1.0  0.1038
  H  H370  1  0.266950  0.886050  0.601400  1.0  0.1071
  H  H371  1  0.153450  0.869650  0.617800  1.0  0.105
  H  H372  1  0.149450  0.927650  0.720700  1.0  0.1103
  H  H373  1  0.223100  0.591800  0.635000  1.0  0.1199
  H  H374  1  0.126700  0.510400  0.705500  1.0  0.1065
  H  H375  1  0.131650  0.512550  0.601400  1.0  0.1062
  H  H376  1  0.228750  0.512550  0.617800  1.0  0.1084
  H  H377  1  0.851650  0.629850  0.720700  1.0  0.1095
  H  H378  1  0.773200  0.641900  0.635000  1.0  0.1187
  H  H379  1  0.784100  0.667800  0.705500  1.0  0.1065
  H  H380  1  0.886050  0.766950  0.601400  1.0  0.1077
  H  H381  1  0.869650  0.653450  0.617800  1.0  0.1043
  H  H382  1  0.927650  0.649450  0.720700  1.0  0.1103
  H  H383  1  0.591800  0.723100  0.635000  1.0  0.1213
  H  H384  1  0.510400  0.626700  0.705500  1.0  0.1064
  H  H385  1  0.512550  0.631650  0.601400  1.0  0.1073
  H  H386  1  0.512550  0.728750  0.617800  1.0  0.1081
  H  H387  1  0.870150  0.648350  0.779300  1.0  0.1095
  H  H388  1  0.858100  0.726800  0.865000  1.0  0.1229
  H  H389  1  0.832200  0.715900  0.794500  1.0  0.104
  H  H390  1  0.733050  0.613950  0.898600  1.0  0.1072
  H  H391  1  0.846550  0.630350  0.882200  1.0  0.1081
  H  H392  1  0.850550  0.572350  0.779300  1.0  0.1105
  H  H393  1  0.776900  0.908200  0.865000  1.0  0.1203
  H  H394  1  0.873300  0.989600  0.794500  1.0  0.1068
  H  H395  1  0.868350  0.987450  0.898600  1.0  0.1062
  H  H396  1  0.771250  0.987450  0.882200  1.0  0.1085
  H  H397  1  0.648350  0.870150  0.779300  1.0  0.1101
  H  H398  1  0.726800  0.858100  0.865000  1.0  0.1189
  H  H399  1  0.715900  0.832200  0.794500  1.0  0.107
  H  H400  1  0.613950  0.733050  0.898600  1.0  0.1087
  H  H401  1  0.630350  0.846550  0.882200  1.0  0.1074
  H  H402  1  0.572350  0.850550  0.779300  1.0  0.1102
  H  H403  1  0.908200  0.776900  0.865000  1.0  0.1218
  H  H404  1  0.989600  0.873300  0.794500  1.0  0.1065
  H  H405  1  0.987450  0.868350  0.898600  1.0  0.1068
  H  H406  1  0.987450  0.771250  0.882200  1.0  0.1087
  H  H407  1  0.629850  0.851650  0.720700  1.0  0.109
  H  H408  1  0.641900  0.773200  0.635000  1.0  0.1231
  H  H409  1  0.667800  0.784100  0.705500  1.0  0.1039
  H  H410  1  0.766950  0.886050  0.601400  1.0  0.1069
  H  H411  1  0.653450  0.869650  0.617800  1.0  0.1081
  H  H412  1  0.649450  0.927650  0.720700  1.0  0.1103
  H  H413  1  0.723100  0.591800  0.635000  1.0  0.1201
  H  H414  1  0.626700  0.510400  0.705500  1.0  0.1079
  H  H415  1  0.631650  0.512550  0.601400  1.0  0.1056
  H  H416  1  0.728750  0.512550  0.617800  1.0  0.1066
  C  C417  1  0.336050  0.101550  0.234000  1.0  -0.1718
  C  C418  1  0.308040  0.083660  0.224000  1.0  0.2127
  C  C419  1  0.299530  0.107030  0.192940  1.0  -0.1247
  C  C420  1  0.271580  0.089240  0.184380  1.0  0.2179
  C  C421  1  0.262250  0.112950  0.152400  1.0  -0.1745
  C  C422  1  0.323190  0.153080  0.166330  1.0  0.0577
  C  C423  1  0.309450  0.179150  0.179800  1.0  -0.0516
  C  C424  1  0.332720  0.221220  0.155870  1.0  -0.1655
  C  C425  1  0.370150  0.238250  0.117700  1.0  0.031
  C  C426  1  0.384580  0.212980  0.103150  1.0  -0.1711
  C  C427  1  0.360530  0.170530  0.127540  1.0  -0.047
  C  C428  1  0.317500  0.249200  0.170800  1.0  0.7268
  C  C429  1  0.426350  0.231150  0.062500  1.0  0.7461
  C  C430  1  0.429950  0.164450  0.234000  1.0  -0.1695
  C  C431  1  0.467960  0.192340  0.224000  1.0  0.1969
  C  C432  1  0.007530  0.200030  0.192940  1.0  -0.1222
  C  C433  1  0.044040  0.226380  0.184380  1.0  0.2137
  C  C434  1  0.085350  0.234650  0.152400  1.0  -0.1749
  C  C435  1  0.010480  0.180590  0.166330  1.0  0.0597
  C  C436  1  0.010750  0.141050  0.179800  1.0  -0.0483
  C  C437  1  0.011410  0.122920  0.155870  1.0  -0.1647
  C  C438  1  0.012150  0.144050  0.117700  1.0  0.0266
  C  C439  1  0.012270  0.183880  0.103150  1.0  -0.1658
  C  C440  1  0.011930  0.201930  0.127540  1.0  -0.0501
  C  C441  1  0.011700  0.080000  0.170800  1.0  0.7271
  C  C442  1  0.011150  0.206350  0.062500  1.0  0.7363
  C  C443  1  0.398450  0.163950  0.266000  1.0  -0.1715
  C  C444  1  0.416340  0.191960  0.276000  1.0  0.2131
  C  C445  1  0.392970  0.200470  0.307060  1.0  -0.1247
  C  C446  1  0.410760  0.228420  0.315620  1.0  0.2182
  C  C447  1  0.387050  0.237750  0.347600  1.0  -0.1731
  C  C448  1  0.346920  0.176810  0.333670  1.0  0.06
  C  C449  1  0.320850  0.190550  0.320200  1.0  -0.0497
  C  C450  1  0.278790  0.167290  0.344130  1.0  -0.1643
  C  C451  1  0.261750  0.129850  0.382300  1.0  0.0279
  C  C452  1  0.287030  0.115430  0.396850  1.0  -0.1716
  C  C453  1  0.329470  0.139470  0.372460  1.0  -0.048
  C  C454  1  0.250800  0.182500  0.329200  1.0  0.7267
  C  C455  1  0.268850  0.073650  0.437500  1.0  0.7363
  C  C456  1  0.335550  0.070050  0.266000  1.0  -0.1691
  C  C457  1  0.307660  0.032040  0.276000  1.0  0.1973
  C  C458  1  0.299970  0.492470  0.307060  1.0  -0.1238
  C  C459  1  0.273620  0.455960  0.315620  1.0  0.2145
  C  C460  1  0.265350  0.414650  0.347600  1.0  -0.1792
  C  C461  1  0.319420  0.489520  0.333670  1.0  0.0569
  C  C462  1  0.358950  0.489250  0.320200  1.0  -0.0475
  C  C463  1  0.377090  0.488590  0.344130  1.0  -0.1632
  C  C464  1  0.355950  0.487850  0.382300  1.0  0.0258
  C  C465  1  0.316120  0.487730  0.396850  1.0  -0.1661
  C  C466  1  0.298070  0.488070  0.372460  1.0  -0.049
  C  C467  1  0.420000  0.488300  0.329200  1.0  0.7303
  C  C468  1  0.293650  0.488850  0.437500  1.0  0.7447
  C  C469  1  0.163950  0.398450  0.266000  1.0  -0.1724
  C  C470  1  0.191960  0.416340  0.276000  1.0  0.2134
  C  C471  1  0.200470  0.392970  0.307060  1.0  -0.1224
  C  C472  1  0.228420  0.410760  0.315620  1.0  0.217
  C  C473  1  0.237750  0.387050  0.347600  1.0  -0.175
  C  C474  1  0.176820  0.346920  0.333670  1.0  0.0578
  C  C475  1  0.190550  0.320850  0.320200  1.0  -0.0491
  C  C476  1  0.167290  0.278790  0.344130  1.0  -0.1659
  C  C477  1  0.129850  0.261750  0.382300  1.0  0.0291
  C  C478  1  0.115430  0.287030  0.396850  1.0  -0.1655
  C  C479  1  0.139470  0.329470  0.372460  1.0  -0.0482
  C  C480  1  0.182500  0.250800  0.329200  1.0  0.7269
  C  C481  1  0.073650  0.268850  0.437500  1.0  0.7308
  C  C482  1  0.070050  0.335550  0.266000  1.0  -0.1674
  C  C483  1  0.032040  0.307660  0.276000  1.0  0.196
  C  C484  1  0.492470  0.299970  0.307060  1.0  -0.1236
  C  C485  1  0.455960  0.273620  0.315620  1.0  0.2141
  C  C486  1  0.414650  0.265350  0.347600  1.0  -0.1743
  C  C487  1  0.489520  0.319420  0.333670  1.0  0.0563
  C  C488  1  0.489250  0.358950  0.320200  1.0  -0.0497
  C  C489  1  0.488590  0.377080  0.344130  1.0  -0.1636
  C  C490  1  0.487850  0.355950  0.382300  1.0  0.0241
  C  C491  1  0.487730  0.316130  0.396850  1.0  -0.1736
  C  C492  1  0.488070  0.298070  0.372460  1.0  -0.0504
  C  C493  1  0.488300  0.420000  0.329200  1.0  0.725
  C  C494  1  0.488850  0.293650  0.437500  1.0  0.7399
  C  C495  1  0.101550  0.336050  0.234000  1.0  -0.1705
  C  C496  1  0.083660  0.308040  0.224000  1.0  0.2122
  C  C497  1  0.107030  0.299530  0.192940  1.0  -0.1246
  C  C498  1  0.089240  0.271580  0.184380  1.0  0.2173
  C  C499  1  0.112950  0.262250  0.152400  1.0  -0.1721
  C  C500  1  0.153090  0.323190  0.166330  1.0  0.0575
  C  C501  1  0.179150  0.309450  0.179800  1.0  -0.0496
  C  C502  1  0.221220  0.332710  0.155870  1.0  -0.1641
  C  C503  1  0.238250  0.370150  0.117700  1.0  0.0292
  C  C504  1  0.212980  0.384580  0.103150  1.0  -0.1715
  C  C505  1  0.170530  0.360530  0.127540  1.0  -0.0475
  C  C506  1  0.249200  0.317500  0.170800  1.0  0.7272
  C  C507  1  0.231150  0.426350  0.062500  1.0  0.7402
  C  C508  1  0.164450  0.429950  0.234000  1.0  -0.171
  C  C509  1  0.192340  0.467960  0.224000  1.0  0.1972
  C  C510  1  0.200030  0.007530  0.192940  1.0  -0.1231
  C  C511  1  0.226380  0.044040  0.184380  1.0  0.2136
  C  C512  1  0.234650  0.085350  0.152400  1.0  -0.1799
  C  C513  1  0.180590  0.010490  0.166330  1.0  0.0593
  C  C514  1  0.141050  0.010750  0.179800  1.0  -0.0484
  C  C515  1  0.122920  0.011410  0.155870  1.0  -0.1637
  C  C516  1  0.144050  0.012150  0.117700  1.0  0.0275
  C  C517  1  0.183880  0.012270  0.103150  1.0  -0.165
  C  C518  1  0.201930  0.011930  0.127540  1.0  -0.0473
  C  C519  1  0.080000  0.011700  0.170800  1.0  0.7302
  C  C520  1  0.206350  0.011150  0.062500  1.0  0.7423
  C  C521  1  0.836050  0.101550  0.234000  1.0  -0.1707
  C  C522  1  0.808040  0.083660  0.224000  1.0  0.1933
  C  C523  1  0.799530  0.107030  0.192940  1.0  -0.1203
  C  C524  1  0.771580  0.089240  0.184380  1.0  0.2086
  C  C525  1  0.762250  0.112950  0.152400  1.0  -0.1728
  C  C526  1  0.823190  0.153080  0.166330  1.0  0.0574
  C  C527  1  0.809450  0.179150  0.179800  1.0  -0.0519
  C  C528  1  0.832720  0.221220  0.155870  1.0  -0.1655
  C  C529  1  0.870150  0.238250  0.117700  1.0  0.031
  C  C530  1  0.884580  0.212980  0.103150  1.0  -0.171
  C  C531  1  0.860530  0.170530  0.127540  1.0  -0.0469
  C  C532  1  0.817500  0.249200  0.170800  1.0  0.7268
  C  C533  1  0.926350  0.231150  0.062500  1.0  0.7437
  C  C534  1  0.929950  0.164450  0.234000  1.0  -0.1694
  C  C535  1  0.967960  0.192340  0.224000  1.0  0.2127
  C  C536  1  0.507530  0.200030  0.192940  1.0  -0.117
  C  C537  1  0.544040  0.226380  0.184380  1.0  0.2184
  C  C538  1  0.585350  0.234650  0.152400  1.0  -0.1722
  C  C539  1  0.510490  0.180580  0.166330  1.0  0.057
  C  C540  1  0.510750  0.141050  0.179800  1.0  -0.0476
  C  C541  1  0.511420  0.122920  0.155870  1.0  -0.1653
  C  C542  1  0.512150  0.144050  0.117700  1.0  0.0266
  C  C543  1  0.512280  0.183880  0.103150  1.0  -0.1727
  C  C544  1  0.511930  0.201930  0.127540  1.0  -0.0501
  C  C545  1  0.511700  0.080000  0.170800  1.0  0.7274
  C  C546  1  0.511150  0.206350  0.062500  1.0  0.737
  C  C547  1  0.898450  0.163950  0.266000  1.0  -0.1711
  C  C548  1  0.916340  0.191960  0.276000  1.0  0.1979
  C  C549  1  0.892970  0.200470  0.307060  1.0  -0.1197
  C  C550  1  0.910760  0.228420  0.315620  1.0  0.2301
  C  C551  1  0.887050  0.237750  0.347600  1.0  -0.1711
  C  C552  1  0.846920  0.176810  0.333670  1.0  0.059
  C  C553  1  0.820850  0.190550  0.320200  1.0  -0.0494
  C  C554  1  0.778790  0.167290  0.344130  1.0  -0.1642
  C  C555  1  0.761750  0.129850  0.382300  1.0  0.0279
  C  C556  1  0.787030  0.115430  0.396850  1.0  -0.1716
  C  C557  1  0.829470  0.139470  0.372460  1.0  -0.0479
  C  C558  1  0.750800  0.182500  0.329200  1.0  0.7267
  C  C559  1  0.768850  0.073650  0.437500  1.0  0.7363
  C  C560  1  0.835550  0.070050  0.266000  1.0  -0.1687
  C  C561  1  0.807660  0.032040  0.276000  1.0  0.1939
  C  C562  1  0.799970  0.492470  0.307060  1.0  -0.1238
  C  C563  1  0.773620  0.455960  0.315620  1.0  0.2145
  C  C564  1  0.765350  0.414650  0.347600  1.0  -0.1792
  C  C565  1  0.819420  0.489520  0.333670  1.0  0.0573
  C  C566  1  0.858950  0.489250  0.320200  1.0  -0.0475
  C  C567  1  0.877090  0.488590  0.344130  1.0  -0.1633
  C  C568  1  0.855950  0.487850  0.382300  1.0  0.0261
  C  C569  1  0.816130  0.487730  0.396850  1.0  -0.1677
  C  C570  1  0.798070  0.488070  0.372460  1.0  -0.0487
  C  C571  1  0.920000  0.488300  0.329200  1.0  0.7303
  C  C572  1  0.793650  0.488850  0.437500  1.0  0.7415
  C  C573  1  0.663950  0.398450  0.266000  1.0  -0.1724
  C  C574  1  0.691960  0.416340  0.276000  1.0  0.2134
  C  C575  1  0.700470  0.392970  0.307060  1.0  -0.1224
  C  C576  1  0.728420  0.410760  0.315620  1.0  0.217
  C  C577  1  0.737750  0.387050  0.347600  1.0  -0.175
  C  C578  1  0.676820  0.346920  0.333670  1.0  0.0578
  C  C579  1  0.690550  0.320850  0.320200  1.0  -0.0491
  C  C580  1  0.667290  0.278790  0.344130  1.0  -0.1659
  C  C581  1  0.629850  0.261750  0.382300  1.0  0.0292
  C  C582  1  0.615430  0.287030  0.396850  1.0  -0.1705
  C  C583  1  0.639470  0.329470  0.372460  1.0  -0.0482
  C  C584  1  0.682500  0.250800  0.329200  1.0  0.7268
  C  C585  1  0.573650  0.268850  0.437500  1.0  0.741
  C  C586  1  0.570050  0.335550  0.266000  1.0  -0.1688
  C  C587  1  0.532040  0.307660  0.276000  1.0  0.2123
  C  C588  1  0.992470  0.299970  0.307060  1.0  -0.1171
  C  C589  1  0.955960  0.273620  0.315620  1.0  0.2182
  C  C590  1  0.914650  0.265350  0.347600  1.0  -0.1725
  C  C591  1  0.989520  0.319420  0.333670  1.0  0.0565
  C  C592  1  0.989250  0.358950  0.320200  1.0  -0.0489
  C  C593  1  0.988590  0.377080  0.344130  1.0  -0.1637
  C  C594  1  0.987850  0.355950  0.382300  1.0  0.0241
  C  C595  1  0.987730  0.316130  0.396850  1.0  -0.1737
  C  C596  1  0.988070  0.298070  0.372460  1.0  -0.05
  C  C597  1  0.988300  0.420000  0.329200  1.0  0.725
  C  C598  1  0.988850  0.293650  0.437500  1.0  0.7346
  C  C599  1  0.601550  0.336050  0.234000  1.0  -0.1701
  C  C600  1  0.583660  0.308040  0.224000  1.0  0.1976
  C  C601  1  0.607030  0.299530  0.192940  1.0  -0.1196
  C  C602  1  0.589240  0.271580  0.184380  1.0  0.2289
  C  C603  1  0.612950  0.262250  0.152400  1.0  -0.1703
  C  C604  1  0.653090  0.323190  0.166330  1.0  0.0575
  C  C605  1  0.679150  0.309450  0.179800  1.0  -0.0493
  C  C606  1  0.721220  0.332710  0.155870  1.0  -0.164
  C  C607  1  0.738250  0.370150  0.117700  1.0  0.0292
  C  C608  1  0.712980  0.384580  0.103150  1.0  -0.1714
  C  C609  1  0.670530  0.360530  0.127540  1.0  -0.0474
  C  C610  1  0.749200  0.317500  0.170800  1.0  0.7272
  C  C611  1  0.731150  0.426350  0.062500  1.0  0.7402
  C  C612  1  0.664450  0.429950  0.234000  1.0  -0.171
  C  C613  1  0.692340  0.467960  0.224000  1.0  0.1972
  C  C614  1  0.700030  0.007530  0.192940  1.0  -0.1202
  C  C615  1  0.726380  0.044040  0.184380  1.0  0.2053
  C  C616  1  0.734650  0.085350  0.152400  1.0  -0.1789
  C  C617  1  0.680590  0.010490  0.166330  1.0  0.0591
  C  C618  1  0.641050  0.010750  0.179800  1.0  -0.0488
  C  C619  1  0.622920  0.011410  0.155870  1.0  -0.1637
  C  C620  1  0.644050  0.012150  0.117700  1.0  0.0274
  C  C621  1  0.683880  0.012270  0.103150  1.0  -0.1649
  C  C622  1  0.701930  0.011930  0.127540  1.0  -0.0475
  C  C623  1  0.580000  0.011700  0.170800  1.0  0.7303
  C  C624  1  0.706350  0.011150  0.062500  1.0  0.7422
  C  C625  1  0.336050  0.601550  0.234000  1.0  -0.1713
  C  C626  1  0.308040  0.583660  0.224000  1.0  0.1966
  C  C627  1  0.299530  0.607030  0.192940  1.0  -0.1176
  C  C628  1  0.271580  0.589240  0.184380  1.0  0.2288
  C  C629  1  0.262250  0.612950  0.152400  1.0  -0.1715
  C  C630  1  0.323190  0.653090  0.166330  1.0  0.0558
  C  C631  1  0.309450  0.679150  0.179800  1.0  -0.0508
  C  C632  1  0.332720  0.721220  0.155870  1.0  -0.1655
  C  C633  1  0.370150  0.738250  0.117700  1.0  0.0316
  C  C634  1  0.384580  0.712980  0.103150  1.0  -0.171
  C  C635  1  0.360530  0.670530  0.127540  1.0  -0.047
  C  C636  1  0.317500  0.749200  0.170800  1.0  0.7268
  C  C637  1  0.426350  0.731150  0.062500  1.0  0.7461
  C  C638  1  0.429950  0.664450  0.234000  1.0  -0.1693
  C  C639  1  0.467960  0.692340  0.224000  1.0  0.1969
  C  C640  1  0.007530  0.700030  0.192940  1.0  -0.1222
  C  C641  1  0.044040  0.726380  0.184380  1.0  0.2137
  C  C642  1  0.085350  0.734650  0.152400  1.0  -0.1749
  C  C643  1  0.010480  0.680590  0.166330  1.0  0.0597
  C  C644  1  0.010750  0.641050  0.179800  1.0  -0.0483
  C  C645  1  0.011410  0.622920  0.155870  1.0  -0.1647
  C  C646  1  0.012150  0.644050  0.117700  1.0  0.0266
  C  C647  1  0.012270  0.683880  0.103150  1.0  -0.1658
  C  C648  1  0.011930  0.701930  0.127540  1.0  -0.0501
  C  C649  1  0.011700  0.580000  0.170800  1.0  0.7271
  C  C650  1  0.011150  0.706350  0.062500  1.0  0.7363
  C  C651  1  0.398450  0.663950  0.266000  1.0  -0.1715
  C  C652  1  0.416340  0.691960  0.276000  1.0  0.2131
  C  C653  1  0.392970  0.700470  0.307060  1.0  -0.1247
  C  C654  1  0.410760  0.728420  0.315620  1.0  0.2182
  C  C655  1  0.387050  0.737750  0.347600  1.0  -0.1731
  C  C656  1  0.346920  0.676810  0.333670  1.0  0.06
  C  C657  1  0.320850  0.690550  0.320200  1.0  -0.0497
  C  C658  1  0.278790  0.667290  0.344130  1.0  -0.1644
  C  C659  1  0.261750  0.629850  0.382300  1.0  0.028
  C  C660  1  0.287030  0.615430  0.396850  1.0  -0.1716
  C  C661  1  0.329470  0.639470  0.372460  1.0  -0.048
  C  C662  1  0.250800  0.682500  0.329200  1.0  0.7267
  C  C663  1  0.268850  0.573650  0.437500  1.0  0.734
  C  C664  1  0.335550  0.570050  0.266000  1.0  -0.1692
  C  C665  1  0.307660  0.532040  0.276000  1.0  0.2129
  C  C666  1  0.299970  0.992470  0.307060  1.0  -0.1189
  C  C667  1  0.273620  0.955960  0.315620  1.0  0.2195
  C  C668  1  0.265350  0.914650  0.347600  1.0  -0.1734
  C  C669  1  0.319420  0.989520  0.333670  1.0  0.057
  C  C670  1  0.358950  0.989250  0.320200  1.0  -0.0467
  C  C671  1  0.377090  0.988590  0.344130  1.0  -0.1635
  C  C672  1  0.355950  0.987850  0.382300  1.0  0.0258
  C  C673  1  0.316120  0.987730  0.396850  1.0  -0.1661
  C  C674  1  0.298070  0.988070  0.372460  1.0  -0.0491
  C  C675  1  0.420000  0.988300  0.329200  1.0  0.7303
  C  C676  1  0.293650  0.988850  0.437500  1.0  0.7447
  C  C677  1  0.163950  0.898450  0.266000  1.0  -0.1717
  C  C678  1  0.191960  0.916340  0.276000  1.0  0.1982
  C  C679  1  0.200470  0.892970  0.307060  1.0  -0.1172
  C  C680  1  0.228420  0.910760  0.315620  1.0  0.2288
  C  C681  1  0.237750  0.887050  0.347600  1.0  -0.1716
  C  C682  1  0.176820  0.846920  0.333670  1.0  0.0577
  C  C683  1  0.190550  0.820850  0.320200  1.0  -0.0485
  C  C684  1  0.167290  0.778790  0.344130  1.0  -0.1659
  C  C685  1  0.129850  0.761750  0.382300  1.0  0.0291
  C  C686  1  0.115430  0.787030  0.396850  1.0  -0.1656
  C  C687  1  0.139470  0.829470  0.372460  1.0  -0.0483
  C  C688  1  0.182500  0.750800  0.329200  1.0  0.7269
  C  C689  1  0.073650  0.768850  0.437500  1.0  0.7308
  C  C690  1  0.070050  0.835550  0.266000  1.0  -0.1674
  C  C691  1  0.032040  0.807660  0.276000  1.0  0.196
  C  C692  1  0.492470  0.799970  0.307060  1.0  -0.1236
  C  C693  1  0.455960  0.773620  0.315620  1.0  0.2141
  C  C694  1  0.414650  0.765350  0.347600  1.0  -0.1743
  C  C695  1  0.489520  0.819420  0.333670  1.0  0.0563
  C  C696  1  0.489250  0.858950  0.320200  1.0  -0.0497
  C  C697  1  0.488590  0.877080  0.344130  1.0  -0.1636
  C  C698  1  0.487850  0.855950  0.382300  1.0  0.024
  C  C699  1  0.487730  0.816130  0.396850  1.0  -0.1736
  C  C700  1  0.488070  0.798070  0.372460  1.0  -0.0504
  C  C701  1  0.488300  0.920000  0.329200  1.0  0.725
  C  C702  1  0.488850  0.793650  0.437500  1.0  0.7399
  C  C703  1  0.101550  0.836050  0.234000  1.0  -0.1705
  C  C704  1  0.083660  0.808040  0.224000  1.0  0.2122
  C  C705  1  0.107030  0.799530  0.192940  1.0  -0.1246
  C  C706  1  0.089240  0.771580  0.184380  1.0  0.2173
  C  C707  1  0.112950  0.762250  0.152400  1.0  -0.1721
  C  C708  1  0.153090  0.823190  0.166330  1.0  0.0575
  C  C709  1  0.179150  0.809450  0.179800  1.0  -0.0496
  C  C710  1  0.221220  0.832720  0.155870  1.0  -0.1639
  C  C711  1  0.238250  0.870150  0.117700  1.0  0.0295
  C  C712  1  0.212980  0.884580  0.103150  1.0  -0.1715
  C  C713  1  0.170530  0.860530  0.127540  1.0  -0.0475
  C  C714  1  0.249200  0.817500  0.170800  1.0  0.7272
  C  C715  1  0.231150  0.926350  0.062500  1.0  0.7402
  C  C716  1  0.164450  0.929950  0.234000  1.0  -0.1704
  C  C717  1  0.192340  0.967960  0.224000  1.0  0.2128
  C  C718  1  0.200030  0.507530  0.192940  1.0  -0.1189
  C  C719  1  0.226380  0.544040  0.184380  1.0  0.2187
  C  C720  1  0.234650  0.585350  0.152400  1.0  -0.1761
  C  C721  1  0.180590  0.510490  0.166330  1.0  0.0595
  C  C722  1  0.141050  0.510750  0.179800  1.0  -0.0474
  C  C723  1  0.122920  0.511410  0.155870  1.0  -0.1638
  C  C724  1  0.144050  0.512150  0.117700  1.0  0.0275
  C  C725  1  0.183880  0.512270  0.103150  1.0  -0.1649
  C  C726  1  0.201930  0.511930  0.127540  1.0  -0.0475
  C  C727  1  0.080000  0.511700  0.170800  1.0  0.7302
  C  C728  1  0.206350  0.511150  0.062500  1.0  0.7421
  C  C729  1  0.836050  0.601550  0.234000  1.0  -0.1712
  C  C730  1  0.808040  0.583660  0.224000  1.0  0.1966
  C  C731  1  0.799530  0.607030  0.192940  1.0  -0.1173
  C  C732  1  0.771580  0.589240  0.184380  1.0  0.2288
  C  C733  1  0.762250  0.612950  0.152400  1.0  -0.1715
  C  C734  1  0.823190  0.653080  0.166330  1.0  0.0576
  C  C735  1  0.809450  0.679150  0.179800  1.0  -0.051
  C  C736  1  0.832720  0.721220  0.155870  1.0  -0.1655
  C  C737  1  0.870150  0.738250  0.117700  1.0  0.031
  C  C738  1  0.884580  0.712980  0.103150  1.0  -0.171
  C  C739  1  0.860530  0.670530  0.127540  1.0  -0.047
  C  C740  1  0.817500  0.749200  0.170800  1.0  0.7268
  C  C741  1  0.926350  0.731150  0.062500  1.0  0.7461
  C  C742  1  0.929950  0.664450  0.234000  1.0  -0.1694
  C  C743  1  0.967960  0.692340  0.224000  1.0  0.2127
  C  C744  1  0.507530  0.700030  0.192940  1.0  -0.1167
  C  C745  1  0.544040  0.726380  0.184380  1.0  0.2184
  C  C746  1  0.585350  0.734650  0.152400  1.0  -0.1722
  C  C747  1  0.510490  0.680590  0.166330  1.0  0.0581
  C  C748  1  0.510750  0.641050  0.179800  1.0  -0.0483
  C  C749  1  0.511420  0.622920  0.155870  1.0  -0.1653
  C  C750  1  0.512150  0.644050  0.117700  1.0  0.0267
  C  C751  1  0.512280  0.683880  0.103150  1.0  -0.1727
  C  C752  1  0.511930  0.701930  0.127540  1.0  -0.0501
  C  C753  1  0.511700  0.580000  0.170800  1.0  0.7272
  C  C754  1  0.511150  0.706350  0.062500  1.0  0.7379
  C  C755  1  0.898450  0.663950  0.266000  1.0  -0.1711
  C  C756  1  0.916340  0.691960  0.276000  1.0  0.1979
  C  C757  1  0.892970  0.700470  0.307060  1.0  -0.1197
  C  C758  1  0.910760  0.728420  0.315620  1.0  0.2301
  C  C759  1  0.887050  0.737750  0.347600  1.0  -0.1711
  C  C760  1  0.846920  0.676810  0.333670  1.0  0.059
  C  C761  1  0.820850  0.690550  0.320200  1.0  -0.0494
  C  C762  1  0.778790  0.667290  0.344130  1.0  -0.1642
  C  C763  1  0.761750  0.629850  0.382300  1.0  0.028
  C  C764  1  0.787030  0.615430  0.396850  1.0  -0.1716
  C  C765  1  0.829470  0.639470  0.372460  1.0  -0.0479
  C  C766  1  0.750800  0.682500  0.329200  1.0  0.7267
  C  C767  1  0.768850  0.573650  0.437500  1.0  0.734
  C  C768  1  0.835550  0.570050  0.266000  1.0  -0.1692
  C  C769  1  0.807660  0.532040  0.276000  1.0  0.2129
  C  C770  1  0.799970  0.992470  0.307060  1.0  -0.1203
  C  C771  1  0.773620  0.955960  0.315620  1.0  0.2065
  C  C772  1  0.765350  0.914650  0.347600  1.0  -0.1774
  C  C773  1  0.819420  0.989520  0.333670  1.0  0.0568
  C  C774  1  0.858950  0.989250  0.320200  1.0  -0.0479
  C  C775  1  0.877090  0.988590  0.344130  1.0  -0.1633
  C  C776  1  0.855950  0.987850  0.382300  1.0  0.0261
  C  C777  1  0.816130  0.987730  0.396850  1.0  -0.1677
  C  C778  1  0.798070  0.988070  0.372460  1.0  -0.0491
  C  C779  1  0.920000  0.988300  0.329200  1.0  0.7303
  C  C780  1  0.793650  0.988850  0.437500  1.0  0.7415
  C  C781  1  0.663950  0.898450  0.266000  1.0  -0.1712
  C  C782  1  0.691960  0.916340  0.276000  1.0  0.1936
  C  C783  1  0.700470  0.892970  0.307060  1.0  -0.12
  C  C784  1  0.728420  0.910760  0.315620  1.0  0.2085
  C  C785  1  0.737750  0.887050  0.347600  1.0  -0.1734
  C  C786  1  0.676820  0.846920  0.333670  1.0  0.0576
  C  C787  1  0.690550  0.820850  0.320200  1.0  -0.0495
  C  C788  1  0.667290  0.778790  0.344130  1.0  -0.1659
  C  C789  1  0.629850  0.761750  0.382300  1.0  0.0292
  C  C790  1  0.615430  0.787030  0.396850  1.0  -0.1705
  C  C791  1  0.639470  0.829470  0.372460  1.0  -0.0482
  C  C792  1  0.682500  0.750800  0.329200  1.0  0.7268
  C  C793  1  0.573650  0.768850  0.437500  1.0  0.7429
  C  C794  1  0.570050  0.835550  0.266000  1.0  -0.1688
  C  C795  1  0.532040  0.807660  0.276000  1.0  0.2123
  C  C796  1  0.992470  0.799970  0.307060  1.0  -0.1171
  C  C797  1  0.955960  0.773620  0.315620  1.0  0.2182
  C  C798  1  0.914650  0.765350  0.347600  1.0  -0.1725
  C  C799  1  0.989520  0.819420  0.333670  1.0  0.0565
  C  C800  1  0.989250  0.858950  0.320200  1.0  -0.0489
  C  C801  1  0.988590  0.877080  0.344130  1.0  -0.1637
  C  C802  1  0.987850  0.855950  0.382300  1.0  0.024
  C  C803  1  0.987730  0.816130  0.396850  1.0  -0.1737
  C  C804  1  0.988070  0.798070  0.372460  1.0  -0.05
  C  C805  1  0.988300  0.920000  0.329200  1.0  0.725
  C  C806  1  0.988850  0.793650  0.437500  1.0  0.7399
  C  C807  1  0.601550  0.836050  0.234000  1.0  -0.1701
  C  C808  1  0.583660  0.808040  0.224000  1.0  0.1976
  C  C809  1  0.607030  0.799530  0.192940  1.0  -0.1196
  C  C810  1  0.589240  0.771580  0.184380  1.0  0.229
  C  C811  1  0.612950  0.762250  0.152400  1.0  -0.1704
  C  C812  1  0.653090  0.823190  0.166330  1.0  0.0575
  C  C813  1  0.679150  0.809450  0.179800  1.0  -0.0494
  C  C814  1  0.721220  0.832720  0.155870  1.0  -0.1639
  C  C815  1  0.738250  0.870150  0.117700  1.0  0.0294
  C  C816  1  0.712980  0.884580  0.103150  1.0  -0.1714
  C  C817  1  0.670530  0.860530  0.127540  1.0  -0.0474
  C  C818  1  0.749200  0.817500  0.170800  1.0  0.7272
  C  C819  1  0.731150  0.926350  0.062500  1.0  0.7402
  C  C820  1  0.664450  0.929950  0.234000  1.0  -0.1698
  C  C821  1  0.692340  0.967960  0.224000  1.0  0.1935
  C  C822  1  0.700030  0.507530  0.192940  1.0  -0.1189
  C  C823  1  0.726380  0.544040  0.184380  1.0  0.2187
  C  C824  1  0.734650  0.585350  0.152400  1.0  -0.1761
  C  C825  1  0.680590  0.510490  0.166330  1.0  0.0595
  C  C826  1  0.641050  0.510750  0.179800  1.0  -0.0474
  C  C827  1  0.622920  0.511410  0.155870  1.0  -0.1638
  C  C828  1  0.644050  0.512150  0.117700  1.0  0.0274
  C  C829  1  0.683880  0.512270  0.103150  1.0  -0.1649
  C  C830  1  0.701930  0.511930  0.127540  1.0  -0.0475
  C  C831  1  0.580000  0.511700  0.170800  1.0  0.7303
  C  C832  1  0.706350  0.511150  0.062500  1.0  0.7421
  C  C833  1  0.336050  0.101550  0.734000  1.0  -0.1713
  C  C834  1  0.308040  0.083660  0.724000  1.0  0.1966
  C  C835  1  0.299530  0.107030  0.692940  1.0  -0.1173
  C  C836  1  0.271580  0.089240  0.684380  1.0  0.2288
  C  C837  1  0.262250  0.112950  0.652400  1.0  -0.1715
  C  C838  1  0.323190  0.153080  0.666330  1.0  0.0576
  C  C839  1  0.309450  0.179150  0.679800  1.0  -0.051
  C  C840  1  0.332720  0.221220  0.655870  1.0  -0.1655
  C  C841  1  0.370150  0.238250  0.617700  1.0  0.031
  C  C842  1  0.384580  0.212980  0.603150  1.0  -0.1711
  C  C843  1  0.360530  0.170530  0.627540  1.0  -0.047
  C  C844  1  0.317500  0.249200  0.670800  1.0  0.7268
  C  C845  1  0.426350  0.231150  0.562500  1.0  0.7461
  C  C846  1  0.429950  0.164450  0.734000  1.0  -0.1697
  C  C847  1  0.467960  0.192340  0.724000  1.0  0.2125
  C  C848  1  0.007530  0.200030  0.692940  1.0  -0.1167
  C  C849  1  0.044040  0.226380  0.684380  1.0  0.2182
  C  C850  1  0.085350  0.234650  0.652400  1.0  -0.1722
  C  C851  1  0.010480  0.180590  0.666330  1.0  0.0598
  C  C852  1  0.010750  0.141050  0.679800  1.0  -0.0472
  C  C853  1  0.011410  0.122920  0.655870  1.0  -0.1647
  C  C854  1  0.012150  0.144050  0.617700  1.0  0.0266
  C  C855  1  0.012270  0.183880  0.603150  1.0  -0.1657
  C  C856  1  0.011930  0.201930  0.627540  1.0  -0.0503
  C  C857  1  0.011700  0.080000  0.670800  1.0  0.7271
  C  C858  1  0.011150  0.206350  0.562500  1.0  0.7363
  C  C859  1  0.398450  0.163950  0.766000  1.0  -0.1711
  C  C860  1  0.416340  0.191960  0.776000  1.0  0.1979
  C  C861  1  0.392970  0.200470  0.807060  1.0  -0.1197
  C  C862  1  0.410760  0.228420  0.815620  1.0  0.2301
  C  C863  1  0.387050  0.237750  0.847600  1.0  -0.1711
  C  C864  1  0.346920  0.176810  0.833670  1.0  0.059
  C  C865  1  0.320850  0.190550  0.820200  1.0  -0.0494
  C  C866  1  0.278790  0.167290  0.844130  1.0  -0.1642
  C  C867  1  0.261750  0.129850  0.882300  1.0  0.028
  C  C868  1  0.287030  0.115430  0.896850  1.0  -0.1716
  C  C869  1  0.329470  0.139470  0.872460  1.0  -0.0479
  C  C870  1  0.250800  0.182500  0.829200  1.0  0.7267
  C  C871  1  0.268850  0.073650  0.937500  1.0  0.7363
  C  C872  1  0.335550  0.070050  0.766000  1.0  -0.1695
  C  C873  1  0.307660  0.032040  0.776000  1.0  0.213
  C  C874  1  0.299970  0.492470  0.807060  1.0  -0.1189
  C  C875  1  0.273620  0.455960  0.815620  1.0  0.2193
  C  C876  1  0.265350  0.414650  0.847600  1.0  -0.1734
  C  C877  1  0.319420  0.489520  0.833670  1.0  0.057
  C  C878  1  0.358950  0.489250  0.820200  1.0  -0.0467
  C  C879  1  0.377090  0.488590  0.844130  1.0  -0.1635
  C  C880  1  0.355950  0.487850  0.882300  1.0  0.0257
  C  C881  1  0.316120  0.487730  0.896850  1.0  -0.1661
  C  C882  1  0.298070  0.488070  0.872460  1.0  -0.0491
  C  C883  1  0.420000  0.488300  0.829200  1.0  0.7303
  C  C884  1  0.293650  0.488850  0.937500  1.0  0.7447
  C  C885  1  0.163950  0.398450  0.766000  1.0  -0.1718
  C  C886  1  0.191960  0.416340  0.776000  1.0  0.1982
  C  C887  1  0.200470  0.392970  0.807060  1.0  -0.1172
  C  C888  1  0.228420  0.410760  0.815620  1.0  0.2288
  C  C889  1  0.237750  0.387050  0.847600  1.0  -0.1716
  C  C890  1  0.176820  0.346920  0.833670  1.0  0.0577
  C  C891  1  0.190550  0.320850  0.820200  1.0  -0.0485
  C  C892  1  0.167290  0.278790  0.844130  1.0  -0.1659
  C  C893  1  0.129850  0.261750  0.882300  1.0  0.0292
  C  C894  1  0.115430  0.287030  0.896850  1.0  -0.1656
  C  C895  1  0.139470  0.329470  0.872460  1.0  -0.0483
  C  C896  1  0.182500  0.250800  0.829200  1.0  0.7268
  C  C897  1  0.073650  0.268850  0.937500  1.0  0.7308
  C  C898  1  0.070050  0.335550  0.766000  1.0  -0.1689
  C  C899  1  0.032040  0.307660  0.776000  1.0  0.212
  C  C900  1  0.492470  0.299970  0.807060  1.0  -0.1171
  C  C901  1  0.455960  0.273620  0.815620  1.0  0.2178
  C  C902  1  0.414650  0.265350  0.847600  1.0  -0.1725
  C  C903  1  0.489520  0.319420  0.833670  1.0  0.0565
  C  C904  1  0.489250  0.358950  0.820200  1.0  -0.0489
  C  C905  1  0.488590  0.377080  0.844130  1.0  -0.1637
  C  C906  1  0.487850  0.355950  0.882300  1.0  0.0241
  C  C907  1  0.487730  0.316130  0.896850  1.0  -0.1737
  C  C908  1  0.488070  0.298070  0.872460  1.0  -0.05
  C  C909  1  0.488300  0.420000  0.829200  1.0  0.725
  C  C910  1  0.488850  0.293650  0.937500  1.0  0.7399
  C  C911  1  0.101550  0.336050  0.734000  1.0  -0.1701
  C  C912  1  0.083660  0.308040  0.724000  1.0  0.1976
  C  C913  1  0.107030  0.299530  0.692940  1.0  -0.1196
  C  C914  1  0.089240  0.271580  0.684380  1.0  0.2289
  C  C915  1  0.112950  0.262250  0.652400  1.0  -0.1703
  C  C916  1  0.153090  0.323190  0.666330  1.0  0.0575
  C  C917  1  0.179150  0.309450  0.679800  1.0  -0.0493
  C  C918  1  0.221220  0.332710  0.655870  1.0  -0.164
  C  C919  1  0.238250  0.370150  0.617700  1.0  0.0293
  C  C920  1  0.212980  0.384580  0.603150  1.0  -0.1714
  C  C921  1  0.170530  0.360530  0.627540  1.0  -0.0474
  C  C922  1  0.249200  0.317500  0.670800  1.0  0.7272
  C  C923  1  0.231150  0.426350  0.562500  1.0  0.7402
  C  C924  1  0.164450  0.429950  0.734000  1.0  -0.1708
  C  C925  1  0.192340  0.467960  0.724000  1.0  0.2129
  C  C926  1  0.200030  0.007530  0.692940  1.0  -0.1189
  C  C927  1  0.226380  0.044040  0.684380  1.0  0.2183
  C  C928  1  0.234650  0.085350  0.652400  1.0  -0.1761
  C  C929  1  0.180590  0.010490  0.666330  1.0  0.0595
  C  C930  1  0.141050  0.010750  0.679800  1.0  -0.0474
  C  C931  1  0.122920  0.011410  0.655870  1.0  -0.1638
  C  C932  1  0.144050  0.012150  0.617700  1.0  0.0274
  C  C933  1  0.183880  0.012270  0.603150  1.0  -0.1649
  C  C934  1  0.201930  0.011930  0.627540  1.0  -0.0475
  C  C935  1  0.080000  0.011700  0.670800  1.0  0.7303
  C  C936  1  0.206350  0.011150  0.562500  1.0  0.7422
  C  C937  1  0.836050  0.101550  0.734000  1.0  -0.1712
  C  C938  1  0.808040  0.083660  0.724000  1.0  0.1966
  C  C939  1  0.799530  0.107030  0.692940  1.0  -0.1173
  C  C940  1  0.771580  0.089240  0.684380  1.0  0.2288
  C  C941  1  0.762250  0.112950  0.652400  1.0  -0.1715
  C  C942  1  0.823190  0.153080  0.666330  1.0  0.0576
  C  C943  1  0.809450  0.179150  0.679800  1.0  -0.051
  C  C944  1  0.832720  0.221220  0.655870  1.0  -0.1655
  C  C945  1  0.870150  0.238250  0.617700  1.0  0.031
  C  C946  1  0.884580  0.212980  0.603150  1.0  -0.171
  C  C947  1  0.860530  0.170530  0.627540  1.0  -0.047
  C  C948  1  0.817500  0.249200  0.670800  1.0  0.7268
  C  C949  1  0.926350  0.231150  0.562500  1.0  0.7437
  C  C950  1  0.929950  0.164450  0.734000  1.0  -0.1691
  C  C951  1  0.967960  0.192340  0.724000  1.0  0.197
  C  C952  1  0.507530  0.200030  0.692940  1.0  -0.1225
  C  C953  1  0.544040  0.226380  0.684380  1.0  0.2143
  C  C954  1  0.585350  0.234650  0.652400  1.0  -0.1749
  C  C955  1  0.510490  0.180580  0.666330  1.0  0.0569
  C  C956  1  0.510750  0.141050  0.679800  1.0  -0.0486
  C  C957  1  0.511420  0.122920  0.655870  1.0  -0.1653
  C  C958  1  0.512150  0.144050  0.617700  1.0  0.0266
  C  C959  1  0.512280  0.183880  0.603150  1.0  -0.1728
  C  C960  1  0.511930  0.201930  0.627540  1.0  -0.0498
  C  C961  1  0.511700  0.080000  0.670800  1.0  0.7274
  C  C962  1  0.511150  0.206350  0.562500  1.0  0.737
  C  C963  1  0.898450  0.163950  0.766000  1.0  -0.1715
  C  C964  1  0.916340  0.191960  0.776000  1.0  0.2131
  C  C965  1  0.892970  0.200470  0.807060  1.0  -0.1247
  C  C966  1  0.910760  0.228420  0.815620  1.0  0.2182
  C  C967  1  0.887050  0.237750  0.847600  1.0  -0.1731
  C  C968  1  0.846920  0.176810  0.833670  1.0  0.06
  C  C969  1  0.820850  0.190550  0.820200  1.0  -0.0497
  C  C970  1  0.778790  0.167290  0.844130  1.0  -0.1644
  C  C971  1  0.761750  0.129850  0.882300  1.0  0.028
  C  C972  1  0.787030  0.115430  0.896850  1.0  -0.1716
  C  C973  1  0.829470  0.139470  0.872460  1.0  -0.048
  C  C974  1  0.750800  0.182500  0.829200  1.0  0.7267
  C  C975  1  0.768850  0.073650  0.937500  1.0  0.7363
  C  C976  1  0.835550  0.070050  0.766000  1.0  -0.1695
  C  C977  1  0.807660  0.032040  0.776000  1.0  0.213
  C  C978  1  0.799970  0.492470  0.807060  1.0  -0.1238
  C  C979  1  0.773620  0.455960  0.815620  1.0  0.2145
  C  C980  1  0.765350  0.414650  0.847600  1.0  -0.1792
  C  C981  1  0.819420  0.489520  0.833670  1.0  0.0573
  C  C982  1  0.858950  0.489250  0.820200  1.0  -0.0475
  C  C983  1  0.877090  0.488590  0.844130  1.0  -0.1632
  C  C984  1  0.855950  0.487850  0.882300  1.0  0.0262
  C  C985  1  0.816130  0.487730  0.896850  1.0  -0.1677
  C  C986  1  0.798070  0.488070  0.872460  1.0  -0.0487
  C  C987  1  0.920000  0.488300  0.829200  1.0  0.7303
  C  C988  1  0.793650  0.488850  0.937500  1.0  0.7415
  C  C989  1  0.663950  0.398450  0.766000  1.0  -0.1724
  C  C990  1  0.691960  0.416340  0.776000  1.0  0.2134
  C  C991  1  0.700470  0.392970  0.807060  1.0  -0.1224
  C  C992  1  0.728420  0.410760  0.815620  1.0  0.217
  C  C993  1  0.737750  0.387050  0.847600  1.0  -0.175
  C  C994  1  0.676820  0.346920  0.833670  1.0  0.0578
  C  C995  1  0.690550  0.320850  0.820200  1.0  -0.0491
  C  C996  1  0.667290  0.278790  0.844130  1.0  -0.1659
  C  C997  1  0.629850  0.261750  0.882300  1.0  0.0291
  C  C998  1  0.615430  0.287030  0.896850  1.0  -0.1705
  C  C999  1  0.639470  0.329470  0.872460  1.0  -0.0482
  C  C1000  1  0.682500  0.250800  0.829200  1.0  0.7269
  C  C1001  1  0.573650  0.268850  0.937500  1.0  0.741
  C  C1002  1  0.570050  0.335550  0.766000  1.0  -0.1674
  C  C1003  1  0.532040  0.307660  0.776000  1.0  0.1961
  C  C1004  1  0.992470  0.299970  0.807060  1.0  -0.1236
  C  C1005  1  0.955960  0.273620  0.815620  1.0  0.214
  C  C1006  1  0.914650  0.265350  0.847600  1.0  -0.1743
  C  C1007  1  0.989520  0.319420  0.833670  1.0  0.0563
  C  C1008  1  0.989250  0.358950  0.820200  1.0  -0.0497
  C  C1009  1  0.988590  0.377080  0.844130  1.0  -0.1636
  C  C1010  1  0.987850  0.355950  0.882300  1.0  0.024
  C  C1011  1  0.987730  0.316130  0.896850  1.0  -0.1736
  C  C1012  1  0.988070  0.298070  0.872460  1.0  -0.0504
  C  C1013  1  0.988300  0.420000  0.829200  1.0  0.725
  C  C1014  1  0.988850  0.293650  0.937500  1.0  0.7346
  C  C1015  1  0.601550  0.336050  0.734000  1.0  -0.1705
  C  C1016  1  0.583660  0.308040  0.724000  1.0  0.2122
  C  C1017  1  0.607030  0.299530  0.692940  1.0  -0.1246
  C  C1018  1  0.589240  0.271580  0.684380  1.0  0.2173
  C  C1019  1  0.612950  0.262250  0.652400  1.0  -0.1721
  C  C1020  1  0.653090  0.323190  0.666330  1.0  0.0575
  C  C1021  1  0.679150  0.309450  0.679800  1.0  -0.0496
  C  C1022  1  0.721220  0.332710  0.655870  1.0  -0.1641
  C  C1023  1  0.738250  0.370150  0.617700  1.0  0.0292
  C  C1024  1  0.712980  0.384580  0.603150  1.0  -0.1715
  C  C1025  1  0.670530  0.360530  0.627540  1.0  -0.0475
  C  C1026  1  0.749200  0.317500  0.670800  1.0  0.7272
  C  C1027  1  0.731150  0.426350  0.562500  1.0  0.7402
  C  C1028  1  0.664450  0.429950  0.734000  1.0  -0.171
  C  C1029  1  0.692340  0.467960  0.724000  1.0  0.1972
  C  C1030  1  0.700030  0.007530  0.692940  1.0  -0.1189
  C  C1031  1  0.726380  0.044040  0.684380  1.0  0.2183
  C  C1032  1  0.734650  0.085350  0.652400  1.0  -0.1761
  C  C1033  1  0.680590  0.010490  0.666330  1.0  0.0595
  C  C1034  1  0.641050  0.010750  0.679800  1.0  -0.0474
  C  C1035  1  0.622920  0.011410  0.655870  1.0  -0.1638
  C  C1036  1  0.644050  0.012150  0.617700  1.0  0.0275
  C  C1037  1  0.683880  0.012270  0.603150  1.0  -0.1649
  C  C1038  1  0.701930  0.011930  0.627540  1.0  -0.0475
  C  C1039  1  0.580000  0.011700  0.670800  1.0  0.7302
  C  C1040  1  0.706350  0.011150  0.562500  1.0  0.7422
  C  C1041  1  0.336050  0.601550  0.734000  1.0  -0.1718
  C  C1042  1  0.308040  0.583660  0.724000  1.0  0.2127
  C  C1043  1  0.299530  0.607030  0.692940  1.0  -0.1249
  C  C1044  1  0.271580  0.589240  0.684380  1.0  0.2179
  C  C1045  1  0.262250  0.612950  0.652400  1.0  -0.1745
  C  C1046  1  0.323190  0.653090  0.666330  1.0  0.056
  C  C1047  1  0.309450  0.679150  0.679800  1.0  -0.0513
  C  C1048  1  0.332720  0.721220  0.655870  1.0  -0.1655
  C  C1049  1  0.370150  0.738250  0.617700  1.0  0.0317
  C  C1050  1  0.384580  0.712980  0.603150  1.0  -0.1711
  C  C1051  1  0.360530  0.670530  0.627540  1.0  -0.0469
  C  C1052  1  0.317500  0.749200  0.670800  1.0  0.7268
  C  C1053  1  0.426350  0.731150  0.562500  1.0  0.7461
  C  C1054  1  0.429950  0.664450  0.734000  1.0  -0.1695
  C  C1055  1  0.467960  0.692340  0.724000  1.0  0.2125
  C  C1056  1  0.007530  0.700030  0.692940  1.0  -0.1167
  C  C1057  1  0.044040  0.726380  0.684380  1.0  0.2182
  C  C1058  1  0.085350  0.734650  0.652400  1.0  -0.1722
  C  C1059  1  0.010480  0.680590  0.666330  1.0  0.0598
  C  C1060  1  0.010750  0.641050  0.679800  1.0  -0.0472
  C  C1061  1  0.011410  0.622920  0.655870  1.0  -0.1647
  C  C1062  1  0.012150  0.644050  0.617700  1.0  0.0266
  C  C1063  1  0.012270  0.683880  0.603150  1.0  -0.1657
  C  C1064  1  0.011930  0.701930  0.627540  1.0  -0.0503
  C  C1065  1  0.011700  0.580000  0.670800  1.0  0.7271
  C  C1066  1  0.011150  0.706350  0.562500  1.0  0.7363
  C  C1067  1  0.398450  0.663950  0.766000  1.0  -0.1711
  C  C1068  1  0.416340  0.691960  0.776000  1.0  0.1979
  C  C1069  1  0.392970  0.700470  0.807060  1.0  -0.1197
  C  C1070  1  0.410760  0.728420  0.815620  1.0  0.2301
  C  C1071  1  0.387050  0.737750  0.847600  1.0  -0.1711
  C  C1072  1  0.346920  0.676810  0.833670  1.0  0.059
  C  C1073  1  0.320850  0.690550  0.820200  1.0  -0.0494
  C  C1074  1  0.278790  0.667290  0.844130  1.0  -0.1642
  C  C1075  1  0.261750  0.629850  0.882300  1.0  0.0279
  C  C1076  1  0.287030  0.615430  0.896850  1.0  -0.1716
  C  C1077  1  0.329470  0.639470  0.872460  1.0  -0.0479
  C  C1078  1  0.250800  0.682500  0.829200  1.0  0.7267
  C  C1079  1  0.268850  0.573650  0.937500  1.0  0.734
  C  C1080  1  0.335550  0.570050  0.766000  1.0  -0.1687
  C  C1081  1  0.307660  0.532040  0.776000  1.0  0.1966
  C  C1082  1  0.299970  0.992470  0.807060  1.0  -0.1238
  C  C1083  1  0.273620  0.955960  0.815620  1.0  0.2151
  C  C1084  1  0.265350  0.914650  0.847600  1.0  -0.1792
  C  C1085  1  0.319420  0.989520  0.833670  1.0  0.0569
  C  C1086  1  0.358950  0.989250  0.820200  1.0  -0.0475
  C  C1087  1  0.377090  0.988590  0.844130  1.0  -0.1633
  C  C1088  1  0.355950  0.987850  0.882300  1.0  0.0257
  C  C1089  1  0.316120  0.987730  0.896850  1.0  -0.1661
  C  C1090  1  0.298070  0.988070  0.872460  1.0  -0.049
  C  C1091  1  0.420000  0.988300  0.829200  1.0  0.7303
  C  C1092  1  0.293650  0.988850  0.937500  1.0  0.7447
  C  C1093  1  0.163950  0.898450  0.766000  1.0  -0.1724
  C  C1094  1  0.191960  0.916340  0.776000  1.0  0.2134
  C  C1095  1  0.200470  0.892970  0.807060  1.0  -0.1224
  C  C1096  1  0.228420  0.910760  0.815620  1.0  0.217
  C  C1097  1  0.237750  0.887050  0.847600  1.0  -0.175
  C  C1098  1  0.176820  0.846920  0.833670  1.0  0.0578
  C  C1099  1  0.190550  0.820850  0.820200  1.0  -0.0491
  C  C1100  1  0.167290  0.778790  0.844130  1.0  -0.1659
  C  C1101  1  0.129850  0.761750  0.882300  1.0  0.0292
  C  C1102  1  0.115430  0.787030  0.896850  1.0  -0.1655
  C  C1103  1  0.139470  0.829470  0.872460  1.0  -0.0482
  C  C1104  1  0.182500  0.750800  0.829200  1.0  0.7268
  C  C1105  1  0.073650  0.768850  0.937500  1.0  0.7308
  C  C1106  1  0.070050  0.835550  0.766000  1.0  -0.1689
  C  C1107  1  0.032040  0.807660  0.776000  1.0  0.212
  C  C1108  1  0.492470  0.799970  0.807060  1.0  -0.1171
  C  C1109  1  0.455960  0.773620  0.815620  1.0  0.2178
  C  C1110  1  0.414650  0.765350  0.847600  1.0  -0.1725
  C  C1111  1  0.489520  0.819420  0.833670  1.0  0.0565
  C  C1112  1  0.489250  0.858950  0.820200  1.0  -0.0489
  C  C1113  1  0.488590  0.877080  0.844130  1.0  -0.1637
  C  C1114  1  0.487850  0.855950  0.882300  1.0  0.0241
  C  C1115  1  0.487730  0.816130  0.896850  1.0  -0.1737
  C  C1116  1  0.488070  0.798070  0.872460  1.0  -0.05
  C  C1117  1  0.488300  0.920000  0.829200  1.0  0.725
  C  C1118  1  0.488850  0.793650  0.937500  1.0  0.7399
  C  C1119  1  0.101550  0.836050  0.734000  1.0  -0.1701
  C  C1120  1  0.083660  0.808040  0.724000  1.0  0.1976
  C  C1121  1  0.107030  0.799530  0.692940  1.0  -0.1196
  C  C1122  1  0.089240  0.771580  0.684380  1.0  0.2289
  C  C1123  1  0.112950  0.762250  0.652400  1.0  -0.1703
  C  C1124  1  0.153090  0.823190  0.666330  1.0  0.0575
  C  C1125  1  0.179150  0.809450  0.679800  1.0  -0.0494
  C  C1126  1  0.221220  0.832720  0.655870  1.0  -0.1639
  C  C1127  1  0.238250  0.870150  0.617700  1.0  0.0294
  C  C1128  1  0.212980  0.884580  0.603150  1.0  -0.1714
  C  C1129  1  0.170530  0.860530  0.627540  1.0  -0.0474
  C  C1130  1  0.249200  0.817500  0.670800  1.0  0.7272
  C  C1131  1  0.231150  0.926350  0.562500  1.0  0.7402
  C  C1132  1  0.164450  0.929950  0.734000  1.0  -0.1707
  C  C1133  1  0.192340  0.967960  0.724000  1.0  0.1965
  C  C1134  1  0.200030  0.507530  0.692940  1.0  -0.1231
  C  C1135  1  0.226380  0.544040  0.684380  1.0  0.2135
  C  C1136  1  0.234650  0.585350  0.652400  1.0  -0.1799
  C  C1137  1  0.180590  0.510490  0.666330  1.0  0.0593
  C  C1138  1  0.141050  0.510750  0.679800  1.0  -0.0484
  C  C1139  1  0.122920  0.511410  0.655870  1.0  -0.1637
  C  C1140  1  0.144050  0.512150  0.617700  1.0  0.0274
  C  C1141  1  0.183880  0.512270  0.603150  1.0  -0.165
  C  C1142  1  0.201930  0.511930  0.627540  1.0  -0.0473
  C  C1143  1  0.080000  0.511700  0.670800  1.0  0.7303
  C  C1144  1  0.206350  0.511150  0.562500  1.0  0.7422
  C  C1145  1  0.836050  0.601550  0.734000  1.0  -0.1712
  C  C1146  1  0.808040  0.583660  0.724000  1.0  0.1966
  C  C1147  1  0.799530  0.607030  0.692940  1.0  -0.1173
  C  C1148  1  0.771580  0.589240  0.684380  1.0  0.2288
  C  C1149  1  0.762250  0.612950  0.652400  1.0  -0.1715
  C  C1150  1  0.823190  0.653080  0.666330  1.0  0.0576
  C  C1151  1  0.809450  0.679150  0.679800  1.0  -0.051
  C  C1152  1  0.832720  0.721220  0.655870  1.0  -0.1655
  C  C1153  1  0.870150  0.738250  0.617700  1.0  0.031
  C  C1154  1  0.884580  0.712980  0.603150  1.0  -0.171
  C  C1155  1  0.860530  0.670530  0.627540  1.0  -0.047
  C  C1156  1  0.817500  0.749200  0.670800  1.0  0.7268
  C  C1157  1  0.926350  0.731150  0.562500  1.0  0.7461
  C  C1158  1  0.929950  0.664450  0.734000  1.0  -0.1691
  C  C1159  1  0.967960  0.692340  0.724000  1.0  0.197
  C  C1160  1  0.507530  0.700030  0.692940  1.0  -0.1222
  C  C1161  1  0.544040  0.726380  0.684380  1.0  0.2143
  C  C1162  1  0.585350  0.734650  0.652400  1.0  -0.1749
  C  C1163  1  0.510490  0.680590  0.666330  1.0  0.0581
  C  C1164  1  0.510750  0.641050  0.679800  1.0  -0.0493
  C  C1165  1  0.511420  0.622920  0.655870  1.0  -0.1653
  C  C1166  1  0.512150  0.644050  0.617700  1.0  0.0267
  C  C1167  1  0.512280  0.683880  0.603150  1.0  -0.1728
  C  C1168  1  0.511930  0.701930  0.627540  1.0  -0.0498
  C  C1169  1  0.511700  0.580000  0.670800  1.0  0.7273
  C  C1170  1  0.511150  0.706350  0.562500  1.0  0.738
  C  C1171  1  0.898450  0.663950  0.766000  1.0  -0.1715
  C  C1172  1  0.916340  0.691960  0.776000  1.0  0.2131
  C  C1173  1  0.892970  0.700470  0.807060  1.0  -0.1247
  C  C1174  1  0.910760  0.728420  0.815620  1.0  0.2182
  C  C1175  1  0.887050  0.737750  0.847600  1.0  -0.1731
  C  C1176  1  0.846920  0.676810  0.833670  1.0  0.06
  C  C1177  1  0.820850  0.690550  0.820200  1.0  -0.0497
  C  C1178  1  0.778790  0.667290  0.844130  1.0  -0.1644
  C  C1179  1  0.761750  0.629850  0.882300  1.0  0.028
  C  C1180  1  0.787030  0.615430  0.896850  1.0  -0.1716
  C  C1181  1  0.829470  0.639470  0.872460  1.0  -0.048
  C  C1182  1  0.750800  0.682500  0.829200  1.0  0.7267
  C  C1183  1  0.768850  0.573650  0.937500  1.0  0.734
  C  C1184  1  0.835550  0.570050  0.766000  1.0  -0.1692
  C  C1185  1  0.807660  0.532040  0.776000  1.0  0.2129
  C  C1186  1  0.799970  0.992470  0.807060  1.0  -0.1238
  C  C1187  1  0.773620  0.955960  0.815620  1.0  0.2151
  C  C1188  1  0.765350  0.914650  0.847600  1.0  -0.1792
  C  C1189  1  0.819420  0.989520  0.833670  1.0  0.0573
  C  C1190  1  0.858950  0.989250  0.820200  1.0  -0.0475
  C  C1191  1  0.877090  0.988590  0.844130  1.0  -0.1632
  C  C1192  1  0.855950  0.987850  0.882300  1.0  0.0262
  C  C1193  1  0.816130  0.987730  0.896850  1.0  -0.1677
  C  C1194  1  0.798070  0.988070  0.872460  1.0  -0.0487
  C  C1195  1  0.920000  0.988300  0.829200  1.0  0.7303
  C  C1196  1  0.793650  0.988850  0.937500  1.0  0.7415
  C  C1197  1  0.663950  0.898450  0.766000  1.0  -0.1724
  C  C1198  1  0.691960  0.916340  0.776000  1.0  0.2134
  C  C1199  1  0.700470  0.892970  0.807060  1.0  -0.1224
  C  C1200  1  0.728420  0.910760  0.815620  1.0  0.217
  C  C1201  1  0.737750  0.887050  0.847600  1.0  -0.175
  C  C1202  1  0.676820  0.846920  0.833670  1.0  0.0578
  C  C1203  1  0.690550  0.820850  0.820200  1.0  -0.0491
  C  C1204  1  0.667290  0.778790  0.844130  1.0  -0.1659
  C  C1205  1  0.629850  0.761750  0.882300  1.0  0.0291
  C  C1206  1  0.615430  0.787030  0.896850  1.0  -0.1705
  C  C1207  1  0.639470  0.829470  0.872460  1.0  -0.0482
  C  C1208  1  0.682500  0.750800  0.829200  1.0  0.7269
  C  C1209  1  0.573650  0.768850  0.937500  1.0  0.7429
  C  C1210  1  0.570050  0.835550  0.766000  1.0  -0.1674
  C  C1211  1  0.532040  0.807660  0.776000  1.0  0.1961
  C  C1212  1  0.992470  0.799970  0.807060  1.0  -0.1236
  C  C1213  1  0.955960  0.773620  0.815620  1.0  0.214
  C  C1214  1  0.914650  0.765350  0.847600  1.0  -0.1743
  C  C1215  1  0.989520  0.819420  0.833670  1.0  0.0563
  C  C1216  1  0.989250  0.858950  0.820200  1.0  -0.0497
  C  C1217  1  0.988590  0.877080  0.844130  1.0  -0.1636
  C  C1218  1  0.987850  0.855950  0.882300  1.0  0.0241
  C  C1219  1  0.987730  0.816130  0.896850  1.0  -0.1736
  C  C1220  1  0.988070  0.798070  0.872460  1.0  -0.0504
  C  C1221  1  0.988300  0.920000  0.829200  1.0  0.725
  C  C1222  1  0.988850  0.793650  0.937500  1.0  0.7399
  C  C1223  1  0.601550  0.836050  0.734000  1.0  -0.1705
  C  C1224  1  0.583660  0.808040  0.724000  1.0  0.2122
  C  C1225  1  0.607030  0.799530  0.692940  1.0  -0.1246
  C  C1226  1  0.589240  0.771580  0.684380  1.0  0.2174
  C  C1227  1  0.612950  0.762250  0.652400  1.0  -0.1721
  C  C1228  1  0.653090  0.823190  0.666330  1.0  0.0575
  C  C1229  1  0.679150  0.809450  0.679800  1.0  -0.0496
  C  C1230  1  0.721220  0.832720  0.655870  1.0  -0.164
  C  C1231  1  0.738250  0.870150  0.617700  1.0  0.0294
  C  C1232  1  0.712980  0.884580  0.603150  1.0  -0.1715
  C  C1233  1  0.670530  0.860530  0.627540  1.0  -0.0475
  C  C1234  1  0.749200  0.817500  0.670800  1.0  0.7272
  C  C1235  1  0.731150  0.926350  0.562500  1.0  0.7402
  C  C1236  1  0.664450  0.929950  0.734000  1.0  -0.1707
  C  C1237  1  0.692340  0.967960  0.724000  1.0  0.1965
  C  C1238  1  0.700030  0.507530  0.692940  1.0  -0.1189
  C  C1239  1  0.726380  0.544040  0.684380  1.0  0.2187
  C  C1240  1  0.734650  0.585350  0.652400  1.0  -0.1761
  C  C1241  1  0.680590  0.510490  0.666330  1.0  0.0595
  C  C1242  1  0.641050  0.510750  0.679800  1.0  -0.0474
  C  C1243  1  0.622920  0.511410  0.655870  1.0  -0.1638
  C  C1244  1  0.644050  0.512150  0.617700  1.0  0.0275
  C  C1245  1  0.683880  0.512270  0.603150  1.0  -0.1649
  C  C1246  1  0.701930  0.511930  0.627540  1.0  -0.0475
  C  C1247  1  0.580000  0.511700  0.670800  1.0  0.7302
  C  C1248  1  0.706350  0.511150  0.562500  1.0  0.7421
  N  N1249  1  0.249180  0.047380  0.203440  1.0  -0.3896
  N  N1250  1  0.047380  0.249180  0.203440  1.0  -0.3931
  N  N1251  1  0.452620  0.250820  0.296560  1.0  -0.3916
  N  N1252  1  0.250820  0.452620  0.296560  1.0  -0.3901
  N  N1253  1  0.291200  0.041200  0.250000  1.0  -0.4089
  N  N1254  1  0.458800  0.208800  0.250000  1.0  -0.4095
  N  N1255  1  0.208800  0.458800  0.250000  1.0  -0.4084
  N  N1256  1  0.041200  0.291200  0.250000  1.0  -0.41
  N  N1257  1  0.749180  0.047380  0.203440  1.0  -0.3843
  N  N1258  1  0.547380  0.249180  0.203440  1.0  -0.3973
  N  N1259  1  0.952620  0.250820  0.296560  1.0  -0.3975
  N  N1260  1  0.750820  0.452620  0.296560  1.0  -0.3901
  N  N1261  1  0.791200  0.041200  0.250000  1.0  -0.3887
  N  N1262  1  0.958800  0.208800  0.250000  1.0  -0.4077
  N  N1263  1  0.708800  0.458800  0.250000  1.0  -0.4084
  N  N1264  1  0.541200  0.291200  0.250000  1.0  -0.4084
  N  N1265  1  0.249180  0.547380  0.203440  1.0  -0.396
  N  N1266  1  0.047380  0.749180  0.203440  1.0  -0.3931
  N  N1267  1  0.452620  0.750820  0.296560  1.0  -0.3916
  N  N1268  1  0.250820  0.952620  0.296560  1.0  -0.3958
  N  N1269  1  0.291200  0.541200  0.250000  1.0  -0.4089
  N  N1270  1  0.458800  0.708800  0.250000  1.0  -0.4095
  N  N1271  1  0.208800  0.958800  0.250000  1.0  -0.4089
  N  N1272  1  0.041200  0.791200  0.250000  1.0  -0.41
  N  N1273  1  0.749180  0.547380  0.203440  1.0  -0.396
  N  N1274  1  0.547380  0.749180  0.203440  1.0  -0.3974
  N  N1275  1  0.952620  0.750820  0.296560  1.0  -0.3975
  N  N1276  1  0.750820  0.952620  0.296560  1.0  -0.3814
  N  N1277  1  0.791200  0.541200  0.250000  1.0  -0.4089
  N  N1278  1  0.958800  0.708800  0.250000  1.0  -0.4077
  N  N1279  1  0.708800  0.958800  0.250000  1.0  -0.388
  N  N1280  1  0.541200  0.791200  0.250000  1.0  -0.4084
  N  N1281  1  0.249180  0.047380  0.703440  1.0  -0.396
  N  N1282  1  0.047380  0.249180  0.703440  1.0  -0.3974
  N  N1283  1  0.452620  0.250820  0.796560  1.0  -0.3975
  N  N1284  1  0.250820  0.452620  0.796560  1.0  -0.3958
  N  N1285  1  0.291200  0.041200  0.750000  1.0  -0.4089
  N  N1286  1  0.458800  0.208800  0.750000  1.0  -0.4076
  N  N1287  1  0.208800  0.458800  0.750000  1.0  -0.4089
  N  N1288  1  0.041200  0.291200  0.750000  1.0  -0.4084
  N  N1289  1  0.749180  0.047380  0.703440  1.0  -0.396
  N  N1290  1  0.547380  0.249180  0.703440  1.0  -0.3931
  N  N1291  1  0.952620  0.250820  0.796560  1.0  -0.3916
  N  N1292  1  0.750820  0.452620  0.796560  1.0  -0.3901
  N  N1293  1  0.791200  0.041200  0.750000  1.0  -0.4089
  N  N1294  1  0.958800  0.208800  0.750000  1.0  -0.4095
  N  N1295  1  0.708800  0.458800  0.750000  1.0  -0.4084
  N  N1296  1  0.541200  0.291200  0.750000  1.0  -0.41
  N  N1297  1  0.249180  0.547380  0.703440  1.0  -0.3896
  N  N1298  1  0.047380  0.749180  0.703440  1.0  -0.3974
  N  N1299  1  0.452620  0.750820  0.796560  1.0  -0.3975
  N  N1300  1  0.250820  0.952620  0.796560  1.0  -0.3901
  N  N1301  1  0.291200  0.541200  0.750000  1.0  -0.4089
  N  N1302  1  0.458800  0.708800  0.750000  1.0  -0.4077
  N  N1303  1  0.208800  0.958800  0.750000  1.0  -0.4084
  N  N1304  1  0.041200  0.791200  0.750000  1.0  -0.4084
  N  N1305  1  0.749180  0.547380  0.703440  1.0  -0.396
  N  N1306  1  0.547380  0.749180  0.703440  1.0  -0.393
  N  N1307  1  0.952620  0.750820  0.796560  1.0  -0.3916
  N  N1308  1  0.750820  0.952620  0.796560  1.0  -0.3901
  N  N1309  1  0.791200  0.541200  0.750000  1.0  -0.4089
  N  N1310  1  0.958800  0.708800  0.750000  1.0  -0.4095
  N  N1311  1  0.708800  0.958800  0.750000  1.0  -0.4084
  N  N1312  1  0.541200  0.791200  0.750000  1.0  -0.41
  Cl  Cl1313  1  0.041500  0.352950  0.000000  1.0  -0.4714
  Cl  Cl1314  1  0.458500  0.147050  0.000000  1.0  -0.4704
  Cl  Cl1315  1  0.147050  0.458500  0.000000  1.0  -0.4725
  Cl  Cl1316  1  0.352950  0.041500  0.000000  1.0  -0.4733
  Cl  Cl1317  1  0.192190  0.001580  0.306230  1.0  -0.4801
  Cl  Cl1318  1  0.001580  0.192190  0.306230  1.0  -0.4804
  Cl  Cl1319  1  0.498420  0.307820  0.193770  1.0  -0.481
  Cl  Cl1320  1  0.307820  0.498420  0.193770  1.0  -0.4815
  Cl  Cl1321  1  0.541500  0.352950  0.000000  1.0  -0.4714
  Cl  Cl1322  1  0.958500  0.147050  0.000000  1.0  -0.4843
  Cl  Cl1323  1  0.647050  0.458500  0.000000  1.0  -0.4738
  Cl  Cl1324  1  0.852950  0.041500  0.000000  1.0  -0.4835
  Cl  Cl1325  1  0.692190  0.001580  0.306230  1.0  -0.4804
  Cl  Cl1326  1  0.807820  0.498420  0.193770  1.0  -0.4815
  Cl  Cl1327  1  0.041500  0.852950  0.000000  1.0  -0.4784
  Cl  Cl1328  1  0.458500  0.647050  0.000000  1.0  -0.4683
  Cl  Cl1329  1  0.147050  0.958500  0.000000  1.0  -0.4786
  Cl  Cl1330  1  0.352950  0.541500  0.000000  1.0  -0.4703
  Cl  Cl1331  1  0.001580  0.692190  0.306230  1.0  -0.4804
  Cl  Cl1332  1  0.498420  0.807820  0.193770  1.0  -0.481
  Cl  Cl1333  1  0.541500  0.852950  0.000000  1.0  -0.4714
  Cl  Cl1334  1  0.958500  0.647050  0.000000  1.0  -0.4704
  Cl  Cl1335  1  0.647050  0.958500  0.000000  1.0  -0.4738
  Cl  Cl1336  1  0.852950  0.541500  0.000000  1.0  -0.4728
  Cl  Cl1337  1  0.807820  0.998420  0.193770  1.0  -0.4818
  Cl  Cl1338  1  0.041500  0.352950  0.500000  1.0  -0.4714
  Cl  Cl1339  1  0.458500  0.147050  0.500000  1.0  -0.4704
  Cl  Cl1340  1  0.147050  0.458500  0.500000  1.0  -0.4738
  Cl  Cl1341  1  0.352950  0.041500  0.500000  1.0  -0.4728
  Cl  Cl1342  1  0.541500  0.352950  0.500000  1.0  -0.4744
  Cl  Cl1343  1  0.958500  0.147050  0.500000  1.0  -0.4824
  Cl  Cl1344  1  0.647050  0.458500  0.500000  1.0  -0.4756
  Cl  Cl1345  1  0.852950  0.041500  0.500000  1.0  -0.4824
  Cl  Cl1346  1  0.501580  0.192190  0.806230  1.0  -0.4804
  Cl  Cl1347  1  0.998420  0.307820  0.693770  1.0  -0.481
  Cl  Cl1348  1  0.807820  0.498420  0.693770  1.0  -0.4815
  Cl  Cl1349  1  0.041500  0.852950  0.500000  1.0  -0.4834
  Cl  Cl1350  1  0.458500  0.647050  0.500000  1.0  -0.474
  Cl  Cl1351  1  0.147050  0.958500  0.500000  1.0  -0.4811
  Cl  Cl1352  1  0.352950  0.541500  0.500000  1.0  -0.4755
  Cl  Cl1353  1  0.192190  0.501580  0.806230  1.0  -0.4801
  Cl  Cl1354  1  0.307820  0.998420  0.693770  1.0  -0.4815
  Cl  Cl1355  1  0.541500  0.852950  0.500000  1.0  -0.4714
  Cl  Cl1356  1  0.958500  0.647050  0.500000  1.0  -0.4683
  Cl  Cl1357  1  0.647050  0.958500  0.500000  1.0  -0.4725
  Cl  Cl1358  1  0.852950  0.541500  0.500000  1.0  -0.4703
  Cl  Cl1359  1  0.501580  0.692190  0.806230  1.0  -0.4804
  Cl  Cl1360  1  0.998420  0.807820  0.693770  1.0  -0.481
  Cl  Cl1361  1  0.807820  0.998420  0.693770  1.0  -0.4815
  O  O1362  1  0.284920  0.232500  0.206290  1.0  -0.6216
  O  O1363  1  0.339650  0.287050  0.147000  1.0  -0.6461
  O  O1364  1  0.450330  0.267330  0.047150  1.0  -0.5744
  O  O1365  1  0.433810  0.207800  0.048090  1.0  -0.5979
  O  O1366  1  0.008790  0.061220  0.206290  1.0  -0.6174
  O  O1367  1  0.013350  0.065950  0.147000  1.0  -0.6363
  O  O1368  1  0.002520  0.185530  0.047150  1.0  -0.5712
  O  O1369  1  0.018100  0.244110  0.048090  1.0  -0.6016
  O  O1370  1  0.267510  0.215090  0.293710  1.0  -0.6197
  O  O1371  1  0.212950  0.160350  0.353000  1.0  -0.6428
  O  O1372  1  0.232680  0.049670  0.452850  1.0  -0.572
  O  O1373  1  0.292200  0.066190  0.451910  1.0  -0.5972
  O  O1374  1  0.438790  0.491210  0.293710  1.0  -0.6183
  O  O1375  1  0.434050  0.486650  0.353000  1.0  -0.6472
  O  O1376  1  0.314480  0.497480  0.452850  1.0  -0.5724
  O  O1377  1  0.255890  0.481900  0.451910  1.0  -0.5973
  O  O1378  1  0.215090  0.267510  0.293710  1.0  -0.6202
  O  O1379  1  0.160350  0.212950  0.353000  1.0  -0.6461
  O  O1380  1  0.049680  0.232670  0.452850  1.0  -0.573
  O  O1381  1  0.066190  0.292200  0.451910  1.0  -0.5984
  O  O1382  1  0.491210  0.438790  0.293710  1.0  -0.6165
  O  O1383  1  0.486650  0.434050  0.353000  1.0  -0.6437
  O  O1384  1  0.497480  0.314480  0.452850  1.0  -0.5736
  O  O1385  1  0.481900  0.255890  0.451910  1.0  -0.5995
  O  O1386  1  0.232500  0.284920  0.206290  1.0  -0.6184
  O  O1387  1  0.287050  0.339650  0.147000  1.0  -0.6452
  O  O1388  1  0.267330  0.450330  0.047150  1.0  -0.5722
  O  O1389  1  0.207800  0.433810  0.048090  1.0  -0.5971
  O  O1390  1  0.061220  0.008800  0.206290  1.0  -0.6186
  O  O1391  1  0.065950  0.013350  0.147000  1.0  -0.6446
  O  O1392  1  0.185530  0.002520  0.047150  1.0  -0.5731
  O  O1393  1  0.244110  0.018100  0.048090  1.0  -0.5985
  O  O1394  1  0.784920  0.232500  0.206290  1.0  -0.6215
  O  O1395  1  0.839650  0.287050  0.147000  1.0  -0.649
  O  O1396  1  0.950330  0.267330  0.047150  1.0  -0.5743
  O  O1397  1  0.933810  0.207800  0.048090  1.0  -0.5987
  O  O1398  1  0.508790  0.061210  0.206290  1.0  -0.6227
  O  O1399  1  0.513350  0.065950  0.147000  1.0  -0.645
  O  O1400  1  0.502530  0.185530  0.047150  1.0  -0.5718
  O  O1401  1  0.518100  0.244110  0.048090  1.0  -0.6041
  O  O1402  1  0.767510  0.215090  0.293710  1.0  -0.6196
  O  O1403  1  0.712950  0.160350  0.353000  1.0  -0.6428
  O  O1404  1  0.732680  0.049670  0.452850  1.0  -0.572
  O  O1405  1  0.792200  0.066190  0.451910  1.0  -0.5988
  O  O1406  1  0.938790  0.491210  0.293710  1.0  -0.6183
  O  O1407  1  0.934050  0.486650  0.353000  1.0  -0.643
  O  O1408  1  0.814480  0.497480  0.452850  1.0  -0.5724
  O  O1409  1  0.755890  0.481900  0.451910  1.0  -0.5973
  O  O1410  1  0.715090  0.267510  0.293710  1.0  -0.6201
  O  O1411  1  0.660350  0.212950  0.353000  1.0  -0.65
  O  O1412  1  0.549680  0.232670  0.452850  1.0  -0.5728
  O  O1413  1  0.566190  0.292200  0.451910  1.0  -0.5983
  O  O1414  1  0.991210  0.438790  0.293710  1.0  -0.6164
  O  O1415  1  0.986650  0.434050  0.353000  1.0  -0.6437
  O  O1416  1  0.997480  0.314470  0.452850  1.0  -0.5718
  O  O1417  1  0.981900  0.255890  0.451910  1.0  -0.6023
  O  O1418  1  0.732500  0.284920  0.206290  1.0  -0.6184
  O  O1419  1  0.787050  0.339650  0.147000  1.0  -0.6452
  O  O1420  1  0.767330  0.450330  0.047150  1.0  -0.5722
  O  O1421  1  0.707800  0.433810  0.048090  1.0  -0.5985
  O  O1422  1  0.561220  0.008800  0.206290  1.0  -0.625
  O  O1423  1  0.565950  0.013350  0.147000  1.0  -0.6435
  O  O1424  1  0.685530  0.002520  0.047150  1.0  -0.5731
  O  O1425  1  0.744110  0.018100  0.048090  1.0  -0.5992
  O  O1426  1  0.284920  0.732500  0.206290  1.0  -0.6216
  O  O1427  1  0.339650  0.787050  0.147000  1.0  -0.6461
  O  O1428  1  0.450330  0.767330  0.047150  1.0  -0.5744
  O  O1429  1  0.433810  0.707800  0.048090  1.0  -0.5991
  O  O1430  1  0.008790  0.561220  0.206290  1.0  -0.6174
  O  O1431  1  0.013350  0.565950  0.147000  1.0  -0.6363
  O  O1432  1  0.002520  0.685530  0.047150  1.0  -0.5712
  O  O1433  1  0.018100  0.744110  0.048090  1.0  -0.6016
  O  O1434  1  0.267510  0.715090  0.293710  1.0  -0.6197
  O  O1435  1  0.212950  0.660350  0.353000  1.0  -0.6474
  O  O1436  1  0.232680  0.549670  0.452850  1.0  -0.571
  O  O1437  1  0.292200  0.566190  0.451910  1.0  -0.597
  O  O1438  1  0.438790  0.991210  0.293710  1.0  -0.6183
  O  O1439  1  0.434050  0.986650  0.353000  1.0  -0.6472
  O  O1440  1  0.314480  0.997480  0.452850  1.0  -0.5722
  O  O1441  1  0.255890  0.981900  0.451910  1.0  -0.5984
  O  O1442  1  0.215090  0.767510  0.293710  1.0  -0.6202
  O  O1443  1  0.160350  0.712950  0.353000  1.0  -0.6461
  O  O1444  1  0.049680  0.732670  0.452850  1.0  -0.573
  O  O1445  1  0.066190  0.792200  0.451910  1.0  -0.5996
  O  O1446  1  0.491210  0.938790  0.293710  1.0  -0.6165
  O  O1447  1  0.486650  0.934050  0.353000  1.0  -0.6381
  O  O1448  1  0.497480  0.814480  0.452850  1.0  -0.5735
  O  O1449  1  0.481900  0.755890  0.451910  1.0  -0.5995
  O  O1450  1  0.232500  0.784920  0.206290  1.0  -0.6184
  O  O1451  1  0.287050  0.839650  0.147000  1.0  -0.6504
  O  O1452  1  0.267330  0.950330  0.047150  1.0  -0.5721
  O  O1453  1  0.207800  0.933810  0.048090  1.0  -0.5985
  O  O1454  1  0.061220  0.508800  0.206290  1.0  -0.6188
  O  O1455  1  0.065950  0.513350  0.147000  1.0  -0.6446
  O  O1456  1  0.185530  0.502530  0.047150  1.0  -0.5736
  O  O1457  1  0.244110  0.518100  0.048090  1.0  -0.6051
  O  O1458  1  0.784920  0.732500  0.206290  1.0  -0.6217
  O  O1459  1  0.839650  0.787050  0.147000  1.0  -0.649
  O  O1460  1  0.950330  0.767330  0.047150  1.0  -0.5742
  O  O1461  1  0.933810  0.707800  0.048090  1.0  -0.5987
  O  O1462  1  0.508790  0.561220  0.206290  1.0  -0.6174
  O  O1463  1  0.513350  0.565950  0.147000  1.0  -0.6363
  O  O1464  1  0.502530  0.685530  0.047150  1.0  -0.5728
  O  O1465  1  0.518100  0.744110  0.048090  1.0  -0.6041
  O  O1466  1  0.767510  0.715090  0.293710  1.0  -0.6196
  O  O1467  1  0.712950  0.660350  0.353000  1.0  -0.6474
  O  O1468  1  0.732680  0.549670  0.452850  1.0  -0.571
  O  O1469  1  0.792200  0.566190  0.451910  1.0  -0.5983
  O  O1470  1  0.938790  0.991210  0.293710  1.0  -0.6183
  O  O1471  1  0.934050  0.986650  0.353000  1.0  -0.643
  O  O1472  1  0.814480  0.997480  0.452850  1.0  -0.5722
  O  O1473  1  0.755890  0.981900  0.451910  1.0  -0.5984
  O  O1474  1  0.715090  0.767510  0.293710  1.0  -0.6201
  O  O1475  1  0.660350  0.712950  0.353000  1.0  -0.65
  O  O1476  1  0.549680  0.732680  0.452850  1.0  -0.5721
  O  O1477  1  0.566190  0.792200  0.451910  1.0  -0.5991
  O  O1478  1  0.991210  0.938790  0.293710  1.0  -0.6164
  O  O1479  1  0.986650  0.934050  0.353000  1.0  -0.6381
  O  O1480  1  0.997480  0.814480  0.452850  1.0  -0.5734
  O  O1481  1  0.981900  0.755890  0.451910  1.0  -0.6023
  O  O1482  1  0.732500  0.784920  0.206290  1.0  -0.6183
  O  O1483  1  0.787050  0.839650  0.147000  1.0  -0.6458
  O  O1484  1  0.767330  0.950330  0.047150  1.0  -0.5721
  O  O1485  1  0.707800  0.933810  0.048090  1.0  -0.5996
  O  O1486  1  0.561220  0.508800  0.206290  1.0  -0.6188
  O  O1487  1  0.565950  0.513350  0.147000  1.0  -0.6413
  O  O1488  1  0.685530  0.502530  0.047150  1.0  -0.5736
  O  O1489  1  0.744110  0.518100  0.048090  1.0  -0.6051
  O  O1490  1  0.284920  0.232500  0.706290  1.0  -0.6217
  O  O1491  1  0.339650  0.287050  0.647000  1.0  -0.649
  O  O1492  1  0.450330  0.267330  0.547150  1.0  -0.5742
  O  O1493  1  0.433810  0.207800  0.548090  1.0  -0.5993
  O  O1494  1  0.008790  0.061220  0.706290  1.0  -0.6174
  O  O1495  1  0.013350  0.065950  0.647000  1.0  -0.6363
  O  O1496  1  0.002520  0.185530  0.547150  1.0  -0.5711
  O  O1497  1  0.018100  0.244110  0.548090  1.0  -0.6034
  O  O1498  1  0.267510  0.215090  0.793710  1.0  -0.6196
  O  O1499  1  0.212950  0.160350  0.853000  1.0  -0.6474
  O  O1500  1  0.232680  0.049670  0.952850  1.0  -0.572
  O  O1501  1  0.292200  0.066190  0.951910  1.0  -0.5992
  O  O1502  1  0.438790  0.491210  0.793710  1.0  -0.6183
  O  O1503  1  0.434050  0.486650  0.853000  1.0  -0.643
  O  O1504  1  0.314480  0.497480  0.952850  1.0  -0.5722
  O  O1505  1  0.255890  0.481900  0.951910  1.0  -0.5988
  O  O1506  1  0.215090  0.267510  0.793710  1.0  -0.6202
  O  O1507  1  0.160350  0.212950  0.853000  1.0  -0.65
  O  O1508  1  0.049680  0.232670  0.952850  1.0  -0.5729
  O  O1509  1  0.066190  0.292200  0.951910  1.0  -0.5998
  O  O1510  1  0.491210  0.438790  0.793710  1.0  -0.6164
  O  O1511  1  0.486650  0.434050  0.853000  1.0  -0.6437
  O  O1512  1  0.497480  0.314480  0.952850  1.0  -0.5735
  O  O1513  1  0.481900  0.255890  0.951910  1.0  -0.6017
  O  O1514  1  0.232500  0.284920  0.706290  1.0  -0.6184
  O  O1515  1  0.287050  0.339650  0.647000  1.0  -0.6499
  O  O1516  1  0.267330  0.450330  0.547150  1.0  -0.5721
  O  O1517  1  0.207800  0.433810  0.548090  1.0  -0.5989
  O  O1518  1  0.061220  0.008800  0.706290  1.0  -0.6186
  O  O1519  1  0.065950  0.013350  0.647000  1.0  -0.6413
  O  O1520  1  0.185530  0.002520  0.547150  1.0  -0.573
  O  O1521  1  0.244110  0.018100  0.548090  1.0  -0.5993
  O  O1522  1  0.784920  0.232500  0.706290  1.0  -0.6217
  O  O1523  1  0.839650  0.287050  0.647000  1.0  -0.6461
  O  O1524  1  0.950330  0.267330  0.547150  1.0  -0.5743
  O  O1525  1  0.933810  0.207800  0.548090  1.0  -0.5993
  O  O1526  1  0.508790  0.061210  0.706290  1.0  -0.6228
  O  O1527  1  0.513350  0.065950  0.647000  1.0  -0.6421
  O  O1528  1  0.502530  0.185530  0.547150  1.0  -0.5717
  O  O1529  1  0.518100  0.244110  0.548090  1.0  -0.6017
  O  O1530  1  0.767510  0.215090  0.793710  1.0  -0.6197
  O  O1531  1  0.712950  0.160350  0.853000  1.0  -0.6474
  O  O1532  1  0.732680  0.049670  0.952850  1.0  -0.572
  O  O1533  1  0.792200  0.066190  0.951910  1.0  -0.5977
  O  O1534  1  0.938790  0.491210  0.793710  1.0  -0.6183
  O  O1535  1  0.934050  0.486650  0.853000  1.0  -0.6472
  O  O1536  1  0.814480  0.497480  0.952850  1.0  -0.5722
  O  O1537  1  0.755890  0.481900  0.951910  1.0  -0.5974
  O  O1538  1  0.715090  0.267510  0.793710  1.0  -0.6202
  O  O1539  1  0.660350  0.212950  0.853000  1.0  -0.6461
  O  O1540  1  0.549680  0.232670  0.952850  1.0  -0.5729
  O  O1541  1  0.566190  0.292200  0.951910  1.0  -0.5984
  O  O1542  1  0.991210  0.438790  0.793710  1.0  -0.6165
  O  O1543  1  0.986650  0.434050  0.853000  1.0  -0.6381
  O  O1544  1  0.997480  0.314470  0.952850  1.0  -0.5717
  O  O1545  1  0.981900  0.255890  0.951910  1.0  -0.5996
  O  O1546  1  0.732500  0.284920  0.706290  1.0  -0.6184
  O  O1547  1  0.787050  0.339650  0.647000  1.0  -0.6452
  O  O1548  1  0.767330  0.450330  0.547150  1.0  -0.5721
  O  O1549  1  0.707800  0.433810  0.548090  1.0  -0.5975
  O  O1550  1  0.561220  0.008800  0.706290  1.0  -0.6251
  O  O1551  1  0.565950  0.013350  0.647000  1.0  -0.6458
  O  O1552  1  0.685530  0.002520  0.547150  1.0  -0.573
  O  O1553  1  0.744110  0.018100  0.548090  1.0  -0.5993
  O  O1554  1  0.284920  0.732500  0.706290  1.0  -0.6215
  O  O1555  1  0.339650  0.787050  0.647000  1.0  -0.649
  O  O1556  1  0.450330  0.767330  0.547150  1.0  -0.5742
  O  O1557  1  0.433810  0.707800  0.548090  1.0  -0.5981
  O  O1558  1  0.008790  0.561220  0.706290  1.0  -0.6174
  O  O1559  1  0.013350  0.565950  0.647000  1.0  -0.6363
  O  O1560  1  0.002520  0.685530  0.547150  1.0  -0.5711
  O  O1561  1  0.018100  0.744110  0.548090  1.0  -0.6034
  O  O1562  1  0.267510  0.715090  0.793710  1.0  -0.6196
  O  O1563  1  0.212950  0.660350  0.853000  1.0  -0.6428
  O  O1564  1  0.232680  0.549670  0.952850  1.0  -0.571
  O  O1565  1  0.292200  0.566190  0.951910  1.0  -0.5981
  O  O1566  1  0.438790  0.991210  0.793710  1.0  -0.6183
  O  O1567  1  0.434050  0.986650  0.853000  1.0  -0.643
  O  O1568  1  0.314480  0.997480  0.952850  1.0  -0.5722
  O  O1569  1  0.255890  0.981900  0.951910  1.0  -0.5974
  O  O1570  1  0.215090  0.767510  0.793710  1.0  -0.6201
  O  O1571  1  0.160350  0.712950  0.853000  1.0  -0.65
  O  O1572  1  0.049680  0.732670  0.952850  1.0  -0.5729
  O  O1573  1  0.066190  0.792200  0.951910  1.0  -0.5985
  O  O1574  1  0.491210  0.938790  0.793710  1.0  -0.6164
  O  O1575  1  0.486650  0.934050  0.853000  1.0  -0.6437
  O  O1576  1  0.497480  0.814480  0.952850  1.0  -0.5735
  O  O1577  1  0.481900  0.755890  0.951910  1.0  -0.6017
  O  O1578  1  0.232500  0.784920  0.706290  1.0  -0.6183
  O  O1579  1  0.287050  0.839650  0.647000  1.0  -0.6458
  O  O1580  1  0.267330  0.950330  0.547150  1.0  -0.572
  O  O1581  1  0.207800  0.933810  0.548090  1.0  -0.5986
  O  O1582  1  0.061220  0.508800  0.706290  1.0  -0.6188
  O  O1583  1  0.065950  0.513350  0.647000  1.0  -0.6413
  O  O1584  1  0.185530  0.502530  0.547150  1.0  -0.5736
  O  O1585  1  0.244110  0.518100  0.548090  1.0  -0.6046
  O  O1586  1  0.784920  0.732500  0.706290  1.0  -0.6217
  O  O1587  1  0.839650  0.787050  0.647000  1.0  -0.6461
  O  O1588  1  0.950330  0.767330  0.547150  1.0  -0.5742
  O  O1589  1  0.933810  0.707800  0.548090  1.0  -0.5993
  O  O1590  1  0.508790  0.561220  0.706290  1.0  -0.6174
  O  O1591  1  0.513350  0.565950  0.647000  1.0  -0.6403
  O  O1592  1  0.502530  0.685530  0.547150  1.0  -0.5728
  O  O1593  1  0.518100  0.744110  0.548090  1.0  -0.6017
  O  O1594  1  0.767510  0.715090  0.793710  1.0  -0.6197
  O  O1595  1  0.712950  0.660350  0.853000  1.0  -0.6474
  O  O1596  1  0.732680  0.549670  0.952850  1.0  -0.571
  O  O1597  1  0.792200  0.566190  0.951910  1.0  -0.5965
  O  O1598  1  0.938790  0.991210  0.793710  1.0  -0.6183
  O  O1599  1  0.934050  0.986650  0.853000  1.0  -0.6472
  O  O1600  1  0.814480  0.997480  0.952850  1.0  -0.5722
  O  O1601  1  0.755890  0.981900  0.951910  1.0  -0.5974
  O  O1602  1  0.715090  0.767510  0.793710  1.0  -0.6202
  O  O1603  1  0.660350  0.712950  0.853000  1.0  -0.6461
  O  O1604  1  0.549680  0.732680  0.952850  1.0  -0.5721
  O  O1605  1  0.566190  0.792200  0.951910  1.0  -0.5982
  O  O1606  1  0.991210  0.938790  0.793710  1.0  -0.6165
  O  O1607  1  0.986650  0.934050  0.853000  1.0  -0.6437
  O  O1608  1  0.997480  0.814480  0.952850  1.0  -0.5735
  O  O1609  1  0.981900  0.755890  0.951910  1.0  -0.5996
  O  O1610  1  0.732500  0.784920  0.706290  1.0  -0.6184
  O  O1611  1  0.787050  0.839650  0.647000  1.0  -0.6458
  O  O1612  1  0.767330  0.950330  0.547150  1.0  -0.572
  O  O1613  1  0.707800  0.933810  0.548090  1.0  -0.5971
  O  O1614  1  0.561220  0.508800  0.706290  1.0  -0.6188
  O  O1615  1  0.565950  0.513350  0.647000  1.0  -0.6446
  O  O1616  1  0.685530  0.502530  0.547150  1.0  -0.5736
  O  O1617  1  0.744110  0.518100  0.548090  1.0  -0.6053
