# generated using pymatgen
data_Mn3H33C39N8O9
_symmetry_space_group_name_H-M   'P 1'
_cell_length_a   17.81300000
_cell_length_b   29.89090000
_cell_length_c   29.89090000
_cell_angle_alpha   84.90640000
_cell_angle_beta   72.66450000
_cell_angle_gamma   72.66460000
_symmetry_Int_Tables_number   1
_chemical_formula_structural   Mn3H33C39N8O9
_chemical_formula_sum   'Mn24 H264 C312 N64 O72'
_cell_volume   14502.29189940
_cell_formula_units_Z   8
loop_
 _symmetry_equiv_pos_site_id
 _symmetry_equiv_pos_as_xyz
  1  'x, y, z'
loop_
 _atom_site_type_symbol
 _atom_site_label
 _atom_site_symmetry_multiplicity
 _atom_site_fract_x
 _atom_site_fract_y
 _atom_site_fract_z
 _atom_site_occupancy
 _atom_site_charge
  Mn  Mn1  1  0.078860  0.915080  0.357660  1.0  1.0037
  Mn  Mn2  1  0.239830  0.879810  0.469330  1.0  1.0009
  Mn  Mn3  1  0.209120  0.005210  0.573790  1.0  0.9926
  Mn  Mn4  1  0.851600  0.584920  0.142340  1.0  1.0034
  Mn  Mn5  1  0.088970  0.620190  0.030670  1.0  1.0022
  Mn  Mn6  1  0.288120  0.494790  0.926210  1.0  0.9914
  Mn  Mn7  1  0.436520  0.642340  0.415080  1.0  0.9997
  Mn  Mn8  1  0.709160  0.530670  0.379810  1.0  1.0016
  Mn  Mn9  1  0.782910  0.426210  0.505210  1.0  0.9935
  Mn  Mn10  1  0.993940  0.857660  0.084920  1.0  1.0
  Mn  Mn11  1  0.119640  0.969330  0.120190  1.0  0.999
  Mn  Mn12  1  0.214330  0.073790  0.994790  1.0  0.9948
  Mn  Mn13  1  0.921140  0.084920  0.642340  1.0  1.0021
  Mn  Mn14  1  0.760170  0.120190  0.530670  1.0  1.0039
  Mn  Mn15  1  0.790880  0.994790  0.426210  1.0  0.9909
  Mn  Mn16  1  0.148400  0.415080  0.857660  1.0  1.0012
  Mn  Mn17  1  0.911030  0.379810  0.969330  1.0  1.0023
  Mn  Mn18  1  0.711880  0.505210  0.073790  1.0  0.9935
  Mn  Mn19  1  0.563480  0.357660  0.584920  1.0  0.9999
  Mn  Mn20  1  0.290840  0.469330  0.620190  1.0  1.0023
  Mn  Mn21  1  0.217090  0.573790  0.494790  1.0  0.9918
  Mn  Mn22  1  0.006060  0.142340  0.915080  1.0  0.9999
  Mn  Mn23  1  0.880360  0.030670  0.879810  1.0  1.0019
  Mn  Mn24  1  0.785670  0.926210  0.005210  1.0  0.9964
  H  H25  1  0.258500  0.753700  0.403500  1.0  0.0969
  H  H26  1  0.253900  0.692600  0.363800  1.0  0.1146
  H  H27  1  0.174000  0.707100  0.313300  1.0  0.1074
  H  H28  1  0.096500  0.782400  0.303400  1.0  0.1124
  H  H29  1  0.058000  0.018600  0.458400  1.0  0.1178
  H  H30  1  0.139900  0.989600  0.469200  1.0  0.1265
  H  H31  1  0.142600  0.021900  0.424900  1.0  0.1252
  H  H32  1  0.404800  0.336900  0.575100  1.0  0.0742
  H  H33  1  0.351600  0.278600  0.567800  1.0  0.1176
  H  H34  1  0.551700  0.186600  0.587600  1.0  0.1152
  H  H35  1  0.602100  0.247500  0.590100  1.0  0.0658
  H  H36  1  0.419300  0.187800  0.529600  1.0  0.0734
  H  H37  1  0.462400  0.155400  0.564400  1.0  0.0618
  H  H38  1  0.434400  0.983200  0.464000  1.0  0.1047
  H  H39  1  0.537600  0.975500  0.392900  1.0  0.128
  H  H40  1  0.539000  0.925100  0.336100  1.0  0.1026
  H  H41  1  0.442000  0.888800  0.347600  1.0  0.1105
  H  H42  1  0.081600  0.892000  0.617000  1.0  0.1462
  H  H43  1  0.077800  0.944900  0.618900  1.0  0.1419
  H  H44  1  0.022100  0.930400  0.594400  1.0  0.1524
  H  H45  1  0.971300  0.987100  0.250300  1.0  0.0956
  H  H46  1  0.897500  0.030900  0.201700  1.0  0.1104
  H  H47  1  0.758800  0.071000  0.233800  1.0  0.1176
  H  H48  1  0.698500  0.067500  0.311900  1.0  0.119
  H  H49  1  0.003600  0.872300  0.463100  1.0  0.1433
  H  H50  1  0.920100  0.880000  0.502600  1.0  0.1378
  H  H51  1  0.976400  0.912200  0.500200  1.0  0.1369
  H  H52  1  0.228900  0.069500  0.646300  1.0  0.0679
  H  H53  1  0.275600  0.132400  0.652200  1.0  0.1168
  H  H54  1  0.361100  0.131400  0.514000  1.0  0.1198
  H  H55  1  0.308800  0.070800  0.511000  1.0  0.0928
  H  H56  1  0.351400  0.185300  0.621700  1.0  0.0822
  H  H57  1  0.309400  0.211400  0.583800  1.0  0.0854
  H  H58  1  0.915700  0.746300  0.096500  1.0  0.0957
  H  H59  1  0.810300  0.807400  0.136200  1.0  0.1147
  H  H60  1  0.694400  0.792900  0.186700  1.0  0.1076
  H  H61  1  0.682300  0.717600  0.196600  1.0  0.1133
  H  H62  1  0.035000  0.481400  0.041600  1.0  0.1157
  H  H63  1  0.098700  0.510400  0.030800  1.0  0.1274
  H  H64  1  0.089400  0.478100  0.075100  1.0  0.1273
  H  H65  1  0.816800  0.163100  0.924900  1.0  0.074
  H  H66  1  0.698000  0.221400  0.932200  1.0  0.1185
  H  H67  1  0.825900  0.313400  0.912400  1.0  0.1153
  H  H68  1  0.939700  0.252500  0.909900  1.0  0.0662
  H  H69  1  0.636700  0.312200  0.970400  1.0  0.0746
  H  H70  1  0.682200  0.344600  0.935600  1.0  0.0619
  H  H71  1  0.381600  0.516800  0.036000  1.0  0.1039
  H  H72  1  0.406000  0.524500  0.107100  1.0  0.1288
  H  H73  1  0.300200  0.574900  0.163900  1.0  0.1023
  H  H74  1  0.178400  0.611200  0.152400  1.0  0.1107
  H  H75  1  0.090600  0.608000  0.883000  1.0  0.1436
  H  H76  1  0.141600  0.555100  0.881100  1.0  0.1421
  H  H77  1  0.046900  0.569600  0.905600  1.0  0.1538
  H  H78  1  0.708700  0.512900  0.249700  1.0  0.0954
  H  H79  1  0.630100  0.469100  0.298300  1.0  0.1104
  H  H80  1  0.563600  0.429000  0.266200  1.0  0.1176
  H  H81  1  0.577900  0.432500  0.188100  1.0  0.1184
  H  H82  1  0.839000  0.627700  0.036900  1.0  0.1405
  H  H83  1  0.802700  0.620000  0.997400  1.0  0.1382
  H  H84  1  0.888800  0.587800  0.999800  1.0  0.1373
  H  H85  1  0.444700  0.430500  0.853700  1.0  0.0678
  H  H86  1  0.560200  0.367600  0.847800  1.0  0.117
  H  H87  1  0.506500  0.368600  0.986000  1.0  0.1192
  H  H88  1  0.390600  0.429200  0.989000  1.0  0.0926
  H  H89  1  0.658400  0.314700  0.878300  1.0  0.0812
  H  H90  1  0.604600  0.288600  0.916200  1.0  0.0867
  H  H91  1  0.662000  0.596500  0.253700  1.0  0.0955
  H  H92  1  0.617700  0.636200  0.192600  1.0  0.1115
  H  H93  1  0.487300  0.686700  0.207100  1.0  0.1087
  H  H94  1  0.399900  0.696600  0.282400  1.0  0.1119
  H  H95  1  0.516400  0.541600  0.518600  1.0  0.1173
  H  H96  1  0.609100  0.530800  0.489600  1.0  0.1285
  H  H97  1  0.567500  0.575100  0.521900  1.0  0.1258
  H  H98  1  0.979900  0.424900  0.836900  1.0  0.0733
  H  H99  1  0.919400  0.432200  0.778600  1.0  0.1171
  H  H100  1  0.139300  0.412400  0.686600  1.0  0.1163
  H  H101  1  0.192200  0.409900  0.747500  1.0  0.0669
  H  H102  1  0.948900  0.470400  0.687800  1.0  0.0715
  H  H103  1  0.026800  0.435600  0.655400  1.0  0.0602
  H  H104  1  0.898400  0.536000  0.483200  1.0  0.1046
  H  H105  1  0.930500  0.607100  0.475500  1.0  0.1276
  H  H106  1  0.875100  0.663900  0.425100  1.0  0.102
  H  H107  1  0.789600  0.652400  0.388800  1.0  0.1098
  H  H108  1  0.698600  0.383000  0.392000  1.0  0.1425
  H  H109  1  0.696700  0.381100  0.444900  1.0  0.1408
  H  H110  1  0.616500  0.405600  0.430400  1.0  0.1539
  H  H111  1  0.221600  0.749700  0.487100  1.0  0.0972
  H  H112  1  0.099200  0.798300  0.530900  1.0  0.111
  H  H113  1  0.992600  0.766200  0.571000  1.0  0.118
  H  H114  1  0.010400  0.688100  0.567500  1.0  0.12
  H  H115  1  0.466700  0.536900  0.372300  1.0  0.1441
  H  H116  1  0.422700  0.497400  0.380000  1.0  0.1377
  H  H117  1  0.476600  0.499800  0.412200  1.0  0.1382
  H  H118  1  0.875200  0.353700  0.569500  1.0  0.0678
  H  H119  1  0.927800  0.347800  0.632400  1.0  0.1173
  H  H120  1  0.875100  0.486000  0.631400  1.0  0.1165
  H  H121  1  0.819800  0.489000  0.570800  1.0  0.0928
  H  H122  1  0.973100  0.378300  0.685300  1.0  0.0774
  H  H123  1  0.893200  0.416200  0.711400  1.0  0.0891
  H  H124  1  0.012200  0.903500  0.246300  1.0  0.0957
  H  H125  1  0.946500  0.863800  0.307400  1.0  0.1119
  H  H126  1  0.881100  0.813300  0.292900  1.0  0.1076
  H  H127  1  0.878900  0.803400  0.217600  1.0  0.1125
  H  H128  1  0.076600  0.958400  0.981400  1.0  0.1164
  H  H129  1  0.129500  0.969200  0.010400  1.0  0.1258
  H  H130  1  0.164500  0.924900  0.978100  1.0  0.1255
  H  H131  1  0.741700  0.075100  0.663100  1.0  0.0759
  H  H132  1  0.630200  0.067800  0.721400  1.0  0.1181
  H  H133  1  0.738300  0.087600  0.813400  1.0  0.1156
  H  H134  1  0.849600  0.090100  0.752500  1.0  0.0653
  H  H135  1  0.607100  0.029600  0.812200  1.0  0.0689
  H  H136  1  0.617800  0.064400  0.844600  1.0  0.0585
  H  H137  1  0.417600  0.964000  0.016800  1.0  0.1034
  H  H138  1  0.513100  0.892900  0.024500  1.0  0.1268
  H  H139  1  0.464100  0.836100  0.074900  1.0  0.1019
  H  H140  1  0.330800  0.847600  0.111200  1.0  0.1095
  H  H141  1  0.973600  0.117000  0.108000  1.0  0.1428
  H  H142  1  0.022700  0.118900  0.055100  1.0  0.1408
  H  H143  1  0.952500  0.094400  0.069600  1.0  0.1532
  H  H144  1  0.958400  0.750300  0.012900  1.0  0.0964
  H  H145  1  0.928400  0.701700  0.969100  1.0  0.1117
  H  H146  1  0.829800  0.733800  0.929000  1.0  0.1162
  H  H147  1  0.766000  0.811900  0.932500  1.0  0.1187
  H  H148  1  0.875900  0.963100  0.127700  1.0  0.1443
  H  H149  1  0.800100  0.002600  0.120000  1.0  0.1363
  H  H150  1  0.888600  0.000200  0.087800  1.0  0.1405
  H  H151  1  0.298400  0.146300  0.930500  1.0  0.0686
  H  H152  1  0.408000  0.152200  0.867600  1.0  0.1178
  H  H153  1  0.492500  0.014000  0.868600  1.0  0.1179
  H  H154  1  0.379600  0.011000  0.929200  1.0  0.0919
  H  H155  1  0.536700  0.121700  0.814700  1.0  0.0808
  H  H156  1  0.520800  0.083800  0.788600  1.0  0.087
  H  H157  1  0.741500  0.246300  0.596500  1.0  0.0971
  H  H158  1  0.746100  0.307400  0.636200  1.0  0.1143
  H  H159  1  0.826000  0.292900  0.686700  1.0  0.108
  H  H160  1  0.903500  0.217600  0.696600  1.0  0.1128
  H  H161  1  0.942000  0.981400  0.541600  1.0  0.1184
  H  H162  1  0.860100  0.010400  0.530800  1.0  0.1265
  H  H163  1  0.857400  0.978100  0.575100  1.0  0.1266
  H  H164  1  0.595200  0.663100  0.424900  1.0  0.074
  H  H165  1  0.648400  0.721400  0.432200  1.0  0.1178
  H  H166  1  0.448300  0.813400  0.412400  1.0  0.1158
  H  H167  1  0.397900  0.752500  0.409900  1.0  0.0661
  H  H168  1  0.580700  0.812200  0.470400  1.0  0.0737
  H  H169  1  0.537600  0.844600  0.435600  1.0  0.0615
  H  H170  1  0.565600  0.016800  0.536000  1.0  0.1048
  H  H171  1  0.462400  0.024500  0.607100  1.0  0.1279
  H  H172  1  0.461000  0.074900  0.663900  1.0  0.1035
  H  H173  1  0.558000  0.111200  0.652400  1.0  0.1111
  H  H174  1  0.918400  0.108000  0.383000  1.0  0.1438
  H  H175  1  0.922200  0.055100  0.381100  1.0  0.1424
  H  H176  1  0.977900  0.069600  0.405600  1.0  0.1517
  H  H177  1  0.028700  0.012900  0.749700  1.0  0.0953
  H  H178  1  0.102500  0.969100  0.798300  1.0  0.1105
  H  H179  1  0.241200  0.929000  0.766200  1.0  0.1178
  H  H180  1  0.301500  0.932500  0.688100  1.0  0.1199
  H  H181  1  0.996400  0.127700  0.536900  1.0  0.1429
  H  H182  1  0.079900  0.120000  0.497400  1.0  0.1377
  H  H183  1  0.023600  0.087800  0.499800  1.0  0.1373
  H  H184  1  0.771100  0.930500  0.353700  1.0  0.0673
  H  H185  1  0.724400  0.867600  0.347800  1.0  0.1174
  H  H186  1  0.638900  0.868600  0.486000  1.0  0.1192
  H  H187  1  0.691200  0.929200  0.489000  1.0  0.0927
  H  H188  1  0.648600  0.814700  0.378300  1.0  0.0812
  H  H189  1  0.690600  0.788600  0.416200  1.0  0.0856
  H  H190  1  0.084300  0.253700  0.903500  1.0  0.0953
  H  H191  1  0.189700  0.192600  0.863800  1.0  0.1156
  H  H192  1  0.305600  0.207100  0.813300  1.0  0.1074
  H  H193  1  0.317700  0.282400  0.803400  1.0  0.1122
  H  H194  1  0.965000  0.518600  0.958400  1.0  0.1154
  H  H195  1  0.901300  0.489600  0.969200  1.0  0.1248
  H  H196  1  0.910600  0.521900  0.924900  1.0  0.1259
  H  H197  1  0.183200  0.836900  0.075100  1.0  0.0738
  H  H198  1  0.302000  0.778600  0.067800  1.0  0.1181
  H  H199  1  0.174100  0.686600  0.087600  1.0  0.1155
  H  H200  1  0.060300  0.747500  0.090100  1.0  0.0664
  H  H201  1  0.363300  0.687800  0.029600  1.0  0.075
  H  H202  1  0.317800  0.655400  0.064400  1.0  0.0602
  H  H203  1  0.618400  0.483200  0.964000  1.0  0.1038
  H  H204  1  0.594000  0.475500  0.892900  1.0  0.1288
  H  H205  1  0.699800  0.425100  0.836100  1.0  0.1023
  H  H206  1  0.821600  0.388800  0.847600  1.0  0.1102
  H  H207  1  0.909400  0.392000  0.117000  1.0  0.146
  H  H208  1  0.858400  0.444900  0.118900  1.0  0.1423
  H  H209  1  0.953100  0.430400  0.094400  1.0  0.1533
  H  H210  1  0.291300  0.487100  0.750300  1.0  0.0946
  H  H211  1  0.369900  0.530900  0.701700  1.0  0.1102
  H  H212  1  0.436400  0.571000  0.733800  1.0  0.1183
  H  H213  1  0.422100  0.567500  0.811900  1.0  0.1188
  H  H214  1  0.161000  0.372300  0.963100  1.0  0.1415
  H  H215  1  0.197300  0.380000  0.002600  1.0  0.1384
  H  H216  1  0.111200  0.412200  0.000200  1.0  0.1359
  H  H217  1  0.555300  0.569500  0.146300  1.0  0.0675
  H  H218  1  0.439800  0.632400  0.152200  1.0  0.1172
  H  H219  1  0.493500  0.631400  0.014000  1.0  0.1196
  H  H220  1  0.609400  0.570800  0.011000  1.0  0.093
  H  H221  1  0.341600  0.685300  0.121700  1.0  0.0811
  H  H222  1  0.395400  0.711400  0.083800  1.0  0.0857
  H  H223  1  0.338000  0.403500  0.746300  1.0  0.0951
  H  H224  1  0.382300  0.363800  0.807400  1.0  0.1123
  H  H225  1  0.512700  0.313300  0.792900  1.0  0.1092
  H  H226  1  0.600100  0.303400  0.717600  1.0  0.1127
  H  H227  1  0.483600  0.458400  0.481400  1.0  0.1184
  H  H228  1  0.390900  0.469200  0.510400  1.0  0.1271
  H  H229  1  0.432500  0.424900  0.478100  1.0  0.1253
  H  H230  1  0.020100  0.575100  0.163100  1.0  0.0737
  H  H231  1  0.080600  0.567800  0.221400  1.0  0.1177
  H  H232  1  0.860700  0.587600  0.313400  1.0  0.1154
  H  H233  1  0.807800  0.590100  0.252500  1.0  0.0669
  H  H234  1  0.051100  0.529600  0.312200  1.0  0.069
  H  H235  1  0.973200  0.564400  0.344600  1.0  0.0566
  H  H236  1  0.101600  0.464000  0.516800  1.0  0.1045
  H  H237  1  0.069500  0.392900  0.524500  1.0  0.1266
  H  H238  1  0.124900  0.336100  0.574900  1.0  0.1023
  H  H239  1  0.210400  0.347600  0.611200  1.0  0.1101
  H  H240  1  0.301400  0.617000  0.608000  1.0  0.1429
  H  H241  1  0.303300  0.618900  0.555100  1.0  0.1408
  H  H242  1  0.383500  0.594400  0.569600  1.0  0.1506
  H  H243  1  0.778400  0.250300  0.512900  1.0  0.0966
  H  H244  1  0.900800  0.201700  0.469100  1.0  0.1111
  H  H245  1  0.007400  0.233800  0.429000  1.0  0.1173
  H  H246  1  0.989600  0.311900  0.432500  1.0  0.1196
  H  H247  1  0.533300  0.463100  0.627700  1.0  0.1449
  H  H248  1  0.577300  0.502600  0.620000  1.0  0.1375
  H  H249  1  0.523400  0.500200  0.587800  1.0  0.1393
  H  H250  1  0.124800  0.646300  0.430500  1.0  0.0677
  H  H251  1  0.072200  0.652200  0.367600  1.0  0.1178
  H  H252  1  0.124900  0.514000  0.368600  1.0  0.1167
  H  H253  1  0.180200  0.511000  0.429200  1.0  0.0922
  H  H254  1  0.026900  0.621700  0.314700  1.0  0.0809
  H  H255  1  0.106800  0.583800  0.288600  1.0  0.0881
  H  H256  1  0.987800  0.096500  0.753700  1.0  0.0963
  H  H257  1  0.053500  0.136200  0.692600  1.0  0.1108
  H  H258  1  0.118900  0.186700  0.707100  1.0  0.1079
  H  H259  1  0.121100  0.196600  0.782400  1.0  0.1121
  H  H260  1  0.923400  0.041600  0.018600  1.0  0.1161
  H  H261  1  0.870500  0.030800  0.989600  1.0  0.1259
  H  H262  1  0.835500  0.075100  0.021900  1.0  0.1249
  H  H263  1  0.258300  0.924900  0.336900  1.0  0.0748
  H  H264  1  0.369800  0.932200  0.278600  1.0  0.1178
  H  H265  1  0.261700  0.912400  0.186600  1.0  0.117
  H  H266  1  0.150400  0.909900  0.247500  1.0  0.0654
  H  H267  1  0.392900  0.970400  0.187800  1.0  0.0715
  H  H268  1  0.382200  0.935600  0.155400  1.0  0.0591
  H  H269  1  0.582400  0.036000  0.983200  1.0  0.104
  H  H270  1  0.486900  0.107100  0.975500  1.0  0.1295
  H  H271  1  0.535900  0.163900  0.925100  1.0  0.1023
  H  H272  1  0.669200  0.152400  0.888800  1.0  0.1097
  H  H273  1  0.026400  0.883000  0.892000  1.0  0.1429
  H  H274  1  0.977300  0.881100  0.944900  1.0  0.1399
  H  H275  1  0.047500  0.905600  0.930400  1.0  0.1532
  H  H276  1  0.041600  0.249700  0.987100  1.0  0.0963
  H  H277  1  0.071600  0.298300  0.030900  1.0  0.1116
  H  H278  1  0.170200  0.266200  0.071000  1.0  0.117
  H  H279  1  0.234000  0.188100  0.067500  1.0  0.1186
  H  H280  1  0.124100  0.036900  0.872300  1.0  0.1435
  H  H281  1  0.199900  0.997400  0.880000  1.0  0.1373
  H  H282  1  0.111400  0.999800  0.912200  1.0  0.1392
  H  H283  1  0.701600  0.853700  0.069500  1.0  0.0676
  H  H284  1  0.592000  0.847800  0.132400  1.0  0.1177
  H  H285  1  0.507500  0.986000  0.131400  1.0  0.1178
  H  H286  1  0.620400  0.989000  0.070800  1.0  0.0924
  H  H287  1  0.463300  0.878300  0.185300  1.0  0.0779
  H  H288  1  0.479200  0.916200  0.211400  1.0  0.0884
  C  C289  1  0.128800  0.814100  0.347700  1.0  0.2733
  C  C290  1  0.177800  0.805600  0.378800  1.0  -0.0949
  C  C291  1  0.225100  0.759500  0.383700  1.0  -0.0672
  C  C292  1  0.223000  0.723000  0.359800  1.0  -0.0607
  C  C293  1  0.175200  0.731700  0.329900  1.0  -0.0807
  C  C294  1  0.128500  0.777100  0.323900  1.0  -0.2345
  C  C295  1  0.182200  0.841900  0.406500  1.0  0.556
  C  C296  1  0.118300  0.961700  0.416700  1.0  0.6106
  C  C297  1  0.114400  0.001400  0.444800  1.0  -0.4383
  C  C298  1  0.436000  0.306100  0.576500  1.0  0.1883
  C  C299  1  0.403700  0.271100  0.571900  1.0  -0.2547
  C  C300  1  0.448200  0.225100  0.573300  1.0  0.0993
  C  C301  1  0.521600  0.217000  0.583000  1.0  -0.2398
  C  C302  1  0.550200  0.254200  0.585800  1.0  0.202
  C  C303  1  0.421900  0.184700  0.561700  1.0  -0.1161
  C  C304  1  0.379400  0.910600  0.414600  1.0  0.3349
  C  C305  1  0.374600  0.941500  0.448700  1.0  -0.1092
  C  C306  1  0.435600  0.964200  0.440600  1.0  -0.0707
  C  C307  1  0.498000  0.959600  0.398400  1.0  -0.1382
  C  C308  1  0.497800  0.929400  0.364400  1.0  -0.0902
  C  C309  1  0.441100  0.907100  0.371500  1.0  -0.2115
  C  C310  1  0.310700  0.950600  0.493000  1.0  0.5215
  C  C311  1  0.142200  0.915700  0.553900  1.0  0.4905
  C  C312  1  0.074700  0.921300  0.600300  1.0  -0.4743
  C  C313  1  0.798000  0.026000  0.331200  1.0  0.2702
  C  C314  1  0.882200  0.000900  0.310700  1.0  -0.1578
  C  C315  1  0.916500  0.003500  0.263100  1.0  -0.0649
  C  C316  1  0.872500  0.029500  0.233700  1.0  -0.0944
  C  C317  1  0.789500  0.053600  0.253000  1.0  -0.1138
  C  C318  1  0.753800  0.051600  0.299800  1.0  -0.1963
  C  C319  1  0.931700  0.971200  0.339000  1.0  0.6007
  C  C320  1  0.914800  0.928800  0.451000  1.0  0.5641
  C  C321  1  0.957500  0.895300  0.482100  1.0  -0.4775
  C  C322  1  0.256900  0.081700  0.618900  1.0  0.1895
  C  C323  1  0.284800  0.120200  0.622800  1.0  -0.2029
  C  C324  1  0.324800  0.139000  0.584000  1.0  0.0791
  C  C325  1  0.334000  0.119400  0.541800  1.0  -0.2052
  C  C326  1  0.303900  0.082000  0.540200  1.0  0.1693
  C  C327  1  0.350700  0.183700  0.589500  1.0  -0.1336
  C  C328  1  0.790600  0.685900  0.152300  1.0  0.2724
  C  C329  1  0.862200  0.694400  0.121200  1.0  -0.0956
  C  C330  1  0.868300  0.740500  0.116300  1.0  -0.0698
  C  C331  1  0.805800  0.777000  0.140200  1.0  -0.0635
  C  C332  1  0.736800  0.768300  0.170100  1.0  -0.0831
  C  C333  1  0.729500  0.722900  0.176100  1.0  -0.2324
  C  C334  1  0.930600  0.658100  0.093500  1.0  0.5562
  C  C335  1  0.996700  0.538300  0.083300  1.0  0.6084
  C  C336  1  0.060600  0.498600  0.055200  1.0  -0.4421
  C  C337  1  0.818600  0.193900  0.923500  1.0  0.1889
  C  C338  1  0.746700  0.228900  0.928100  1.0  -0.256
  C  C339  1  0.746600  0.274900  0.926700  1.0  0.101
  C  C340  1  0.821600  0.283000  0.917000  1.0  -0.2396
  C  C341  1  0.890200  0.245800  0.914200  1.0  0.2017
  C  C342  1  0.668300  0.315300  0.938300  1.0  -0.1158
  C  C343  1  0.204600  0.589400  0.085400  1.0  0.3365
  C  C344  1  0.264800  0.558500  0.051300  1.0  -0.112
  C  C345  1  0.340400  0.535800  0.059400  1.0  -0.069
  C  C346  1  0.356000  0.540400  0.101600  1.0  -0.1411
  C  C347  1  0.291600  0.570600  0.135600  1.0  -0.0841
  C  C348  1  0.219700  0.592900  0.128500  1.0  -0.2158
  C  C349  1  0.254300  0.549400  0.007000  1.0  0.5191
  C  C350  1  0.111800  0.584300  0.946100  1.0  0.4891
  C  C351  1  0.096300  0.578700  0.899700  1.0  -0.4805
  C  C352  1  0.655200  0.474000  0.168800  1.0  0.2713
  C  C353  1  0.693800  0.499100  0.189300  1.0  -0.1603
  C  C354  1  0.683100  0.496500  0.236900  1.0  -0.065
  C  C355  1  0.635700  0.470500  0.266300  1.0  -0.0955
  C  C356  1  0.596100  0.446400  0.247000  1.0  -0.1155
  C  C357  1  0.605200  0.448400  0.200200  1.0  -0.1941
  C  C358  1  0.741900  0.528800  0.161000  1.0  0.6006
  C  C359  1  0.794600  0.571200  0.049000  1.0  0.5628
  C  C360  1  0.834900  0.604700  0.017900  1.0  -0.479
  C  C361  1  0.457500  0.418300  0.881100  1.0  0.1859
  C  C362  1  0.527800  0.379800  0.877200  1.0  -0.2023
  C  C363  1  0.547800  0.361000  0.916000  1.0  0.0794
  C  C364  1  0.495200  0.380600  0.958200  1.0  -0.2111
  C  C365  1  0.426100  0.418000  0.959800  1.0  0.1684
  C  C366  1  0.623900  0.316300  0.910500  1.0  -0.1347
  C  C367  1  0.476500  0.652300  0.314100  1.0  0.2751
  C  C368  1  0.556600  0.621200  0.305600  1.0  -0.0967
  C  C369  1  0.608800  0.616300  0.259500  1.0  -0.0668
  C  C370  1  0.582800  0.640200  0.223000  1.0  -0.0635
  C  C371  1  0.505100  0.670100  0.231700  1.0  -0.0819
  C  C372  1  0.452400  0.676100  0.277100  1.0  -0.2334
  C  C373  1  0.588700  0.593500  0.341900  1.0  0.556
  C  C374  1  0.535000  0.583300  0.461700  1.0  0.6105
  C  C375  1  0.559200  0.555200  0.501400  1.0  -0.4415
  C  C376  1  0.012500  0.423500  0.806100  1.0  0.1915
  C  C377  1  0.975600  0.428100  0.771100  1.0  -0.255
  C  C378  1  0.021500  0.426700  0.725100  1.0  0.1006
  C  C379  1  0.104600  0.417000  0.717000  1.0  -0.238
  C  C380  1  0.136000  0.414200  0.754200  1.0  0.2018
  C  C381  1  0.983600  0.438300  0.684700  1.0  -0.1202
  C  C382  1  0.794000  0.585400  0.410600  1.0  0.3341
  C  C383  1  0.823300  0.551300  0.441500  1.0  -0.1093
  C  C384  1  0.876200  0.559400  0.464200  1.0  -0.0683
  C  C385  1  0.896400  0.601600  0.459600  1.0  -0.1353
  C  C386  1  0.862200  0.635600  0.429400  1.0  -0.0935
  C  C387  1  0.812600  0.628500  0.407100  1.0  -0.21
  C  C388  1  0.803700  0.507000  0.450600  1.0  0.5199
  C  C389  1  0.696100  0.446100  0.415700  1.0  0.4884
  C  C390  1  0.675000  0.399700  0.421300  1.0  -0.4818
  C  C391  1  0.129200  0.668800  0.526000  1.0  0.2658
  C  C392  1  0.192900  0.689300  0.500900  1.0  -0.1595
  C  C393  1  0.179600  0.736900  0.503500  1.0  -0.0655
  C  C394  1  0.106200  0.766300  0.529500  1.0  -0.0945
  C  C395  1  0.042500  0.747000  0.553600  1.0  -0.1164
  C  C396  1  0.053600  0.700200  0.551600  1.0  -0.194
  C  C397  1  0.270700  0.661000  0.471200  1.0  0.5996
  C  C398  1  0.365800  0.549000  0.428800  1.0  0.5624
  C  C399  1  0.439600  0.517900  0.395300  1.0  -0.4784
  C  C400  1  0.875800  0.381100  0.581700  1.0  0.1902
  C  C401  1  0.907600  0.377200  0.620200  1.0  -0.2072
  C  C402  1  0.908800  0.416000  0.639000  1.0  0.0797
  C  C403  1  0.875800  0.458200  0.619400  1.0  -0.2148
  C  C404  1  0.844100  0.459800  0.582000  1.0  0.1683
  C  C405  1  0.940200  0.410500  0.683700  1.0  -0.1421
  C  C406  1  0.942900  0.847700  0.185900  1.0  0.2779
  C  C407  1  0.983400  0.878800  0.194400  1.0  -0.0968
  C  C408  1  0.984600  0.883700  0.240500  1.0  -0.0678
  C  C409  1  0.946000  0.859800  0.277000  1.0  -0.0601
  C  C410  1  0.906900  0.829900  0.268300  1.0  -0.0824
  C  C411  1  0.905600  0.823900  0.222900  1.0  -0.2296
  C  C412  1  0.024100  0.906500  0.158100  1.0  0.5576
  C  C413  1  0.080000  0.916700  0.038300  1.0  0.6077
  C  C414  1  0.115800  0.944800  0.998600  1.0  -0.4396
  C  C415  1  0.742100  0.076500  0.693900  1.0  0.1887
  C  C416  1  0.674800  0.071900  0.728900  1.0  -0.2511
  C  C417  1  0.673300  0.073300  0.774900  1.0  0.1001
  C  C418  1  0.738600  0.083000  0.783000  1.0  -0.2371
  C  C419  1  0.804400  0.085800  0.745800  1.0  0.2025
  C  C420  1  0.606600  0.061700  0.815300  1.0  -0.1212
  C  C421  1  0.290000  0.914600  0.089400  1.0  0.3339
  C  C422  1  0.316100  0.948700  0.058500  1.0  -0.1097
  C  C423  1  0.399800  0.940600  0.035800  1.0  -0.0689
  C  C424  1  0.457600  0.898400  0.040400  1.0  -0.1398
  C  C425  1  0.427200  0.864400  0.070600  1.0  -0.0952
  C  C426  1  0.348200  0.871500  0.092900  1.0  -0.2144
  C  C427  1  0.261300  0.993000  0.049400  1.0  0.5192
  C  C428  1  0.057900  0.053900  0.084300  1.0  0.4883
  C  C429  1  0.996000  0.100300  0.078700  1.0  -0.479
  C  C430  1  0.824000  0.831200  0.974000  1.0  0.2684
  C  C431  1  0.883100  0.810700  0.999100  1.0  -0.1611
  C  C432  1  0.920000  0.763100  0.996500  1.0  -0.0633
  C  C433  1  0.902000  0.733700  0.970500  1.0  -0.0951
  C  C434  1  0.843100  0.753000  0.946400  1.0  -0.1129
  C  C435  1  0.805400  0.799800  0.948400  1.0  -0.1922
  C  C436  1  0.902900  0.839000  0.028800  1.0  0.6008
  C  C437  1  0.843600  0.951000  0.071200  1.0  0.5648
  C  C438  1  0.852800  0.982100  0.104700  1.0  -0.4796
  C  C439  1  0.338600  0.118900  0.918300  1.0  0.1877
  C  C440  1  0.405000  0.122800  0.879800  1.0  -0.2051
  C  C441  1  0.463800  0.084000  0.861000  1.0  0.0803
  C  C442  1  0.453400  0.041800  0.880600  1.0  -0.2138
  C  C443  1  0.385900  0.040200  0.918000  1.0  0.1663
  C  C444  1  0.534400  0.089500  0.816300  1.0  -0.136
  C  C445  1  0.871200  0.185900  0.652300  1.0  0.2736
  C  C446  1  0.822200  0.194400  0.621200  1.0  -0.0956
  C  C447  1  0.774900  0.240500  0.616300  1.0  -0.0665
  C  C448  1  0.777000  0.277000  0.640200  1.0  -0.0625
  C  C449  1  0.824800  0.268300  0.670100  1.0  -0.0831
  C  C450  1  0.871500  0.222900  0.676100  1.0  -0.2335
  C  C451  1  0.817800  0.158100  0.593500  1.0  0.5564
  C  C452  1  0.881700  0.038300  0.583300  1.0  0.6095
  C  C453  1  0.885600  0.998600  0.555200  1.0  -0.4402
  C  C454  1  0.564000  0.693900  0.423500  1.0  0.1892
  C  C455  1  0.596300  0.728900  0.428100  1.0  -0.2558
  C  C456  1  0.551800  0.774900  0.426700  1.0  0.0998
  C  C457  1  0.478400  0.783000  0.417000  1.0  -0.2396
  C  C458  1  0.449800  0.745800  0.414200  1.0  0.2011
  C  C459  1  0.578100  0.815300  0.438300  1.0  -0.1175
  C  C460  1  0.620600  0.089400  0.585400  1.0  0.3347
  C  C461  1  0.625400  0.058500  0.551300  1.0  -0.11
  C  C462  1  0.564400  0.035800  0.559400  1.0  -0.0723
  C  C463  1  0.502000  0.040400  0.601600  1.0  -0.1389
  C  C464  1  0.502200  0.070600  0.635600  1.0  -0.0908
  C  C465  1  0.558900  0.092900  0.628500  1.0  -0.2098
  C  C466  1  0.689300  0.049400  0.507000  1.0  0.5198
  C  C467  1  0.857800  0.084300  0.446100  1.0  0.4911
  C  C468  1  0.925300  0.078700  0.399700  1.0  -0.4777
  C  C469  1  0.202000  0.974000  0.668800  1.0  0.271
  C  C470  1  0.117800  0.999100  0.689300  1.0  -0.1577
  C  C471  1  0.083500  0.996500  0.736900  1.0  -0.0656
  C  C472  1  0.127500  0.970500  0.766300  1.0  -0.0962
  C  C473  1  0.210500  0.946400  0.747000  1.0  -0.115
  C  C474  1  0.246200  0.948400  0.700200  1.0  -0.1938
  C  C475  1  0.068300  0.028800  0.661000  1.0  0.6007
  C  C476  1  0.085200  0.071200  0.549000  1.0  0.5644
  C  C477  1  0.042500  0.104700  0.517900  1.0  -0.4804
  C  C478  1  0.743100  0.918300  0.381100  1.0  0.1886
  C  C479  1  0.715200  0.879800  0.377200  1.0  -0.2055
  C  C480  1  0.675200  0.861000  0.416000  1.0  0.0814
  C  C481  1  0.666000  0.880600  0.458200  1.0  -0.2082
  C  C482  1  0.696100  0.918000  0.459800  1.0  0.1687
  C  C483  1  0.649300  0.816300  0.410500  1.0  -0.1334
  C  C484  1  0.209400  0.314100  0.847700  1.0  0.2729
  C  C485  1  0.137800  0.305600  0.878800  1.0  -0.0947
  C  C486  1  0.131700  0.259500  0.883700  1.0  -0.0681
  C  C487  1  0.194200  0.223000  0.859800  1.0  -0.0623
  C  C488  1  0.263200  0.231700  0.829900  1.0  -0.0826
  C  C489  1  0.270500  0.277100  0.823900  1.0  -0.2311
  C  C490  1  0.069400  0.341900  0.906500  1.0  0.5566
  C  C491  1  0.003300  0.461700  0.916700  1.0  0.6097
  C  C492  1  0.939400  0.501400  0.944800  1.0  -0.4384
  C  C493  1  0.181400  0.806100  0.076500  1.0  0.1876
  C  C494  1  0.253300  0.771100  0.071900  1.0  -0.2568
  C  C495  1  0.253400  0.725100  0.073300  1.0  0.1006
  C  C496  1  0.178400  0.717000  0.083000  1.0  -0.2403
  C  C497  1  0.109800  0.754200  0.085800  1.0  0.2006
  C  C498  1  0.331700  0.684700  0.061700  1.0  -0.117
  C  C499  1  0.795400  0.410600  0.914600  1.0  0.3384
  C  C500  1  0.735200  0.441500  0.948700  1.0  -0.1124
  C  C501  1  0.659600  0.464200  0.940600  1.0  -0.0681
  C  C502  1  0.644000  0.459600  0.898400  1.0  -0.1398
  C  C503  1  0.708400  0.429400  0.864400  1.0  -0.0859
  C  C504  1  0.780300  0.407100  0.871500  1.0  -0.2156
  C  C505  1  0.745700  0.450600  0.993000  1.0  0.52
  C  C506  1  0.888200  0.415700  0.053900  1.0  0.4892
  C  C507  1  0.903700  0.421300  0.100300  1.0  -0.4781
  C  C508  1  0.344800  0.526000  0.831200  1.0  0.2713
  C  C509  1  0.306200  0.500900  0.810700  1.0  -0.1592
  C  C510  1  0.316900  0.503500  0.763100  1.0  -0.0646
  C  C511  1  0.364300  0.529500  0.733700  1.0  -0.0934
  C  C512  1  0.403900  0.553600  0.753000  1.0  -0.1127
  C  C513  1  0.394800  0.551600  0.799800  1.0  -0.1938
  C  C514  1  0.258100  0.471200  0.839000  1.0  0.6019
  C  C515  1  0.205400  0.428800  0.951000  1.0  0.564
  C  C516  1  0.165100  0.395300  0.982100  1.0  -0.4811
  C  C517  1  0.542500  0.581700  0.118900  1.0  0.1876
  C  C518  1  0.472200  0.620200  0.122800  1.0  -0.201
  C  C519  1  0.452200  0.639000  0.084000  1.0  0.0794
  C  C520  1  0.504800  0.619400  0.041800  1.0  -0.2124
  C  C521  1  0.573900  0.582000  0.040200  1.0  0.1682
  C  C522  1  0.376100  0.683700  0.089500  1.0  -0.1336
  C  C523  1  0.523500  0.347700  0.685900  1.0  0.277
  C  C524  1  0.443400  0.378800  0.694400  1.0  -0.0984
  C  C525  1  0.391200  0.383700  0.740500  1.0  -0.0667
  C  C526  1  0.417200  0.359800  0.777000  1.0  -0.0614
  C  C527  1  0.494900  0.329900  0.768300  1.0  -0.084
  C  C528  1  0.547600  0.323900  0.722900  1.0  -0.2313
  C  C529  1  0.411300  0.406500  0.658100  1.0  0.5566
  C  C530  1  0.465000  0.416700  0.538300  1.0  0.6097
  C  C531  1  0.440800  0.444800  0.498600  1.0  -0.4401
  C  C532  1  0.987500  0.576500  0.193900  1.0  0.1915
  C  C533  1  0.024400  0.571900  0.228900  1.0  -0.2509
  C  C534  1  0.978500  0.573300  0.274900  1.0  0.101
  C  C535  1  0.895400  0.583000  0.283000  1.0  -0.2396
  C  C536  1  0.864000  0.585800  0.245800  1.0  0.2014
  C  C537  1  0.016400  0.561700  0.315300  1.0  -0.1221
  C  C538  1  0.206000  0.414600  0.589400  1.0  0.3348
  C  C539  1  0.176700  0.448700  0.558500  1.0  -0.1092
  C  C540  1  0.123800  0.440600  0.535800  1.0  -0.0672
  C  C541  1  0.103600  0.398400  0.540400  1.0  -0.135
  C  C542  1  0.137800  0.364400  0.570600  1.0  -0.0955
  C  C543  1  0.187400  0.371500  0.592900  1.0  -0.2109
  C  C544  1  0.196300  0.493000  0.549400  1.0  0.5191
  C  C545  1  0.303900  0.553900  0.584300  1.0  0.4855
  C  C546  1  0.325000  0.600300  0.578700  1.0  -0.4806
  C  C547  1  0.870800  0.331200  0.474000  1.0  0.2683
  C  C548  1  0.807100  0.310700  0.499100  1.0  -0.16
  C  C549  1  0.820400  0.263100  0.496500  1.0  -0.0673
  C  C550  1  0.893800  0.233700  0.470500  1.0  -0.0952
  C  C551  1  0.957500  0.253000  0.446400  1.0  -0.115
  C  C552  1  0.946400  0.299800  0.448400  1.0  -0.194
  C  C553  1  0.729300  0.339000  0.528800  1.0  0.602
  C  C554  1  0.634200  0.451000  0.571200  1.0  0.5631
  C  C555  1  0.560400  0.482100  0.604700  1.0  -0.4802
  C  C556  1  0.124200  0.618900  0.418300  1.0  0.1896
  C  C557  1  0.092400  0.622800  0.379800  1.0  -0.208
  C  C558  1  0.091200  0.584000  0.361000  1.0  0.0799
  C  C559  1  0.124200  0.541800  0.380600  1.0  -0.2164
  C  C560  1  0.155900  0.540200  0.418000  1.0  0.1693
  C  C561  1  0.059800  0.589500  0.316300  1.0  -0.1411
  C  C562  1  0.057100  0.152300  0.814100  1.0  0.278
  C  C563  1  0.016600  0.121200  0.805600  1.0  -0.0957
  C  C564  1  0.015400  0.116300  0.759500  1.0  -0.0684
  C  C565  1  0.054000  0.140200  0.723000  1.0  -0.0613
  C  C566  1  0.093100  0.170100  0.731700  1.0  -0.0815
  C  C567  1  0.094400  0.176100  0.777100  1.0  -0.2315
  C  C568  1  0.975900  0.093500  0.841900  1.0  0.5576
  C  C569  1  0.920000  0.083300  0.961700  1.0  0.6076
  C  C570  1  0.884200  0.055200  0.001400  1.0  -0.4392
  C  C571  1  0.257900  0.923500  0.306100  1.0  0.1875
  C  C572  1  0.325200  0.928100  0.271100  1.0  -0.2527
  C  C573  1  0.326700  0.926700  0.225100  1.0  0.1006
  C  C574  1  0.261400  0.917000  0.217000  1.0  -0.2381
  C  C575  1  0.195600  0.914200  0.254200  1.0  0.2009
  C  C576  1  0.393400  0.938300  0.184700  1.0  -0.1192
  C  C577  1  0.710000  0.085400  0.910600  1.0  0.3342
  C  C578  1  0.683900  0.051300  0.941500  1.0  -0.1102
  C  C579  1  0.600200  0.059400  0.964200  1.0  -0.0687
  C  C580  1  0.542400  0.101600  0.959600  1.0  -0.1382
  C  C581  1  0.572800  0.135600  0.929400  1.0  -0.0936
  C  C582  1  0.651800  0.128500  0.907100  1.0  -0.2124
  C  C583  1  0.738700  0.007000  0.950600  1.0  0.5189
  C  C584  1  0.942100  0.946100  0.915700  1.0  0.4915
  C  C585  1  0.004000  0.899700  0.921300  1.0  -0.4819
  C  C586  1  0.176000  0.168800  0.026000  1.0  0.2704
  C  C587  1  0.116900  0.189300  0.000900  1.0  -0.16
  C  C588  1  0.080000  0.236900  0.003500  1.0  -0.0653
  C  C589  1  0.098000  0.266300  0.029500  1.0  -0.0947
  C  C590  1  0.156900  0.247000  0.053600  1.0  -0.1121
  C  C591  1  0.194600  0.200200  0.051600  1.0  -0.1914
  C  C592  1  0.097100  0.161000  0.971200  1.0  0.601
  C  C593  1  0.156400  0.049000  0.928800  1.0  0.5649
  C  C594  1  0.147200  0.017900  0.895300  1.0  -0.4817
  C  C595  1  0.661400  0.881100  0.081700  1.0  0.1883
  C  C596  1  0.595000  0.877200  0.120200  1.0  -0.2062
  C  C597  1  0.536200  0.916000  0.139000  1.0  0.0785
  C  C598  1  0.546600  0.958200  0.119400  1.0  -0.2166
  C  C599  1  0.614100  0.959800  0.082000  1.0  0.1672
  C  C600  1  0.465600  0.910500  0.183700  1.0  -0.1368
  N  N601  1  0.143940  0.886420  0.400500  1.0  -0.2579
  N  N602  1  0.151710  0.919090  0.428490  1.0  -0.2388
  N  N603  1  0.510000  0.298300  0.582900  1.0  -0.3335
  N  N604  1  0.251780  0.928530  0.502510  1.0  -0.2579
  N  N605  1  0.192900  0.941030  0.546370  1.0  -0.2748
  N  N606  1  0.898710  0.963890  0.383490  1.0  -0.2539
  N  N607  1  0.950200  0.931400  0.406200  1.0  -0.2466
  N  N608  1  0.268000  0.061700  0.578700  1.0  -0.326
  N  N609  1  0.930860  0.613580  0.099500  1.0  -0.2593
  N  N610  1  0.999290  0.580910  0.071510  1.0  -0.2373
  N  N611  1  0.891200  0.201700  0.917100  1.0  -0.3319
  N  N612  1  0.182820  0.571470  0.997490  1.0  -0.2603
  N  N613  1  0.180300  0.558970  0.953630  1.0  -0.2731
  N  N614  1  0.746090  0.536110  0.116510  1.0  -0.2517
  N  N615  1  0.787800  0.568600  0.093800  1.0  -0.2456
  N  N616  1  0.408400  0.438300  0.921300  1.0  -0.3271
  N  N617  1  0.544440  0.599500  0.386420  1.0  -0.2602
  N  N618  1  0.580200  0.571510  0.419090  1.0  -0.2381
  N  N619  1  0.092900  0.417100  0.798300  1.0  -0.3371
  N  N620  1  0.754290  0.497490  0.428530  1.0  -0.2585
  N  N621  1  0.739270  0.453630  0.441030  1.0  -0.2744
  N  N622  1  0.282200  0.616510  0.463890  1.0  -0.2538
  N  N623  1  0.356400  0.593800  0.431400  1.0  -0.2477
  N  N624  1  0.846700  0.421300  0.561700  1.0  -0.329
  N  N625  1  0.030360  0.900500  0.113580  1.0  -0.2594
  N  N626  1  0.070800  0.928490  0.080910  1.0  -0.2372
  N  N627  1  0.808300  0.082900  0.701700  1.0  -0.3327
  N  N628  1  0.180310  0.002510  0.071470  1.0  -0.2589
  N  N629  1  0.133930  0.046370  0.058970  1.0  -0.2735
  N  N630  1  0.862600  0.883490  0.036110  1.0  -0.2528
  N  N631  1  0.881600  0.906200  0.068600  1.0  -0.2447
  N  N632  1  0.329700  0.078700  0.938300  1.0  -0.3264
  N  N633  1  0.856060  0.113580  0.599500  1.0  -0.2597
  N  N634  1  0.848290  0.080910  0.571510  1.0  -0.2377
  N  N635  1  0.490000  0.701700  0.417100  1.0  -0.3341
  N  N636  1  0.748220  0.071470  0.497490  1.0  -0.2609
  N  N637  1  0.807100  0.058970  0.453630  1.0  -0.2753
  N  N638  1  0.101290  0.036110  0.616510  1.0  -0.2535
  N  N639  1  0.049800  0.068600  0.593800  1.0  -0.2468
  N  N640  1  0.732000  0.938300  0.421300  1.0  -0.3269
  N  N641  1  0.069140  0.386420  0.900500  1.0  -0.2588
  N  N642  1  0.000710  0.419090  0.928490  1.0  -0.2368
  N  N643  1  0.108800  0.798300  0.082900  1.0  -0.3343
  N  N644  1  0.817180  0.428530  0.002510  1.0  -0.2587
  N  N645  1  0.819700  0.441030  0.046370  1.0  -0.274
  N  N646  1  0.253910  0.463890  0.883490  1.0  -0.253
  N  N647  1  0.212200  0.431400  0.906200  1.0  -0.2465
  N  N648  1  0.591600  0.561700  0.078700  1.0  -0.3263
  N  N649  1  0.455560  0.400500  0.613580  1.0  -0.2591
  N  N650  1  0.419800  0.428490  0.580910  1.0  -0.2364
  N  N651  1  0.907100  0.582900  0.201700  1.0  -0.3365
  N  N652  1  0.245710  0.502510  0.571470  1.0  -0.2585
  N  N653  1  0.260730  0.546370  0.558970  1.0  -0.2747
  N  N654  1  0.717800  0.383490  0.536110  1.0  -0.2534
  N  N655  1  0.643600  0.406200  0.568600  1.0  -0.2471
  N  N656  1  0.153300  0.578700  0.438300  1.0  -0.3283
  N  N657  1  0.969640  0.099500  0.886420  1.0  -0.2602
  N  N658  1  0.929200  0.071510  0.919090  1.0  -0.2363
  N  N659  1  0.191700  0.917100  0.298300  1.0  -0.3346
  N  N660  1  0.819690  0.997490  0.928530  1.0  -0.2594
  N  N661  1  0.866070  0.953630  0.941030  1.0  -0.2752
  N  N662  1  0.137400  0.116510  0.963890  1.0  -0.2521
  N  N663  1  0.118400  0.093800  0.931400  1.0  -0.2456
  N  N664  1  0.670300  0.921300  0.061700  1.0  -0.3245
  O  O665  1  0.081980  0.856880  0.339760  1.0  -0.5678
  O  O666  1  0.222400  0.830190  0.437410  1.0  -0.5806
  O  O667  1  0.083290  0.970800  0.383620  1.0  -0.5876
  O  O668  1  0.329290  0.884270  0.419550  1.0  -0.5701
  O  O669  1  0.310760  0.979280  0.522600  1.0  -0.582
  O  O670  1  0.149740  0.883660  0.525460  1.0  -0.6063
  O  O671  1  0.757720  0.026420  0.375940  1.0  -0.5795
  O  O672  1  0.006830  0.951260  0.319080  1.0  -0.573
  O  O673  1  0.841270  0.955330  0.470730  1.0  -0.5662
  O  O674  1  0.778620  0.643120  0.160240  1.0  -0.5677
  O  O675  1  0.990000  0.669810  0.062590  1.0  -0.5804
  O  O676  1  0.937710  0.529200  0.116380  1.0  -0.5865
  O  O677  1  0.133110  0.615730  0.080450  1.0  -0.5698
  O  O678  1  0.312640  0.520720  0.977400  1.0  -0.5825
  O  O679  1  0.058860  0.616340  0.974540  1.0  -0.6033
  O  O680  1  0.660080  0.473580  0.124060  1.0  -0.5817
  O  O681  1  0.777170  0.548740  0.180920  1.0  -0.5745
  O  O682  1  0.767330  0.544670  0.029270  1.0  -0.5691
  O  O683  1  0.421740  0.660240  0.356880  1.0  -0.569
  O  O684  1  0.659810  0.562590  0.330190  1.0  -0.58
  O  O685  1  0.466910  0.616380  0.470800  1.0  -0.5863
  O  O686  1  0.748840  0.580450  0.384270  1.0  -0.5725
  O  O687  1  0.833360  0.477400  0.479280  1.0  -0.5823
  O  O688  1  0.675200  0.474540  0.383660  1.0  -0.6079
  O  O689  1  0.133660  0.624060  0.526420  1.0  -0.579
  O  O690  1  0.325910  0.680920  0.451260  1.0  -0.5727
  O  O691  1  0.312000  0.529270  0.455330  1.0  -0.5689
  O  O692  1  0.938860  0.839760  0.143120  1.0  -0.5704
  O  O693  1  0.052590  0.937410  0.169810  1.0  -0.5812
  O  O694  1  0.054090  0.883620  0.029200  1.0  -0.5857
  O  O695  1  0.213560  0.919550  0.115730  1.0  -0.5702
  O  O696  1  0.290040  0.022600  0.020720  1.0  -0.5804
  O  O697  1  0.033400  0.025460  0.116340  1.0  -0.6072
  O  O698  1  0.784140  0.875940  0.973580  1.0  -0.5739
  O  O699  1  0.958090  0.819080  0.048740  1.0  -0.5739
  O  O700  1  0.796600  0.970730  0.044670  1.0  -0.5679
  O  O701  1  0.918020  0.143120  0.660240  1.0  -0.5692
  O  O702  1  0.777600  0.169810  0.562590  1.0  -0.5808
  O  O703  1  0.916710  0.029200  0.616380  1.0  -0.5872
  O  O704  1  0.670710  0.115730  0.580450  1.0  -0.5697
  O  O705  1  0.689240  0.020720  0.477400  1.0  -0.5809
  O  O706  1  0.850260  0.116340  0.474540  1.0  -0.6043
  O  O707  1  0.242280  0.973580  0.624060  1.0  -0.5791
  O  O708  1  0.993170  0.048740  0.680920  1.0  -0.573
  O  O709  1  0.158730  0.044670  0.529270  1.0  -0.5652
  O  O710  1  0.221380  0.356880  0.839760  1.0  -0.5679
  O  O711  1  0.010000  0.330190  0.937410  1.0  -0.5796
  O  O712  1  0.062290  0.470800  0.883620  1.0  -0.5879
  O  O713  1  0.866890  0.384270  0.919550  1.0  -0.5697
  O  O714  1  0.687360  0.479280  0.022600  1.0  -0.5798
  O  O715  1  0.941140  0.383660  0.025460  1.0  -0.604
  O  O716  1  0.339920  0.526420  0.875940  1.0  -0.5818
  O  O717  1  0.222830  0.451260  0.819080  1.0  -0.575
  O  O718  1  0.232670  0.455330  0.970730  1.0  -0.5677
  O  O719  1  0.578260  0.339760  0.643120  1.0  -0.5691
  O  O720  1  0.340190  0.437410  0.669810  1.0  -0.5791
  O  O721  1  0.533090  0.383620  0.529200  1.0  -0.5851
  O  O722  1  0.251160  0.419550  0.615730  1.0  -0.5706
  O  O723  1  0.166640  0.522600  0.520720  1.0  -0.5806
  O  O724  1  0.324800  0.525460  0.616340  1.0  -0.6084
  O  O725  1  0.866340  0.375940  0.473580  1.0  -0.5746
  O  O726  1  0.674090  0.319080  0.548740  1.0  -0.5736
  O  O727  1  0.688000  0.470730  0.544670  1.0  -0.5666
  O  O728  1  0.061140  0.160240  0.856880  1.0  -0.5697
  O  O729  1  0.947410  0.062590  0.830190  1.0  -0.5816
  O  O730  1  0.945910  0.116380  0.970800  1.0  -0.587
  O  O731  1  0.786440  0.080450  0.884270  1.0  -0.5691
  O  O732  1  0.709960  0.977400  0.979280  1.0  -0.5797
  O  O733  1  0.966600  0.974540  0.883660  1.0  -0.6066
  O  O734  1  0.215860  0.124060  0.026420  1.0  -0.5742
  O  O735  1  0.041910  0.180920  0.951260  1.0  -0.5743
  O  O736  1  0.203400  0.029270  0.955330  1.0  -0.5679
