# generated using pymatgen
data_Dy2CoH24C48(NO2)8
_symmetry_space_group_name_H-M   'P 1'
_cell_length_a   10.99800000
_cell_length_b   32.89780000
_cell_length_c   32.89780000
_cell_angle_alpha   88.39890000
_cell_angle_beta   80.37760000
_cell_angle_gamma   80.37770000
_symmetry_Int_Tables_number   1
_chemical_formula_structural   Dy2CoH24C48(NO2)8
_chemical_formula_sum   'Dy16 Co8 H192 C384 N64 O128'
_cell_volume   11570.18734430
_cell_formula_units_Z   8
loop_
 _symmetry_equiv_pos_site_id
 _symmetry_equiv_pos_as_xyz
  1  'x, y, z'
loop_
 _atom_site_type_symbol
 _atom_site_label
 _atom_site_symmetry_multiplicity
 _atom_site_fract_x
 _atom_site_fract_y
 _atom_site_fract_z
 _atom_site_occupancy
 _atom_site_charge
  Dy  Dy1  1  0.810750  0.973440  0.171460  1.0  2.2947
  Dy  Dy2  1  0.308540  0.975560  0.175360  1.0  2.2553
  Dy  Dy3  1  0.455650  0.526560  0.328540  1.0  2.2945
  Dy  Dy4  1  0.959460  0.524440  0.324640  1.0  2.255
  Dy  Dy5  1  0.982210  0.828540  0.473440  1.0  2.2947
  Dy  Dy6  1  0.483900  0.824640  0.475560  1.0  2.2548
  Dy  Dy7  1  0.784190  0.671460  0.026560  1.0  2.2941
  Dy  Dy8  1  0.284100  0.675360  0.024440  1.0  2.2546
  Dy  Dy9  1  0.189250  0.026560  0.828540  1.0  2.2936
  Dy  Dy10  1  0.691460  0.024440  0.824640  1.0  2.2553
  Dy  Dy11  1  0.544350  0.473440  0.671460  1.0  2.2946
  Dy  Dy12  1  0.040540  0.475560  0.675360  1.0  2.2554
  Dy  Dy13  1  0.017790  0.171460  0.526560  1.0  2.2931
  Dy  Dy14  1  0.516100  0.175360  0.524440  1.0  2.2548
  Dy  Dy15  1  0.215810  0.328540  0.973440  1.0  2.2948
  Dy  Dy16  1  0.715900  0.324640  0.975560  1.0  2.2541
  Co  Co17  1  0.289510  0.128540  0.036180  1.0  0.7966
  Co  Co18  1  0.954230  0.371460  0.463820  1.0  0.7947
  Co  Co19  1  0.325690  0.963820  0.628540  1.0  0.7965
  Co  Co20  1  0.418050  0.536180  0.871460  1.0  0.7946
  Co  Co21  1  0.710490  0.871460  0.963820  1.0  0.7955
  Co  Co22  1  0.045770  0.628540  0.536180  1.0  0.7981
  Co  Co23  1  0.674310  0.036180  0.371460  1.0  0.7962
  Co  Co24  1  0.581950  0.463820  0.128540  1.0  0.798
  H  H25  1  0.663000  0.126800  0.220800  1.0  0.1227
  H  H26  1  0.825500  0.129500  0.257900  1.0  0.1123
  H  H27  1  0.844500  0.087800  0.313400  1.0  0.0735
  H  H28  1  0.418800  0.001000  0.395800  1.0  0.0652
  H  H29  1  0.310500  0.962600  0.362000  1.0  0.1127
  H  H30  1  0.363800  0.956300  0.289500  1.0  0.0897
  H  H31  1  0.537800  0.845300  0.134100  1.0  0.1172
  H  H32  1  0.649000  0.788300  0.094300  1.0  0.1106
  H  H33  1  0.750800  0.800100  0.027700  1.0  0.0635
  H  H34  1  0.640600  0.968600  0.941200  1.0  0.106
  H  H35  1  0.661200  0.028700  0.972100  1.0  0.0989
  H  H36  1  0.701900  0.026900  0.038900  1.0  0.1147
  H  H37  1  0.942700  0.017700  0.060900  1.0  0.0927
  H  H38  1  0.931500  0.061700  0.005700  1.0  0.0972
  H  H39  1  0.055100  0.112100  0.996300  1.0  0.0826
  H  H40  1  0.417300  0.139500  0.113500  1.0  0.0686
  H  H41  1  0.347100  0.149200  0.181200  1.0  0.117
  H  H42  1  0.158800  0.129600  0.210600  1.0  0.1209
  H  H43  1  0.112800  0.852600  0.138600  1.0  0.1093
  H  H44  1  0.270800  0.789200  0.134800  1.0  0.1313
  H  H45  1  0.279800  0.762500  0.202300  1.0  0.1034
  H  H46  1  0.963900  0.870600  0.367200  1.0  0.0645
  H  H47  1  0.011700  0.931100  0.373500  1.0  0.1024
  H  H48  1  0.099100  0.958300  0.312700  1.0  0.0808
  H  H49  1  0.510600  0.373200  0.279200  1.0  0.1232
  H  H50  1  0.712900  0.370500  0.242100  1.0  0.1133
  H  H51  1  0.745700  0.412200  0.186600  1.0  0.0751
  H  H52  1  0.315600  0.499000  0.104200  1.0  0.0648
  H  H53  1  0.135100  0.537400  0.138000  1.0  0.1135
  H  H54  1  0.109600  0.543700  0.210500  1.0  0.09
  H  H55  1  0.017200  0.654700  0.365900  1.0  0.1178
  H  H56  1  0.031600  0.711700  0.405700  1.0  0.1111
  H  H57  1  0.078600  0.699900  0.472300  1.0  0.0629
  H  H58  1  0.050400  0.531400  0.558800  1.0  0.1058
  H  H59  1  0.162000  0.471300  0.527900  1.0  0.0981
  H  H60  1  0.267700  0.473100  0.461100  1.0  0.1149
  H  H61  1  0.521300  0.482300  0.439100  1.0  0.0933
  H  H62  1  0.498900  0.438300  0.494300  1.0  0.0976
  H  H63  1  0.663500  0.387900  0.503700  1.0  0.083
  H  H64  1  0.170300  0.360500  0.386500  1.0  0.0675
  H  H65  1  0.177500  0.350800  0.318800  1.0  0.1172
  H  H66  1  0.999000  0.370400  0.289400  1.0  0.1207
  H  H67  1  0.604000  0.647400  0.361400  1.0  0.1088
  H  H68  1  0.694800  0.710800  0.365200  1.0  0.1306
  H  H69  1  0.744600  0.737500  0.297700  1.0  0.1041
  H  H70  1  0.701700  0.629400  0.132800  1.0  0.0663
  H  H71  1  0.816300  0.568900  0.126500  1.0  0.1025
  H  H72  1  0.870100  0.541700  0.187300  1.0  0.0812
  H  H73  1  0.883800  0.779200  0.626800  1.0  0.1231
  H  H74  1  0.083400  0.742100  0.629500  1.0  0.1131
  H  H75  1  0.157900  0.686600  0.587800  1.0  0.0748
  H  H76  1  0.814600  0.604200  0.501000  1.0  0.0653
  H  H77  1  0.672500  0.638000  0.462600  1.0  0.1129
  H  H78  1  0.653300  0.710500  0.456300  1.0  0.0898
  H  H79  1  0.671900  0.865900  0.345300  1.0  0.1166
  H  H80  1  0.743300  0.905700  0.288300  1.0  0.1093
  H  H81  1  0.778500  0.972300  0.300100  1.0  0.0638
  H  H82  1  0.581800  0.058800  0.468600  1.0  0.106
  H  H83  1  0.633300  0.027900  0.528700  1.0  0.0984
  H  H84  1  0.740800  0.961100  0.526900  1.0  0.1142
  H  H85  1  0.003600  0.939100  0.517700  1.0  0.0938
  H  H86  1  0.937200  0.994300  0.561700  1.0  0.098
  H  H87  1  0.051400  0.003700  0.612100  1.0  0.0822
  H  H88  1  0.530800  0.886500  0.639500  1.0  0.069
  H  H89  1  0.528300  0.818800  0.649200  1.0  0.1164
  H  H90  1  0.369400  0.789400  0.629600  1.0  0.1204
  H  H91  1  0.251400  0.861400  0.352600  1.0  0.1109
  H  H92  1  0.405600  0.865200  0.289200  1.0  0.1312
  H  H93  1  0.482100  0.797700  0.262500  1.0  0.1037
  H  H94  1  0.331100  0.632800  0.370600  1.0  0.0658
  H  H95  1  0.385200  0.626500  0.431100  1.0  0.1036
  H  H96  1  0.411800  0.687300  0.458300  1.0  0.0823
  H  H97  1  0.789800  0.720800  0.873200  1.0  0.1214
  H  H98  1  0.955000  0.757900  0.870500  1.0  0.1129
  H  H99  1  0.932300  0.813400  0.912200  1.0  0.0738
  H  H100  1  0.419800  0.895800  0.999000  1.0  0.0643
  H  H101  1  0.273100  0.862000  0.037400  1.0  0.1133
  H  H102  1  0.320100  0.789500  0.043700  1.0  0.09
  H  H103  1  0.383100  0.634100  0.154700  1.0  0.1166
  H  H104  1  0.437300  0.594300  0.211700  1.0  0.1099
  H  H105  1  0.550900  0.527700  0.199900  1.0  0.0639
  H  H106  1  0.609200  0.441200  0.031400  1.0  0.1074
  H  H107  1  0.689900  0.472100  0.971300  1.0  0.098
  H  H108  1  0.728800  0.538900  0.973100  1.0  0.1147
  H  H109  1  0.960400  0.560900  0.982300  1.0  0.093
  H  H110  1  0.993200  0.505700  0.938300  1.0  0.098
  H  H111  1  0.167200  0.496300  0.887900  1.0  0.0817
  H  H112  1  0.556800  0.613500  0.860500  1.0  0.0684
  H  H113  1  0.496300  0.681200  0.850800  1.0  0.1174
  H  H114  1  0.288400  0.710600  0.870400  1.0  0.1204
  H  H115  1  0.965400  0.638600  0.147400  1.0  0.1103
  H  H116  1  0.060000  0.634800  0.210800  1.0  0.131
  H  H117  1  0.042300  0.702300  0.237500  1.0  0.1028
  H  H118  1  0.834500  0.867200  0.129400  1.0  0.0647
  H  H119  1  0.942800  0.873500  0.068900  1.0  0.1056
  H  H120  1  0.057400  0.812700  0.041700  1.0  0.0813
  H  H121  1  0.337000  0.873200  0.779200  1.0  0.1226
  H  H122  1  0.174500  0.870500  0.742100  1.0  0.1123
  H  H123  1  0.155500  0.912200  0.686600  1.0  0.074
  H  H124  1  0.581200  0.999000  0.604200  1.0  0.0646
  H  H125  1  0.689500  0.037400  0.638000  1.0  0.1129
  H  H126  1  0.636200  0.043700  0.710500  1.0  0.0899
  H  H127  1  0.462200  0.154700  0.865900  1.0  0.1178
  H  H128  1  0.351000  0.211700  0.905700  1.0  0.1123
  H  H129  1  0.249200  0.199900  0.972300  1.0  0.0634
  H  H130  1  0.359400  0.031400  0.058800  1.0  0.1057
  H  H131  1  0.338800  0.971300  0.027900  1.0  0.0985
  H  H132  1  0.298100  0.973100  0.961100  1.0  0.1144
  H  H133  1  0.057300  0.982300  0.939100  1.0  0.0927
  H  H134  1  0.068500  0.938300  0.994300  1.0  0.0971
  H  H135  1  0.944900  0.887900  0.003700  1.0  0.0822
  H  H136  1  0.582700  0.860500  0.886500  1.0  0.0675
  H  H137  1  0.652900  0.850800  0.818800  1.0  0.1172
  H  H138  1  0.841200  0.870400  0.789400  1.0  0.1208
  H  H139  1  0.887200  0.147400  0.861400  1.0  0.1087
  H  H140  1  0.729200  0.210800  0.865200  1.0  0.1299
  H  H141  1  0.720200  0.237500  0.797700  1.0  0.1048
  H  H142  1  0.036100  0.129400  0.632800  1.0  0.0651
  H  H143  1  0.988300  0.068900  0.626500  1.0  0.104
  H  H144  1  0.900900  0.041700  0.687300  1.0  0.0812
  H  H145  1  0.489400  0.626800  0.720800  1.0  0.123
  H  H146  1  0.287100  0.629500  0.757900  1.0  0.1132
  H  H147  1  0.254300  0.587800  0.813400  1.0  0.0738
  H  H148  1  0.684400  0.501000  0.895800  1.0  0.0643
  H  H149  1  0.864900  0.462600  0.862000  1.0  0.1133
  H  H150  1  0.890400  0.456300  0.789500  1.0  0.0898
  H  H151  1  0.982800  0.345300  0.634100  1.0  0.1171
  H  H152  1  0.968400  0.288300  0.594300  1.0  0.1109
  H  H153  1  0.921400  0.300100  0.527700  1.0  0.0633
  H  H154  1  0.949600  0.468600  0.441200  1.0  0.1069
  H  H155  1  0.838000  0.528700  0.472100  1.0  0.0987
  H  H156  1  0.732300  0.526900  0.538900  1.0  0.1153
  H  H157  1  0.478700  0.517700  0.560900  1.0  0.0934
  H  H158  1  0.501100  0.561700  0.505700  1.0  0.0974
  H  H159  1  0.336500  0.612100  0.496300  1.0  0.0844
  H  H160  1  0.829700  0.639500  0.613500  1.0  0.0683
  H  H161  1  0.822500  0.649200  0.681200  1.0  0.1172
  H  H162  1  0.001000  0.629600  0.710600  1.0  0.1209
  H  H163  1  0.396000  0.352600  0.638600  1.0  0.1083
  H  H164  1  0.305200  0.289200  0.634800  1.0  0.1318
  H  H165  1  0.255400  0.262500  0.702300  1.0  0.1026
  H  H166  1  0.298300  0.370600  0.867200  1.0  0.0658
  H  H167  1  0.183700  0.431100  0.873500  1.0  0.1043
  H  H168  1  0.129900  0.458300  0.812700  1.0  0.0809
  H  H169  1  0.116200  0.220800  0.373200  1.0  0.1221
  H  H170  1  0.916600  0.257900  0.370500  1.0  0.1131
  H  H171  1  0.842100  0.313400  0.412200  1.0  0.0744
  H  H172  1  0.185400  0.395800  0.499000  1.0  0.0647
  H  H173  1  0.327500  0.362000  0.537400  1.0  0.1128
  H  H174  1  0.346700  0.289500  0.543700  1.0  0.0897
  H  H175  1  0.328100  0.134100  0.654700  1.0  0.1169
  H  H176  1  0.256700  0.094300  0.711700  1.0  0.1097
  H  H177  1  0.221500  0.027700  0.699900  1.0  0.0637
  H  H178  1  0.418200  0.941200  0.531400  1.0  0.1067
  H  H179  1  0.366700  0.972100  0.471300  1.0  0.0971
  H  H180  1  0.259200  0.038900  0.473100  1.0  0.1141
  H  H181  1  0.996400  0.060900  0.482300  1.0  0.0939
  H  H182  1  0.062800  0.005700  0.438300  1.0  0.0979
  H  H183  1  0.948600  0.996300  0.387900  1.0  0.0826
  H  H184  1  0.469200  0.113500  0.360500  1.0  0.0686
  H  H185  1  0.471700  0.181200  0.350800  1.0  0.1165
  H  H186  1  0.630600  0.210600  0.370400  1.0  0.1207
  H  H187  1  0.748600  0.138600  0.647400  1.0  0.1108
  H  H188  1  0.594400  0.134800  0.710800  1.0  0.1313
  H  H189  1  0.517900  0.202300  0.737500  1.0  0.1034
  H  H190  1  0.668900  0.367200  0.629400  1.0  0.0653
  H  H191  1  0.614800  0.373500  0.568900  1.0  0.106
  H  H192  1  0.588200  0.312700  0.541700  1.0  0.0817
  H  H193  1  0.210200  0.279200  0.126800  1.0  0.1224
  H  H194  1  0.045000  0.242100  0.129500  1.0  0.1132
  H  H195  1  0.067700  0.186600  0.087800  1.0  0.0734
  H  H196  1  0.580200  0.104200  0.001000  1.0  0.0646
  H  H197  1  0.726900  0.138000  0.962600  1.0  0.1137
  H  H198  1  0.679900  0.210500  0.956300  1.0  0.0894
  H  H199  1  0.616900  0.365900  0.845300  1.0  0.1169
  H  H200  1  0.562700  0.405700  0.788300  1.0  0.1104
  H  H201  1  0.449100  0.472300  0.800100  1.0  0.0648
  H  H202  1  0.390800  0.558800  0.968600  1.0  0.1068
  H  H203  1  0.310100  0.527900  0.028700  1.0  0.0989
  H  H204  1  0.271200  0.461100  0.026900  1.0  0.1146
  H  H205  1  0.039600  0.439100  0.017700  1.0  0.0929
  H  H206  1  0.006800  0.494300  0.061700  1.0  0.0983
  H  H207  1  0.832800  0.503700  0.112100  1.0  0.0808
  H  H208  1  0.443200  0.386500  0.139500  1.0  0.0685
  H  H209  1  0.503700  0.318800  0.149200  1.0  0.1172
  H  H210  1  0.711600  0.289400  0.129600  1.0  0.1203
  H  H211  1  0.034600  0.361400  0.852600  1.0  0.1105
  H  H212  1  0.940000  0.365200  0.789200  1.0  0.1314
  H  H213  1  0.957700  0.297700  0.762500  1.0  0.1048
  H  H214  1  0.165500  0.132800  0.870600  1.0  0.0656
  H  H215  1  0.057200  0.126500  0.931100  1.0  0.1058
  H  H216  1  0.942600  0.187300  0.958300  1.0  0.0814
  C  C217  1  0.488600  0.078900  0.230500  1.0  0.6917
  C  C218  1  0.595400  0.079900  0.254700  1.0  -0.0679
  C  C219  1  0.674400  0.109200  0.242800  1.0  -0.1297
  C  C220  1  0.770000  0.111000  0.265400  1.0  -0.1867
  C  C221  1  0.781500  0.085600  0.298400  1.0  0.1614
  C  C222  1  0.614800  0.054600  0.288200  1.0  0.1083
  C  C223  1  0.530800  0.024600  0.305800  1.0  0.1524
  C  C224  1  0.432600  0.000900  0.367100  1.0  0.1636
  C  C225  1  0.370500  0.976600  0.347200  1.0  -0.1213
  C  C226  1  0.400200  0.973600  0.303800  1.0  -0.031
  C  C227  1  0.485300  0.997400  0.282800  1.0  -0.1204
  C  C228  1  0.531200  0.988800  0.237400  1.0  0.7033
  C  C229  1  0.488300  0.923700  0.112900  1.0  0.6824
  C  C230  1  0.579900  0.888300  0.090300  1.0  -0.1279
  C  C231  1  0.580100  0.848900  0.107700  1.0  -0.0458
  C  C232  1  0.646200  0.815000  0.084000  1.0  -0.1704
  C  C233  1  0.708800  0.822600  0.043600  1.0  0.1429
  C  C234  1  0.650800  0.892600  0.051600  1.0  0.1015
  C  C235  1  0.662500  0.931900  0.030700  1.0  0.1685
  C  C236  1  0.649700  0.968500  0.968700  1.0  0.1372
  C  C237  1  0.665500  0.004100  0.986900  1.0  -0.0857
  C  C238  1  0.687500  0.003200  0.027000  1.0  -0.0591
  C  C239  1  0.688000  0.967500  0.049300  1.0  -0.0958
  C  C240  1  0.731300  0.964400  0.091800  1.0  0.6976
  C  C241  1  0.066500  0.017600  0.123800  1.0  0.6913
  C  C242  1  0.053300  0.048100  0.090700  1.0  -0.1012
  C  C243  1  0.984600  0.040200  0.058600  1.0  -0.0366
  C  C244  1  0.980800  0.065600  0.025200  1.0  -0.1034
  C  C245  1  0.050400  0.097000  0.020600  1.0  0.1558
  C  C246  1  0.108300  0.083100  0.085500  1.0  0.1093
  C  C247  1  0.171700  0.100800  0.116800  1.0  0.0605
  C  C248  1  0.342300  0.130900  0.124700  1.0  0.1634
  C  C249  1  0.301100  0.137000  0.165200  1.0  -0.1644
  C  C250  1  0.190000  0.124900  0.182700  1.0  -0.0657
  C  C251  1  0.126600  0.106000  0.158800  1.0  -0.0749
  C  C252  1  0.007500  0.091300  0.178100  1.0  0.6886
  C  C253  1  0.974700  0.902200  0.196200  1.0  0.6741
  C  C254  1  0.079500  0.862400  0.200400  1.0  -0.0922
  C  C255  1  0.135900  0.840900  0.162900  1.0  -0.0481
  C  C256  1  0.227500  0.802100  0.158900  1.0  -0.1522
  C  C257  1  0.234700  0.788800  0.199600  1.0  0.1351
  C  C258  1  0.119300  0.848400  0.235000  1.0  0.2102
  C  C259  1  0.077800  0.872800  0.273000  1.0  0.063
  C  C260  1  0.000300  0.881700  0.342700  1.0  0.0857
  C  C261  1  0.027100  0.917400  0.348400  1.0  -0.0938
  C  C262  1  0.081000  0.931600  0.312600  1.0  -0.1036
  C  C263  1  0.113200  0.910400  0.274400  1.0  -0.025
  C  C264  1  0.184700  0.929900  0.239500  1.0  0.6769
  C  C265  1  0.298000  0.421100  0.269500  1.0  0.6896
  C  C266  1  0.430000  0.420100  0.245300  1.0  -0.0688
  C  C267  1  0.526400  0.390800  0.257200  1.0  -0.1325
  C  C268  1  0.646400  0.389000  0.234600  1.0  -0.1852
  C  C269  1  0.665500  0.414400  0.201600  1.0  0.1581
  C  C270  1  0.457600  0.445400  0.211800  1.0  0.1077
  C  C271  1  0.361200  0.475400  0.194200  1.0  0.1515
  C  C272  1  0.300600  0.499100  0.132900  1.0  0.1641
  C  C273  1  0.194300  0.523400  0.152800  1.0  -0.121
  C  C274  1  0.177600  0.526400  0.196200  1.0  -0.0306
  C  C275  1  0.265500  0.502600  0.217200  1.0  -0.1197
  C  C276  1  0.257400  0.511200  0.262600  1.0  0.7006
  C  C277  1  0.024900  0.576300  0.387100  1.0  0.6864
  C  C278  1  0.058500  0.611700  0.409700  1.0  -0.1273
  C  C279  1  0.036700  0.651100  0.392300  1.0  -0.0398
  C  C280  1  0.045200  0.685000  0.416000  1.0  -0.1699
  C  C281  1  0.075000  0.677400  0.456400  1.0  0.1443
  C  C282  1  0.095000  0.607400  0.448400  1.0  0.1013
  C  C283  1  0.125100  0.568100  0.469300  1.0  0.168
  C  C284  1  0.086900  0.531500  0.531300  1.0  0.133
  C  C285  1  0.156500  0.495900  0.513100  1.0  -0.0869
  C  C286  1  0.217700  0.496800  0.473000  1.0  -0.0599
  C  C287  1  0.204800  0.532500  0.450700  1.0  -0.0933
  C  C288  1  0.287500  0.535600  0.408200  1.0  0.6935
  C  C289  1  0.707900  0.482400  0.376200  1.0  0.6903
  C  C290  1  0.692100  0.451900  0.409300  1.0  -0.1017
  C  C291  1  0.583400  0.459800  0.441400  1.0  -0.0355
  C  C292  1  0.571600  0.434400  0.474800  1.0  -0.1037
  C  C293  1  0.668000  0.403000  0.479400  1.0  0.1559
  C  C294  1  0.776900  0.416900  0.414500  1.0  0.1087
  C  C295  1  0.889300  0.399200  0.383200  1.0  0.0612
  C  C296  1  0.097900  0.369100  0.375300  1.0  0.1676
  C  C297  1  0.103300  0.363000  0.334800  1.0  -0.1682
  C  C298  1  0.997600  0.375100  0.317300  1.0  -0.0624
  C  C299  1  0.891400  0.394000  0.341200  1.0  -0.0745
  C  C300  1  0.776900  0.408700  0.321900  1.0  0.6906
  C  C301  1  0.573100  0.597800  0.303800  1.0  0.6747
  C  C302  1  0.642300  0.637600  0.299600  1.0  -0.0921
  C  C303  1  0.639700  0.659100  0.337100  1.0  -0.0481
  C  C304  1  0.688500  0.697900  0.341100  1.0  -0.1517
  C  C305  1  0.723100  0.711200  0.300400  1.0  0.1367
  C  C306  1  0.702700  0.651600  0.265000  1.0  0.2093
  C  C307  1  0.723600  0.627200  0.227000  1.0  0.0637
  C  C308  1  0.724700  0.618300  0.157300  1.0  0.0843
  C  C309  1  0.792900  0.582600  0.151600  1.0  -0.0927
  C  C310  1  0.825200  0.568400  0.187400  1.0  -0.1023
  C  C311  1  0.798000  0.589600  0.225600  1.0  -0.0238
  C  C312  1  0.854100  0.570100  0.260500  1.0  0.6808
  C  C313  1  0.719100  0.769500  0.578900  1.0  0.6903
  C  C314  1  0.850100  0.745300  0.579900  1.0  -0.0668
  C  C315  1  0.917200  0.757200  0.609200  1.0  -0.1316
  C  C316  1  0.035400  0.734600  0.611000  1.0  -0.1814
  C  C317  1  0.079900  0.701600  0.585600  1.0  0.158
  C  C318  1  0.903000  0.711800  0.554600  1.0  0.107
  C  C319  1  0.836600  0.694200  0.524600  1.0  0.1506
  C  C320  1  0.799700  0.632900  0.500900  1.0  0.1669
  C  C321  1  0.717700  0.652800  0.476600  1.0  -0.1197
  C  C322  1  0.704000  0.696200  0.473600  1.0  -0.0287
  C  C323  1  0.768100  0.717200  0.497400  1.0  -0.1225
  C  C324  1  0.768600  0.762600  0.488800  1.0  0.695
  C  C325  1  0.601200  0.887100  0.423700  1.0  0.681
  C  C326  1  0.670200  0.909700  0.388300  1.0  -0.1264
  C  C327  1  0.687800  0.892300  0.348900  1.0  -0.0457
  C  C328  1  0.730200  0.916000  0.315000  1.0  -0.1714
  C  C329  1  0.752400  0.956400  0.322600  1.0  0.1446
  C  C330  1  0.702400  0.948400  0.392600  1.0  0.1004
  C  C331  1  0.693200  0.969300  0.431900  1.0  0.1687
  C  C332  1  0.618400  0.031300  0.468500  1.0  0.1367
  C  C333  1  0.652400  0.013100  0.504100  1.0  -0.0909
  C  C334  1  0.714500  0.973000  0.503200  1.0  -0.0584
  C  C335  1  0.737300  0.950700  0.467500  1.0  -0.0949
  C  C336  1  0.823100  0.908200  0.464400  1.0  0.6958
  C  C337  1  0.190300  0.876200  0.517600  1.0  0.6907
  C  C338  1  0.144000  0.909300  0.548100  1.0  -0.1034
  C  C339  1  0.043200  0.941400  0.540200  1.0  -0.0363
  C  C340  1  0.006000  0.974800  0.565600  1.0  -0.1019
  C  C341  1  0.071000  0.979400  0.597000  1.0  0.1589
  C  C342  1  0.193800  0.914500  0.583100  1.0  0.1087
  C  C343  1  0.288500  0.883200  0.600800  1.0  0.0597
  C  C344  1  0.467000  0.875300  0.630900  1.0  0.1638
  C  C345  1  0.466300  0.834800  0.637000  1.0  -0.1649
  C  C346  1  0.372700  0.817300  0.624900  1.0  -0.0641
  C  C347  1  0.285400  0.841200  0.606000  1.0  -0.0757
  C  C348  1  0.185600  0.821900  0.591300  1.0  0.6886
  C  C349  1  0.170900  0.803800  0.402200  1.0  0.6746
  C  C350  1  0.279900  0.799600  0.362400  1.0  -0.0925
  C  C351  1  0.298800  0.837100  0.340900  1.0  -0.0486
  C  C352  1  0.386400  0.841100  0.302100  1.0  -0.1518
  C  C353  1  0.434300  0.800400  0.288800  1.0  0.1361
  C  C354  1  0.354300  0.765000  0.348400  1.0  0.2075
  C  C355  1  0.350800  0.727000  0.372800  1.0  0.0642
  C  C356  1  0.343000  0.657300  0.381700  1.0  0.0895
  C  C357  1  0.375500  0.651600  0.417400  1.0  -0.0917
  C  C358  1  0.393600  0.687400  0.431600  1.0  -0.0992
  C  C359  1  0.387600  0.725600  0.410400  1.0  -0.0253
  C  C360  1  0.424200  0.760500  0.429900  1.0  0.6774
  C  C361  1  0.567500  0.730500  0.921100  1.0  0.6919
  C  C362  1  0.675300  0.754700  0.920100  1.0  -0.0683
  C  C363  1  0.783600  0.742800  0.890800  1.0  -0.1294
  C  C364  1  0.881000  0.765400  0.889000  1.0  -0.1867
  C  C365  1  0.867100  0.798400  0.914400  1.0  0.162
  C  C366  1  0.669400  0.788200  0.945400  1.0  0.1071
  C  C367  1  0.555400  0.805800  0.975400  1.0  0.1527
  C  C368  1  0.433500  0.867100  0.999100  1.0  0.1663
  C  C369  1  0.347100  0.847200  0.023400  1.0  -0.1199
  C  C370  1  0.373800  0.803800  0.026400  1.0  -0.0299
  C  C371  1  0.482700  0.782800  0.002600  1.0  -0.1232
  C  C372  1  0.520000  0.737400  0.011200  1.0  0.6942
  C  C373  1  0.412000  0.612900  0.076300  1.0  0.6836
  C  C374  1  0.468200  0.590300  0.111700  1.0  -0.1246
  C  C375  1  0.429000  0.607700  0.151100  1.0  -0.0457
  C  C376  1  0.461200  0.584000  0.185000  1.0  -0.1726
  C  C377  1  0.531400  0.543600  0.177400  1.0  0.1446
  C  C378  1  0.543400  0.551600  0.107400  1.0  0.0993
  C  C379  1  0.594400  0.530700  0.068100  1.0  0.1685
  C  C380  1  0.618200  0.468700  0.031500  1.0  0.1361
  C  C381  1  0.669600  0.486900  0.995900  1.0  -0.0916
  C  C382  1  0.690700  0.527000  0.996800  1.0  -0.0602
  C  C383  1  0.655500  0.549300  0.032500  1.0  -0.0907
  C  C384  1  0.695700  0.591800  0.035600  1.0  0.6966
  C  C385  1  0.084100  0.623800  0.982400  1.0  0.6925
  C  C386  1  0.101400  0.590700  0.951900  1.0  -0.1022
  C  C387  1  0.024800  0.558600  0.959800  1.0  -0.037
  C  C388  1  0.046400  0.525200  0.934400  1.0  -0.1041
  C  C389  1  0.147400  0.520600  0.903000  1.0  0.1627
  C  C390  1  0.191400  0.585500  0.916900  1.0  0.109
  C  C391  1  0.272500  0.616800  0.899200  1.0  0.0601
  C  C392  1  0.473200  0.624700  0.869100  1.0  0.1621
  C  C393  1  0.438100  0.665200  0.863000  1.0  -0.1655
  C  C394  1  0.314900  0.682700  0.875100  1.0  -0.0628
  C  C395  1  0.232600  0.658800  0.894000  1.0  -0.0751
  C  C396  1  0.098800  0.678100  0.908700  1.0  0.6879
  C  C397  1  0.876900  0.696200  0.097800  1.0  0.674
  C  C398  1  0.941900  0.700400  0.137600  1.0  -0.0921
  C  C399  1  0.976800  0.662900  0.159100  1.0  -0.0504
  C  C400  1  0.029600  0.658900  0.197900  1.0  -0.152
  C  C401  1  0.023500  0.699600  0.211200  1.0  0.1378
  C  C402  1  0.967700  0.735000  0.151600  1.0  0.2083
  C  C403  1  0.950600  0.773000  0.127200  1.0  0.0644
  C  C404  1  0.882000  0.842700  0.118300  1.0  0.0886
  C  C405  1  0.944500  0.848400  0.082600  1.0  -0.0909
  C  C406  1  0.012600  0.812600  0.068400  1.0  -0.1027
  C  C407  1  0.023600  0.774400  0.089600  1.0  -0.0239
  C  C408  1  0.114600  0.739500  0.070100  1.0  0.6751
  C  C409  1  0.511400  0.921100  0.769500  1.0  0.6926
  C  C410  1  0.404600  0.920100  0.745300  1.0  -0.0673
  C  C411  1  0.325600  0.890800  0.757200  1.0  -0.1304
  C  C412  1  0.230000  0.889000  0.734600  1.0  -0.1862
  C  C413  1  0.218500  0.914400  0.701600  1.0  0.1604
  C  C414  1  0.385200  0.945400  0.711800  1.0  0.1076
  C  C415  1  0.469200  0.975400  0.694200  1.0  0.1529
  C  C416  1  0.567400  0.999100  0.632900  1.0  0.1631
  C  C417  1  0.629500  0.023400  0.652800  1.0  -0.1197
  C  C418  1  0.599800  0.026400  0.696200  1.0  -0.0308
  C  C419  1  0.514700  0.002600  0.717200  1.0  -0.1199
  C  C420  1  0.468800  0.011200  0.762600  1.0  0.702
  C  C421  1  0.511700  0.076300  0.887100  1.0  0.6833
  C  C422  1  0.420100  0.111700  0.909700  1.0  -0.1289
  C  C423  1  0.419900  0.151100  0.892300  1.0  -0.0413
  C  C424  1  0.353800  0.185000  0.916000  1.0  -0.1713
  C  C425  1  0.291200  0.177400  0.956400  1.0  0.143
  C  C426  1  0.349200  0.107400  0.948400  1.0  0.1004
  C  C427  1  0.337500  0.068100  0.969300  1.0  0.1677
  C  C428  1  0.350300  0.031500  0.031300  1.0  0.1352
  C  C429  1  0.334500  0.995900  0.013100  1.0  -0.0864
  C  C430  1  0.312500  0.996800  0.973000  1.0  -0.057
  C  C431  1  0.312000  0.032500  0.950700  1.0  -0.0948
  C  C432  1  0.268700  0.035600  0.908200  1.0  0.6973
  C  C433  1  0.933500  0.982400  0.876200  1.0  0.6906
  C  C434  1  0.946700  0.951900  0.909300  1.0  -0.1022
  C  C435  1  0.015400  0.959800  0.941400  1.0  -0.0357
  C  C436  1  0.019200  0.934400  0.974800  1.0  -0.1031
  C  C437  1  0.949600  0.903000  0.979400  1.0  0.1554
  C  C438  1  0.891700  0.916900  0.914500  1.0  0.1079
  C  C439  1  0.828300  0.899200  0.883200  1.0  0.0614
  C  C440  1  0.657700  0.869100  0.875300  1.0  0.165
  C  C441  1  0.698900  0.863000  0.834800  1.0  -0.1644
  C  C442  1  0.810000  0.875100  0.817300  1.0  -0.063
  C  C443  1  0.873400  0.894000  0.841200  1.0  -0.0772
  C  C444  1  0.992500  0.908700  0.821900  1.0  0.689
  C  C445  1  0.025300  0.097800  0.803800  1.0  0.6738
  C  C446  1  0.920500  0.137600  0.799600  1.0  -0.0926
  C  C447  1  0.864100  0.159100  0.837100  1.0  -0.0506
  C  C448  1  0.772500  0.197900  0.841100  1.0  -0.1543
  C  C449  1  0.765300  0.211200  0.800400  1.0  0.1357
  C  C450  1  0.880700  0.151600  0.765000  1.0  0.2099
  C  C451  1  0.922200  0.127200  0.727000  1.0  0.0643
  C  C452  1  0.999700  0.118300  0.657300  1.0  0.0861
  C  C453  1  0.972900  0.082600  0.651600  1.0  -0.0946
  C  C454  1  0.919000  0.068400  0.687400  1.0  -0.1033
  C  C455  1  0.886800  0.089600  0.725600  1.0  -0.026
  C  C456  1  0.815300  0.070100  0.760500  1.0  0.6779
  C  C457  1  0.702000  0.578900  0.730500  1.0  0.6898
  C  C458  1  0.570000  0.579900  0.754700  1.0  -0.0682
  C  C459  1  0.473600  0.609200  0.742800  1.0  -0.1321
  C  C460  1  0.353600  0.611000  0.765400  1.0  -0.1869
  C  C461  1  0.334500  0.585600  0.798400  1.0  0.1583
  C  C462  1  0.542400  0.554600  0.788200  1.0  0.1084
  C  C463  1  0.638800  0.524600  0.805800  1.0  0.1511
  C  C464  1  0.699400  0.500900  0.867100  1.0  0.1642
  C  C465  1  0.805700  0.476600  0.847200  1.0  -0.1193
  C  C466  1  0.822400  0.473600  0.803800  1.0  -0.0311
  C  C467  1  0.734500  0.497400  0.782800  1.0  -0.1198
  C  C468  1  0.742600  0.488800  0.737400  1.0  0.7015
  C  C469  1  0.975100  0.423700  0.612900  1.0  0.6838
  C  C470  1  0.941500  0.388300  0.590300  1.0  -0.1247
  C  C471  1  0.963300  0.348900  0.607700  1.0  -0.0412
  C  C472  1  0.954800  0.315000  0.584000  1.0  -0.1683
  C  C473  1  0.925000  0.322600  0.543600  1.0  0.1433
  C  C474  1  0.905000  0.392600  0.551600  1.0  0.1023
  C  C475  1  0.874900  0.431900  0.530700  1.0  0.1691
  C  C476  1  0.913100  0.468500  0.468700  1.0  0.1341
  C  C477  1  0.843500  0.504100  0.486900  1.0  -0.0871
  C  C478  1  0.782300  0.503200  0.527000  1.0  -0.0581
  C  C479  1  0.795200  0.467500  0.549300  1.0  -0.0945
  C  C480  1  0.712500  0.464400  0.591800  1.0  0.6936
  C  C481  1  0.292100  0.517600  0.623800  1.0  0.6905
  C  C482  1  0.307900  0.548100  0.590700  1.0  -0.1004
  C  C483  1  0.416600  0.540200  0.558600  1.0  -0.0356
  C  C484  1  0.428400  0.565600  0.525200  1.0  -0.104
  C  C485  1  0.332000  0.597000  0.520600  1.0  0.1569
  C  C486  1  0.223100  0.583100  0.585500  1.0  0.1087
  C  C487  1  0.110700  0.600800  0.616800  1.0  0.0607
  C  C488  1  0.902100  0.630900  0.624700  1.0  0.1681
  C  C489  1  0.896700  0.637000  0.665200  1.0  -0.1693
  C  C490  1  0.002400  0.624900  0.682700  1.0  -0.0652
  C  C491  1  0.108600  0.606000  0.658800  1.0  -0.0731
  C  C492  1  0.223100  0.591300  0.678100  1.0  0.6904
  C  C493  1  0.426900  0.402200  0.696200  1.0  0.6717
  C  C494  1  0.357700  0.362400  0.700400  1.0  -0.0919
  C  C495  1  0.360300  0.340900  0.662900  1.0  -0.0459
  C  C496  1  0.311500  0.302100  0.658900  1.0  -0.153
  C  C497  1  0.276900  0.288800  0.699600  1.0  0.1356
  C  C498  1  0.297300  0.348400  0.735000  1.0  0.2093
  C  C499  1  0.276400  0.372800  0.773000  1.0  0.065
  C  C500  1  0.275300  0.381700  0.842700  1.0  0.0857
  C  C501  1  0.207100  0.417400  0.848400  1.0  -0.0937
  C  C502  1  0.174800  0.431600  0.812600  1.0  -0.1029
  C  C503  1  0.202000  0.410400  0.774400  1.0  -0.0252
  C  C504  1  0.145900  0.429900  0.739500  1.0  0.6795
  C  C505  1  0.280900  0.230500  0.421100  1.0  0.6913
  C  C506  1  0.149900  0.254700  0.420100  1.0  -0.0672
  C  C507  1  0.082800  0.242800  0.390800  1.0  -0.131
  C  C508  1  0.964600  0.265400  0.389000  1.0  -0.1829
  C  C509  1  0.920100  0.298400  0.414400  1.0  0.1586
  C  C510  1  0.097000  0.288200  0.445400  1.0  0.1079
  C  C511  1  0.163400  0.305800  0.475400  1.0  0.1508
  C  C512  1  0.200300  0.367100  0.499100  1.0  0.1643
  C  C513  1  0.282300  0.347200  0.523400  1.0  -0.1186
  C  C514  1  0.296000  0.303800  0.526400  1.0  -0.0306
  C  C515  1  0.231900  0.282800  0.502600  1.0  -0.1229
  C  C516  1  0.231400  0.237400  0.511200  1.0  0.6944
  C  C517  1  0.398800  0.112900  0.576300  1.0  0.6807
  C  C518  1  0.329800  0.090300  0.611700  1.0  -0.1252
  C  C519  1  0.312200  0.107700  0.651100  1.0  -0.0443
  C  C520  1  0.269800  0.084000  0.685000  1.0  -0.1689
  C  C521  1  0.247600  0.043600  0.677400  1.0  0.1448
  C  C522  1  0.297600  0.051600  0.607400  1.0  0.1003
  C  C523  1  0.306800  0.030700  0.568100  1.0  0.1681
  C  C524  1  0.381600  0.968700  0.531500  1.0  0.137
  C  C525  1  0.347600  0.986900  0.495900  1.0  -0.0904
  C  C526  1  0.285500  0.027000  0.496800  1.0  -0.0591
  C  C527  1  0.262700  0.049300  0.532500  1.0  -0.0931
  C  C528  1  0.176900  0.091800  0.535600  1.0  0.6964
  C  C529  1  0.809700  0.123800  0.482400  1.0  0.6906
  C  C530  1  0.856000  0.090700  0.451900  1.0  -0.1025
  C  C531  1  0.956800  0.058600  0.459800  1.0  -0.0362
  C  C532  1  0.994000  0.025200  0.434400  1.0  -0.103
  C  C533  1  0.929000  0.020600  0.403000  1.0  0.1588
  C  C534  1  0.806200  0.085500  0.416900  1.0  0.1081
  C  C535  1  0.711500  0.116800  0.399200  1.0  0.0606
  C  C536  1  0.533000  0.124700  0.369100  1.0  0.164
  C  C537  1  0.533700  0.165200  0.363000  1.0  -0.1638
  C  C538  1  0.627300  0.182700  0.375100  1.0  -0.062
  C  C539  1  0.714600  0.158800  0.394000  1.0  -0.0754
  C  C540  1  0.814400  0.178100  0.408700  1.0  0.6881
  C  C541  1  0.829100  0.196200  0.597800  1.0  0.6724
  C  C542  1  0.720100  0.200400  0.637600  1.0  -0.0909
  C  C543  1  0.701200  0.162900  0.659100  1.0  -0.0484
  C  C544  1  0.613600  0.158900  0.697900  1.0  -0.1546
  C  C545  1  0.565700  0.199600  0.711200  1.0  0.1363
  C  C546  1  0.645700  0.235000  0.651600  1.0  0.2089
  C  C547  1  0.649200  0.273000  0.627200  1.0  0.0652
  C  C548  1  0.657000  0.342700  0.618300  1.0  0.0911
  C  C549  1  0.624500  0.348400  0.582600  1.0  -0.0916
  C  C550  1  0.606400  0.312600  0.568400  1.0  -0.0999
  C  C551  1  0.612400  0.274400  0.589600  1.0  -0.0281
  C  C552  1  0.575800  0.239500  0.570100  1.0  0.6756
  C  C553  1  0.432500  0.269500  0.078900  1.0  0.6917
  C  C554  1  0.324700  0.245300  0.079900  1.0  -0.0662
  C  C555  1  0.216400  0.257200  0.109200  1.0  -0.1303
  C  C556  1  0.119000  0.234600  0.111000  1.0  -0.188
  C  C557  1  0.132900  0.201600  0.085600  1.0  0.161
  C  C558  1  0.330600  0.211800  0.054600  1.0  0.1073
  C  C559  1  0.444600  0.194200  0.024600  1.0  0.1519
  C  C560  1  0.566500  0.132900  0.000900  1.0  0.1678
  C  C561  1  0.652900  0.152800  0.976600  1.0  -0.1188
  C  C562  1  0.626200  0.196200  0.973600  1.0  -0.0302
  C  C563  1  0.517300  0.217200  0.997400  1.0  -0.1229
  C  C564  1  0.480000  0.262600  0.988800  1.0  0.6939
  C  C565  1  0.588000  0.387100  0.923700  1.0  0.6837
  C  C566  1  0.531800  0.409700  0.888300  1.0  -0.1263
  C  C567  1  0.571000  0.392300  0.848900  1.0  -0.0464
  C  C568  1  0.538800  0.416000  0.815000  1.0  -0.1727
  C  C569  1  0.468600  0.456400  0.822600  1.0  0.143
  C  C570  1  0.456600  0.448400  0.892600  1.0  0.1009
  C  C571  1  0.405600  0.469300  0.931900  1.0  0.1693
  C  C572  1  0.381800  0.531300  0.968500  1.0  0.1371
  C  C573  1  0.330400  0.513100  0.004100  1.0  -0.0913
  C  C574  1  0.309300  0.473000  0.003200  1.0  -0.056
  C  C575  1  0.344500  0.450700  0.967500  1.0  -0.0941
  C  C576  1  0.304300  0.408200  0.964400  1.0  0.6963
  C  C577  1  0.915900  0.376200  0.017600  1.0  0.6942
  C  C578  1  0.898600  0.409300  0.048100  1.0  -0.1014
  C  C579  1  0.975200  0.441400  0.040200  1.0  -0.0359
  C  C580  1  0.953600  0.474800  0.065600  1.0  -0.1026
  C  C581  1  0.852600  0.479400  0.097000  1.0  0.1618
  C  C582  1  0.808600  0.414500  0.083100  1.0  0.1084
  C  C583  1  0.727500  0.383200  0.100800  1.0  0.0604
  C  C584  1  0.526800  0.375300  0.130900  1.0  0.1622
  C  C585  1  0.561900  0.334800  0.137000  1.0  -0.1662
  C  C586  1  0.685100  0.317300  0.124900  1.0  -0.0643
  C  C587  1  0.767400  0.341200  0.106000  1.0  -0.0758
  C  C588  1  0.901200  0.321900  0.091300  1.0  0.6876
  C  C589  1  0.123100  0.303800  0.902200  1.0  0.6745
  C  C590  1  0.058100  0.299600  0.862400  1.0  -0.092
  C  C591  1  0.023200  0.337100  0.840900  1.0  -0.0477
  C  C592  1  0.970400  0.341100  0.802100  1.0  -0.1534
  C  C593  1  0.976500  0.300400  0.788800  1.0  0.1373
  C  C594  1  0.032300  0.265000  0.848400  1.0  0.2066
  C  C595  1  0.049400  0.227000  0.872800  1.0  0.0654
  C  C596  1  0.118000  0.157300  0.881700  1.0  0.0875
  C  C597  1  0.055500  0.151600  0.917400  1.0  -0.0912
  C  C598  1  0.987400  0.187400  0.931600  1.0  -0.1009
  C  C599  1  0.976400  0.225600  0.910400  1.0  -0.025
  C  C600  1  0.885400  0.260500  0.929900  1.0  0.677
  N  N601  1  0.710700  0.858400  0.028200  1.0  -0.3425
  N  N602  1  0.647400  0.933300  0.991100  1.0  -0.3546
  N  N603  1  0.113600  0.106700  0.050900  1.0  -0.3508
  N  N604  1  0.281900  0.113200  0.098800  1.0  -0.3399
  N  N605  1  0.707500  0.057500  0.310300  1.0  -0.3358
  N  N606  1  0.512200  0.024400  0.347200  1.0  -0.336
  N  N607  1  0.011400  0.855400  0.309400  1.0  -0.3143
  N  N608  1  0.184200  0.809300  0.235700  1.0  -0.4176
  N  N609  1  0.097300  0.641600  0.471800  1.0  -0.3435
  N  N610  1  0.071800  0.566700  0.508900  1.0  -0.3541
  N  N611  1  0.771200  0.393300  0.449100  1.0  -0.3507
  N  N612  1  0.993900  0.386800  0.401200  1.0  -0.3414
  N  N613  1  0.575300  0.442500  0.189700  1.0  -0.3356
  N  N614  1  0.383800  0.475600  0.152800  1.0  -0.3351
  N  N615  1  0.676200  0.644600  0.190600  1.0  -0.3137
  N  N616  1  0.729200  0.690700  0.264300  1.0  -0.4197
  N  N617  1  0.738900  0.971800  0.358400  1.0  -0.3436
  N  N618  1  0.638500  0.008900  0.433300  1.0  -0.3547
  N  N619  1  0.164500  0.949100  0.606700  1.0  -0.3513
  N  N620  1  0.380700  0.901200  0.613200  1.0  -0.3383
  N  N621  1  0.017800  0.689700  0.557500  1.0  -0.3349
  N  N622  1  0.859400  0.652800  0.524400  1.0  -0.3353
  N  N623  1  0.320800  0.690600  0.355400  1.0  -0.3198
  N  N624  1  0.419900  0.764300  0.309300  1.0  -0.4145
  N  N625  1  0.569100  0.528200  0.141600  1.0  -0.343
  N  N626  1  0.580700  0.491100  0.066700  1.0  -0.3557
  N  N627  1  0.220300  0.550900  0.893300  1.0  -0.35
  N  N628  1  0.395100  0.598800  0.886800  1.0  -0.3406
  N  N629  1  0.765000  0.810300  0.942500  1.0  -0.335
  N  N630  1  0.536600  0.847200  0.975600  1.0  -0.3349
  N  N631  1  0.866800  0.809400  0.144600  1.0  -0.3185
  N  N632  1  0.993500  0.735700  0.190700  1.0  -0.4148
  N  N633  1  0.289300  0.141600  0.971800  1.0  -0.3428
  N  N634  1  0.352600  0.066700  0.008900  1.0  -0.3538
  N  N635  1  0.886400  0.893300  0.949100  1.0  -0.3488
  N  N636  1  0.718100  0.886800  0.901200  1.0  -0.3421
  N  N637  1  0.292500  0.942500  0.689700  1.0  -0.3354
  N  N638  1  0.487800  0.975600  0.652800  1.0  -0.332
  N  N639  1  0.988600  0.144600  0.690600  1.0  -0.3151
  N  N640  1  0.815800  0.190700  0.764300  1.0  -0.4191
  N  N641  1  0.902700  0.358400  0.528200  1.0  -0.3433
  N  N642  1  0.928200  0.433300  0.491100  1.0  -0.355
  N  N643  1  0.228800  0.606700  0.550900  1.0  -0.3493
  N  N644  1  0.006100  0.613200  0.598800  1.0  -0.3391
  N  N645  1  0.424700  0.557500  0.810300  1.0  -0.3349
  N  N646  1  0.616200  0.524400  0.847200  1.0  -0.3351
  N  N647  1  0.323800  0.355400  0.809400  1.0  -0.3153
  N  N648  1  0.270800  0.309300  0.735700  1.0  -0.4176
  N  N649  1  0.261100  0.028200  0.641600  1.0  -0.3434
  N  N650  1  0.361500  0.991100  0.566700  1.0  -0.3543
  N  N651  1  0.835500  0.050900  0.393300  1.0  -0.3481
  N  N652  1  0.619300  0.098800  0.386800  1.0  -0.3397
  N  N653  1  0.982200  0.310300  0.442500  1.0  -0.3356
  N  N654  1  0.140600  0.347200  0.475600  1.0  -0.3339
  N  N655  1  0.679200  0.309400  0.644600  1.0  -0.3182
  N  N656  1  0.580100  0.235700  0.690700  1.0  -0.4153
  N  N657  1  0.430900  0.471800  0.858400  1.0  -0.3444
  N  N658  1  0.419300  0.508900  0.933300  1.0  -0.3546
  N  N659  1  0.779700  0.449100  0.106700  1.0  -0.3497
  N  N660  1  0.604900  0.401200  0.113200  1.0  -0.3391
  N  N661  1  0.235000  0.189700  0.057500  1.0  -0.3349
  N  N662  1  0.463400  0.152800  0.024400  1.0  -0.3345
  N  N663  1  0.133200  0.190600  0.855400  1.0  -0.3225
  N  N664  1  0.006500  0.264300  0.809300  1.0  -0.4138
  O  O665  1  0.517840  0.076640  0.192080  1.0  -0.5553
  O  O666  1  0.380920  0.078650  0.250910  1.0  -0.5938
  O  O667  1  0.643830  0.992080  0.224460  1.0  -0.7218
  O  O668  1  0.457730  0.976740  0.216800  1.0  -0.7355
  O  O669  1  0.476490  0.922360  0.151660  1.0  -0.6137
  O  O670  1  0.430600  0.949700  0.093100  1.0  -0.6722
  O  O671  1  0.835190  0.943470  0.094350  1.0  -0.6472
  O  O672  1  0.663030  0.985560  0.120780  1.0  -0.6373
  O  O673  1  0.911060  0.099940  0.160140  1.0  -0.5686
  O  O674  1  0.008900  0.071700  0.211100  1.0  -0.5587
  O  O675  1  0.984470  0.996000  0.133060  1.0  -0.7259
  O  O676  1  0.166210  0.014730  0.139650  1.0  -0.7383
  O  O677  1  0.131500  0.962400  0.226000  1.0  -0.6284
  O  O678  1  0.293800  0.915400  0.225600  1.0  -0.5823
  O  O679  1  0.980900  0.917800  0.163400  1.0  -0.585
  O  O680  1  0.890800  0.911700  0.226700  1.0  -0.6804
  O  O681  1  0.286560  0.423360  0.307920  1.0  -0.5569
  O  O682  1  0.210480  0.421350  0.249090  1.0  -0.5945
  O  O683  1  0.360370  0.507920  0.275540  1.0  -0.7207
  O  O684  1  0.151270  0.523260  0.283200  1.0  -0.7349
  O  O685  1  0.050510  0.577640  0.348340  1.0  -0.6109
  O  O686  1  0.973400  0.550300  0.406900  1.0  -0.6724
  O  O687  1  0.373010  0.556530  0.405650  1.0  -0.647
  O  O688  1  0.269370  0.514440  0.379220  1.0  -0.6391
  O  O689  1  0.671140  0.400060  0.339860  1.0  -0.566
  O  O690  1  0.791700  0.428300  0.288900  1.0  -0.5595
  O  O691  1  0.613530  0.504000  0.366940  1.0  -0.7254
  O  O692  1  0.820590  0.485270  0.360350  1.0  -0.7389
  O  O693  1  0.819900  0.537600  0.274000  1.0  -0.6238
  O  O694  1  0.934800  0.584600  0.274400  1.0  -0.5839
  O  O695  1  0.562100  0.582200  0.336600  1.0  -0.5846
  O  O696  1  0.529200  0.588300  0.273300  1.0  -0.6808
  O  O697  1  0.709920  0.807920  0.576640  1.0  -0.5542
  O  O698  1  0.631830  0.749090  0.578650  1.0  -0.59
  O  O699  1  0.868290  0.775540  0.492080  1.0  -0.7207
  O  O700  1  0.674530  0.783200  0.476740  1.0  -0.7358
  O  O701  1  0.628150  0.848340  0.422360  1.0  -0.6098
  O  O702  1  0.523700  0.906900  0.449700  1.0  -0.6699
  O  O703  1  0.929540  0.905650  0.443470  1.0  -0.6495
  O  O704  1  0.783810  0.879220  0.485560  1.0  -0.6355
  O  O705  1  0.071200  0.839860  0.599940  1.0  -0.5655
  O  O706  1  0.220000  0.788900  0.571700  1.0  -0.555
  O  O707  1  0.117530  0.866940  0.496000  1.0  -0.7259
  O  O708  1  0.305860  0.860350  0.514730  1.0  -0.7394
  O  O709  1  0.357500  0.774000  0.462400  1.0  -0.6322
  O  O710  1  0.519400  0.774400  0.415400  1.0  -0.5829
  O  O711  1  0.144300  0.836600  0.417800  1.0  -0.5837
  O  O712  1  0.117500  0.773300  0.411700  1.0  -0.6791
  O  O713  1  0.594480  0.692080  0.923360  1.0  -0.5568
  O  O714  1  0.459570  0.750910  0.921350  1.0  -0.5933
  O  O715  1  0.635910  0.724460  0.007920  1.0  -0.7213
  O  O716  1  0.434470  0.716800  0.023260  1.0  -0.7363
  O  O717  1  0.398850  0.651660  0.077640  1.0  -0.6123
  O  O718  1  0.380300  0.593100  0.050300  1.0  -0.672
  O  O719  1  0.778660  0.594350  0.056530  1.0  -0.649
  O  O720  1  0.648590  0.620780  0.014440  1.0  -0.6351
  O  O721  1  0.011000  0.660140  0.900060  1.0  -0.5718
  O  O722  1  0.080600  0.711100  0.928300  1.0  -0.5579
  O  O723  1  0.980470  0.633060  0.004000  1.0  -0.726
  O  O724  1  0.180940  0.639650  0.985270  1.0  -0.7389
  O  O725  1  0.093900  0.726000  0.037600  1.0  -0.6313
  O  O726  1  0.209200  0.725600  0.084600  1.0  -0.5827
  O  O727  1  0.898700  0.663400  0.082200  1.0  -0.5837
  O  O728  1  0.802500  0.726700  0.088300  1.0  -0.6791
  O  O729  1  0.482160  0.923360  0.807920  1.0  -0.557
  O  O730  1  0.619080  0.921350  0.749090  1.0  -0.5931
  O  O731  1  0.356170  0.007920  0.775540  1.0  -0.7216
  O  O732  1  0.542270  0.023260  0.783200  1.0  -0.7349
  O  O733  1  0.523510  0.077640  0.848340  1.0  -0.61
  O  O734  1  0.569400  0.050300  0.906900  1.0  -0.6721
  O  O735  1  0.164810  0.056530  0.905650  1.0  -0.6476
  O  O736  1  0.336970  0.014440  0.879220  1.0  -0.6371
  O  O737  1  0.088940  0.900060  0.839860  1.0  -0.5705
  O  O738  1  0.991100  0.928300  0.788900  1.0  -0.5577
  O  O739  1  0.015530  0.004000  0.866940  1.0  -0.7259
  O  O740  1  0.833790  0.985270  0.860350  1.0  -0.7378
  O  O741  1  0.868500  0.037600  0.774000  1.0  -0.6245
  O  O742  1  0.706200  0.084600  0.774400  1.0  -0.5838
  O  O743  1  0.019100  0.082200  0.836600  1.0  -0.5849
  O  O744  1  0.109200  0.088300  0.773300  1.0  -0.6801
  O  O745  1  0.713440  0.576640  0.692080  1.0  -0.5554
  O  O746  1  0.789520  0.578650  0.750910  1.0  -0.5969
  O  O747  1  0.639630  0.492080  0.724460  1.0  -0.7196
  O  O748  1  0.848730  0.476740  0.716800  1.0  -0.7366
  O  O749  1  0.949490  0.422360  0.651660  1.0  -0.6126
  O  O750  1  0.026600  0.449700  0.593100  1.0  -0.6722
  O  O751  1  0.626990  0.443470  0.594350  1.0  -0.6468
  O  O752  1  0.730630  0.485560  0.620780  1.0  -0.6401
  O  O753  1  0.328860  0.599940  0.660140  1.0  -0.5686
  O  O754  1  0.208300  0.571700  0.711100  1.0  -0.5613
  O  O755  1  0.386470  0.496000  0.633060  1.0  -0.7248
  O  O756  1  0.179410  0.514730  0.639650  1.0  -0.7396
  O  O757  1  0.180100  0.462400  0.726000  1.0  -0.6278
  O  O758  1  0.065200  0.415400  0.725600  1.0  -0.5833
  O  O759  1  0.437900  0.417800  0.663400  1.0  -0.5851
  O  O760  1  0.470800  0.411700  0.726700  1.0  -0.6817
  O  O761  1  0.290080  0.192080  0.423360  1.0  -0.5569
  O  O762  1  0.368170  0.250910  0.421350  1.0  -0.593
  O  O763  1  0.131710  0.224460  0.507920  1.0  -0.7199
  O  O764  1  0.325470  0.216800  0.523260  1.0  -0.7356
  O  O765  1  0.371850  0.151660  0.577640  1.0  -0.6119
  O  O766  1  0.476300  0.093100  0.550300  1.0  -0.6705
  O  O767  1  0.070460  0.094350  0.556530  1.0  -0.6487
  O  O768  1  0.216190  0.120780  0.514440  1.0  -0.6349
  O  O769  1  0.928800  0.160140  0.400060  1.0  -0.5696
  O  O770  1  0.780000  0.211100  0.428300  1.0  -0.5568
  O  O771  1  0.882470  0.133060  0.504000  1.0  -0.7252
  O  O772  1  0.694140  0.139650  0.485270  1.0  -0.7393
  O  O773  1  0.642500  0.226000  0.537600  1.0  -0.6317
  O  O774  1  0.480600  0.225600  0.584600  1.0  -0.5817
  O  O775  1  0.855700  0.163400  0.582200  1.0  -0.5835
  O  O776  1  0.882500  0.226700  0.588300  1.0  -0.6799
  O  O777  1  0.405520  0.307920  0.076640  1.0  -0.5547
  O  O778  1  0.540430  0.249090  0.078650  1.0  -0.5927
  O  O779  1  0.364090  0.275540  0.992080  1.0  -0.7205
  O  O780  1  0.565530  0.283200  0.976740  1.0  -0.7362
  O  O781  1  0.601150  0.348340  0.922360  1.0  -0.6099
  O  O782  1  0.619700  0.406900  0.949700  1.0  -0.6705
  O  O783  1  0.221340  0.405650  0.943470  1.0  -0.6489
  O  O784  1  0.351410  0.379220  0.985560  1.0  -0.6367
  O  O785  1  0.989000  0.339860  0.099940  1.0  -0.5732
  O  O786  1  0.919400  0.288900  0.071700  1.0  -0.5561
  O  O787  1  0.019530  0.366940  0.996000  1.0  -0.7258
  O  O788  1  0.819060  0.360350  0.014730  1.0  -0.7401
  O  O789  1  0.906100  0.274000  0.962400  1.0  -0.6305
  O  O790  1  0.790800  0.274400  0.915400  1.0  -0.5823
  O  O791  1  0.101300  0.336600  0.917800  1.0  -0.5837
  O  O792  1  0.197500  0.273300  0.911700  1.0  -0.6799
