# generated using pymatgen
data_La2CoH24C48(NO2)8
_symmetry_space_group_name_H-M   'P 1'
_cell_length_a   11.32540000
_cell_length_b   33.04260000
_cell_length_c   33.04260000
_cell_angle_alpha   88.31700000
_cell_angle_beta   80.13220000
_cell_angle_gamma   80.13220000
_symmetry_Int_Tables_number   1
_chemical_formula_structural   La2CoH24C48(NO2)8
_chemical_formula_sum   'La16 Co8 H192 C384 N64 O128'
_cell_volume   12002.06267536
_cell_formula_units_Z   8
loop_
 _symmetry_equiv_pos_site_id
 _symmetry_equiv_pos_as_xyz
  1  'x, y, z'
loop_
 _atom_site_type_symbol
 _atom_site_label
 _atom_site_symmetry_multiplicity
 _atom_site_fract_x
 _atom_site_fract_y
 _atom_site_fract_z
 _atom_site_occupancy
 _atom_site_charge
  La  La1  1  0.459580  0.329000  0.529400  1.0  2.1409
  La  La2  1  0.965980  0.327730  0.526190  1.0  2.1496
  La  La3  1  0.817980  0.171000  0.970600  1.0  2.1429
  La  La4  1  0.319900  0.172270  0.973810  1.0  2.1504
  La  La5  1  0.988980  0.470600  0.829000  1.0  2.1426
  La  La6  1  0.492170  0.473810  0.827730  1.0  2.1506
  La  La7  1  0.788580  0.029400  0.671000  1.0  2.1444
  La  La8  1  0.293710  0.026190  0.672270  1.0  2.1509
  La  La9  1  0.540420  0.671000  0.470600  1.0  2.1427
  La  La10  1  0.034020  0.672270  0.473810  1.0  2.1505
  La  La11  1  0.182020  0.829000  0.029400  1.0  2.1411
  La  La12  1  0.680100  0.827730  0.026190  1.0  2.1494
  La  La13  1  0.011020  0.529400  0.171000  1.0  2.1446
  La  La14  1  0.507830  0.526190  0.172270  1.0  2.151
  La  La15  1  0.211420  0.970600  0.329000  1.0  2.144
  La  La16  1  0.706290  0.973810  0.327730  1.0  2.1506
  Co  Co17  1  0.954530  0.462810  0.370250  1.0  0.7138
  Co  Co18  1  0.287590  0.037190  0.129750  1.0  0.7142
  Co  Co19  1  0.324780  0.629750  0.962810  1.0  0.7127
  Co  Co20  1  0.417340  0.870250  0.537190  1.0  0.7136
  Co  Co21  1  0.045470  0.537190  0.629750  1.0  0.7154
  Co  Co22  1  0.712410  0.962810  0.870250  1.0  0.7145
  Co  Co23  1  0.675220  0.370250  0.037190  1.0  0.7149
  Co  Co24  1  0.582660  0.129750  0.462810  1.0  0.7126
  H  H25  1  0.740300  0.188800  0.412800  1.0  0.085
  H  H26  1  0.707200  0.243800  0.371200  1.0  0.1208
  H  H27  1  0.509600  0.280200  0.374000  1.0  0.1176
  H  H28  1  0.121300  0.208900  0.542700  1.0  0.103
  H  H29  1  0.151400  0.137700  0.537900  1.0  0.1185
  H  H30  1  0.323200  0.104300  0.498500  1.0  0.0796
  H  H31  1  0.083700  0.474700  0.702300  1.0  0.081
  H  H32  1  0.047500  0.407700  0.714300  1.0  0.1187
  H  H33  1  0.032300  0.368500  0.658900  1.0  0.1069
  H  H34  1  0.257600  0.462700  0.474300  1.0  0.1178
  H  H35  1  0.151100  0.528400  0.473200  1.0  0.1155
  H  H36  1  0.044200  0.558500  0.533900  1.0  0.0825
  H  H37  1  0.672600  0.502100  0.384100  1.0  0.0676
  H  H38  1  0.509500  0.494900  0.434300  1.0  0.1216
  H  H39  1  0.529800  0.439300  0.478900  1.0  0.0943
  H  H40  1  0.001100  0.289700  0.372100  1.0  0.1124
  H  H41  1  0.174500  0.318500  0.353500  1.0  0.1269
  H  H42  1  0.161900  0.388000  0.360400  1.0  0.0791
  H  H43  1  0.873200  0.186900  0.544300  1.0  0.1203
  H  H44  1  0.805500  0.129700  0.575300  1.0  0.1217
  H  H45  1  0.686000  0.136700  0.637100  1.0  0.0813
  H  H46  1  0.602100  0.364300  0.655900  1.0  0.0933
  H  H47  1  0.682300  0.358700  0.717900  1.0  0.1274
  H  H48  1  0.742700  0.293900  0.740900  1.0  0.0763
  H  H49  1  0.841900  0.311200  0.087200  1.0  0.0859
  H  H50  1  0.822200  0.256200  0.128800  1.0  0.1209
  H  H51  1  0.663800  0.219800  0.126000  1.0  0.1195
  H  H52  1  0.372900  0.291100  0.957300  1.0  0.1028
  H  H53  1  0.327000  0.362300  0.962100  1.0  0.1183
  H  H54  1  0.426000  0.395700  0.001500  1.0  0.0798
  H  H55  1  0.760700  0.025300  0.797700  1.0  0.0801
  H  H56  1  0.669500  0.092300  0.785700  1.0  0.1173
  H  H57  1  0.559700  0.131500  0.841100  1.0  0.1076
  H  H58  1  0.694600  0.037300  0.025700  1.0  0.1171
  H  H59  1  0.652700  0.971600  0.026800  1.0  0.1153
  H  H60  1  0.636600  0.941500  0.966100  1.0  0.0825
  H  H61  1  0.058800  0.997900  0.115900  1.0  0.0681
  H  H62  1  0.938700  0.005100  0.065700  1.0  0.121
  H  H63  1  0.948000  0.060700  0.021100  1.0  0.0953
  H  H64  1  0.162900  0.210300  0.127900  1.0  0.1128
  H  H65  1  0.346500  0.181500  0.146500  1.0  0.1257
  H  H66  1  0.410300  0.112000  0.139600  1.0  0.0787
  H  H67  1  0.104400  0.313100  0.955700  1.0  0.1204
  H  H68  1  0.010500  0.370300  0.924700  1.0  0.121
  H  H69  1  0.959800  0.363300  0.862900  1.0  0.0821
  H  H70  1  0.122300  0.135700  0.844100  1.0  0.0925
  H  H71  1  0.258900  0.141300  0.782100  1.0  0.1277
  H  H72  1  0.277500  0.206100  0.759100  1.0  0.0754
  H  H73  1  0.153100  0.587200  0.688800  1.0  0.0856
  H  H74  1  0.078400  0.628800  0.743800  1.0  0.1207
  H  H75  1  0.883600  0.626000  0.780200  1.0  0.1196
  H  H76  1  0.664000  0.457300  0.708900  1.0  0.1029
  H  H77  1  0.689300  0.462100  0.637700  1.0  0.1195
  H  H78  1  0.821700  0.501500  0.604300  1.0  0.0782
  H  H79  1  0.786000  0.297700  0.974700  1.0  0.0806
  H  H80  1  0.761800  0.285700  0.907700  1.0  0.1184
  H  H81  1  0.691200  0.341100  0.868500  1.0  0.1072
  H  H82  1  0.731900  0.525700  0.962700  1.0  0.1171
  H  H83  1  0.624300  0.526800  0.028400  1.0  0.1148
  H  H84  1  0.578100  0.466100  0.058500  1.0  0.0828
  H  H85  1  0.056700  0.615900  0.002100  1.0  0.068
  H  H86  1  0.943800  0.565700  0.994900  1.0  0.1217
  H  H87  1  0.008700  0.521100  0.939300  1.0  0.0946
  H  H88  1  0.373200  0.627900  0.789700  1.0  0.1135
  H  H89  1  0.528000  0.646500  0.818500  1.0  0.1267
  H  H90  1  0.522300  0.639600  0.888000  1.0  0.0774
  H  H91  1  0.417500  0.455700  0.686900  1.0  0.1206
  H  H92  1  0.380800  0.424700  0.629700  1.0  0.1216
  H  H93  1  0.323100  0.362900  0.636700  1.0  0.0825
  H  H94  1  0.258000  0.344100  0.864300  1.0  0.0931
  H  H95  1  0.400200  0.282100  0.858700  1.0  0.1274
  H  H96  1  0.483600  0.259100  0.793900  1.0  0.0747
  H  H97  1  0.929100  0.912800  0.811200  1.0  0.0843
  H  H98  1  0.951000  0.871200  0.756200  1.0  0.1203
  H  H99  1  0.789800  0.874000  0.719800  1.0  0.1186
  H  H100  1  0.330200  0.042700  0.791100  1.0  0.1034
  H  H101  1  0.289100  0.037900  0.862300  1.0  0.1191
  H  H102  1  0.427500  0.998500  0.895700  1.0  0.0793
  H  H103  1  0.558400  0.202300  0.525300  1.0  0.0805
  H  H104  1  0.455200  0.214300  0.592300  1.0  0.1188
  H  H105  1  0.400800  0.158900  0.631500  1.0  0.1058
  H  H106  1  0.720300  0.974300  0.537300  1.0  0.117
  H  H107  1  0.679500  0.973200  0.471600  1.0  0.1152
  H  H108  1  0.602700  0.033900  0.441500  1.0  0.0829
  H  H109  1  0.174700  0.884100  0.497900  1.0  0.0677
  H  H110  1  0.004400  0.934300  0.505100  1.0  0.1203
  H  H111  1  0.969100  0.978900  0.560700  1.0  0.0944
  H  H112  1  0.290800  0.872100  0.710300  1.0  0.1133
  H  H113  1  0.493000  0.853500  0.681500  1.0  0.1266
  H  H114  1  0.549900  0.860400  0.612000  1.0  0.08
  H  H115  1  0.060100  0.044300  0.813100  1.0  0.1219
  H  H116  1  0.935200  0.075300  0.870300  1.0  0.121
  H  H117  1  0.822700  0.137100  0.863300  1.0  0.0804
  H  H118  1  0.966400  0.155900  0.635700  1.0  0.0928
  H  H119  1  0.041000  0.217900  0.641300  1.0  0.1276
  H  H120  1  0.036600  0.240900  0.706100  1.0  0.0746
  H  H121  1  0.259700  0.811200  0.587200  1.0  0.0848
  H  H122  1  0.292800  0.756200  0.628800  1.0  0.121
  H  H123  1  0.490400  0.719800  0.626000  1.0  0.1186
  H  H124  1  0.878700  0.791100  0.457300  1.0  0.1029
  H  H125  1  0.848600  0.862300  0.462100  1.0  0.1187
  H  H126  1  0.676800  0.895700  0.501500  1.0  0.0798
  H  H127  1  0.916300  0.525300  0.297700  1.0  0.0816
  H  H128  1  0.952500  0.592300  0.285700  1.0  0.118
  H  H129  1  0.967700  0.631500  0.341100  1.0  0.1068
  H  H130  1  0.742400  0.537300  0.525700  1.0  0.1173
  H  H131  1  0.848900  0.471600  0.526800  1.0  0.116
  H  H132  1  0.955800  0.441500  0.466100  1.0  0.083
  H  H133  1  0.327400  0.497900  0.615900  1.0  0.0685
  H  H134  1  0.490500  0.505100  0.565700  1.0  0.1222
  H  H135  1  0.470200  0.560700  0.521100  1.0  0.0943
  H  H136  1  0.998900  0.710300  0.627900  1.0  0.113
  H  H137  1  0.825500  0.681500  0.646500  1.0  0.1265
  H  H138  1  0.838100  0.612000  0.639600  1.0  0.0794
  H  H139  1  0.126800  0.813100  0.455700  1.0  0.1201
  H  H140  1  0.194500  0.870300  0.424700  1.0  0.1223
  H  H141  1  0.314000  0.863300  0.362900  1.0  0.0817
  H  H142  1  0.397900  0.635700  0.344100  1.0  0.0927
  H  H143  1  0.317700  0.641300  0.282100  1.0  0.1271
  H  H144  1  0.257300  0.706100  0.259100  1.0  0.0758
  H  H145  1  0.158100  0.688800  0.912800  1.0  0.0852
  H  H146  1  0.177800  0.743800  0.871200  1.0  0.1205
  H  H147  1  0.336200  0.780200  0.874000  1.0  0.1185
  H  H148  1  0.627100  0.708900  0.042700  1.0  0.1031
  H  H149  1  0.673000  0.637700  0.037900  1.0  0.1188
  H  H150  1  0.574000  0.604300  0.998500  1.0  0.0797
  H  H151  1  0.239300  0.974700  0.202300  1.0  0.0802
  H  H152  1  0.330500  0.907700  0.214300  1.0  0.1181
  H  H153  1  0.440300  0.868500  0.158900  1.0  0.1073
  H  H154  1  0.305400  0.962700  0.974300  1.0  0.1171
  H  H155  1  0.347300  0.028400  0.973200  1.0  0.1148
  H  H156  1  0.363400  0.058500  0.033900  1.0  0.0826
  H  H157  1  0.941200  0.002100  0.884100  1.0  0.0696
  H  H158  1  0.061300  0.994900  0.934300  1.0  0.1216
  H  H159  1  0.052000  0.939300  0.978900  1.0  0.0947
  H  H160  1  0.837100  0.789700  0.872100  1.0  0.1129
  H  H161  1  0.653500  0.818500  0.853500  1.0  0.1259
  H  H162  1  0.589700  0.888000  0.860400  1.0  0.0781
  H  H163  1  0.895600  0.686900  0.044300  1.0  0.1208
  H  H164  1  0.989500  0.629700  0.075300  1.0  0.1214
  H  H165  1  0.040200  0.636700  0.137100  1.0  0.0815
  H  H166  1  0.877700  0.864300  0.155900  1.0  0.0928
  H  H167  1  0.741100  0.858700  0.217900  1.0  0.1279
  H  H168  1  0.722500  0.793900  0.240900  1.0  0.0753
  H  H169  1  0.846900  0.412800  0.311200  1.0  0.0835
  H  H170  1  0.921600  0.371200  0.256200  1.0  0.1206
  H  H171  1  0.116400  0.374000  0.219800  1.0  0.1188
  H  H172  1  0.336000  0.542700  0.291100  1.0  0.1028
  H  H173  1  0.310700  0.537900  0.362300  1.0  0.1196
  H  H174  1  0.178300  0.498500  0.395700  1.0  0.0787
  H  H175  1  0.214000  0.702300  0.025300  1.0  0.08
  H  H176  1  0.238200  0.714300  0.092300  1.0  0.1189
  H  H177  1  0.308800  0.658900  0.131500  1.0  0.1064
  H  H178  1  0.268100  0.474300  0.037300  1.0  0.1174
  H  H179  1  0.375700  0.473200  0.971600  1.0  0.1148
  H  H180  1  0.421900  0.533900  0.941500  1.0  0.084
  H  H181  1  0.943300  0.384100  0.997900  1.0  0.0693
  H  H182  1  0.056200  0.434300  0.005100  1.0  0.1223
  H  H183  1  0.991300  0.478900  0.060700  1.0  0.0953
  H  H184  1  0.626800  0.372100  0.210300  1.0  0.1133
  H  H185  1  0.472000  0.353500  0.181500  1.0  0.1266
  H  H186  1  0.477700  0.360400  0.112000  1.0  0.0774
  H  H187  1  0.582500  0.544300  0.313100  1.0  0.1217
  H  H188  1  0.619200  0.575300  0.370300  1.0  0.122
  H  H189  1  0.676900  0.637100  0.363300  1.0  0.0816
  H  H190  1  0.742000  0.655900  0.135700  1.0  0.0936
  H  H191  1  0.599800  0.717900  0.141300  1.0  0.1277
  H  H192  1  0.516400  0.740900  0.206100  1.0  0.0754
  H  H193  1  0.070900  0.087200  0.188800  1.0  0.0853
  H  H194  1  0.049000  0.128800  0.243800  1.0  0.1213
  H  H195  1  0.210200  0.126000  0.280200  1.0  0.119
  H  H196  1  0.669800  0.957300  0.208900  1.0  0.104
  H  H197  1  0.710900  0.962100  0.137700  1.0  0.1195
  H  H198  1  0.572500  0.001500  0.104300  1.0  0.0789
  H  H199  1  0.441600  0.797700  0.474700  1.0  0.0806
  H  H200  1  0.544800  0.785700  0.407700  1.0  0.1189
  H  H201  1  0.599200  0.841100  0.368500  1.0  0.1064
  H  H202  1  0.279700  0.025700  0.462700  1.0  0.1172
  H  H203  1  0.320500  0.026800  0.528400  1.0  0.1156
  H  H204  1  0.397300  0.966100  0.558500  1.0  0.0828
  H  H205  1  0.825300  0.115900  0.502100  1.0  0.0691
  H  H206  1  0.995600  0.065700  0.494900  1.0  0.1201
  H  H207  1  0.030900  0.021100  0.439300  1.0  0.0945
  H  H208  1  0.709200  0.127900  0.289700  1.0  0.1134
  H  H209  1  0.507000  0.146500  0.318500  1.0  0.1262
  H  H210  1  0.450100  0.139600  0.388000  1.0  0.0783
  H  H211  1  0.939900  0.955700  0.186900  1.0  0.1208
  H  H212  1  0.064800  0.924700  0.129700  1.0  0.1228
  H  H213  1  0.177300  0.862900  0.136700  1.0  0.0804
  H  H214  1  0.033600  0.844100  0.364300  1.0  0.0927
  H  H215  1  0.959000  0.782100  0.358700  1.0  0.1279
  H  H216  1  0.963400  0.759100  0.293900  1.0  0.0737
  C  C217  1  0.661720  0.203290  0.414470  1.0  0.1589
  C  C218  1  0.642810  0.236030  0.389350  1.0  -0.1761
  C  C219  1  0.524900  0.257920  0.391280  1.0  -0.079
  C  C220  1  0.430340  0.245880  0.419440  1.0  -0.0753
  C  C221  1  0.303330  0.270560  0.420980  1.0  0.6947
  C  C222  1  0.458890  0.211960  0.444660  1.0  0.1187
  C  C223  1  0.368010  0.193870  0.474910  1.0  0.1331
  C  C224  1  0.272450  0.216350  0.502350  1.0  -0.1153
  C  C225  1  0.263240  0.261280  0.510640  1.0  0.7201
  C  C226  1  0.188990  0.194860  0.525560  1.0  0.0179
  C  C227  1  0.207420  0.152480  0.523080  1.0  -0.1442
  C  C228  1  0.308590  0.132860  0.498760  1.0  0.1714
  C  C229  1  0.081040  0.458250  0.680270  1.0  0.1422
  C  C230  1  0.057600  0.418260  0.687740  1.0  -0.1182
  C  C231  1  0.049920  0.394880  0.654680  1.0  0.0033
  C  C232  1  0.068440  0.410690  0.614830  1.0  -0.1228
  C  C233  1  0.039780  0.386480  0.581360  1.0  0.6902
  C  C234  1  0.098270  0.449670  0.609990  1.0  0.1655
  C  C235  1  0.124900  0.469800  0.569000  1.0  0.087
  C  C236  1  0.201560  0.452030  0.534650  1.0  -0.0804
  C  C237  1  0.282240  0.410060  0.536060  1.0  0.6955
  C  C238  1  0.209930  0.474490  0.498250  1.0  -0.0107
  C  C239  1  0.148550  0.513670  0.497630  1.0  -0.1156
  C  C240  1  0.081990  0.531180  0.534040  1.0  0.159
  C  C241  1  0.676500  0.478410  0.400190  1.0  0.1712
  C  C242  1  0.579800  0.475170  0.431030  1.0  -0.1382
  C  C243  1  0.591260  0.441620  0.456860  1.0  -0.0151
  C  C244  1  0.694650  0.411130  0.449970  1.0  -0.132
  C  C245  1  0.781050  0.414920  0.415380  1.0  0.1177
  C  C246  1  0.711150  0.378190  0.481710  1.0  0.7218
  C  C247  1  0.890520  0.383690  0.399470  1.0  0.1061
  C  C248  1  0.890500  0.341830  0.395170  1.0  -0.0873
  C  C249  1  0.780370  0.321670  0.409190  1.0  0.7133
  C  C250  1  0.998690  0.317550  0.376470  1.0  -0.0599
  C  C251  1  0.101220  0.334670  0.364490  1.0  -0.1612
  C  C252  1  0.093070  0.376200  0.369260  1.0  0.1574
  C  C253  1  0.852040  0.261660  0.571860  1.0  0.6914
  C  C254  1  0.797380  0.226410  0.591230  1.0  -0.0954
  C  C255  1  0.826200  0.188850  0.570350  1.0  -0.0445
  C  C256  1  0.785300  0.155100  0.588300  1.0  -0.1382
  C  C257  1  0.714600  0.159800  0.625400  1.0  0.154
  C  C258  1  0.725200  0.228900  0.629900  1.0  0.1079
  C  C259  1  0.698100  0.266560  0.655040  1.0  0.1951
  C  C260  1  0.640300  0.302600  0.642000  1.0  -0.1021
  C  C261  1  0.581560  0.308640  0.602840  1.0  0.6848
  C  C262  1  0.635200  0.338700  0.665300  1.0  -0.0113
  C  C263  1  0.680300  0.335600  0.702600  1.0  -0.162
  C  C264  1  0.720700  0.296900  0.714900  1.0  0.154
  C  C265  1  0.779480  0.296710  0.085530  1.0  0.1549
  C  C266  1  0.768190  0.263970  0.110650  1.0  -0.17
  C  C267  1  0.674100  0.242080  0.108720  1.0  -0.0793
  C  C268  1  0.595660  0.254120  0.080560  1.0  -0.0785
  C  C269  1  0.494870  0.229440  0.079020  1.0  0.6939
  C  C270  1  0.615510  0.288040  0.055340  1.0  0.118
  C  C271  1  0.536790  0.306130  0.025090  1.0  0.1329
  C  C272  1  0.491150  0.283650  0.997650  1.0  -0.1147
  C  C273  1  0.535160  0.238720  0.989360  1.0  0.7188
  C  C274  1  0.409410  0.305140  0.974440  1.0  0.019
  C  C275  1  0.382980  0.347520  0.976920  1.0  -0.1422
  C  C276  1  0.440210  0.367140  0.001240  1.0  0.1701
  C  C277  1  0.719560  0.041750  0.819730  1.0  0.1419
  C  C278  1  0.663600  0.081740  0.812260  1.0  -0.1147
  C  C279  1  0.599480  0.105120  0.845320  1.0  0.0015
  C  C280  1  0.593960  0.089310  0.885170  1.0  -0.1231
  C  C281  1  0.507620  0.113520  0.918640  1.0  0.6917
  C  C282  1  0.657930  0.050330  0.890010  1.0  0.1646
  C  C283  1  0.663700  0.030200  0.931000  1.0  0.0891
  C  C284  1  0.688240  0.047970  0.965350  1.0  -0.0823
  C  C285  1  0.728360  0.089940  0.963940  1.0  0.6943
  C  C286  1  0.682670  0.025510  0.001750  1.0  -0.0098
  C  C287  1  0.659850  0.986330  0.002370  1.0  -0.1173
  C  C288  1  0.647210  0.968820  0.965960  1.0  0.161
  C  C289  1  0.055100  0.021590  0.099810  1.0  0.1702
  C  C290  1  0.986000  0.024830  0.068970  1.0  -0.1383
  C  C291  1  0.989740  0.058380  0.043140  1.0  -0.0147
  C  C292  1  0.055750  0.088870  0.050030  1.0  -0.1298
  C  C293  1  0.111350  0.085080  0.084620  1.0  0.1179
  C  C294  1  0.071050  0.121810  0.018290  1.0  0.7225
  C  C295  1  0.173680  0.116310  0.100530  1.0  0.107
  C  C296  1  0.127500  0.158170  0.104830  1.0  -0.0855
  C  C297  1  0.011230  0.178330  0.090810  1.0  0.7131
  C  C298  1  0.192710  0.182450  0.123530  1.0  -0.0596
  C  C299  1  0.300380  0.165330  0.135510  1.0  -0.1603
  C  C300  1  0.338530  0.123800  0.130740  1.0  0.1565
  C  C301  1  0.185560  0.238340  0.928140  1.0  0.6922
  C  C302  1  0.115020  0.273590  0.908770  1.0  -0.0968
  C  C303  1  0.085400  0.311150  0.929650  1.0  -0.0423
  C  C304  1  0.028700  0.344900  0.911700  1.0  -0.1389
  C  C305  1  0.999800  0.340200  0.874600  1.0  0.1533
  C  C306  1  0.084000  0.271100  0.870100  1.0  0.1097
  C  C307  1  0.119700  0.233440  0.844960  1.0  0.1956
  C  C308  1  0.084900  0.197400  0.858000  1.0  -0.1044
  C  C309  1  0.993040  0.191360  0.897160  1.0  0.6844
  C  C310  1  0.139200  0.161300  0.834700  1.0  -0.0137
  C  C311  1  0.218500  0.164400  0.797400  1.0  -0.163
  C  C312  1  0.232500  0.203100  0.785100  1.0  0.1509
  C  C313  1  0.076190  0.585530  0.703290  1.0  0.1541
  C  C314  1  0.032160  0.610650  0.736030  1.0  -0.1739
  C  C315  1  0.916180  0.608720  0.757920  1.0  -0.0815
  C  C316  1  0.849780  0.580560  0.745880  1.0  -0.0774
  C  C317  1  0.724310  0.579020  0.770560  1.0  0.6938
  C  C318  1  0.903550  0.555340  0.711960  1.0  0.1192
  C  C319  1  0.842920  0.525090  0.693870  1.0  0.1329
  C  C320  1  0.774800  0.497650  0.716350  1.0  -0.1123
  C  C321  1  0.773880  0.489360  0.761280  1.0  0.7252
  C  C322  1  0.714550  0.474440  0.694860  1.0  0.0175
  C  C323  1  0.730500  0.476920  0.652480  1.0  -0.1455
  C  C324  1  0.807350  0.501240  0.632860  1.0  0.1725
  C  C325  1  0.761310  0.319730  0.958250  1.0  0.1428
  C  C326  1  0.745340  0.312260  0.918260  1.0  -0.1156
  C  C327  1  0.704600  0.345320  0.894880  1.0  0.0068
  C  C328  1  0.683270  0.385170  0.910690  1.0  -0.1252
  C  C329  1  0.621140  0.418640  0.886480  1.0  0.6948
  C  C330  1  0.708260  0.390010  0.949670  1.0  0.1676
  C  C331  1  0.693900  0.431000  0.969800  1.0  0.0877
  C  C332  1  0.736210  0.465350  0.952030  1.0  -0.0803
  C  C333  1  0.818300  0.463940  0.910060  1.0  0.6946
  C  C334  1  0.708180  0.501750  0.974490  1.0  -0.0116
  C  C335  1  0.646180  0.502370  0.013670  1.0  -0.1105
  C  C336  1  0.616030  0.465960  0.031180  1.0  0.1589
  C  C337  1  0.076690  0.599810  0.978410  1.0  0.167
  C  C338  1  0.010830  0.568970  0.975170  1.0  -0.1377
  C  C339  1  0.048120  0.543140  0.941620  1.0  -0.0152
  C  C340  1  0.144620  0.550030  0.911130  1.0  -0.1296
  C  C341  1  0.196430  0.584620  0.914920  1.0  0.1187
  C  C342  1  0.192860  0.518290  0.878190  1.0  0.7192
  C  C343  1  0.289990  0.600530  0.883690  1.0  0.1079
  C  C344  1  0.285670  0.604830  0.841830  1.0  -0.082
  C  C345  1  0.189560  0.590810  0.821670  1.0  0.7162
  C  C346  1  0.375160  0.623530  0.817550  1.0  -0.0611
  C  C347  1  0.465710  0.635510  0.834670  1.0  -0.1619
  C  C348  1  0.462330  0.630740  0.876200  1.0  0.1612
  C  C349  1  0.423900  0.428140  0.761660  1.0  0.6926
  C  C350  1  0.388610  0.408770  0.726410  1.0  -0.0941
  C  C351  1  0.396550  0.429650  0.688850  1.0  -0.0462
  C  C352  1  0.373600  0.411700  0.655100  1.0  -0.1427
  C  C353  1  0.340000  0.374600  0.659800  1.0  0.1457
  C  C354  1  0.355100  0.370100  0.728900  1.0  0.1075
  C  C355  1  0.353140  0.344960  0.766560  1.0  0.1965
  C  C356  1  0.282300  0.358000  0.802600  1.0  -0.103
  C  C357  1  0.184400  0.397160  0.808640  1.0  0.6854
  C  C358  1  0.300500  0.334700  0.838700  1.0  -0.0115
  C  C359  1  0.382900  0.297400  0.835600  1.0  -0.1592
  C  C360  1  0.435600  0.285100  0.796900  1.0  0.1498
  C  C361  1  0.865010  0.914470  0.796710  1.0  0.1588
  C  C362  1  0.878840  0.889350  0.763970  1.0  -0.1751
  C  C363  1  0.782820  0.891280  0.742080  1.0  -0.0807
  C  C364  1  0.676220  0.919440  0.754120  1.0  -0.0785
  C  C365  1  0.573890  0.920980  0.729440  1.0  0.6969
  C  C366  1  0.670850  0.944660  0.788040  1.0  0.1192
  C  C367  1  0.561880  0.974910  0.806130  1.0  0.1335
  C  C368  1  0.488800  0.002350  0.783650  1.0  -0.1128
  C  C369  1  0.524520  0.010640  0.738720  1.0  0.7278
  C  C370  1  0.383850  0.025560  0.805140  1.0  0.0189
  C  C371  1  0.359900  0.023080  0.847520  1.0  -0.1447
  C  C372  1  0.441450  0.998760  0.867140  1.0  0.1706
  C  C373  1  0.539290  0.180270  0.541750  1.0  0.1403
  C  C374  1  0.475860  0.187740  0.581740  1.0  -0.1133
  C  C375  1  0.444800  0.154680  0.605120  1.0  0.0036
  C  C376  1  0.479130  0.114830  0.589310  1.0  -0.1263
  C  C377  1  0.426260  0.081360  0.613520  1.0  0.6926
  C  C378  1  0.547940  0.109990  0.550330  1.0  0.1644
  C  C379  1  0.594700  0.069000  0.530200  1.0  0.0882
  C  C380  1  0.653590  0.034650  0.547970  1.0  -0.0811
  C  C381  1  0.692300  0.036060  0.589940  1.0  0.6976
  C  C382  1  0.684420  0.998250  0.525510  1.0  -0.01
  C  C383  1  0.662220  0.997630  0.486330  1.0  -0.1119
  C  C384  1  0.613170  0.034040  0.468820  1.0  0.1615
  C  C385  1  0.154910  0.900190  0.521590  1.0  0.1659
  C  C386  1  0.054970  0.931030  0.524830  1.0  -0.138
  C  C387  1  0.032880  0.956860  0.558380  1.0  -0.0149
  C  C388  1  0.105780  0.949970  0.588870  1.0  -0.1284
  C  C389  1  0.195970  0.915380  0.585080  1.0  0.118
  C  C390  1  0.089340  0.981710  0.621810  1.0  0.7186
  C  C391  1  0.274210  0.899470  0.616310  1.0  0.1069
  C  C392  1  0.232330  0.895170  0.658170  1.0  -0.0864
  C  C393  1  0.102040  0.909190  0.678330  1.0  0.7152
  C  C394  1  0.316240  0.876470  0.682450  1.0  -0.0641
  C  C395  1  0.435890  0.864490  0.665330  1.0  -0.1595
  C  C396  1  0.469270  0.869260  0.623800  1.0  0.1565
  C  C397  1  0.113700  0.071860  0.738340  1.0  0.6896
  C  C398  1  0.023790  0.091230  0.773590  1.0  -0.0957
  C  C399  1  0.015050  0.070350  0.811150  1.0  -0.048
  C  C400  1  0.940400  0.088300  0.844900  1.0  -0.1414
  C  C401  1  0.874400  0.125400  0.840200  1.0  0.148
  C  C402  1  0.954100  0.129900  0.771100  1.0  0.1085
  C  C403  1  0.964660  0.155040  0.733440  1.0  0.1952
  C  C404  1  0.942900  0.142000  0.697400  1.0  -0.103
  C  C405  1  0.890200  0.102840  0.691360  1.0  0.6859
  C  C406  1  0.973900  0.165300  0.661300  1.0  -0.011
  C  C407  1  0.015900  0.202600  0.664400  1.0  -0.1621
  C  C408  1  0.017600  0.214900  0.703100  1.0  0.1484
  C  C409  1  0.338280  0.796710  0.585530  1.0  0.1598
  C  C410  1  0.357190  0.763970  0.610650  1.0  -0.1769
  C  C411  1  0.475100  0.742080  0.608720  1.0  -0.0781
  C  C412  1  0.569660  0.754120  0.580560  1.0  -0.0779
  C  C413  1  0.696670  0.729440  0.579020  1.0  0.6947
  C  C414  1  0.541110  0.788040  0.555340  1.0  0.1174
  C  C415  1  0.631990  0.806130  0.525090  1.0  0.1327
  C  C416  1  0.727550  0.783650  0.497650  1.0  -0.1153
  C  C417  1  0.736760  0.738720  0.489360  1.0  0.7188
  C  C418  1  0.811010  0.805140  0.474440  1.0  0.0177
  C  C419  1  0.792580  0.847520  0.476920  1.0  -0.1415
  C  C420  1  0.691410  0.867140  0.501240  1.0  0.1696
  C  C421  1  0.918960  0.541750  0.319730  1.0  0.1424
  C  C422  1  0.942400  0.581740  0.312260  1.0  -0.1172
  C  C423  1  0.950080  0.605120  0.345320  1.0  0.0031
  C  C424  1  0.931560  0.589310  0.385170  1.0  -0.1221
  C  C425  1  0.960220  0.613520  0.418640  1.0  0.6914
  C  C426  1  0.901730  0.550330  0.390010  1.0  0.1658
  C  C427  1  0.875100  0.530200  0.431000  1.0  0.088
  C  C428  1  0.798440  0.547970  0.465350  1.0  -0.0809
  C  C429  1  0.717760  0.589940  0.463940  1.0  0.6954
  C  C430  1  0.790070  0.525510  0.501750  1.0  -0.0096
  C  C431  1  0.851450  0.486330  0.502370  1.0  -0.1175
  C  C432  1  0.918010  0.468820  0.465960  1.0  0.1609
  C  C433  1  0.323500  0.521590  0.599810  1.0  0.1714
  C  C434  1  0.420200  0.524830  0.568970  1.0  -0.139
  C  C435  1  0.408740  0.558380  0.543140  1.0  -0.0164
  C  C436  1  0.305350  0.588870  0.550030  1.0  -0.1312
  C  C437  1  0.218950  0.585080  0.584620  1.0  0.1178
  C  C438  1  0.288850  0.621810  0.518290  1.0  0.7239
  C  C439  1  0.109480  0.616310  0.600530  1.0  0.1069
  C  C440  1  0.109500  0.658170  0.604830  1.0  -0.0852
  C  C441  1  0.219630  0.678330  0.590810  1.0  0.7111
  C  C442  1  0.001310  0.682450  0.623530  1.0  -0.058
  C  C443  1  0.898780  0.665330  0.635510  1.0  -0.1624
  C  C444  1  0.906930  0.623800  0.630740  1.0  0.1553
  C  C445  1  0.147960  0.738340  0.428140  1.0  0.6928
  C  C446  1  0.202620  0.773590  0.408770  1.0  -0.0963
  C  C447  1  0.173800  0.811150  0.429650  1.0  -0.044
  C  C448  1  0.214700  0.844900  0.411700  1.0  -0.1375
  C  C449  1  0.285400  0.840200  0.374600  1.0  0.1521
  C  C450  1  0.274800  0.771100  0.370100  1.0  0.1087
  C  C451  1  0.301900  0.733440  0.344960  1.0  0.1949
  C  C452  1  0.359700  0.697400  0.358000  1.0  -0.1042
  C  C453  1  0.418440  0.691360  0.397160  1.0  0.6853
  C  C454  1  0.364800  0.661300  0.334700  1.0  -0.0121
  C  C455  1  0.319700  0.664400  0.297400  1.0  -0.1609
  C  C456  1  0.279300  0.703100  0.285100  1.0  0.1525
  C  C457  1  0.220520  0.703290  0.914470  1.0  0.1559
  C  C458  1  0.231810  0.736030  0.889350  1.0  -0.1721
  C  C459  1  0.325900  0.757920  0.891280  1.0  -0.0806
  C  C460  1  0.404340  0.745880  0.919440  1.0  -0.0769
  C  C461  1  0.505130  0.770560  0.920980  1.0  0.695
  C  C462  1  0.384490  0.711960  0.944660  1.0  0.1188
  C  C463  1  0.463210  0.693870  0.974910  1.0  0.1322
  C  C464  1  0.508850  0.716350  0.002350  1.0  -0.1151
  C  C465  1  0.464840  0.761280  0.010640  1.0  0.7193
  C  C466  1  0.590590  0.694860  0.025560  1.0  0.0167
  C  C467  1  0.617020  0.652480  0.023080  1.0  -0.1402
  C  C468  1  0.559790  0.632860  0.998760  1.0  0.1701
  C  C469  1  0.280440  0.958250  0.180270  1.0  0.1417
  C  C470  1  0.336400  0.918260  0.187740  1.0  -0.1159
  C  C471  1  0.400520  0.894880  0.154680  1.0  0.003
  C  C472  1  0.406040  0.910690  0.114830  1.0  -0.1241
  C  C473  1  0.492380  0.886480  0.081360  1.0  0.6882
  C  C474  1  0.342070  0.949670  0.109990  1.0  0.1657
  C  C475  1  0.336300  0.969800  0.069000  1.0  0.0875
  C  C476  1  0.311760  0.952030  0.034650  1.0  -0.0833
  C  C477  1  0.271640  0.910060  0.036060  1.0  0.6953
  C  C478  1  0.317330  0.974490  0.998250  1.0  -0.0098
  C  C479  1  0.340150  0.013670  0.997630  1.0  -0.1166
  C  C480  1  0.352790  0.031180  0.034040  1.0  0.1596
  C  C481  1  0.944900  0.978410  0.900190  1.0  0.1707
  C  C482  1  0.014000  0.975170  0.931030  1.0  -0.1385
  C  C483  1  0.010260  0.941620  0.956860  1.0  -0.0154
  C  C484  1  0.944250  0.911130  0.949970  1.0  -0.1299
  C  C485  1  0.888650  0.914920  0.915380  1.0  0.1174
  C  C486  1  0.928950  0.878190  0.981710  1.0  0.7212
  C  C487  1  0.826320  0.883690  0.899470  1.0  0.1068
  C  C488  1  0.872500  0.841830  0.895170  1.0  -0.0866
  C  C489  1  0.988770  0.821670  0.909190  1.0  0.714
  C  C490  1  0.807290  0.817550  0.876470  1.0  -0.0609
  C  C491  1  0.699620  0.834670  0.864490  1.0  -0.1618
  C  C492  1  0.661470  0.876200  0.869260  1.0  0.1567
  C  C493  1  0.814440  0.761660  0.071860  1.0  0.6927
  C  C494  1  0.884980  0.726410  0.091230  1.0  -0.096
  C  C495  1  0.914600  0.688850  0.070350  1.0  -0.042
  C  C496  1  0.971300  0.655100  0.088300  1.0  -0.1378
  C  C497  1  0.000200  0.659800  0.125400  1.0  0.1535
  C  C498  1  0.916000  0.728900  0.129900  1.0  0.1093
  C  C499  1  0.880300  0.766560  0.155040  1.0  0.1961
  C  C500  1  0.915100  0.802600  0.142000  1.0  -0.1032
  C  C501  1  0.006960  0.808640  0.102840  1.0  0.6853
  C  C502  1  0.860800  0.838700  0.165300  1.0  -0.0114
  C  C503  1  0.781500  0.835600  0.202600  1.0  -0.1619
  C  C504  1  0.767500  0.796900  0.214900  1.0  0.1538
  C  C505  1  0.923810  0.414470  0.296710  1.0  0.1561
  C  C506  1  0.967840  0.389350  0.263970  1.0  -0.1758
  C  C507  1  0.083820  0.391280  0.242080  1.0  -0.0831
  C  C508  1  0.150220  0.419440  0.254120  1.0  -0.079
  C  C509  1  0.275690  0.420980  0.229440  1.0  0.6959
  C  C510  1  0.096450  0.444660  0.288040  1.0  0.1188
  C  C511  1  0.157080  0.474910  0.306130  1.0  0.1331
  C  C512  1  0.225200  0.502350  0.283650  1.0  -0.1122
  C  C513  1  0.226120  0.510640  0.238720  1.0  0.7254
  C  C514  1  0.285450  0.525560  0.305140  1.0  0.018
  C  C515  1  0.269500  0.523080  0.347520  1.0  -0.1422
  C  C516  1  0.192650  0.498760  0.367140  1.0  0.1707
  C  C517  1  0.238690  0.680270  0.041750  1.0  0.1416
  C  C518  1  0.254660  0.687740  0.081740  1.0  -0.1134
  C  C519  1  0.295400  0.654680  0.105120  1.0  0.0053
  C  C520  1  0.316730  0.614830  0.089310  1.0  -0.1212
  C  C521  1  0.378860  0.581360  0.113520  1.0  0.6962
  C  C522  1  0.291740  0.609990  0.050330  1.0  0.1657
  C  C523  1  0.306100  0.569000  0.030200  1.0  0.0885
  C  C524  1  0.263790  0.534650  0.047970  1.0  -0.082
  C  C525  1  0.181700  0.536060  0.089940  1.0  0.6937
  C  C526  1  0.291820  0.498250  0.025510  1.0  -0.0101
  C  C527  1  0.353820  0.497630  0.986330  1.0  -0.113
  C  C528  1  0.383970  0.534040  0.968820  1.0  0.1599
  C  C529  1  0.923310  0.400190  0.021590  1.0  0.1674
  C  C530  1  0.989170  0.431030  0.024830  1.0  -0.1375
  C  C531  1  0.951880  0.456860  0.058380  1.0  -0.0147
  C  C532  1  0.855380  0.449970  0.088870  1.0  -0.128
  C  C533  1  0.803570  0.415380  0.085080  1.0  0.1179
  C  C534  1  0.807140  0.481710  0.121810  1.0  0.7178
  C  C535  1  0.710010  0.399470  0.116310  1.0  0.1064
  C  C536  1  0.714330  0.395170  0.158170  1.0  -0.0812
  C  C537  1  0.810440  0.409190  0.178330  1.0  0.7155
  C  C538  1  0.624840  0.376470  0.182450  1.0  -0.0608
  C  C539  1  0.534290  0.364490  0.165330  1.0  -0.1635
  C  C540  1  0.537670  0.369260  0.123800  1.0  0.1603
  C  C541  1  0.576100  0.571860  0.238340  1.0  0.6932
  C  C542  1  0.611390  0.591230  0.273590  1.0  -0.0958
  C  C543  1  0.603450  0.570350  0.311150  1.0  -0.0464
  C  C544  1  0.626400  0.588300  0.344900  1.0  -0.1408
  C  C545  1  0.660000  0.625400  0.340200  1.0  0.1462
  C  C546  1  0.644900  0.629900  0.271100  1.0  0.1089
  C  C547  1  0.646860  0.655040  0.233440  1.0  0.1952
  C  C548  1  0.717700  0.642000  0.197400  1.0  -0.1032
  C  C549  1  0.815600  0.602840  0.191360  1.0  0.6857
  C  C550  1  0.699500  0.665300  0.161300  1.0  -0.0104
  C  C551  1  0.617100  0.702600  0.164400  1.0  -0.1574
  C  C552  1  0.564400  0.714900  0.203100  1.0  0.1498
  C  C553  1  0.134990  0.085530  0.203290  1.0  0.1596
  C  C554  1  0.121160  0.110650  0.236030  1.0  -0.176
  C  C555  1  0.217180  0.108720  0.257920  1.0  -0.0804
  C  C556  1  0.323780  0.080560  0.245880  1.0  -0.0759
  C  C557  1  0.426110  0.079020  0.270560  1.0  0.6946
  C  C558  1  0.329150  0.055340  0.211960  1.0  0.1191
  C  C559  1  0.438120  0.025090  0.193870  1.0  0.1329
  C  C560  1  0.511200  0.997650  0.216350  1.0  -0.1124
  C  C561  1  0.475480  0.989360  0.261280  1.0  0.7264
  C  C562  1  0.616150  0.974440  0.194860  1.0  0.0179
  C  C563  1  0.640100  0.976920  0.152480  1.0  -0.1409
  C  C564  1  0.558550  0.001240  0.132860  1.0  0.1707
  C  C565  1  0.460710  0.819730  0.458250  1.0  0.1407
  C  C566  1  0.524140  0.812260  0.418260  1.0  -0.116
  C  C567  1  0.555200  0.845320  0.394880  1.0  0.0041
  C  C568  1  0.520870  0.885170  0.410690  1.0  -0.127
  C  C569  1  0.573740  0.918640  0.386480  1.0  0.6908
  C  C570  1  0.452060  0.890010  0.449670  1.0  0.1668
  C  C571  1  0.405300  0.931000  0.469800  1.0  0.0875
  C  C572  1  0.346410  0.965350  0.452030  1.0  -0.0802
  C  C573  1  0.307700  0.963940  0.410060  1.0  0.6976
  C  C574  1  0.315580  0.001750  0.474490  1.0  -0.0102
  C  C575  1  0.337780  0.002370  0.513670  1.0  -0.1112
  C  C576  1  0.386830  0.965960  0.531180  1.0  0.1592
  C  C577  1  0.845090  0.099810  0.478410  1.0  0.1664
  C  C578  1  0.945030  0.068970  0.475170  1.0  -0.1408
  C  C579  1  0.967120  0.043140  0.441620  1.0  -0.0156
  C  C580  1  0.894220  0.050030  0.411130  1.0  -0.1286
  C  C581  1  0.804030  0.084620  0.414920  1.0  0.1179
  C  C582  1  0.910660  0.018290  0.378190  1.0  0.7184
  C  C583  1  0.725790  0.100530  0.383690  1.0  0.1083
  C  C584  1  0.767670  0.104830  0.341830  1.0  -0.0865
  C  C585  1  0.897960  0.090810  0.321670  1.0  0.7147
  C  C586  1  0.683760  0.123530  0.317550  1.0  -0.0633
  C  C587  1  0.564110  0.135510  0.334670  1.0  -0.1614
  C  C588  1  0.530730  0.130740  0.376200  1.0  0.159
  C  C589  1  0.886300  0.928140  0.261660  1.0  0.6908
  C  C590  1  0.976210  0.908770  0.226410  1.0  -0.0951
  C  C591  1  0.984950  0.929650  0.188850  1.0  -0.0462
  C  C592  1  0.059600  0.911700  0.155100  1.0  -0.1426
  C  C593  1  0.125600  0.874600  0.159800  1.0  0.1473
  C  C594  1  0.045900  0.870100  0.228900  1.0  0.1086
  C  C595  1  0.035340  0.844960  0.266560  1.0  0.1952
  C  C596  1  0.057100  0.858000  0.302600  1.0  -0.104
  C  C597  1  0.109800  0.897160  0.308640  1.0  0.6863
  C  C598  1  0.026100  0.834700  0.338700  1.0  -0.0107
  C  C599  1  0.984100  0.797400  0.335600  1.0  -0.1611
  C  C600  1  0.982400  0.785100  0.296900  1.0  0.1482
  N  N601  1  0.572350  0.190620  0.441880  1.0  -0.3169
  N  N602  1  0.388980  0.153030  0.475010  1.0  -0.2991
  N  N603  1  0.099780  0.473360  0.642280  1.0  -0.3399
  N  N604  1  0.070580  0.510230  0.569010  1.0  -0.3339
  N  N605  1  0.991210  0.400380  0.386000  1.0  -0.3137
  N  N606  1  0.775620  0.449490  0.392070  1.0  -0.329
  N  N607  1  0.731570  0.262100  0.692560  1.0  -0.4035
  N  N608  1  0.680400  0.195560  0.647840  1.0  -0.4278
  N  N609  1  0.704850  0.309380  0.058120  1.0  -0.3162
  N  N610  1  0.517020  0.346970  0.024990  1.0  -0.3003
  N  N611  1  0.715420  0.026640  0.857720  1.0  -0.3401
  N  N612  1  0.649820  0.989770  0.930990  1.0  -0.3328
  N  N613  1  0.277590  0.099620  0.114000  1.0  -0.313
  N  N614  1  0.117180  0.050510  0.107930  1.0  -0.3297
  N  N615  1  0.186230  0.237900  0.807440  1.0  -0.405
  N  N616  1  0.023800  0.304440  0.852160  1.0  -0.4283
  N  N617  1  0.014230  0.558120  0.690620  1.0  -0.3169
  N  N618  1  0.863990  0.524990  0.653030  1.0  -0.2996
  N  N619  1  0.742060  0.357720  0.973360  1.0  -0.339
  N  N620  1  0.639590  0.430990  0.010230  1.0  -0.3334
  N  N621  1  0.377210  0.614000  0.900380  1.0  -0.3162
  N  N622  1  0.167690  0.607930  0.949490  1.0  -0.329
  N  N623  1  0.424130  0.307440  0.762100  1.0  -0.4077
  N  N624  1  0.328240  0.352160  0.695560  1.0  -0.4237
  N  N625  1  0.762970  0.941880  0.809380  1.0  -0.317
  N  N626  1  0.542010  0.975010  0.846970  1.0  -0.2971
  N  N627  1  0.573140  0.142280  0.526640  1.0  -0.3381
  N  N628  1  0.580810  0.069010  0.489770  1.0  -0.3311
  N  N629  1  0.391590  0.886000  0.599620  1.0  -0.3152
  N  N630  1  0.225110  0.892070  0.550510  1.0  -0.3276
  N  N631  1  0.993670  0.192560  0.737900  1.0  -0.4074
  N  N632  1  0.875960  0.147840  0.804440  1.0  -0.424
  N  N633  1  0.427650  0.809380  0.558120  1.0  -0.3165
  N  N634  1  0.611020  0.846970  0.524990  1.0  -0.3003
  N  N635  1  0.900220  0.526640  0.357720  1.0  -0.3409
  N  N636  1  0.929420  0.489770  0.430990  1.0  -0.3319
  N  N637  1  0.008790  0.599620  0.614000  1.0  -0.3143
  N  N638  1  0.224380  0.550510  0.607930  1.0  -0.3273
  N  N639  1  0.268430  0.737900  0.307440  1.0  -0.4038
  N  N640  1  0.319600  0.804440  0.352160  1.0  -0.4279
  N  N641  1  0.295150  0.690620  0.941880  1.0  -0.3171
  N  N642  1  0.482980  0.653030  0.975010  1.0  -0.2982
  N  N643  1  0.284580  0.973360  0.142280  1.0  -0.3395
  N  N644  1  0.350180  0.010230  0.069010  1.0  -0.3321
  N  N645  1  0.722410  0.900380  0.886000  1.0  -0.3137
  N  N646  1  0.882820  0.949490  0.892070  1.0  -0.3279
  N  N647  1  0.813770  0.762100  0.192560  1.0  -0.4042
  N  N648  1  0.976200  0.695560  0.147840  1.0  -0.4285
  N  N649  1  0.985770  0.441880  0.309380  1.0  -0.3171
  N  N650  1  0.136010  0.475010  0.346970  1.0  -0.2983
  N  N651  1  0.257940  0.642280  0.026640  1.0  -0.3403
  N  N652  1  0.360410  0.569010  0.989770  1.0  -0.3322
  N  N653  1  0.622790  0.386000  0.099620  1.0  -0.3157
  N  N654  1  0.832310  0.392070  0.050510  1.0  -0.3277
  N  N655  1  0.575870  0.692560  0.237900  1.0  -0.4068
  N  N656  1  0.671760  0.647840  0.304440  1.0  -0.425
  N  N657  1  0.237030  0.058120  0.190620  1.0  -0.3164
  N  N658  1  0.457990  0.024990  0.153030  1.0  -0.2968
  N  N659  1  0.426860  0.857720  0.473360  1.0  -0.3384
  N  N660  1  0.419190  0.930990  0.510230  1.0  -0.332
  N  N661  1  0.608410  0.114000  0.400380  1.0  -0.3163
  N  N662  1  0.774890  0.107930  0.449490  1.0  -0.3271
  N  N663  1  0.006330  0.807440  0.262100  1.0  -0.4073
  N  N664  1  0.124040  0.852160  0.195560  1.0  -0.4261
  O  O665  1  0.293140  0.308660  0.422060  1.0  -0.5658
  O  O666  1  0.216960  0.250640  0.421440  1.0  -0.5602
  O  O667  1  0.363130  0.274600  0.506340  1.0  -0.7259
  O  O668  1  0.160950  0.282220  0.522480  1.0  -0.7459
  O  O669  1  0.060400  0.347380  0.585020  1.0  -0.7046
  O  O670  1  0.996180  0.403680  0.552160  1.0  -0.6554
  O  O671  1  0.361290  0.406470  0.558550  1.0  -0.6547
  O  O672  1  0.271540  0.381850  0.513070  1.0  -0.655
  O  O673  1  0.797370  0.288860  0.428800  1.0  -0.5471
  O  O674  1  0.680700  0.339220  0.399980  1.0  -0.5624
  O  O675  1  0.541210  0.279450  0.589730  1.0  -0.7385
  O  O676  1  0.568230  0.343260  0.588280  1.0  -0.5985
  O  O677  1  0.618230  0.369410  0.503530  1.0  -0.7215
  O  O678  1  0.818940  0.363330  0.484790  1.0  -0.7491
  O  O679  1  0.933800  0.274010  0.586190  1.0  -0.6237
  O  O680  1  0.813710  0.278190  0.540590  1.0  -0.6628
  O  O681  1  0.523860  0.191340  0.077940  1.0  -0.5649
  O  O682  1  0.389040  0.249360  0.078560  1.0  -0.5557
  O  O683  1  0.644070  0.225400  0.993660  1.0  -0.7257
  O  O684  1  0.465650  0.217780  0.977520  1.0  -0.7461
  O  O685  1  0.492800  0.152620  0.914980  1.0  -0.7035
  O  O686  1  0.452020  0.096320  0.947840  1.0  -0.6547
  O  O687  1  0.826310  0.093530  0.941450  1.0  -0.6552
  O  O688  1  0.666460  0.118150  0.986930  1.0  -0.6516
  O  O689  1  0.015030  0.211140  0.071200  1.0  -0.546
  O  O690  1  0.919900  0.160780  0.100020  1.0  -0.5584
  O  O691  1  0.910390  0.220550  0.910270  1.0  -0.7396
  O  O692  1  0.999770  0.156740  0.911720  1.0  -0.5973
  O  O693  1  0.991170  0.130590  0.996470  1.0  -0.721
  O  O694  1  0.167060  0.136670  0.015210  1.0  -0.7481
  O  O695  1  0.294000  0.225990  0.913810  1.0  -0.6227
  O  O696  1  0.132490  0.221810  0.959410  1.0  -0.6619
  O  O697  1  0.715200  0.577940  0.808660  1.0  -0.5654
  O  O698  1  0.638400  0.578560  0.750640  1.0  -0.5613
  O  O699  1  0.869470  0.493660  0.774600  1.0  -0.7261
  O  O700  1  0.683430  0.477520  0.782220  1.0  -0.7443
  O  O701  1  0.645420  0.414980  0.847380  1.0  -0.7108
  O  O702  1  0.548340  0.447840  0.903680  1.0  -0.6533
  O  O703  1  0.919840  0.441450  0.906470  1.0  -0.6527
  O  O704  1  0.784610  0.486930  0.881850  1.0  -0.6559
  O  O705  1  0.226170  0.571200  0.788860  1.0  -0.548
  O  O706  1  0.080680  0.600020  0.839220  1.0  -0.5592
  O  O707  1  0.130940  0.410270  0.779450  1.0  -0.7386
  O  O708  1  0.156510  0.411720  0.843260  1.0  -0.5987
  O  O709  1  0.121760  0.496470  0.869410  1.0  -0.722
  O  O710  1  0.303730  0.515210  0.863330  1.0  -0.7487
  O  O711  1  0.519990  0.413810  0.774010  1.0  -0.6241
  O  O712  1  0.354300  0.459410  0.778190  1.0  -0.6548
  O  O713  1  0.601800  0.922060  0.691340  1.0  -0.5666
  O  O714  1  0.467600  0.921440  0.749360  1.0  -0.5565
  O  O715  1  0.637730  0.006340  0.725400  1.0  -0.7276
  O  O716  1  0.443170  0.022480  0.717780  1.0  -0.7449
  O  O717  1  0.407780  0.085020  0.652620  1.0  -0.7092
  O  O718  1  0.399860  0.052160  0.596320  1.0  -0.6553
  O  O719  1  0.767760  0.058550  0.593530  1.0  -0.6525
  O  O720  1  0.653390  0.013070  0.618150  1.0  -0.6516
  O  O721  1  0.086230  0.928800  0.711140  1.0  -0.5477
  O  O722  1  0.019920  0.899980  0.660780  1.0  -0.5586
  O  O723  1  0.820660  0.089730  0.720550  1.0  -0.7377
  O  O724  1  0.911490  0.088280  0.656740  1.0  -0.5988
  O  O725  1  0.987640  0.003530  0.630590  1.0  -0.7229
  O  O726  1  0.182270  0.984790  0.636670  1.0  -0.7466
  O  O727  1  0.207810  0.086190  0.725990  1.0  -0.6238
  O  O728  1  0.091900  0.040590  0.721810  1.0  -0.6553
  O  O729  1  0.706860  0.691340  0.577940  1.0  -0.5661
  O  O730  1  0.783040  0.749360  0.578560  1.0  -0.5611
  O  O731  1  0.636870  0.725400  0.493660  1.0  -0.7272
  O  O732  1  0.839050  0.717780  0.477520  1.0  -0.7452
  O  O733  1  0.939600  0.652620  0.414980  1.0  -0.7034
  O  O734  1  0.003820  0.596320  0.447840  1.0  -0.6552
  O  O735  1  0.638710  0.593530  0.441450  1.0  -0.6545
  O  O736  1  0.728460  0.618150  0.486930  1.0  -0.6538
  O  O737  1  0.202630  0.711140  0.571200  1.0  -0.5466
  O  O738  1  0.319300  0.660780  0.600020  1.0  -0.5616
  O  O739  1  0.458790  0.720550  0.410270  1.0  -0.7377
  O  O740  1  0.431770  0.656740  0.411720  1.0  -0.5984
  O  O741  1  0.381770  0.630590  0.496470  1.0  -0.7222
  O  O742  1  0.181060  0.636670  0.515210  1.0  -0.7495
  O  O743  1  0.066200  0.725990  0.413810  1.0  -0.6232
  O  O744  1  0.186290  0.721810  0.459410  1.0  -0.6629
  O  O745  1  0.476140  0.808660  0.922060  1.0  -0.5655
  O  O746  1  0.610960  0.750640  0.921440  1.0  -0.5601
  O  O747  1  0.355930  0.774600  0.006340  1.0  -0.7247
  O  O748  1  0.534350  0.782220  0.022480  1.0  -0.7469
  O  O749  1  0.507200  0.847380  0.085020  1.0  -0.7049
  O  O750  1  0.547980  0.903680  0.052160  1.0  -0.6556
  O  O751  1  0.173690  0.906470  0.058550  1.0  -0.6539
  O  O752  1  0.333540  0.881850  0.013070  1.0  -0.6523
  O  O753  1  0.984970  0.788860  0.928800  1.0  -0.5462
  O  O754  1  0.080100  0.839220  0.899980  1.0  -0.5593
  O  O755  1  0.089610  0.779450  0.089730  1.0  -0.7379
  O  O756  1  0.000230  0.843260  0.088280  1.0  -0.5979
  O  O757  1  0.008830  0.869410  0.003530  1.0  -0.7204
  O  O758  1  0.832940  0.863330  0.984790  1.0  -0.7495
  O  O759  1  0.706000  0.774010  0.086190  1.0  -0.6253
  O  O760  1  0.867510  0.778190  0.040590  1.0  -0.6635
  O  O761  1  0.284800  0.422060  0.191340  1.0  -0.5646
  O  O762  1  0.361600  0.421440  0.249360  1.0  -0.5636
  O  O763  1  0.130530  0.506340  0.225400  1.0  -0.7257
  O  O764  1  0.316570  0.522480  0.217780  1.0  -0.7459
  O  O765  1  0.354580  0.585020  0.152620  1.0  -0.7105
  O  O766  1  0.451660  0.552160  0.096320  1.0  -0.6547
  O  O767  1  0.080160  0.558550  0.093530  1.0  -0.652
  O  O768  1  0.215390  0.513070  0.118150  1.0  -0.6542
  O  O769  1  0.773830  0.428800  0.211140  1.0  -0.5486
  O  O770  1  0.919320  0.399980  0.160780  1.0  -0.5585
  O  O771  1  0.869060  0.589730  0.220550  1.0  -0.7375
  O  O772  1  0.843490  0.588280  0.156740  1.0  -0.5985
  O  O773  1  0.878240  0.503530  0.130590  1.0  -0.722
  O  O774  1  0.696270  0.484790  0.136670  1.0  -0.7491
  O  O775  1  0.480010  0.586190  0.225990  1.0  -0.6258
  O  O776  1  0.645700  0.540590  0.221810  1.0  -0.6543
  O  O777  1  0.398200  0.077940  0.308660  1.0  -0.5677
  O  O778  1  0.532400  0.078560  0.250640  1.0  -0.5597
  O  O779  1  0.362270  0.993660  0.274600  1.0  -0.7275
  O  O780  1  0.556830  0.977520  0.282220  1.0  -0.745
  O  O781  1  0.592220  0.914980  0.347380  1.0  -0.7112
  O  O782  1  0.600140  0.947840  0.403680  1.0  -0.6538
  O  O783  1  0.232240  0.941450  0.406470  1.0  -0.654
  O  O784  1  0.346610  0.986930  0.381850  1.0  -0.6531
  O  O785  1  0.913770  0.071200  0.288860  1.0  -0.5477
  O  O786  1  0.980080  0.100020  0.339220  1.0  -0.5591
  O  O787  1  0.179340  0.910270  0.279450  1.0  -0.7371
  O  O788  1  0.088510  0.911720  0.343260  1.0  -0.5984
  O  O789  1  0.012360  0.996470  0.369410  1.0  -0.7227
  O  O790  1  0.817730  0.015210  0.363330  1.0  -0.7484
  O  O791  1  0.792190  0.913810  0.274010  1.0  -0.6225
  O  O792  1  0.908100  0.959410  0.278190  1.0  -0.6558
