# generated using pymatgen
data_Nd2CoH24C48(NO2)8
_symmetry_space_group_name_H-M   'P 1'
_cell_length_a   11.22760000
_cell_length_b   32.86700000
_cell_length_c   32.86700000
_cell_angle_alpha   88.32820000
_cell_angle_beta   80.16550000
_cell_angle_gamma   80.16560000
_symmetry_Int_Tables_number   1
_chemical_formula_structural   Nd2CoH24C48(NO2)8
_chemical_formula_sum   'Nd16 Co8 H192 C384 N64 O128'
_cell_volume   11774.67067046
_cell_formula_units_Z   8
loop_
 _symmetry_equiv_pos_site_id
 _symmetry_equiv_pos_as_xyz
  1  'x, y, z'
loop_
 _atom_site_type_symbol
 _atom_site_label
 _atom_site_symmetry_multiplicity
 _atom_site_fract_x
 _atom_site_fract_y
 _atom_site_fract_z
 _atom_site_occupancy
 _atom_site_charge
  Nd  Nd1  1  0.816810  0.970730  0.171090  1.0  2.2497
  Nd  Nd2  1  0.317590  0.973730  0.173180  1.0  2.2603
  Nd  Nd3  1  0.458630  0.529270  0.328910  1.0  2.2482
  Nd  Nd4  1  0.964490  0.526270  0.326820  1.0  2.2606
  Nd  Nd5  1  0.987900  0.828910  0.470730  1.0  2.2487
  Nd  Nd6  1  0.490760  0.826820  0.473740  1.0  2.2607
  Nd  Nd7  1  0.787540  0.671090  0.029270  1.0  2.2492
  Nd  Nd8  1  0.291320  0.673180  0.026260  1.0  2.2595
  Nd  Nd9  1  0.183190  0.029270  0.828910  1.0  2.2482
  Nd  Nd10  1  0.682410  0.026270  0.826820  1.0  2.2607
  Nd  Nd11  1  0.541370  0.470730  0.671090  1.0  2.2497
  Nd  Nd12  1  0.035510  0.473730  0.673180  1.0  2.2601
  Nd  Nd13  1  0.012100  0.171090  0.529270  1.0  2.2492
  Nd  Nd14  1  0.509240  0.173180  0.526260  1.0  2.2593
  Nd  Nd15  1  0.212460  0.328910  0.970730  1.0  2.2482
  Nd  Nd16  1  0.708680  0.326820  0.973740  1.0  2.2608
  Co  Co17  1  0.674610  0.036890  0.370830  1.0  0.7328
  Co  Co18  1  0.582330  0.463110  0.129170  1.0  0.7345
  Co  Co19  1  0.045440  0.629170  0.536890  1.0  0.7336
  Co  Co20  1  0.711500  0.870830  0.963110  1.0  0.7316
  Co  Co21  1  0.325390  0.963110  0.629170  1.0  0.7334
  Co  Co22  1  0.417670  0.536890  0.870830  1.0  0.7327
  Co  Co23  1  0.954560  0.370830  0.463110  1.0  0.7319
  Co  Co24  1  0.288500  0.129170  0.036890  1.0  0.7328
  H  H25  1  0.372100  0.956600  0.290200  1.0  0.0897
  H  H26  1  0.698300  0.026100  0.038300  1.0  0.1102
  H  H27  1  0.318500  0.963000  0.361800  1.0  0.1129
  H  H28  1  0.653500  0.027900  0.971700  1.0  0.1092
  H  H29  1  0.424000  0.000600  0.396000  1.0  0.0711
  H  H30  1  0.635900  0.967200  0.941800  1.0  0.0749
  H  H31  1  0.664500  0.125300  0.219700  1.0  0.1106
  H  H32  1  0.843900  0.087200  0.311800  1.0  0.0878
  H  H33  1  0.549800  0.841100  0.132100  1.0  0.1079
  H  H34  1  0.757600  0.797700  0.026300  1.0  0.0776
  H  H35  1  0.822500  0.129300  0.255700  1.0  0.1185
  H  H36  1  0.950800  0.018600  0.061000  1.0  0.0884
  H  H37  1  0.101600  0.956700  0.312900  1.0  0.1116
  H  H38  1  0.663600  0.786000  0.093000  1.0  0.1129
  H  H39  1  0.936200  0.063500  0.005500  1.0  0.1136
  H  H40  1  0.010400  0.924700  0.371700  1.0  0.1068
  H  H41  1  0.056600  0.114900  0.997500  1.0  0.0729
  H  H42  1  0.957200  0.864500  0.363500  1.0  0.0808
  H  H43  1  0.164400  0.126600  0.211000  1.0  0.1049
  H  H44  1  0.412500  0.139600  0.112400  1.0  0.0753
  H  H45  1  0.120700  0.843600  0.134800  1.0  0.0863
  H  H46  1  0.276600  0.759100  0.205900  1.0  0.0576
  H  H47  1  0.347400  0.148000  0.181200  1.0  0.1231
  H  H48  1  0.262200  0.782900  0.140300  1.0  0.1209
  H  H49  1  0.118900  0.543400  0.209800  1.0  0.0895
  H  H50  1  0.262700  0.473900  0.461700  1.0  0.1107
  H  H51  1  0.143300  0.537000  0.138200  1.0  0.1141
  H  H52  1  0.153100  0.472100  0.528300  1.0  0.1084
  H  H53  1  0.320600  0.499400  0.104000  1.0  0.0713
  H  H54  1  0.044900  0.532800  0.558200  1.0  0.0744
  H  H55  1  0.509500  0.374700  0.280300  1.0  0.1111
  H  H56  1  0.742900  0.412800  0.188200  1.0  0.0887
  H  H57  1  0.023000  0.658900  0.367900  1.0  0.1084
  H  H58  1  0.081600  0.702300  0.473700  1.0  0.0776
  H  H59  1  0.707500  0.370700  0.244300  1.0  0.1198
  H  H60  1  0.530400  0.481400  0.439000  1.0  0.0888
  H  H61  1  0.871200  0.543300  0.187100  1.0  0.1129
  H  H62  1  0.042600  0.714000  0.407000  1.0  0.1132
  H  H63  1  0.505200  0.436500  0.494500  1.0  0.1142
  H  H64  1  0.806800  0.575300  0.128300  1.0  0.1074
  H  H65  1  0.669000  0.385100  0.502500  1.0  0.0727
  H  H66  1  0.685200  0.635500  0.136500  1.0  0.0827
  H  H67  1  0.002000  0.373400  0.289000  1.0  0.1044
  H  H68  1  0.164500  0.360400  0.387600  1.0  0.0742
  H  H69  1  0.599100  0.656400  0.365200  1.0  0.0865
  H  H70  1  0.741600  0.740900  0.294100  1.0  0.0587
  H  H71  1  0.176600  0.352000  0.318800  1.0  0.1228
  H  H72  1  0.685400  0.717100  0.359700  1.0  0.121
  H  H73  1  0.662300  0.709800  0.456600  1.0  0.0899
  H  H74  1  0.736600  0.961700  0.526100  1.0  0.1102
  H  H75  1  0.680300  0.638200  0.463000  1.0  0.1125
  H  H76  1  0.625200  0.028300  0.527900  1.0  0.1089
  H  H77  1  0.820000  0.604000  0.500600  1.0  0.071
  H  H78  1  0.577700  0.058200  0.467200  1.0  0.0742
  H  H79  1  0.884200  0.780300  0.625300  1.0  0.1103
  H  H80  1  0.155700  0.688200  0.587200  1.0  0.0892
  H  H81  1  0.681900  0.867900  0.341100  1.0  0.1088
  H  H82  1  0.783900  0.973700  0.297700  1.0  0.0768
  H  H83  1  0.078200  0.744300  0.629300  1.0  0.1197
  H  H84  1  0.011800  0.939000  0.518600  1.0  0.0889
  H  H85  1  0.414500  0.687100  0.456700  1.0  0.1125
  H  H86  1  0.756600  0.907000  0.286000  1.0  0.1114
  H  H87  1  0.941700  0.994500  0.563500  1.0  0.1151
  H  H88  1  0.382100  0.628300  0.424700  1.0  0.1067
  H  H89  1  0.054100  0.002500  0.614900  1.0  0.0723
  H  H90  1  0.320700  0.636500  0.364500  1.0  0.0835
  H  H91  1  0.375400  0.789000  0.626600  1.0  0.1054
  H  H92  1  0.524900  0.887600  0.639600  1.0  0.0747
  H  H93  1  0.255500  0.865200  0.343600  1.0  0.0857
  H  H94  1  0.482500  0.794100  0.259100  1.0  0.059
  H  H95  1  0.528600  0.818800  0.648000  1.0  0.1229
  H  H96  1  0.402500  0.859700  0.282900  1.0  0.1215
  H  H97  1  0.328700  0.790200  0.043400  1.0  0.0897
  H  H98  1  0.724400  0.538300  0.973900  1.0  0.1112
  H  H99  1  0.281500  0.861800  0.037000  1.0  0.1125
  H  H100  1  0.681400  0.471700  0.972100  1.0  0.1085
  H  H101  1  0.424600  0.896000  0.999400  1.0  0.0709
  H  H102  1  0.603100  0.441800  0.032800  1.0  0.0744
  H  H103  1  0.789800  0.719700  0.874700  1.0  0.1088
  H  H104  1  0.931100  0.811800  0.912800  1.0  0.0887
  H  H105  1  0.390900  0.632100  0.158900  1.0  0.1092
  H  H106  1  0.555300  0.526300  0.202300  1.0  0.0788
  H  H107  1  0.951800  0.755700  0.870700  1.0  0.1198
  H  H108  1  0.969400  0.561000  0.981400  1.0  0.0877
  H  H109  1  0.058300  0.812900  0.043300  1.0  0.1123
  H  H110  1  0.449600  0.593000  0.214000  1.0  0.1126
  H  H111  1  0.999700  0.505500  0.936500  1.0  0.1152
  H  H112  1  0.935100  0.871700  0.075300  1.0  0.1073
  H  H113  1  0.171500  0.497500  0.885100  1.0  0.0718
  H  H114  1  0.821700  0.863500  0.135500  1.0  0.0826
  H  H115  1  0.291000  0.711000  0.873400  1.0  0.1043
  H  H116  1  0.552100  0.612400  0.860400  1.0  0.0751
  H  H117  1  0.964300  0.634800  0.156400  1.0  0.0855
  H  H118  1  0.035700  0.705900  0.240900  1.0  0.0601
  H  H119  1  0.495400  0.681200  0.852000  1.0  0.1231
  H  H120  1  0.045100  0.640300  0.217100  1.0  0.1217
  H  H121  1  0.627900  0.043400  0.709800  1.0  0.0897
  H  H122  1  0.301700  0.973900  0.961700  1.0  0.1106
  H  H123  1  0.681500  0.037000  0.638200  1.0  0.113
  H  H124  1  0.346500  0.972100  0.028300  1.0  0.1095
  H  H125  1  0.576000  0.999400  0.604000  1.0  0.0705
  H  H126  1  0.364100  0.032800  0.058200  1.0  0.0748
  H  H127  1  0.335500  0.874700  0.780300  1.0  0.1106
  H  H128  1  0.156100  0.912800  0.688200  1.0  0.0878
  H  H129  1  0.450200  0.158900  0.867900  1.0  0.1076
  H  H130  1  0.242400  0.202300  0.973700  1.0  0.0782
  H  H131  1  0.177500  0.870700  0.744300  1.0  0.1188
  H  H132  1  0.049200  0.981400  0.939000  1.0  0.0885
  H  H133  1  0.898400  0.043300  0.687100  1.0  0.1129
  H  H134  1  0.336400  0.214000  0.907000  1.0  0.1131
  H  H135  1  0.063800  0.936500  0.994500  1.0  0.1136
  H  H136  1  0.989600  0.075300  0.628300  1.0  0.108
  H  H137  1  0.943400  0.885100  0.002500  1.0  0.072
  H  H138  1  0.042800  0.135500  0.636500  1.0  0.0813
  H  H139  1  0.835600  0.873400  0.789000  1.0  0.1044
  H  H140  1  0.587500  0.860400  0.887600  1.0  0.0744
  H  H141  1  0.879300  0.156400  0.865200  1.0  0.0857
  H  H142  1  0.723400  0.240900  0.794100  1.0  0.059
  H  H143  1  0.652600  0.852000  0.818800  1.0  0.1236
  H  H144  1  0.737800  0.217100  0.859700  1.0  0.1205
  H  H145  1  0.881100  0.456600  0.790200  1.0  0.0897
  H  H146  1  0.737300  0.526100  0.538300  1.0  0.1109
  H  H147  1  0.856700  0.463000  0.861800  1.0  0.1132
  H  H148  1  0.846900  0.527900  0.471700  1.0  0.109
  H  H149  1  0.679400  0.500600  0.896000  1.0  0.0703
  H  H150  1  0.955100  0.467200  0.441800  1.0  0.0757
  H  H151  1  0.490500  0.625300  0.719700  1.0  0.1112
  H  H152  1  0.257100  0.587200  0.811800  1.0  0.0871
  H  H153  1  0.977000  0.341100  0.632100  1.0  0.109
  H  H154  1  0.918400  0.297700  0.526300  1.0  0.077
  H  H155  1  0.292500  0.629300  0.755700  1.0  0.1197
  H  H156  1  0.469600  0.518600  0.561000  1.0  0.0891
  H  H157  1  0.128800  0.456700  0.812900  1.0  0.1116
  H  H158  1  0.957400  0.286000  0.593000  1.0  0.1133
  H  H159  1  0.494800  0.563500  0.505500  1.0  0.1145
  H  H160  1  0.193200  0.424700  0.871700  1.0  0.1074
  H  H161  1  0.331000  0.614900  0.497500  1.0  0.0722
  H  H162  1  0.314800  0.364500  0.863500  1.0  0.0836
  H  H163  1  0.998000  0.626600  0.711000  1.0  0.1048
  H  H164  1  0.835500  0.639600  0.612400  1.0  0.0742
  H  H165  1  0.400900  0.343600  0.634800  1.0  0.0863
  H  H166  1  0.258400  0.259100  0.705900  1.0  0.058
  H  H167  1  0.823400  0.648000  0.681200  1.0  0.1235
  H  H168  1  0.314600  0.282900  0.640300  1.0  0.1212
  H  H169  1  0.337700  0.290200  0.543400  1.0  0.0896
  H  H170  1  0.263400  0.038300  0.473900  1.0  0.1105
  H  H171  1  0.319700  0.361800  0.537000  1.0  0.1119
  H  H172  1  0.374800  0.971700  0.472100  1.0  0.1077
  H  H173  1  0.180000  0.396000  0.499400  1.0  0.0712
  H  H174  1  0.422300  0.941800  0.532800  1.0  0.0749
  H  H175  1  0.115800  0.219700  0.374700  1.0  0.1096
  H  H176  1  0.844300  0.311800  0.412800  1.0  0.0885
  H  H177  1  0.318100  0.132100  0.658900  1.0  0.1095
  H  H178  1  0.216100  0.026300  0.702300  1.0  0.0773
  H  H179  1  0.921800  0.255700  0.370700  1.0  0.1199
  H  H180  1  0.988200  0.061000  0.481400  1.0  0.0891
  H  H181  1  0.585500  0.312900  0.543300  1.0  0.1125
  H  H182  1  0.243400  0.093000  0.714000  1.0  0.1121
  H  H183  1  0.058300  0.005500  0.436500  1.0  0.115
  H  H184  1  0.617900  0.371700  0.575300  1.0  0.1074
  H  H185  1  0.945900  0.997500  0.385100  1.0  0.0728
  H  H186  1  0.679300  0.363500  0.635500  1.0  0.0829
  H  H187  1  0.624600  0.211000  0.373400  1.0  0.1045
  H  H188  1  0.475100  0.112400  0.360400  1.0  0.0746
  H  H189  1  0.744500  0.134800  0.656400  1.0  0.0854
  H  H190  1  0.517500  0.205900  0.740900  1.0  0.0596
  H  H191  1  0.471400  0.181200  0.352000  1.0  0.1232
  H  H192  1  0.597500  0.140300  0.717100  1.0  0.1214
  H  H193  1  0.671300  0.209800  0.956600  1.0  0.0896
  H  H194  1  0.275600  0.461700  0.026100  1.0  0.1108
  H  H195  1  0.718500  0.138200  0.963000  1.0  0.1125
  H  H196  1  0.318600  0.528300  0.027900  1.0  0.1094
  H  H197  1  0.575400  0.104000  0.000600  1.0  0.0704
  H  H198  1  0.396900  0.558200  0.967200  1.0  0.0741
  H  H199  1  0.210200  0.280300  0.125300  1.0  0.1096
  H  H200  1  0.068900  0.188200  0.087200  1.0  0.088
  H  H201  1  0.609100  0.367900  0.841100  1.0  0.1088
  H  H202  1  0.444700  0.473700  0.797700  1.0  0.0783
  H  H203  1  0.048200  0.244300  0.129300  1.0  0.1202
  H  H204  1  0.030600  0.439000  0.018600  1.0  0.0881
  H  H205  1  0.941700  0.187100  0.956700  1.0  0.1125
  H  H206  1  0.550400  0.407000  0.786000  1.0  0.1124
  H  H207  1  0.000300  0.494500  0.063500  1.0  0.1155
  H  H208  1  0.064900  0.128300  0.924700  1.0  0.1077
  H  H209  1  0.828500  0.502500  0.114900  1.0  0.0713
  H  H210  1  0.178300  0.136500  0.864500  1.0  0.083
  H  H211  1  0.709000  0.289000  0.126600  1.0  0.1051
  H  H212  1  0.447900  0.387600  0.139600  1.0  0.0754
  H  H213  1  0.035700  0.365200  0.843600  1.0  0.0853
  H  H214  1  0.964300  0.294100  0.759100  1.0  0.0596
  H  H215  1  0.504600  0.318800  0.148000  1.0  0.1237
  H  H216  1  0.954900  0.359700  0.782900  1.0  0.1216
  C  C217  1  0.536160  0.988950  0.237330  1.0  0.7011
  C  C218  1  0.728410  0.964030  0.091350  1.0  0.6933
  C  C219  1  0.490030  0.997070  0.283070  1.0  -0.1274
  C  C220  1  0.686710  0.965770  0.049410  1.0  -0.0765
  C  C221  1  0.407600  0.974100  0.304500  1.0  0.0037
  C  C222  1  0.535880  0.024700  0.305540  1.0  0.0545
  C  C223  1  0.684030  0.002350  0.026590  1.0  -0.0429
  C  C224  1  0.662910  0.931230  0.030350  1.0  0.171
  C  C225  1  0.377700  0.977000  0.347200  1.0  -0.1218
  C  C226  1  0.614890  0.055540  0.287880  1.0  0.1165
  C  C227  1  0.660240  0.003340  0.986580  1.0  -0.0968
  C  C228  1  0.653900  0.890810  0.050790  1.0  0.141
  C  C229  1  0.437200  0.000900  0.367300  1.0  0.1588
  C  C230  1  0.595990  0.080720  0.253700  1.0  -0.0724
  C  C231  1  0.071460  0.017680  0.122800  1.0  0.7026
  C  C232  1  0.185870  0.928760  0.238300  1.0  0.6879
  C  C233  1  0.502400  0.919800  0.114400  1.0  0.7045
  C  C234  1  0.646690  0.966980  0.969240  1.0  0.1659
  C  C235  1  0.588510  0.885740  0.090040  1.0  -0.1311
  C  C236  1  0.674580  0.108130  0.242310  1.0  -0.0632
  C  C237  1  0.493540  0.078690  0.229230  1.0  0.696
  C  C238  1  0.781190  0.085490  0.297130  1.0  0.1643
  C  C239  1  0.055050  0.049030  0.089070  1.0  -0.1428
  C  C240  1  0.113810  0.909020  0.273760  1.0  -0.0883
  C  C241  1  0.592040  0.845450  0.105870  1.0  0.0091
  C  C242  1  0.715900  0.820060  0.042740  1.0  0.1331
  C  C243  1  0.768830  0.110810  0.263730  1.0  -0.1787
  C  C244  1  0.110970  0.083800  0.085260  1.0  0.1233
  C  C245  1  0.990600  0.041300  0.058700  1.0  -0.011
  C  C246  1  0.082600  0.870100  0.271100  1.0  0.0307
  C  C247  1  0.083600  0.930300  0.311300  1.0  -0.0996
  C  C248  1  0.657830  0.812710  0.082430  1.0  -0.1272
  C  C249  1  0.173650  0.100120  0.116780  1.0  0.1453
  C  C250  1  0.984500  0.067200  0.025000  1.0  -0.1113
  C  C251  1  0.119800  0.845200  0.233000  1.0  0.1908
  C  C252  1  0.027200  0.912100  0.345900  1.0  -0.088
  C  C253  1  0.128360  0.104550  0.158330  1.0  -0.0756
  C  C254  1  0.053500  0.098800  0.021200  1.0  0.1711
  C  C255  1  0.988700  0.897800  0.191400  1.0  0.6732
  C  C256  1  0.085100  0.858500  0.196300  1.0  -0.1118
  C  C257  1  0.998600  0.875900  0.340300  1.0  0.1626
  C  C258  1  0.009640  0.090170  0.178350  1.0  0.6926
  C  C259  1  0.193450  0.123000  0.182900  1.0  -0.0838
  C  C260  1  0.339840  0.130820  0.124300  1.0  0.1582
  C  C261  1  0.139300  0.834600  0.160400  1.0  -0.0057
  C  C262  1  0.232300  0.785300  0.202700  1.0  0.1638
  C  C263  1  0.301980  0.136040  0.165200  1.0  -0.1686
  C  C264  1  0.219700  0.797900  0.163500  1.0  -0.1769
  C  C265  1  0.262440  0.511050  0.262670  1.0  0.699
  C  C266  1  0.283790  0.535970  0.408650  1.0  0.6881
  C  C267  1  0.270170  0.502930  0.216930  1.0  -0.1263
  C  C268  1  0.201890  0.534230  0.450590  1.0  -0.0764
  C  C269  1  0.186200  0.525900  0.195500  1.0  0.0032
  C  C270  1  0.366120  0.475300  0.194460  1.0  0.0539
  C  C271  1  0.212970  0.497650  0.473410  1.0  -0.0432
  C  C272  1  0.124490  0.568770  0.469650  1.0  0.1723
  C  C273  1  0.201900  0.523000  0.152800  1.0  -0.122
  C  C274  1  0.458310  0.444460  0.212120  1.0  0.1165
  C  C275  1  0.150160  0.496660  0.513420  1.0  -0.0995
  C  C276  1  0.095500  0.609190  0.449210  1.0  0.1394
  C  C277  1  0.305400  0.499100  0.132700  1.0  0.1591
  C  C278  1  0.430410  0.419280  0.246300  1.0  -0.072
  C  C279  1  0.711940  0.482320  0.377200  1.0  0.7056
  C  C280  1  0.852930  0.571240  0.261700  1.0  0.6899
  C  C281  1  0.036600  0.580200  0.385600  1.0  0.7066
  C  C282  1  0.082910  0.533020  0.530760  1.0  0.1633
  C  C283  1  0.064290  0.614260  0.409960  1.0  -0.1297
  C  C284  1  0.525020  0.391870  0.257690  1.0  -0.0651
  C  C285  1  0.301460  0.421310  0.270770  1.0  0.6935
  C  C286  1  0.663810  0.414510  0.202870  1.0  0.1604
  C  C287  1  0.693150  0.450970  0.410930  1.0  -0.1421
  C  C288  1  0.796590  0.590980  0.226240  1.0  -0.0885
  C  C289  1  0.043360  0.654550  0.394130  1.0  0.0141
  C  C290  1  0.078700  0.679940  0.457260  1.0  0.1337
  C  C291  1  0.643370  0.389190  0.236270  1.0  -0.1781
  C  C292  1  0.780030  0.416200  0.414740  1.0  0.123
  C  C293  1  0.590600  0.458700  0.441300  1.0  -0.0091
  C  C294  1  0.723800  0.629900  0.228900  1.0  0.0311
  C  C295  1  0.825200  0.569700  0.188700  1.0  -0.1001
  C  C296  1  0.052970  0.687290  0.417570  1.0  -0.1267
  C  C297  1  0.890550  0.399880  0.383220  1.0  0.1465
  C  C298  1  0.576700  0.432800  0.475000  1.0  -0.1115
  C  C299  1  0.698000  0.654800  0.267000  1.0  0.192
  C  C300  1  0.785200  0.587900  0.154100  1.0  -0.0874
  C  C301  1  0.891240  0.395450  0.341670  1.0  -0.0697
  C  C302  1  0.673500  0.401200  0.478800  1.0  0.1711
  C  C303  1  0.577900  0.602200  0.308600  1.0  0.6725
  C  C304  1  0.639900  0.641500  0.303700  1.0  -0.1125
  C  C305  1  0.714800  0.624100  0.159700  1.0  0.1599
  C  C306  1  0.778160  0.409830  0.321650  1.0  0.6935
  C  C307  1  0.999350  0.377000  0.317100  1.0  -0.0797
  C  C308  1  0.094960  0.369180  0.375700  1.0  0.1621
  C  C309  1  0.634300  0.665400  0.339600  1.0  -0.0052
  C  C310  1  0.720300  0.714700  0.297300  1.0  0.1656
  C  C311  1  0.103220  0.363960  0.334800  1.0  -0.1712
  C  C312  1  0.681100  0.702100  0.336500  1.0  -0.1763
  C  C313  1  0.773490  0.762670  0.488950  1.0  0.6956
  C  C314  1  0.819760  0.908650  0.464030  1.0  0.6887
  C  C315  1  0.773100  0.716930  0.497070  1.0  -0.1297
  C  C316  1  0.736120  0.950590  0.465770  1.0  -0.0774
  C  C317  1  0.712100  0.695500  0.474100  1.0  0.0035
  C  C318  1  0.841420  0.694460  0.524700  1.0  0.0529
  C  C319  1  0.710620  0.973410  0.502350  1.0  -0.0428
  C  C320  1  0.693260  0.969650  0.431230  1.0  0.1712
  C  C321  1  0.724900  0.652800  0.477000  1.0  -0.1196
  C  C322  1  0.902770  0.712120  0.555540  1.0  0.1164
  C  C323  1  0.646820  0.013420  0.503340  1.0  -0.1042
  C  C324  1  0.704690  0.949210  0.390810  1.0  0.1397
  C  C325  1  0.804500  0.632700  0.500900  1.0  0.1581
  C  C326  1  0.849690  0.746300  0.580720  1.0  -0.0708
  C  C327  1  0.194260  0.877200  0.517680  1.0  0.7041
  C  C328  1  0.424170  0.761700  0.428760  1.0  0.6891
  C  C329  1  0.616800  0.885600  0.419800  1.0  0.7007
  C  C330  1  0.615930  0.030760  0.466980  1.0  0.1659
  C  C331  1  0.678550  0.909960  0.385740  1.0  -0.1292
  C  C332  1  0.916890  0.757690  0.608130  1.0  -0.0649
  C  C333  1  0.722770  0.770770  0.578690  1.0  0.6926
  C  C334  1  0.078320  0.702870  0.585490  1.0  0.1606
  C  C335  1  0.144120  0.910930  0.549030  1.0  -0.1467
  C  C336  1  0.387570  0.726240  0.409020  1.0  -0.0905
  C  C337  1  0.697910  0.894130  0.345450  1.0  0.0089
  C  C338  1  0.758640  0.957260  0.320060  1.0  0.1344
  C  C339  1  0.032560  0.736270  0.610810  1.0  -0.176
  C  C340  1  0.196230  0.914740  0.583800  1.0  0.1219
  C  C341  1  0.049300  0.941300  0.541300  1.0  -0.0109
  C  C342  1  0.353700  0.728900  0.370100  1.0  0.0339
  C  C343  1  0.394900  0.688700  0.430300  1.0  -0.0947
  C  C344  1  0.740260  0.917570  0.312710  1.0  -0.1268
  C  C345  1  0.290430  0.883220  0.600120  1.0  0.1448
  C  C346  1  0.009500  0.975000  0.567200  1.0  -0.1115
  C  C347  1  0.352800  0.767000  0.345200  1.0  0.1898
  C  C348  1  0.373100  0.654100  0.412100  1.0  -0.0848
  C  C349  1  0.286690  0.841670  0.604550  1.0  -0.0769
  C  C350  1  0.074700  0.978800  0.598800  1.0  0.1746
  C  C351  1  0.180100  0.808600  0.397800  1.0  0.6723
  C  C352  1  0.281400  0.803700  0.358500  1.0  -0.113
  C  C353  1  0.338900  0.659700  0.375900  1.0  0.1641
  C  C354  1  0.187990  0.821650  0.590170  1.0  0.6919
  C  C355  1  0.376350  0.817100  0.623000  1.0  -0.0814
  C  C356  1  0.464140  0.875700  0.630820  1.0  0.1577
  C  C357  1  0.299700  0.839600  0.334600  1.0  -0.0065
  C  C358  1  0.435000  0.797300  0.285300  1.0  0.1653
  C  C359  1  0.467180  0.834800  0.636040  1.0  -0.1697
  C  C360  1  0.383200  0.836500  0.297900  1.0  -0.178
  C  C361  1  0.525110  0.737330  0.011050  1.0  0.6959
  C  C362  1  0.692440  0.591350  0.035970  1.0  0.6904
  C  C363  1  0.487100  0.783070  0.002930  1.0  -0.1306
  C  C364  1  0.652480  0.549410  0.034230  1.0  -0.0749
  C  C365  1  0.381700  0.804500  0.025900  1.0  0.0035
  C  C366  1  0.560580  0.805540  0.975300  1.0  0.0545
  C  C367  1  0.686380  0.526590  0.997650  1.0  -0.0433
  C  C368  1  0.594140  0.530350  0.068770  1.0  0.1715
  C  C369  1  0.354700  0.847200  0.023000  1.0  -0.1215
  C  C370  1  0.670430  0.787880  0.944460  1.0  0.1151
  C  C371  1  0.663580  0.486580  0.996660  1.0  -0.1029
  C  C372  1  0.544710  0.550790  0.109190  1.0  0.1396
  C  C373  1  0.438100  0.867300  0.999100  1.0  0.1577
  C  C374  1  0.676710  0.753700  0.919280  1.0  -0.0716
  C  C375  1  0.089140  0.622800  0.982320  1.0  0.7028
  C  C376  1  0.114630  0.738300  0.071240  1.0  0.6888
  C  C377  1  0.422200  0.614400  0.080200  1.0  0.7029
  C  C378  1  0.613670  0.469240  0.033020  1.0  0.1647
  C  C379  1  0.474250  0.590040  0.114260  1.0  -0.1262
  C  C380  1  0.782710  0.742310  0.891870  1.0  -0.0624
  C  C381  1  0.572230  0.729230  0.921310  1.0  0.6945
  C  C382  1  0.866680  0.797130  0.914510  1.0  0.165
  C  C383  1  0.104080  0.589070  0.950970  1.0  -0.146
  C  C384  1  0.022830  0.773760  0.090980  1.0  -0.091
  C  C385  1  0.437490  0.605870  0.154550  1.0  0.0088
  C  C386  1  0.535960  0.542740  0.179940  1.0  0.1338
  C  C387  1  0.879640  0.763730  0.889190  1.0  -0.1804
  C  C388  1  0.194770  0.585260  0.916200  1.0  0.1223
  C  C389  1  0.031900  0.558700  0.958700  1.0  -0.0107
  C  C390  1  0.952700  0.771100  0.129900  1.0  0.0317
  C  C391  1  0.013900  0.811300  0.069700  1.0  -0.1
  C  C392  1  0.470540  0.582430  0.187290  1.0  -0.1305
  C  C393  1  0.273770  0.616780  0.899880  1.0  0.1446
  C  C394  1  0.051700  0.525000  0.932800  1.0  -0.112
  C  C395  1  0.965000  0.733000  0.154800  1.0  0.1908
  C  C396  1  0.939300  0.845900  0.087900  1.0  -0.0855
  C  C397  1  0.232910  0.658330  0.895450  1.0  -0.0745
  C  C398  1  0.152300  0.521200  0.901200  1.0  0.1778
  C  C399  1  0.886500  0.691400  0.102200  1.0  0.6726
  C  C400  1  0.943600  0.696300  0.141500  1.0  -0.112
  C  C401  1  0.874500  0.840300  0.124100  1.0  0.1624
  C  C402  1  0.099810  0.678350  0.909830  1.0  0.6926
  C  C403  1  0.316450  0.682900  0.877000  1.0  -0.0799
  C  C404  1  0.470660  0.624300  0.869180  1.0  0.1578
  C  C405  1  0.973900  0.660400  0.165400  1.0  -0.0062
  C  C406  1  0.017600  0.702700  0.214700  1.0  0.1675
  C  C407  1  0.438020  0.665200  0.863960  1.0  -0.1697
  C  C408  1  0.017600  0.663500  0.202100  1.0  -0.1763
  C  C409  1  0.463840  0.011050  0.762670  1.0  0.6991
  C  C410  1  0.271590  0.035970  0.908650  1.0  0.6927
  C  C411  1  0.509970  0.002930  0.716930  1.0  -0.1266
  C  C412  1  0.313290  0.034230  0.950590  1.0  -0.0767
  C  C413  1  0.592400  0.025900  0.695500  1.0  0.0031
  C  C414  1  0.464120  0.975300  0.694460  1.0  0.0538
  C  C415  1  0.315970  0.997650  0.973410  1.0  -0.042
  C  C416  1  0.337090  0.068770  0.969650  1.0  0.1712
  C  C417  1  0.622300  0.023000  0.652800  1.0  -0.1203
  C  C418  1  0.385110  0.944460  0.712120  1.0  0.1162
  C  C419  1  0.339760  0.996660  0.013420  1.0  -0.0986
  C  C420  1  0.346100  0.109190  0.949210  1.0  0.1397
  C  C421  1  0.562800  0.999100  0.632700  1.0  0.1578
  C  C422  1  0.404010  0.919280  0.746300  1.0  -0.0717
  C  C423  1  0.928540  0.982320  0.877200  1.0  0.7044
  C  C424  1  0.814130  0.071240  0.761700  1.0  0.6886
  C  C425  1  0.497600  0.080200  0.885600  1.0  0.7041
  C  C426  1  0.353310  0.033020  0.030760  1.0  0.1638
  C  C427  1  0.411490  0.114260  0.909960  1.0  -0.1321
  C  C428  1  0.325420  0.891870  0.757690  1.0  -0.0628
  C  C429  1  0.506460  0.921310  0.770770  1.0  0.6955
  C  C430  1  0.218810  0.914510  0.702870  1.0  0.1641
  C  C431  1  0.944950  0.950970  0.910930  1.0  -0.1428
  C  C432  1  0.886190  0.090980  0.726240  1.0  -0.0881
  C  C433  1  0.407960  0.154550  0.894130  1.0  0.0075
  C  C434  1  0.284100  0.179940  0.957260  1.0  0.1322
  C  C435  1  0.231170  0.889190  0.736270  1.0  -0.1785
  C  C436  1  0.889030  0.916200  0.914740  1.0  0.1227
  C  C437  1  0.009400  0.958700  0.941300  1.0  -0.011
  C  C438  1  0.917400  0.129900  0.728900  1.0  0.0319
  C  C439  1  0.916400  0.069700  0.688700  1.0  -0.0994
  C  C440  1  0.342170  0.187290  0.917570  1.0  -0.1262
  C  C441  1  0.826350  0.899880  0.883220  1.0  0.1469
  C  C442  1  0.015500  0.932800  0.975000  1.0  -0.1136
  C  C443  1  0.880200  0.154800  0.767000  1.0  0.1912
  C  C444  1  0.972800  0.087900  0.654100  1.0  -0.0884
  C  C445  1  0.871640  0.895450  0.841670  1.0  -0.0747
  C  C446  1  0.946500  0.901200  0.978800  1.0  0.1722
  C  C447  1  0.011300  0.102200  0.808600  1.0  0.6738
  C  C448  1  0.914900  0.141500  0.803700  1.0  -0.1145
  C  C449  1  0.001400  0.124100  0.659700  1.0  0.162
  C  C450  1  0.990360  0.909830  0.821650  1.0  0.6939
  C  C451  1  0.806550  0.877000  0.817100  1.0  -0.082
  C  C452  1  0.660160  0.869180  0.875700  1.0  0.1604
  C  C453  1  0.860700  0.165400  0.839600  1.0  -0.0057
  C  C454  1  0.767700  0.214700  0.797300  1.0  0.1644
  C  C455  1  0.698020  0.863960  0.834800  1.0  -0.1687
  C  C456  1  0.780300  0.202100  0.836500  1.0  -0.1765
  C  C457  1  0.737560  0.488950  0.737330  1.0  0.7004
  C  C458  1  0.716210  0.464030  0.591350  1.0  0.6884
  C  C459  1  0.729830  0.497070  0.783070  1.0  -0.1282
  C  C460  1  0.798110  0.465770  0.549410  1.0  -0.0766
  C  C461  1  0.813800  0.474100  0.804500  1.0  0.0028
  C  C462  1  0.633880  0.524700  0.805540  1.0  0.0541
  C  C463  1  0.787030  0.502350  0.526590  1.0  -0.0428
  C  C464  1  0.875510  0.431230  0.530350  1.0  0.1716
  C  C465  1  0.798100  0.477000  0.847200  1.0  -0.12
  C  C466  1  0.541690  0.555540  0.787880  1.0  0.117
  C  C467  1  0.849840  0.503340  0.486580  1.0  -0.0972
  C  C468  1  0.904500  0.390810  0.550790  1.0  0.1414
  C  C469  1  0.694600  0.500900  0.867300  1.0  0.1599
  C  C470  1  0.569590  0.580720  0.753700  1.0  -0.0718
  C  C471  1  0.288060  0.517680  0.622800  1.0  0.7032
  C  C472  1  0.147070  0.428760  0.738300  1.0  0.69
  C  C473  1  0.963400  0.419800  0.614400  1.0  0.7086
  C  C474  1  0.917090  0.466980  0.469240  1.0  0.1635
  C  C475  1  0.935710  0.385740  0.590040  1.0  -0.1266
  C  C476  1  0.474980  0.608130  0.742310  1.0  -0.0656
  C  C477  1  0.698540  0.578690  0.729230  1.0  0.6929
  C  C478  1  0.336190  0.585490  0.797130  1.0  0.161
  C  C479  1  0.306850  0.549030  0.589070  1.0  -0.142
  C  C480  1  0.203410  0.409020  0.773760  1.0  -0.0885
  C  C481  1  0.956640  0.345450  0.605870  1.0  0.0099
  C  C482  1  0.921300  0.320060  0.542740  1.0  0.1344
  C  C483  1  0.356630  0.610810  0.763730  1.0  -0.1778
  C  C484  1  0.219970  0.583800  0.585260  1.0  0.1226
  C  C485  1  0.409400  0.541300  0.558700  1.0  -0.009
  C  C486  1  0.276200  0.370100  0.771100  1.0  0.0317
  C  C487  1  0.174800  0.430300  0.811300  1.0  -0.098
  C  C488  1  0.947030  0.312710  0.582430  1.0  -0.127
  C  C489  1  0.109450  0.600120  0.616780  1.0  0.1451
  C  C490  1  0.423300  0.567200  0.525000  1.0  -0.1127
  C  C491  1  0.302000  0.345200  0.733000  1.0  0.1904
  C  C492  1  0.214800  0.412100  0.845900  1.0  -0.0882
  C  C493  1  0.108760  0.604550  0.658330  1.0  -0.0705
  C  C494  1  0.326500  0.598800  0.521200  1.0  0.1732
  C  C495  1  0.422100  0.397800  0.691400  1.0  0.672
  C  C496  1  0.360100  0.358500  0.696300  1.0  -0.1137
  C  C497  1  0.285200  0.375900  0.840300  1.0  0.1592
  C  C498  1  0.221840  0.590170  0.678350  1.0  0.6934
  C  C499  1  0.000650  0.623000  0.682900  1.0  -0.0808
  C  C500  1  0.905040  0.630820  0.624300  1.0  0.1623
  C  C501  1  0.365700  0.334600  0.660400  1.0  -0.0044
  C  C502  1  0.279700  0.285300  0.702700  1.0  0.1648
  C  C503  1  0.896780  0.636040  0.665200  1.0  -0.1746
  C  C504  1  0.318900  0.297900  0.663500  1.0  -0.1745
  C  C505  1  0.226510  0.237330  0.511050  1.0  0.6952
  C  C506  1  0.180240  0.091350  0.535970  1.0  0.6903
  C  C507  1  0.226900  0.283070  0.502930  1.0  -0.1311
  C  C508  1  0.263880  0.049410  0.534230  1.0  -0.0767
  C  C509  1  0.287900  0.304500  0.525900  1.0  0.0013
  C  C510  1  0.158580  0.305540  0.475300  1.0  0.0517
  C  C511  1  0.289380  0.026590  0.497650  1.0  -0.0429
  C  C512  1  0.306740  0.030350  0.568770  1.0  0.171
  C  C513  1  0.275100  0.347200  0.523000  1.0  -0.1193
  C  C514  1  0.097230  0.287880  0.444460  1.0  0.1161
  C  C515  1  0.353180  0.986580  0.496660  1.0  -0.103
  C  C516  1  0.295310  0.050790  0.609190  1.0  0.1396
  C  C517  1  0.195500  0.367300  0.499100  1.0  0.1575
  C  C518  1  0.150310  0.253700  0.419280  1.0  -0.0704
  C  C519  1  0.805740  0.122800  0.482320  1.0  0.7033
  C  C520  1  0.575830  0.238300  0.571240  1.0  0.6891
  C  C521  1  0.383200  0.114400  0.580200  1.0  0.6994
  C  C522  1  0.384070  0.969240  0.533020  1.0  0.1649
  C  C523  1  0.321450  0.090040  0.614260  1.0  -0.1274
  C  C524  1  0.083110  0.242310  0.391870  1.0  -0.0631
  C  C525  1  0.277230  0.229230  0.421310  1.0  0.6948
  C  C526  1  0.921680  0.297130  0.414510  1.0  0.1625
  C  C527  1  0.855880  0.089070  0.450970  1.0  -0.1465
  C  C528  1  0.612430  0.273760  0.590980  1.0  -0.0911
  C  C529  1  0.302090  0.105870  0.654550  1.0  0.008
  C  C530  1  0.241360  0.042740  0.679940  1.0  0.134
  C  C531  1  0.967440  0.263730  0.389190  1.0  -0.1753
  C  C532  1  0.803770  0.085260  0.416200  1.0  0.1222
  C  C533  1  0.950700  0.058700  0.458700  1.0  -0.0119
  C  C534  1  0.646300  0.271100  0.629900  1.0  0.033
  C  C535  1  0.605100  0.311300  0.569700  1.0  -0.0965
  C  C536  1  0.259740  0.082430  0.687290  1.0  -0.1274
  C  C537  1  0.709570  0.116780  0.399880  1.0  0.1452
  C  C538  1  0.990500  0.025000  0.432800  1.0  -0.1134
  C  C539  1  0.647200  0.233000  0.654800  1.0  0.1918
  C  C540  1  0.626900  0.345900  0.587900  1.0  -0.0854
  C  C541  1  0.713310  0.158330  0.395450  1.0  -0.0746
  C  C542  1  0.925300  0.021200  0.401200  1.0  0.1754
  C  C543  1  0.819900  0.191400  0.602200  1.0  0.6731
  C  C544  1  0.718600  0.196300  0.641500  1.0  -0.1138
  C  C545  1  0.661100  0.340300  0.624100  1.0  0.1634
  C  C546  1  0.812010  0.178350  0.409830  1.0  0.6911
  C  C547  1  0.623650  0.182900  0.377000  1.0  -0.0817
  C  C548  1  0.535860  0.124300  0.369180  1.0  0.1586
  C  C549  1  0.700300  0.160400  0.665400  1.0  -0.006
  C  C550  1  0.565000  0.202700  0.714700  1.0  0.1666
  C  C551  1  0.532820  0.165200  0.363960  1.0  -0.1702
  C  C552  1  0.616800  0.163500  0.702100  1.0  -0.1761
  C  C553  1  0.474890  0.262670  0.988950  1.0  0.6957
  C  C554  1  0.307560  0.408650  0.964030  1.0  0.6898
  C  C555  1  0.512900  0.216930  0.997070  1.0  -0.1311
  C  C556  1  0.347520  0.450590  0.965770  1.0  -0.0766
  C  C557  1  0.618300  0.195500  0.974100  1.0  0.0023
  C  C558  1  0.439420  0.194460  0.024700  1.0  0.0527
  C  C559  1  0.313620  0.473410  0.002350  1.0  -0.0417
  C  C560  1  0.405860  0.469650  0.931230  1.0  0.171
  C  C561  1  0.645300  0.152800  0.977000  1.0  -0.1196
  C  C562  1  0.329570  0.212120  0.055540  1.0  0.1161
  C  C563  1  0.336420  0.513420  0.003340  1.0  -0.1027
  C  C564  1  0.455290  0.449210  0.890810  1.0  0.1398
  C  C565  1  0.561900  0.132700  0.000900  1.0  0.1589
  C  C566  1  0.323290  0.246300  0.080720  1.0  -0.0714
  C  C567  1  0.910860  0.377200  0.017680  1.0  0.7054
  C  C568  1  0.885370  0.261700  0.928760  1.0  0.69
  C  C569  1  0.577800  0.385600  0.919800  1.0  0.7029
  C  C570  1  0.386330  0.530760  0.966980  1.0  0.1649
  C  C571  1  0.525750  0.409960  0.885740  1.0  -0.1292
  C  C572  1  0.217290  0.257690  0.108130  1.0  -0.0626
  C  C573  1  0.427770  0.270770  0.078690  1.0  0.6935
  C  C574  1  0.133320  0.202870  0.085490  1.0  0.1649
  C  C575  1  0.895920  0.410930  0.049030  1.0  -0.1468
  C  C576  1  0.977170  0.226240  0.909020  1.0  -0.091
  C  C577  1  0.562510  0.394130  0.845450  1.0  0.0062
  C  C578  1  0.464040  0.457260  0.820060  1.0  0.1342
  C  C579  1  0.120360  0.236270  0.110810  1.0  -0.1801
  C  C580  1  0.805230  0.414740  0.083800  1.0  0.1221
  C  C581  1  0.968100  0.441300  0.041300  1.0  -0.0096
  C  C582  1  0.047300  0.228900  0.870100  1.0  0.0322
  C  C583  1  0.986100  0.188700  0.930300  1.0  -0.0979
  C  C584  1  0.529460  0.417570  0.812710  1.0  -0.13
  C  C585  1  0.726230  0.383220  0.100120  1.0  0.1451
  C  C586  1  0.948300  0.475000  0.067200  1.0  -0.1128
  C  C587  1  0.035000  0.267000  0.845200  1.0  0.1889
  C  C588  1  0.060700  0.154100  0.912100  1.0  -0.0851
  C  C589  1  0.767090  0.341670  0.104550  1.0  -0.076
  C  C590  1  0.847700  0.478800  0.098800  1.0  0.1777
  C  C591  1  0.113500  0.308600  0.897800  1.0  0.6729
  C  C592  1  0.056400  0.303700  0.858500  1.0  -0.114
  C  C593  1  0.125500  0.159700  0.875900  1.0  0.1621
  C  C594  1  0.900190  0.321650  0.090170  1.0  0.6924
  C  C595  1  0.683550  0.317100  0.123000  1.0  -0.0818
  C  C596  1  0.529340  0.375700  0.130820  1.0  0.1574
  C  C597  1  0.026100  0.339600  0.834600  1.0  -0.0058
  C  C598  1  0.982400  0.297300  0.785300  1.0  0.1665
  C  C599  1  0.561980  0.334800  0.136040  1.0  -0.1714
  C  C600  1  0.982400  0.336500  0.797900  1.0  -0.1764
  N  N601  1  0.514060  0.024850  0.347430  1.0  -0.3123
  N  N602  1  0.648470  0.931530  0.990330  1.0  -0.3189
  N  N603  1  0.705530  0.058190  0.309350  1.0  -0.3171
  N  N604  1  0.713770  0.857940  0.027320  1.0  -0.3292
  N  N605  1  0.721710  0.886310  0.900270  1.0  -0.31
  N  N606  1  0.884250  0.892910  0.949390  1.0  -0.3061
  N  N607  1  0.020900  0.852520  0.304880  1.0  -0.4016
  N  N608  1  0.186300  0.807400  0.236800  1.0  -0.432
  N  N609  1  0.386340  0.475150  0.152570  1.0  -0.3114
  N  N610  1  0.070330  0.568470  0.509670  1.0  -0.3173
  N  N611  1  0.573070  0.441810  0.190650  1.0  -0.3169
  N  N612  1  0.099030  0.642060  0.472680  1.0  -0.3309
  N  N613  1  0.008290  0.613690  0.599730  1.0  -0.3073
  N  N614  1  0.226550  0.607090  0.550610  1.0  -0.3086
  N  N615  1  0.678300  0.647480  0.195120  1.0  -0.3996
  N  N616  1  0.730500  0.692600  0.263200  1.0  -0.4354
  N  N617  1  0.861490  0.652570  0.524850  1.0  -0.3109
  N  N618  1  0.638800  0.009670  0.431530  1.0  -0.3206
  N  N619  1  0.014880  0.690650  0.558190  1.0  -0.3169
  N  N620  1  0.741090  0.972680  0.357940  1.0  -0.3304
  N  N621  1  0.621980  0.099730  0.386310  1.0  -0.3089
  N  N622  1  0.833640  0.050610  0.392910  1.0  -0.3055
  N  N623  1  0.325780  0.695120  0.352520  1.0  -0.4044
  N  N624  1  0.423100  0.763200  0.307400  1.0  -0.4301
  N  N625  1  0.538910  0.847430  0.975150  1.0  -0.3121
  N  N626  1  0.580000  0.490330  0.068470  1.0  -0.3201
  N  N627  1  0.763720  0.809350  0.941810  1.0  -0.317
  N  N628  1  0.571710  0.527320  0.142060  1.0  -0.332
  N  N629  1  0.608020  0.400270  0.113690  1.0  -0.3073
  N  N630  1  0.777160  0.449390  0.107090  1.0  -0.3063
  N  N631  1  0.873420  0.804880  0.147480  1.0  -0.4057
  N  N632  1  0.993700  0.736800  0.192600  1.0  -0.4318
  N  N633  1  0.485940  0.975150  0.652570  1.0  -0.3093
  N  N634  1  0.351530  0.068470  0.009670  1.0  -0.3188
  N  N635  1  0.294470  0.941810  0.690650  1.0  -0.3175
  N  N636  1  0.286230  0.142060  0.972680  1.0  -0.3312
  N  N637  1  0.278290  0.113690  0.099730  1.0  -0.3074
  N  N638  1  0.115750  0.107090  0.050610  1.0  -0.3076
  N  N639  1  0.979100  0.147480  0.695120  1.0  -0.402
  N  N640  1  0.813700  0.192600  0.763200  1.0  -0.4342
  N  N641  1  0.613660  0.524850  0.847430  1.0  -0.3124
  N  N642  1  0.929670  0.431530  0.490330  1.0  -0.3206
  N  N643  1  0.426930  0.558190  0.809350  1.0  -0.3163
  N  N644  1  0.900970  0.357940  0.527320  1.0  -0.332
  N  N645  1  0.991710  0.386310  0.400270  1.0  -0.309
  N  N646  1  0.773450  0.392910  0.449390  1.0  -0.3076
  N  N647  1  0.321700  0.352520  0.804880  1.0  -0.4031
  N  N648  1  0.269500  0.307400  0.736800  1.0  -0.4317
  N  N649  1  0.138510  0.347430  0.475150  1.0  -0.3118
  N  N650  1  0.361200  0.990330  0.568470  1.0  -0.3207
  N  N651  1  0.985120  0.309350  0.441810  1.0  -0.3168
  N  N652  1  0.258910  0.027320  0.642060  1.0  -0.3331
  N  N653  1  0.378020  0.900270  0.613690  1.0  -0.3062
  N  N654  1  0.166360  0.949390  0.607090  1.0  -0.3063
  N  N655  1  0.674220  0.304880  0.647480  1.0  -0.4027
  N  N656  1  0.576900  0.236800  0.692600  1.0  -0.4306
  N  N657  1  0.461090  0.152570  0.024850  1.0  -0.3097
  N  N658  1  0.420000  0.509670  0.931530  1.0  -0.3208
  N  N659  1  0.236280  0.190650  0.058190  1.0  -0.3175
  N  N660  1  0.428290  0.472680  0.857940  1.0  -0.3318
  N  N661  1  0.391980  0.599730  0.886310  1.0  -0.3083
  N  N662  1  0.222840  0.550610  0.892910  1.0  -0.3079
  N  N663  1  0.126580  0.195120  0.852520  1.0  -0.4066
  N  N664  1  0.006300  0.263200  0.807400  1.0  -0.4301
  O  O665  1  0.645470  0.993090  0.224970  1.0  -0.7366
  O  O666  1  0.663240  0.985750  0.120570  1.0  -0.636
  O  O667  1  0.830720  0.943090  0.094070  1.0  -0.6509
  O  O668  1  0.988740  0.995780  0.132340  1.0  -0.7663
  O  O669  1  0.993960  0.912340  0.156540  1.0  -0.6451
  O  O670  1  0.906240  0.910630  0.221090  1.0  -0.738
  O  O671  1  0.464690  0.977370  0.216850  1.0  -0.7313
  O  O672  1  0.169230  0.014240  0.137300  1.0  -0.7519
  O  O673  1  0.131880  0.960230  0.221610  1.0  -0.6586
  O  O674  1  0.295210  0.914600  0.226380  1.0  -0.6037
  O  O675  1  0.444790  0.948780  0.096640  1.0  -0.6493
  O  O676  1  0.485970  0.916170  0.153690  1.0  -0.6438
  O  O677  1  0.387120  0.078460  0.249300  1.0  -0.5526
  O  O678  1  0.523250  0.077150  0.190950  1.0  -0.5693
  O  O679  1  0.013240  0.070470  0.211450  1.0  -0.5553
  O  O680  1  0.918050  0.099300  0.160800  1.0  -0.555
  O  O681  1  0.363530  0.506910  0.275030  1.0  -0.7361
  O  O682  1  0.269560  0.514250  0.379430  1.0  -0.637
  O  O683  1  0.367880  0.556910  0.405930  1.0  -0.6502
  O  O684  1  0.616860  0.504220  0.367660  1.0  -0.7658
  O  O685  1  0.562840  0.587660  0.343460  1.0  -0.6455
  O  O686  1  0.537960  0.589370  0.278910  1.0  -0.7386
  O  O687  1  0.158910  0.522630  0.283150  1.0  -0.7316
  O  O688  1  0.820770  0.485760  0.362700  1.0  -0.7548
  O  O689  1  0.813720  0.539770  0.278390  1.0  -0.6556
  O  O690  1  0.936190  0.585400  0.273620  1.0  -0.604
  O  O691  1  0.990210  0.551220  0.403360  1.0  -0.6495
  O  O692  1  0.055830  0.583830  0.346310  1.0  -0.6424
  O  O693  1  0.214880  0.421540  0.250700  1.0  -0.5564
  O  O694  1  0.291350  0.422850  0.309050  1.0  -0.5698
  O  O695  1  0.795160  0.429530  0.288550  1.0  -0.5565
  O  O696  1  0.678150  0.400700  0.339200  1.0  -0.5563
  O  O697  1  0.870440  0.775030  0.493090  1.0  -0.7358
  O  O698  1  0.783810  0.879430  0.485750  1.0  -0.6337
  O  O699  1  0.924790  0.905930  0.443090  1.0  -0.6523
  O  O700  1  0.121080  0.867660  0.495780  1.0  -0.7662
  O  O701  1  0.150500  0.843460  0.412340  1.0  -0.6462
  O  O702  1  0.127330  0.778910  0.410630  1.0  -0.7384
  O  O703  1  0.681540  0.783150  0.477370  1.0  -0.7325
  O  O704  1  0.306530  0.862700  0.514240  1.0  -0.754
  O  O705  1  0.353490  0.778390  0.460230  1.0  -0.6666
  O  O706  1  0.521590  0.773620  0.414600  1.0  -0.6039
  O  O707  1  0.541430  0.903360  0.448780  1.0  -0.6461
  O  O708  1  0.639660  0.846310  0.416170  1.0  -0.6398
  O  O709  1  0.636420  0.750700  0.578460  1.0  -0.5502
  O  O710  1  0.714200  0.809050  0.577150  1.0  -0.5677
  O  O711  1  0.224690  0.788550  0.570470  1.0  -0.5547
  O  O712  1  0.078850  0.839200  0.599300  1.0  -0.5552
  O  O713  1  0.638560  0.724970  0.006910  1.0  -0.7379
  O  O714  1  0.648990  0.620570  0.014250  1.0  -0.6366
  O  O715  1  0.773810  0.594070  0.056910  1.0  -0.652
  O  O716  1  0.984520  0.632340  0.004220  1.0  -0.7658
  O  O717  1  0.906300  0.656540  0.087660  1.0  -0.6453
  O  O718  1  0.816870  0.721090  0.089370  1.0  -0.7399
  O  O719  1  0.442060  0.716850  0.022630  1.0  -0.7312
  O  O720  1  0.183470  0.637300  0.985760  1.0  -0.7531
  O  O721  1  0.092110  0.721610  0.039770  1.0  -0.6647
  O  O722  1  0.209810  0.726380  0.085400  1.0  -0.6028
  O  O723  1  0.393570  0.596640  0.051220  1.0  -0.6509
  O  O724  1  0.402140  0.653690  0.083830  1.0  -0.6396
  O  O725  1  0.465580  0.749300  0.921540  1.0  -0.5554
  O  O726  1  0.600400  0.690950  0.922850  1.0  -0.5698
  O  O727  1  0.083710  0.711450  0.929530  1.0  -0.5548
  O  O728  1  0.017350  0.660800  0.900700  1.0  -0.5578
  O  O729  1  0.354530  0.006910  0.775030  1.0  -0.7369
  O  O730  1  0.336760  0.014250  0.879430  1.0  -0.6346
  O  O731  1  0.169280  0.056910  0.905930  1.0  -0.6508
  O  O732  1  0.011260  0.004220  0.867660  1.0  -0.7664
  O  O733  1  0.006040  0.087660  0.843460  1.0  -0.645
  O  O734  1  0.093760  0.089370  0.778910  1.0  -0.7372
  O  O735  1  0.535310  0.022630  0.783150  1.0  -0.73
  O  O736  1  0.830770  0.985760  0.862700  1.0  -0.7528
  O  O737  1  0.868120  0.039770  0.778390  1.0  -0.656
  O  O738  1  0.704790  0.085400  0.773620  1.0  -0.6035
  O  O739  1  0.555210  0.051220  0.903360  1.0  -0.6499
  O  O740  1  0.514030  0.083830  0.846310  1.0  -0.6439
  O  O741  1  0.612880  0.921540  0.750700  1.0  -0.5528
  O  O742  1  0.476750  0.922850  0.809050  1.0  -0.5718
  O  O743  1  0.986760  0.929530  0.788550  1.0  -0.5558
  O  O744  1  0.081950  0.900700  0.839200  1.0  -0.5566
  O  O745  1  0.636470  0.493090  0.724970  1.0  -0.735
  O  O746  1  0.730440  0.485750  0.620570  1.0  -0.6389
  O  O747  1  0.632120  0.443090  0.594070  1.0  -0.6499
  O  O748  1  0.383140  0.495780  0.632340  1.0  -0.7663
  O  O749  1  0.437160  0.412340  0.656540  1.0  -0.6454
  O  O750  1  0.462040  0.410630  0.721090  1.0  -0.7379
  O  O751  1  0.841090  0.477370  0.716850  1.0  -0.7317
  O  O752  1  0.179230  0.514240  0.637300  1.0  -0.7545
  O  O753  1  0.186280  0.460230  0.721610  1.0  -0.6601
  O  O754  1  0.063810  0.414600  0.726380  1.0  -0.6052
  O  O755  1  0.009790  0.448780  0.596640  1.0  -0.648
  O  O756  1  0.944170  0.416170  0.653690  1.0  -0.6422
  O  O757  1  0.785120  0.578460  0.749300  1.0  -0.5566
  O  O758  1  0.708650  0.577150  0.690950  1.0  -0.5665
  O  O759  1  0.204840  0.570470  0.711450  1.0  -0.5564
  O  O760  1  0.321850  0.599300  0.660800  1.0  -0.5571
  O  O761  1  0.129560  0.224970  0.506910  1.0  -0.7367
  O  O762  1  0.216190  0.120570  0.514250  1.0  -0.6347
  O  O763  1  0.075210  0.094070  0.556910  1.0  -0.6528
  O  O764  1  0.878920  0.132340  0.504220  1.0  -0.7654
  O  O765  1  0.849500  0.156540  0.587660  1.0  -0.6456
  O  O766  1  0.872670  0.221090  0.589370  1.0  -0.7376
  O  O767  1  0.318460  0.216850  0.522630  1.0  -0.7318
  O  O768  1  0.693470  0.137300  0.485760  1.0  -0.7546
  O  O769  1  0.646510  0.221610  0.539770  1.0  -0.6669
  O  O770  1  0.478410  0.226380  0.585400  1.0  -0.6033
  O  O771  1  0.458570  0.096640  0.551220  1.0  -0.6491
  O  O772  1  0.360340  0.153690  0.583830  1.0  -0.6393
  O  O773  1  0.363580  0.249300  0.421540  1.0  -0.5519
  O  O774  1  0.285800  0.190950  0.422850  1.0  -0.5697
  O  O775  1  0.775310  0.211450  0.429530  1.0  -0.5547
  O  O776  1  0.921150  0.160800  0.400700  1.0  -0.5572
  O  O777  1  0.361440  0.275030  0.993090  1.0  -0.7368
  O  O778  1  0.351010  0.379430  0.985750  1.0  -0.6362
  O  O779  1  0.226190  0.405930  0.943090  1.0  -0.6514
  O  O780  1  0.015480  0.367660  0.995780  1.0  -0.7666
  O  O781  1  0.093700  0.343460  0.912340  1.0  -0.646
  O  O782  1  0.183130  0.278910  0.910630  1.0  -0.7375
  O  O783  1  0.557940  0.283150  0.977370  1.0  -0.7314
  O  O784  1  0.816530  0.362700  0.014240  1.0  -0.7542
  O  O785  1  0.907890  0.278390  0.960230  1.0  -0.668
  O  O786  1  0.790190  0.273620  0.914600  1.0  -0.6038
  O  O787  1  0.606430  0.403360  0.948780  1.0  -0.6498
  O  O788  1  0.597860  0.346310  0.916170  1.0  -0.6403
  O  O789  1  0.534420  0.250700  0.078460  1.0  -0.5548
  O  O790  1  0.399600  0.309050  0.077150  1.0  -0.5683
  O  O791  1  0.916290  0.288550  0.070470  1.0  -0.5553
  O  O792  1  0.982650  0.339200  0.099300  1.0  -0.5586
