# generated using pymatgen
data_Pr2CoH24C48(NO2)8
_symmetry_space_group_name_H-M   'P 1'
_cell_length_a   11.23670000
_cell_length_b   32.96820000
_cell_length_c   32.96820000
_cell_angle_alpha   88.33570000
_cell_angle_beta   80.18790000
_cell_angle_gamma   80.18770000
_symmetry_Int_Tables_number   1
_chemical_formula_structural   Pr2CoH24C48(NO2)8
_chemical_formula_sum   'Pr16 Co8 H192 C384 N64 O128'
_cell_volume   11858.48940707
_cell_formula_units_Z   8
loop_
 _symmetry_equiv_pos_site_id
 _symmetry_equiv_pos_as_xyz
  1  'x, y, z'
loop_
 _atom_site_type_symbol
 _atom_site_label
 _atom_site_symmetry_multiplicity
 _atom_site_fract_x
 _atom_site_fract_y
 _atom_site_fract_z
 _atom_site_occupancy
 _atom_site_charge
  Pr  Pr1  1  0.816460  0.971380  0.171340  1.0  2.1595
  Pr  Pr2  1  0.316870  0.974080  0.173140  1.0  2.1569
  Pr  Pr3  1  0.459180  0.528620  0.328660  1.0  2.1577
  Pr  Pr4  1  0.964090  0.525920  0.326860  1.0  2.157
  Pr  Pr5  1  0.987800  0.828660  0.471380  1.0  2.1579
  Pr  Pr6  1  0.490020  0.826850  0.474080  1.0  2.1569
  Pr  Pr7  1  0.787840  0.671340  0.028620  1.0  2.1583
  Pr  Pr8  1  0.290940  0.673150  0.025920  1.0  2.1561
  Pr  Pr9  1  0.183540  0.028620  0.828660  1.0  2.158
  Pr  Pr10  1  0.683130  0.025920  0.826860  1.0  2.1571
  Pr  Pr11  1  0.540820  0.471380  0.671340  1.0  2.1594
  Pr  Pr12  1  0.035910  0.474080  0.673140  1.0  2.1568
  Pr  Pr13  1  0.012200  0.171340  0.528620  1.0  2.1582
  Pr  Pr14  1  0.509980  0.173150  0.525920  1.0  2.1559
  Pr  Pr15  1  0.212160  0.328660  0.971380  1.0  2.1579
  Pr  Pr16  1  0.709060  0.326850  0.974080  1.0  2.157
  Co  Co17  1  0.711270  0.871070  0.963590  1.0  0.6987
  Co  Co18  1  0.045930  0.628930  0.536410  1.0  0.6991
  Co  Co19  1  0.674860  0.036410  0.371070  1.0  0.698
  Co  Co20  1  0.582340  0.463590  0.128930  1.0  0.7001
  Co  Co21  1  0.288730  0.128930  0.036410  1.0  0.6983
  Co  Co22  1  0.954070  0.371070  0.463590  1.0  0.6981
  Co  Co23  1  0.325140  0.963590  0.628930  1.0  0.6985
  Co  Co24  1  0.417660  0.536410  0.871070  1.0  0.6965
  H  H25  1  0.959800  0.016500  0.059300  1.0  0.1055
  H  H26  1  0.935700  0.063900  0.006100  1.0  0.1109
  H  H27  1  0.066100  0.113700  0.996700  1.0  0.0717
  H  H28  1  0.414400  0.138900  0.111700  1.0  0.0851
  H  H29  1  0.347100  0.148200  0.180000  1.0  0.1243
  H  H30  1  0.165100  0.126700  0.209700  1.0  0.1141
  H  H31  1  0.555400  0.842300  0.132700  1.0  0.1146
  H  H32  1  0.663500  0.787400  0.093600  1.0  0.128
  H  H33  1  0.759200  0.798900  0.026700  1.0  0.0776
  H  H34  1  0.635900  0.966800  0.941800  1.0  0.077
  H  H35  1  0.652700  0.028300  0.972300  1.0  0.1182
  H  H36  1  0.697300  0.026000  0.038000  1.0  0.1054
  H  H37  1  0.667000  0.123600  0.219800  1.0  0.1121
  H  H38  1  0.824600  0.128100  0.255700  1.0  0.1218
  H  H39  1  0.842500  0.086600  0.313000  1.0  0.0874
  H  H40  1  0.423800  0.999500  0.396100  1.0  0.0872
  H  H41  1  0.318800  0.962600  0.361000  1.0  0.112
  H  H42  1  0.375200  0.955500  0.290300  1.0  0.0972
  H  H43  1  0.102100  0.956500  0.313500  1.0  0.1141
  H  H44  1  0.015600  0.925400  0.371800  1.0  0.1004
  H  H45  1  0.957700  0.865500  0.363300  1.0  0.0696
  H  H46  1  0.268200  0.759700  0.205900  1.0  0.0727
  H  H47  1  0.267300  0.785500  0.139500  1.0  0.1096
  H  H48  1  0.127000  0.845200  0.134000  1.0  0.09
  H  H49  1  0.535600  0.483500  0.440700  1.0  0.1057
  H  H50  1  0.505700  0.436100  0.493900  1.0  0.1112
  H  H51  1  0.676500  0.386300  0.503300  1.0  0.0724
  H  H52  1  0.165000  0.361100  0.388300  1.0  0.0833
  H  H53  1  0.175300  0.351800  0.320000  1.0  0.1239
  H  H54  1  0.001500  0.373300  0.290300  1.0  0.1138
  H  H55  1  0.030400  0.657700  0.367300  1.0  0.1149
  H  H56  1  0.044500  0.712600  0.406400  1.0  0.1273
  H  H57  1  0.084800  0.701100  0.473300  1.0  0.0772
  H  H58  1  0.044500  0.533200  0.558200  1.0  0.0766
  H  H59  1  0.153300  0.471700  0.527700  1.0  0.1175
  H  H60  1  0.261300  0.474000  0.462000  1.0  0.1057
  H  H61  1  0.510400  0.376400  0.280200  1.0  0.1127
  H  H62  1  0.708400  0.371900  0.244300  1.0  0.1229
  H  H63  1  0.742100  0.413400  0.187000  1.0  0.0889
  H  H64  1  0.319400  0.500500  0.103900  1.0  0.0863
  H  H65  1  0.142400  0.537400  0.139000  1.0  0.113
  H  H66  1  0.121000  0.544500  0.209700  1.0  0.0969
  H  H67  1  0.872100  0.543500  0.186500  1.0  0.1144
  H  H68  1  0.812800  0.574600  0.128200  1.0  0.1008
  H  H69  1  0.686500  0.634500  0.136700  1.0  0.0713
  H  H70  1  0.733800  0.740300  0.294100  1.0  0.0733
  H  H71  1  0.692300  0.714500  0.360500  1.0  0.1093
  H  H72  1  0.606200  0.654800  0.366000  1.0  0.0898
  H  H73  1  0.019100  0.940700  0.516500  1.0  0.1057
  H  H74  1  0.941800  0.993900  0.563900  1.0  0.1117
  H  H75  1  0.062800  0.003300  0.613700  1.0  0.0718
  H  H76  1  0.526100  0.888300  0.638900  1.0  0.0844
  H  H77  1  0.527100  0.820000  0.648200  1.0  0.1238
  H  H78  1  0.374800  0.790300  0.626700  1.0  0.1144
  H  H79  1  0.688100  0.867300  0.342300  1.0  0.115
  H  H80  1  0.757100  0.906400  0.287400  1.0  0.1268
  H  H81  1  0.785900  0.973300  0.298900  1.0  0.0774
  H  H82  1  0.577700  0.058200  0.466800  1.0  0.0765
  H  H83  1  0.625000  0.027700  0.528300  1.0  0.1177
  H  H84  1  0.735300  0.962000  0.526000  1.0  0.105
  H  H85  1  0.886800  0.780200  0.623600  1.0  0.1118
  H  H86  1  0.080300  0.744300  0.628100  1.0  0.123
  H  H87  1  0.155500  0.687000  0.586600  1.0  0.0887
  H  H88  1  0.819900  0.603900  0.499500  1.0  0.0869
  H  H89  1  0.679800  0.639000  0.462600  1.0  0.1113
  H  H90  1  0.665500  0.709700  0.455500  1.0  0.0972
  H  H91  1  0.415600  0.686500  0.456500  1.0  0.1138
  H  H92  1  0.387400  0.628200  0.425400  1.0  0.1002
  H  H93  1  0.321000  0.636700  0.365500  1.0  0.071
  H  H94  1  0.474100  0.794100  0.259700  1.0  0.0731
  H  H95  1  0.406800  0.860500  0.285500  1.0  0.1099
  H  H96  1  0.261000  0.866000  0.345200  1.0  0.0895
  H  H97  1  0.976300  0.559300  0.983500  1.0  0.1053
  H  H98  1  0.999600  0.506100  0.936100  1.0  0.1108
  H  H99  1  0.179800  0.496700  0.886300  1.0  0.0714
  H  H100  1  0.553300  0.611700  0.861100  1.0  0.0852
  H  H101  1  0.495300  0.680000  0.851800  1.0  0.1244
  H  H102  1  0.291800  0.709700  0.873300  1.0  0.1136
  H  H103  1  0.397700  0.632700  0.157700  1.0  0.1151
  H  H104  1  0.450900  0.593600  0.212600  1.0  0.1274
  H  H105  1  0.558100  0.526700  0.201100  1.0  0.0781
  H  H106  1  0.602700  0.441800  0.033200  1.0  0.0769
  H  H107  1  0.681000  0.472300  0.971700  1.0  0.1179
  H  H108  1  0.723300  0.538000  0.974000  1.0  0.1056
  H  H109  1  0.790600  0.719800  0.876400  1.0  0.1103
  H  H110  1  0.952700  0.755700  0.871900  1.0  0.1222
  H  H111  1  0.929100  0.813000  0.913400  1.0  0.0885
  H  H112  1  0.423300  0.896100  0.000500  1.0  0.085
  H  H113  1  0.281400  0.861000  0.037400  1.0  0.1114
  H  H114  1  0.330700  0.790300  0.044500  1.0  0.0972
  H  H115  1  0.058600  0.813500  0.043500  1.0  0.1137
  H  H116  1  0.941000  0.871800  0.074600  1.0  0.1008
  H  H117  1  0.823200  0.863300  0.134500  1.0  0.0698
  H  H118  1  0.027900  0.705900  0.240300  1.0  0.0733
  H  H119  1  0.052800  0.639500  0.214500  1.0  0.1108
  H  H120  1  0.972200  0.634000  0.154800  1.0  0.0895
  H  H121  1  0.040200  0.983500  0.940700  1.0  0.1059
  H  H122  1  0.064300  0.936100  0.993900  1.0  0.1107
  H  H123  1  0.933900  0.886300  0.003300  1.0  0.072
  H  H124  1  0.585600  0.861100  0.888300  1.0  0.0838
  H  H125  1  0.652900  0.851800  0.820000  1.0  0.1242
  H  H126  1  0.834900  0.873300  0.790300  1.0  0.1144
  H  H127  1  0.444600  0.157700  0.867300  1.0  0.1142
  H  H128  1  0.336500  0.212600  0.906400  1.0  0.1276
  H  H129  1  0.240800  0.201100  0.973300  1.0  0.0778
  H  H130  1  0.364100  0.033200  0.058200  1.0  0.0766
  H  H131  1  0.347300  0.971700  0.027700  1.0  0.1182
  H  H132  1  0.302700  0.974000  0.962000  1.0  0.1051
  H  H133  1  0.333000  0.876400  0.780200  1.0  0.1122
  H  H134  1  0.175400  0.871900  0.744300  1.0  0.1226
  H  H135  1  0.157500  0.913400  0.687000  1.0  0.0882
  H  H136  1  0.576200  0.000500  0.603900  1.0  0.0859
  H  H137  1  0.681200  0.037400  0.639000  1.0  0.1124
  H  H138  1  0.624800  0.044500  0.709700  1.0  0.0974
  H  H139  1  0.897900  0.043500  0.686500  1.0  0.1141
  H  H140  1  0.984400  0.074600  0.628200  1.0  0.1019
  H  H141  1  0.042300  0.134500  0.636700  1.0  0.0697
  H  H142  1  0.731800  0.240300  0.794100  1.0  0.0731
  H  H143  1  0.732700  0.214500  0.860500  1.0  0.1095
  H  H144  1  0.873000  0.154800  0.866000  1.0  0.0899
  H  H145  1  0.464400  0.516500  0.559300  1.0  0.1065
  H  H146  1  0.494300  0.563900  0.506100  1.0  0.1116
  H  H147  1  0.323500  0.613700  0.496700  1.0  0.0737
  H  H148  1  0.835000  0.638900  0.611700  1.0  0.0829
  H  H149  1  0.824700  0.648200  0.680000  1.0  0.1249
  H  H150  1  0.998500  0.626700  0.709700  1.0  0.1139
  H  H151  1  0.969600  0.342300  0.632700  1.0  0.1147
  H  H152  1  0.955500  0.287400  0.593600  1.0  0.1279
  H  H153  1  0.915200  0.298900  0.526700  1.0  0.0771
  H  H154  1  0.955500  0.466800  0.441800  1.0  0.0777
  H  H155  1  0.846700  0.528300  0.472300  1.0  0.1182
  H  H156  1  0.738700  0.526000  0.538000  1.0  0.106
  H  H157  1  0.489600  0.623600  0.719800  1.0  0.1126
  H  H158  1  0.291600  0.628100  0.755700  1.0  0.1228
  H  H159  1  0.257900  0.586600  0.813000  1.0  0.0878
  H  H160  1  0.680600  0.499500  0.896100  1.0  0.0864
  H  H161  1  0.857600  0.462600  0.861000  1.0  0.1126
  H  H162  1  0.879000  0.455500  0.790300  1.0  0.097
  H  H163  1  0.127900  0.456500  0.813500  1.0  0.114
  H  H164  1  0.187200  0.425400  0.871800  1.0  0.1004
  H  H165  1  0.313500  0.365500  0.863300  1.0  0.072
  H  H166  1  0.266200  0.259700  0.705900  1.0  0.0716
  H  H167  1  0.307700  0.285500  0.639500  1.0  0.1093
  H  H168  1  0.393800  0.345200  0.634000  1.0  0.0902
  H  H169  1  0.980900  0.059300  0.483500  1.0  0.1062
  H  H170  1  0.058200  0.006100  0.436100  1.0  0.1118
  H  H171  1  0.937200  0.996700  0.386300  1.0  0.0722
  H  H172  1  0.473900  0.111700  0.361100  1.0  0.0842
  H  H173  1  0.472900  0.180000  0.351800  1.0  0.1241
  H  H174  1  0.625200  0.209700  0.373300  1.0  0.1141
  H  H175  1  0.311900  0.132700  0.657700  1.0  0.1154
  H  H176  1  0.242900  0.093600  0.712600  1.0  0.1266
  H  H177  1  0.214100  0.026700  0.701100  1.0  0.0775
  H  H178  1  0.422300  0.941800  0.533200  1.0  0.0774
  H  H179  1  0.375000  0.972300  0.471700  1.0  0.1171
  H  H180  1  0.264700  0.038000  0.474000  1.0  0.1051
  H  H181  1  0.113200  0.219800  0.376400  1.0  0.1112
  H  H182  1  0.919700  0.255700  0.371900  1.0  0.1227
  H  H183  1  0.844500  0.313000  0.413400  1.0  0.089
  H  H184  1  0.180100  0.396100  0.500500  1.0  0.0846
  H  H185  1  0.320200  0.361000  0.537400  1.0  0.1109
  H  H186  1  0.334500  0.290300  0.544500  1.0  0.0974
  H  H187  1  0.584400  0.313500  0.543500  1.0  0.1139
  H  H188  1  0.612600  0.371800  0.574600  1.0  0.1009
  H  H189  1  0.679000  0.363300  0.634500  1.0  0.0707
  H  H190  1  0.525900  0.205900  0.740300  1.0  0.0721
  H  H191  1  0.593200  0.139500  0.714500  1.0  0.1104
  H  H192  1  0.739000  0.134000  0.654800  1.0  0.0899
  H  H193  1  0.023700  0.440700  0.016500  1.0  0.1059
  H  H194  1  0.000400  0.493900  0.063900  1.0  0.1114
  H  H195  1  0.820200  0.503300  0.113700  1.0  0.0708
  H  H196  1  0.446700  0.388300  0.138900  1.0  0.0849
  H  H197  1  0.504700  0.320000  0.148200  1.0  0.1249
  H  H198  1  0.708200  0.290300  0.126700  1.0  0.1141
  H  H199  1  0.602300  0.367300  0.842300  1.0  0.1149
  H  H200  1  0.549100  0.406400  0.787400  1.0  0.1275
  H  H201  1  0.441900  0.473300  0.798900  1.0  0.0783
  H  H202  1  0.397300  0.558200  0.966800  1.0  0.0765
  H  H203  1  0.319000  0.527700  0.028300  1.0  0.1181
  H  H204  1  0.276700  0.462000  0.026000  1.0  0.1055
  H  H205  1  0.209400  0.280200  0.123600  1.0  0.1112
  H  H206  1  0.047300  0.244300  0.128100  1.0  0.1237
  H  H207  1  0.070900  0.187000  0.086600  1.0  0.0882
  H  H208  1  0.576700  0.103900  0.999500  1.0  0.087
  H  H209  1  0.718600  0.139000  0.962600  1.0  0.1117
  H  H210  1  0.669300  0.209700  0.955500  1.0  0.0972
  H  H211  1  0.941400  0.186500  0.956500  1.0  0.1137
  H  H212  1  0.059000  0.128200  0.925400  1.0  0.1019
  H  H213  1  0.176800  0.136700  0.865500  1.0  0.0712
  H  H214  1  0.972100  0.294100  0.759700  1.0  0.0727
  H  H215  1  0.947200  0.360500  0.785500  1.0  0.1101
  H  H216  1  0.027800  0.366000  0.845200  1.0  0.0894
  C  C217  1  0.069200  0.017900  0.123100  1.0  0.7054
  C  C218  1  0.054500  0.049500  0.089100  1.0  -0.1382
  C  C219  1  0.994500  0.040300  0.057900  1.0  -0.0151
  C  C220  1  0.986700  0.066700  0.024900  1.0  -0.1013
  C  C221  1  0.059300  0.098400  0.020800  1.0  0.1692
  C  C222  1  0.111100  0.083400  0.084800  1.0  0.1548
  C  C223  1  0.174500  0.100500  0.116300  1.0  0.1277
  C  C224  1  0.341400  0.130400  0.123600  1.0  0.1594
  C  C225  1  0.302500  0.135900  0.163900  1.0  -0.1617
  C  C226  1  0.193100  0.123000  0.181600  1.0  -0.1087
  C  C227  1  0.126400  0.104900  0.158300  1.0  -0.0693
  C  C228  1  0.010400  0.091100  0.177700  1.0  0.7105
  C  C229  1  0.501300  0.921300  0.113500  1.0  0.6634
  C  C230  1  0.588200  0.886100  0.089700  1.0  -0.1158
  C  C231  1  0.594600  0.846500  0.106100  1.0  0.0329
  C  C232  1  0.658400  0.814000  0.083200  1.0  -0.1619
  C  C233  1  0.717300  0.821200  0.042800  1.0  0.1412
  C  C234  1  0.656500  0.891600  0.050200  1.0  0.1331
  C  C235  1  0.665000  0.931400  0.030000  1.0  0.1131
  C  C236  1  0.645600  0.966700  0.969300  1.0  0.1639
  C  C237  1  0.659300  0.003800  0.987000  1.0  -0.1266
  C  C238  1  0.682700  0.002200  0.026400  1.0  -0.0329
  C  C239  1  0.685100  0.966000  0.050000  1.0  -0.058
  C  C240  1  0.729400  0.963500  0.090500  1.0  0.6968
  C  C241  1  0.492000  0.079300  0.230700  1.0  0.7238
  C  C242  1  0.594800  0.080100  0.254900  1.0  -0.0827
  C  C243  1  0.676000  0.107000  0.242800  1.0  -0.0671
  C  C244  1  0.770400  0.109900  0.263900  1.0  -0.1217
  C  C245  1  0.780900  0.084700  0.297900  1.0  0.1701
  C  C246  1  0.616000  0.055500  0.288100  1.0  0.1753
  C  C247  1  0.538500  0.024400  0.305800  1.0  0.0706
  C  C248  1  0.438400  0.999800  0.367400  1.0  0.1706
  C  C249  1  0.378900  0.976400  0.346800  1.0  -0.1263
  C  C250  1  0.409300  0.973300  0.304500  1.0  -0.004
  C  C251  1  0.489900  0.996600  0.283400  1.0  -0.1337
  C  C252  1  0.535100  0.988900  0.237700  1.0  0.7189
  C  C253  1  0.113100  0.909000  0.273800  1.0  -0.123
  C  C254  1  0.083700  0.930300  0.312100  1.0  -0.1018
  C  C255  1  0.030200  0.913000  0.346000  1.0  -0.0699
  C  C256  1  0.999600  0.876900  0.340100  1.0  0.1476
  C  C257  1  0.081700  0.870000  0.270600  1.0  0.0236
  C  C258  1  0.119000  0.846000  0.232600  1.0  0.1477
  C  C259  1  0.228800  0.786500  0.202700  1.0  0.1668
  C  C260  1  0.221900  0.799900  0.162500  1.0  -0.1235
  C  C261  1  0.143200  0.835800  0.159600  1.0  -0.03
  C  C262  1  0.083700  0.859600  0.196600  1.0  -0.1127
  C  C263  1  0.990800  0.899400  0.191800  1.0  0.6562
  C  C264  1  0.187600  0.929000  0.238800  1.0  0.6822
  C  C265  1  0.710200  0.482100  0.376900  1.0  0.7054
  C  C266  1  0.693100  0.450500  0.410900  1.0  -0.1375
  C  C267  1  0.592700  0.459700  0.442100  1.0  -0.0134
  C  C268  1  0.578300  0.433300  0.475100  1.0  -0.1009
  C  C269  1  0.678500  0.401600  0.479200  1.0  0.1687
  C  C270  1  0.779300  0.416600  0.415200  1.0  0.1545
  C  C271  1  0.891300  0.399500  0.383700  1.0  0.1293
  C  C272  1  0.095400  0.369600  0.376400  1.0  0.1642
  C  C273  1  0.102300  0.364100  0.336100  1.0  -0.1649
  C  C274  1  0.997700  0.377000  0.318400  1.0  -0.105
  C  C275  1  0.889600  0.395100  0.341700  1.0  -0.0673
  C  C276  1  0.779200  0.408900  0.322300  1.0  0.7114
  C  C277  1  0.036100  0.578700  0.386500  1.0  0.6676
  C  C278  1  0.064000  0.613900  0.410300  1.0  -0.1155
  C  C279  1  0.047200  0.653500  0.393900  1.0  0.0361
  C  C280  1  0.055600  0.686000  0.416800  1.0  -0.1619
  C  C281  1  0.081300  0.678800  0.457200  1.0  0.1401
  C  C282  1  0.098300  0.608400  0.449800  1.0  0.1322
  C  C283  1  0.126400  0.568600  0.470000  1.0  0.1134
  C  C284  1  0.081600  0.533300  0.530700  1.0  0.1628
  C  C285  1  0.150100  0.496200  0.513000  1.0  -0.1274
  C  C286  1  0.211300  0.497800  0.473600  1.0  -0.0341
  C  C287  1  0.201100  0.534000  0.450000  1.0  -0.0581
  C  C288  1  0.283400  0.536500  0.409500  1.0  0.691
  C  C289  1  0.302000  0.420700  0.269300  1.0  0.7237
  C  C290  1  0.429800  0.419900  0.245100  1.0  -0.084
  C  C291  1  0.525800  0.393000  0.257200  1.0  -0.0677
  C  C292  1  0.644200  0.390100  0.236100  1.0  -0.1245
  C  C293  1  0.663500  0.415300  0.202100  1.0  0.1658
  C  C294  1  0.459600  0.444500  0.211900  1.0  0.1747
  C  C295  1  0.368700  0.475600  0.194200  1.0  0.0695
  C  C296  1  0.305600  0.500200  0.132600  1.0  0.1728
  C  C297  1  0.202100  0.523600  0.153200  1.0  -0.1266
  C  C298  1  0.187100  0.526700  0.195500  1.0  -0.0042
  C  C299  1  0.269900  0.503400  0.216600  1.0  -0.1316
  C  C300  1  0.261700  0.511100  0.262300  1.0  0.7168
  C  C301  1  0.795900  0.591000  0.226200  1.0  -0.1247
  C  C302  1  0.826100  0.569700  0.187900  1.0  -0.1006
  C  C303  1  0.789200  0.587000  0.154000  1.0  -0.0697
  C  C304  1  0.716600  0.623100  0.159900  1.0  0.1444
  C  C305  1  0.722300  0.630000  0.229400  1.0  0.0245
  C  C306  1  0.697600  0.654000  0.267400  1.0  0.1484
  C  C307  1  0.718000  0.713500  0.297300  1.0  0.1685
  C  C308  1  0.684300  0.700100  0.337500  1.0  -0.1235
  C  C309  1  0.638600  0.664200  0.340400  1.0  -0.0318
  C  C310  1  0.639900  0.640400  0.303400  1.0  -0.113
  C  C311  1  0.582000  0.600600  0.308200  1.0  0.6573
  C  C312  1  0.855400  0.571000  0.261200  1.0  0.6828
  C  C313  1  0.192300  0.876900  0.517900  1.0  0.7076
  C  C314  1  0.143600  0.910900  0.549500  1.0  -0.1423
  C  C315  1  0.052400  0.942100  0.540300  1.0  -0.0139
  C  C316  1  0.011600  0.975100  0.566700  1.0  -0.1014
  C  C317  1  0.080100  0.979200  0.598400  1.0  0.1708
  C  C318  1  0.195900  0.915200  0.583400  1.0  0.1544
  C  C319  1  0.290800  0.883700  0.600500  1.0  0.1274
  C  C320  1  0.465000  0.876400  0.630400  1.0  0.1593
  C  C321  1  0.466400  0.836100  0.635900  1.0  -0.1619
  C  C322  1  0.374700  0.818400  0.623000  1.0  -0.1065
  C  C323  1  0.284700  0.841700  0.604900  1.0  -0.0704
  C  C324  1  0.188100  0.822300  0.591100  1.0  0.7087
  C  C325  1  0.614800  0.886500  0.421300  1.0  0.6616
  C  C326  1  0.677900  0.910300  0.386100  1.0  -0.1152
  C  C327  1  0.700700  0.893900  0.346500  1.0  0.0294
  C  C328  1  0.741600  0.916800  0.314000  1.0  -0.1625
  C  C329  1  0.760100  0.957200  0.321200  1.0  0.1428
  C  C330  1  0.706700  0.949800  0.391600  1.0  0.1322
  C  C331  1  0.695000  0.970000  0.431400  1.0  0.113
  C  C332  1  0.614900  0.030700  0.466700  1.0  0.162
  C  C333  1  0.646300  0.013000  0.503800  1.0  -0.1312
  C  C334  1  0.709100  0.973600  0.502200  1.0  -0.0335
  C  C335  1  0.735100  0.950000  0.466000  1.0  -0.0595
  C  C336  1  0.819900  0.909500  0.463500  1.0  0.6902
  C  C337  1  0.722700  0.769300  0.579300  1.0  0.7218
  C  C338  1  0.849700  0.745100  0.580100  1.0  -0.0809
  C  C339  1  0.918800  0.757200  0.607000  1.0  -0.0658
  C  C340  1  0.034300  0.736100  0.609900  1.0  -0.1207
  C  C341  1  0.078800  0.702100  0.584700  1.0  0.1667
  C  C342  1  0.904100  0.711900  0.555500  1.0  0.1734
  C  C343  1  0.844300  0.694200  0.524400  1.0  0.0689
  C  C344  1  0.805800  0.632600  0.499800  1.0  0.1707
  C  C345  1  0.725700  0.653200  0.476400  1.0  -0.124
  C  C346  1  0.713800  0.695500  0.473300  1.0  -0.0045
  C  C347  1  0.773300  0.716600  0.496600  1.0  -0.1347
  C  C348  1  0.772800  0.762300  0.488900  1.0  0.7124
  C  C349  1  0.386900  0.726200  0.409000  1.0  -0.1246
  C  C350  1  0.395800  0.687900  0.430300  1.0  -0.0946
  C  C351  1  0.376200  0.654000  0.413000  1.0  -0.0663
  C  C352  1  0.339700  0.659900  0.376900  1.0  0.1507
  C  C353  1  0.352300  0.729400  0.370000  1.0  0.0274
  C  C354  1  0.351600  0.767400  0.346000  1.0  0.1475
  C  C355  1  0.431500  0.797300  0.286500  1.0  0.1685
  C  C356  1  0.384400  0.837500  0.299900  1.0  -0.1251
  C  C357  1  0.302800  0.840400  0.335800  1.0  -0.0312
  C  C358  1  0.280300  0.803400  0.359600  1.0  -0.1131
  C  C359  1  0.182600  0.808200  0.399400  1.0  0.6571
  C  C360  1  0.426400  0.761200  0.429000  1.0  0.6815
  C  C361  1  0.087100  0.623100  0.982100  1.0  0.7091
  C  C362  1  0.104000  0.589100  0.950500  1.0  -0.1411
  C  C363  1  0.034800  0.557900  0.959700  1.0  -0.014
  C  C364  1  0.053400  0.524900  0.933300  1.0  -0.1004
  C  C365  1  0.157700  0.520800  0.901600  1.0  0.1726
  C  C366  1  0.194500  0.584800  0.916600  1.0  0.1542
  C  C367  1  0.275000  0.616300  0.899500  1.0  0.1264
  C  C368  1  0.471800  0.623600  0.869600  1.0  0.159
  C  C369  1  0.438400  0.663900  0.864100  1.0  -0.1635
  C  C370  1  0.316100  0.681600  0.877000  1.0  -0.1041
  C  C371  1  0.231300  0.658300  0.895100  1.0  -0.0688
  C  C372  1  0.101500  0.677700  0.908900  1.0  0.7091
  C  C373  1  0.422600  0.613500  0.078700  1.0  0.6643
  C  C374  1  0.474300  0.589700  0.113900  1.0  -0.1127
  C  C375  1  0.441100  0.606100  0.153500  1.0  0.0304
  C  C376  1  0.472400  0.583200  0.186000  1.0  -0.167
  C  C377  1  0.538500  0.542800  0.178800  1.0  0.142
  C  C378  1  0.548100  0.550200  0.108400  1.0  0.132
  C  C379  1  0.596400  0.530000  0.068600  1.0  0.1142
  C  C380  1  0.612300  0.469300  0.033300  1.0  0.1616
  C  C381  1  0.663100  0.487000  0.996200  1.0  -0.131
  C  C382  1  0.684900  0.526400  0.997800  1.0  -0.0345
  C  C383  1  0.651100  0.550000  0.034000  1.0  -0.0567
  C  C384  1  0.692900  0.590500  0.036500  1.0  0.6921
  C  C385  1  0.571300  0.730700  0.920700  1.0  0.7248
  C  C386  1  0.674900  0.754900  0.919900  1.0  -0.0833
  C  C387  1  0.783000  0.742800  0.893000  1.0  -0.0661
  C  C388  1  0.880300  0.763900  0.890100  1.0  -0.1249
  C  C389  1  0.865600  0.797900  0.915300  1.0  0.1708
  C  C390  1  0.671500  0.788100  0.944500  1.0  0.1734
  C  C391  1  0.562900  0.805800  0.975600  1.0  0.0693
  C  C392  1  0.438200  0.867400  0.000200  1.0  0.1712
  C  C393  1  0.355300  0.846800  0.023600  1.0  -0.1254
  C  C394  1  0.382600  0.804500  0.026700  1.0  -0.0036
  C  C395  1  0.486500  0.783400  0.003400  1.0  -0.1344
  C  C396  1  0.524000  0.737700  0.011100  1.0  0.7115
  C  C397  1  0.022100  0.773800  0.091000  1.0  -0.1249
  C  C398  1  0.014000  0.812100  0.069700  1.0  -0.0997
  C  C399  1  0.943200  0.846000  0.087000  1.0  -0.0654
  C  C400  1  0.876500  0.840100  0.123100  1.0  0.1489
  C  C401  1  0.951700  0.770600  0.130000  1.0  0.0252
  C  C402  1  0.965000  0.732600  0.154000  1.0  0.1467
  C  C403  1  0.015300  0.702700  0.213500  1.0  0.1702
  C  C404  1  0.021800  0.662500  0.200100  1.0  -0.1239
  C  C405  1  0.979000  0.659600  0.164200  1.0  -0.0316
  C  C406  1  0.943300  0.696600  0.140400  1.0  -0.1125
  C  C407  1  0.890200  0.691800  0.100600  1.0  0.6558
  C  C408  1  0.116600  0.738800  0.071000  1.0  0.6824
  C  C409  1  0.930800  0.982100  0.876900  1.0  0.7054
  C  C410  1  0.945500  0.950500  0.910900  1.0  -0.1393
  C  C411  1  0.005500  0.959700  0.942100  1.0  -0.0152
  C  C412  1  0.013300  0.933300  0.975100  1.0  -0.1023
  C  C413  1  0.940700  0.901600  0.979200  1.0  0.1683
  C  C414  1  0.888900  0.916600  0.915200  1.0  0.1539
  C  C415  1  0.825500  0.899500  0.883700  1.0  0.1289
  C  C416  1  0.658600  0.869600  0.876400  1.0  0.1625
  C  C417  1  0.697500  0.864100  0.836100  1.0  -0.1619
  C  C418  1  0.806900  0.877000  0.818400  1.0  -0.1069
  C  C419  1  0.873600  0.895100  0.841700  1.0  -0.0682
  C  C420  1  0.989600  0.908900  0.822300  1.0  0.7108
  C  C421  1  0.498700  0.078700  0.886500  1.0  0.6634
  C  C422  1  0.411800  0.113900  0.910300  1.0  -0.1164
  C  C423  1  0.405400  0.153500  0.893900  1.0  0.0319
  C  C424  1  0.341600  0.186000  0.916800  1.0  -0.1633
  C  C425  1  0.282700  0.178800  0.957200  1.0  0.1406
  C  C426  1  0.343500  0.108400  0.949800  1.0  0.1322
  C  C427  1  0.335000  0.068600  0.970000  1.0  0.1132
  C  C428  1  0.354400  0.033300  0.030700  1.0  0.1627
  C  C429  1  0.340700  0.996200  0.013000  1.0  -0.1271
  C  C430  1  0.317300  0.997800  0.973600  1.0  -0.0338
  C  C431  1  0.314900  0.034000  0.950000  1.0  -0.0589
  C  C432  1  0.270600  0.036500  0.909500  1.0  0.6961
  C  C433  1  0.508000  0.920700  0.769300  1.0  0.7249
  C  C434  1  0.405200  0.919900  0.745100  1.0  -0.0837
  C  C435  1  0.324000  0.893000  0.757200  1.0  -0.0645
  C  C436  1  0.229600  0.890100  0.736100  1.0  -0.1241
  C  C437  1  0.219100  0.915300  0.702100  1.0  0.1685
  C  C438  1  0.384000  0.944500  0.711900  1.0  0.1759
  C  C439  1  0.461500  0.975600  0.694200  1.0  0.0687
  C  C440  1  0.561600  0.000200  0.632600  1.0  0.1698
  C  C441  1  0.621100  0.023600  0.653200  1.0  -0.1249
  C  C442  1  0.590700  0.026700  0.695500  1.0  -0.0052
  C  C443  1  0.510100  0.003400  0.716600  1.0  -0.1326
  C  C444  1  0.464900  0.011100  0.762300  1.0  0.7175
  C  C445  1  0.886900  0.091000  0.726200  1.0  -0.1247
  C  C446  1  0.916300  0.069700  0.687900  1.0  -0.1006
  C  C447  1  0.969800  0.087000  0.654000  1.0  -0.0698
  C  C448  1  0.000400  0.123100  0.659900  1.0  0.1462
  C  C449  1  0.918300  0.130000  0.729400  1.0  0.0248
  C  C450  1  0.881000  0.154000  0.767400  1.0  0.1478
  C  C451  1  0.771200  0.213500  0.797300  1.0  0.1678
  C  C452  1  0.778100  0.200100  0.837500  1.0  -0.1227
  C  C453  1  0.856800  0.164200  0.840400  1.0  -0.0304
  C  C454  1  0.916300  0.140400  0.803400  1.0  -0.1132
  C  C455  1  0.009200  0.100600  0.808200  1.0  0.6552
  C  C456  1  0.812400  0.071000  0.761200  1.0  0.6834
  C  C457  1  0.289800  0.517900  0.623100  1.0  0.7046
  C  C458  1  0.306900  0.549500  0.589100  1.0  -0.1379
  C  C459  1  0.407300  0.540300  0.557900  1.0  -0.0145
  C  C460  1  0.421700  0.566700  0.524900  1.0  -0.1009
  C  C461  1  0.321500  0.598400  0.520800  1.0  0.1684
  C  C462  1  0.220700  0.583400  0.584800  1.0  0.1543
  C  C463  1  0.108700  0.600500  0.616300  1.0  0.1282
  C  C464  1  0.904600  0.630400  0.623600  1.0  0.164
  C  C465  1  0.897700  0.635900  0.663900  1.0  -0.1681
  C  C466  1  0.002300  0.623000  0.681600  1.0  -0.1045
  C  C467  1  0.110400  0.604900  0.658300  1.0  -0.0657
  C  C468  1  0.220800  0.591100  0.677700  1.0  0.7114
  C  C469  1  0.963900  0.421300  0.613500  1.0  0.6654
  C  C470  1  0.936000  0.386100  0.589700  1.0  -0.1127
  C  C471  1  0.952800  0.346500  0.606100  1.0  0.0329
  C  C472  1  0.944400  0.314000  0.583200  1.0  -0.1607
  C  C473  1  0.918700  0.321200  0.542800  1.0  0.1413
  C  C474  1  0.901700  0.391600  0.550200  1.0  0.1322
  C  C475  1  0.873600  0.431400  0.530000  1.0  0.1133
  C  C476  1  0.918400  0.466700  0.469300  1.0  0.1611
  C  C477  1  0.849900  0.503800  0.487000  1.0  -0.1271
  C  C478  1  0.788700  0.502200  0.526400  1.0  -0.0327
  C  C479  1  0.798900  0.466000  0.550000  1.0  -0.0568
  C  C480  1  0.716600  0.463500  0.590500  1.0  0.6919
  C  C481  1  0.698000  0.579300  0.730700  1.0  0.7211
  C  C482  1  0.570200  0.580100  0.754900  1.0  -0.0827
  C  C483  1  0.474200  0.607000  0.742800  1.0  -0.0703
  C  C484  1  0.355800  0.609900  0.763900  1.0  -0.1215
  C  C485  1  0.336500  0.584700  0.797900  1.0  0.1673
  C  C486  1  0.540400  0.555500  0.788100  1.0  0.1751
  C  C487  1  0.631300  0.524400  0.805800  1.0  0.0682
  C  C488  1  0.694400  0.499800  0.867400  1.0  0.1736
  C  C489  1  0.797900  0.476400  0.846800  1.0  -0.1247
  C  C490  1  0.812900  0.473300  0.804500  1.0  -0.0051
  C  C491  1  0.730100  0.496600  0.783400  1.0  -0.1331
  C  C492  1  0.738300  0.488900  0.737700  1.0  0.7184
  C  C493  1  0.204100  0.409000  0.773800  1.0  -0.1226
  C  C494  1  0.173900  0.430300  0.812100  1.0  -0.0999
  C  C495  1  0.210800  0.413000  0.846000  1.0  -0.0702
  C  C496  1  0.283400  0.376900  0.840100  1.0  0.1441
  C  C497  1  0.277700  0.370000  0.770600  1.0  0.024
  C  C498  1  0.302400  0.346000  0.732600  1.0  0.1473
  C  C499  1  0.282000  0.286500  0.702700  1.0  0.1681
  C  C500  1  0.315700  0.299900  0.662500  1.0  -0.1229
  C  C501  1  0.361400  0.335800  0.659600  1.0  -0.0301
  C  C502  1  0.360100  0.359600  0.696600  1.0  -0.1132
  C  C503  1  0.418000  0.399400  0.691800  1.0  0.655
  C  C504  1  0.144600  0.429000  0.738800  1.0  0.6836
  C  C505  1  0.807700  0.123100  0.482100  1.0  0.7072
  C  C506  1  0.856400  0.089100  0.450500  1.0  -0.1412
  C  C507  1  0.947600  0.057900  0.459700  1.0  -0.0142
  C  C508  1  0.988400  0.024900  0.433300  1.0  -0.101
  C  C509  1  0.919900  0.020800  0.401600  1.0  0.1706
  C  C510  1  0.804100  0.084800  0.416600  1.0  0.1544
  C  C511  1  0.709200  0.116300  0.399500  1.0  0.1264
  C  C512  1  0.535000  0.123600  0.369600  1.0  0.1596
  C  C513  1  0.533600  0.163900  0.364100  1.0  -0.1635
  C  C514  1  0.625300  0.181600  0.377000  1.0  -0.1058
  C  C515  1  0.715300  0.158300  0.395100  1.0  -0.0676
  C  C516  1  0.811900  0.177700  0.408900  1.0  0.7078
  C  C517  1  0.385200  0.113500  0.578700  1.0  0.6626
  C  C518  1  0.322100  0.089700  0.613900  1.0  -0.1127
  C  C519  1  0.299300  0.106100  0.653500  1.0  0.0291
  C  C520  1  0.258400  0.083200  0.686000  1.0  -0.1632
  C  C521  1  0.239900  0.042800  0.678800  1.0  0.1426
  C  C522  1  0.293300  0.050200  0.608400  1.0  0.1321
  C  C523  1  0.305000  0.030000  0.568600  1.0  0.1139
  C  C524  1  0.385100  0.969300  0.533300  1.0  0.1613
  C  C525  1  0.353700  0.987000  0.496200  1.0  -0.1308
  C  C526  1  0.290900  0.026400  0.497800  1.0  -0.0339
  C  C527  1  0.264900  0.050000  0.534000  1.0  -0.0575
  C  C528  1  0.180100  0.090500  0.536500  1.0  0.6927
  C  C529  1  0.277300  0.230700  0.420700  1.0  0.724
  C  C530  1  0.150300  0.254900  0.419900  1.0  -0.0809
  C  C531  1  0.081200  0.242800  0.393000  1.0  -0.0669
  C  C532  1  0.965700  0.263900  0.390100  1.0  -0.12
  C  C533  1  0.921200  0.297900  0.415300  1.0  0.1676
  C  C534  1  0.095900  0.288100  0.444500  1.0  0.1743
  C  C535  1  0.155700  0.305800  0.475600  1.0  0.0666
  C  C536  1  0.194200  0.367400  0.500200  1.0  0.1701
  C  C537  1  0.274300  0.346800  0.523600  1.0  -0.1232
  C  C538  1  0.286200  0.304500  0.526700  1.0  -0.0062
  C  C539  1  0.226700  0.283400  0.503400  1.0  -0.1341
  C  C540  1  0.227200  0.237700  0.511100  1.0  0.7115
  C  C541  1  0.613100  0.273800  0.591000  1.0  -0.125
  C  C542  1  0.604200  0.312100  0.569700  1.0  -0.0961
  C  C543  1  0.623800  0.346000  0.587000  1.0  -0.0657
  C  C544  1  0.660300  0.340100  0.623100  1.0  0.1496
  C  C545  1  0.647700  0.270600  0.630000  1.0  0.026
  C  C546  1  0.648400  0.232600  0.654000  1.0  0.1474
  C  C547  1  0.568500  0.202700  0.713500  1.0  0.1683
  C  C548  1  0.615600  0.162500  0.700100  1.0  -0.1231
  C  C549  1  0.697200  0.159600  0.664200  1.0  -0.0316
  C  C550  1  0.719700  0.196600  0.640400  1.0  -0.1131
  C  C551  1  0.817400  0.191800  0.600600  1.0  0.655
  C  C552  1  0.573600  0.238800  0.571000  1.0  0.6827
  C  C553  1  0.912900  0.376900  0.017900  1.0  0.7091
  C  C554  1  0.896000  0.410900  0.049500  1.0  -0.1414
  C  C555  1  0.965200  0.442100  0.040300  1.0  -0.015
  C  C556  1  0.946600  0.475100  0.066700  1.0  -0.1013
  C  C557  1  0.842300  0.479200  0.098400  1.0  0.1707
  C  C558  1  0.805500  0.415200  0.083400  1.0  0.1545
  C  C559  1  0.725000  0.383700  0.100500  1.0  0.1274
  C  C560  1  0.528200  0.376400  0.130400  1.0  0.1589
  C  C561  1  0.561600  0.336100  0.135900  1.0  -0.1635
  C  C562  1  0.683900  0.318400  0.123000  1.0  -0.1048
  C  C563  1  0.768700  0.341700  0.104900  1.0  -0.0689
  C  C564  1  0.898500  0.322300  0.091100  1.0  0.709
  C  C565  1  0.577400  0.386500  0.921300  1.0  0.6625
  C  C566  1  0.525700  0.410300  0.886100  1.0  -0.1149
  C  C567  1  0.558900  0.393900  0.846500  1.0  0.0281
  C  C568  1  0.527600  0.416800  0.814000  1.0  -0.1657
  C  C569  1  0.461500  0.457200  0.821200  1.0  0.143
  C  C570  1  0.451900  0.449800  0.891600  1.0  0.1318
  C  C571  1  0.403600  0.470000  0.931400  1.0  0.1131
  C  C572  1  0.387700  0.530700  0.966700  1.0  0.1618
  C  C573  1  0.336900  0.513000  0.003800  1.0  -0.1317
  C  C574  1  0.315100  0.473600  0.002200  1.0  -0.0335
  C  C575  1  0.348900  0.450000  0.966000  1.0  -0.0584
  C  C576  1  0.307100  0.409500  0.963500  1.0  0.6918
  C  C577  1  0.428700  0.269300  0.079300  1.0  0.7234
  C  C578  1  0.325100  0.245100  0.080100  1.0  -0.0823
  C  C579  1  0.217000  0.257200  0.107000  1.0  -0.0638
  C  C580  1  0.119700  0.236100  0.109900  1.0  -0.1239
  C  C581  1  0.134400  0.202100  0.084700  1.0  0.17
  C  C582  1  0.328500  0.211900  0.055500  1.0  0.1741
  C  C583  1  0.437100  0.194200  0.024400  1.0  0.0675
  C  C584  1  0.561800  0.132600  0.999800  1.0  0.1722
  C  C585  1  0.644700  0.153200  0.976400  1.0  -0.1237
  C  C586  1  0.617400  0.195500  0.973300  1.0  -0.0057
  C  C587  1  0.513500  0.216600  0.996600  1.0  -0.136
  C  C588  1  0.476000  0.262300  0.988900  1.0  0.7132
  C  C589  1  0.977900  0.226200  0.909000  1.0  -0.1255
  C  C590  1  0.986000  0.187900  0.930300  1.0  -0.0967
  C  C591  1  0.056800  0.154000  0.913000  1.0  -0.066
  C  C592  1  0.123500  0.159900  0.876900  1.0  0.1484
  C  C593  1  0.048300  0.229400  0.870000  1.0  0.0244
  C  C594  1  0.035000  0.267400  0.846000  1.0  0.1465
  C  C595  1  0.984700  0.297300  0.786500  1.0  0.1703
  C  C596  1  0.978200  0.337500  0.799900  1.0  -0.1235
  C  C597  1  0.021000  0.340400  0.835800  1.0  -0.0291
  C  C598  1  0.056700  0.303400  0.859600  1.0  -0.1128
  C  C599  1  0.109800  0.308200  0.899400  1.0  0.6548
  C  C600  1  0.883400  0.261200  0.929000  1.0  0.6828
  N  N601  1  0.117300  0.106800  0.050400  1.0  -0.307
  N  N602  1  0.279100  0.112800  0.099000  1.0  -0.3056
  N  N603  1  0.646300  0.931600  0.990200  1.0  -0.3269
  N  N604  1  0.714700  0.858400  0.027200  1.0  -0.3309
  N  N605  1  0.705800  0.057800  0.309600  1.0  -0.3124
  N  N606  1  0.517600  0.023500  0.347700  1.0  -0.3299
  N  N607  1  0.020000  0.853400  0.305400  1.0  -0.4024
  N  N608  1  0.185100  0.808000  0.237000  1.0  -0.4221
  N  N609  1  0.774500  0.393200  0.449600  1.0  -0.3072
  N  N610  1  0.990900  0.387200  0.401000  1.0  -0.3054
  N  N611  1  0.068100  0.568400  0.509800  1.0  -0.3262
  N  N612  1  0.100300  0.641600  0.472800  1.0  -0.3331
  N  N613  1  0.573200  0.442200  0.190400  1.0  -0.311
  N  N614  1  0.388800  0.476500  0.152300  1.0  -0.3296
  N  N615  1  0.678800  0.646600  0.194600  1.0  -0.4022
  N  N616  1  0.730100  0.692000  0.263000  1.0  -0.4224
  N  N617  1  0.167700  0.949600  0.606800  1.0  -0.3075
  N  N618  1  0.378100  0.901000  0.612800  1.0  -0.3015
  N  N619  1  0.636500  0.009800  0.431600  1.0  -0.3266
  N  N620  1  0.741900  0.972800  0.358400  1.0  -0.3322
  N  N621  1  0.015400  0.690400  0.557800  1.0  -0.3118
  N  N622  1  0.865300  0.652300  0.523500  1.0  -0.3293
  N  N623  1  0.325400  0.694600  0.353400  1.0  -0.406
  N  N624  1  0.422100  0.763000  0.308000  1.0  -0.4152
  N  N625  1  0.224100  0.550400  0.893200  1.0  -0.308
  N  N626  1  0.391900  0.599000  0.887200  1.0  -0.3046
  N  N627  1  0.577900  0.490200  0.068400  1.0  -0.3286
  N  N628  1  0.573100  0.527200  0.141600  1.0  -0.3325
  N  N629  1  0.763600  0.809600  0.942200  1.0  -0.3117
  N  N630  1  0.541100  0.847700  0.976500  1.0  -0.3293
  N  N631  1  0.873400  0.805400  0.146600  1.0  -0.406
  N  N632  1  0.993100  0.737000  0.192000  1.0  -0.4177
  N  N633  1  0.882700  0.893200  0.949600  1.0  -0.3069
  N  N634  1  0.720900  0.887200  0.901000  1.0  -0.3069
  N  N635  1  0.353700  0.068400  0.009800  1.0  -0.3243
  N  N636  1  0.285300  0.141600  0.972800  1.0  -0.3318
  N  N637  1  0.294200  0.942200  0.690400  1.0  -0.3107
  N  N638  1  0.482400  0.976500  0.652300  1.0  -0.3273
  N  N639  1  0.980000  0.146600  0.694600  1.0  -0.4035
  N  N640  1  0.814900  0.192000  0.763000  1.0  -0.4208
  N  N641  1  0.225500  0.606800  0.550400  1.0  -0.3075
  N  N642  1  0.009100  0.612800  0.599000  1.0  -0.3042
  N  N643  1  0.931900  0.431600  0.490200  1.0  -0.3265
  N  N644  1  0.899700  0.358400  0.527200  1.0  -0.3331
  N  N645  1  0.426800  0.557800  0.809600  1.0  -0.3117
  N  N646  1  0.611200  0.523500  0.847700  1.0  -0.3304
  N  N647  1  0.321200  0.353400  0.805400  1.0  -0.4028
  N  N648  1  0.269900  0.308000  0.737000  1.0  -0.4231
  N  N649  1  0.832300  0.050400  0.393200  1.0  -0.3066
  N  N650  1  0.621900  0.099000  0.387200  1.0  -0.3045
  N  N651  1  0.363500  0.990200  0.568400  1.0  -0.3257
  N  N652  1  0.258100  0.027200  0.641600  1.0  -0.3326
  N  N653  1  0.984600  0.309600  0.442200  1.0  -0.3111
  N  N654  1  0.134700  0.347700  0.476500  1.0  -0.3285
  N  N655  1  0.674600  0.305400  0.646600  1.0  -0.4062
  N  N656  1  0.577900  0.237000  0.692000  1.0  -0.4177
  N  N657  1  0.775900  0.449600  0.106800  1.0  -0.3074
  N  N658  1  0.608100  0.401000  0.112800  1.0  -0.3039
  N  N659  1  0.422100  0.509800  0.931600  1.0  -0.3254
  N  N660  1  0.426900  0.472800  0.858400  1.0  -0.3327
  N  N661  1  0.236400  0.190400  0.057800  1.0  -0.3121
  N  N662  1  0.458900  0.152300  0.023500  1.0  -0.328
  N  N663  1  0.126600  0.194600  0.853400  1.0  -0.4075
  N  N664  1  0.006900  0.263000  0.808000  1.0  -0.4149
  O  O665  1  0.488580  0.917230  0.153410  1.0  -0.6432
  O  O666  1  0.444700  0.949300  0.096500  1.0  -0.6524
  O  O667  1  0.831000  0.942700  0.093700  1.0  -0.6446
  O  O668  1  0.664430  0.986070  0.119670  1.0  -0.6515
  O  O669  1  0.987880  0.996700  0.131940  1.0  -0.7313
  O  O670  1  0.166280  0.015140  0.137900  1.0  -0.7464
  O  O671  1  0.917810  0.100030  0.160550  1.0  -0.5603
  O  O672  1  0.011760  0.072020  0.210860  1.0  -0.548
  O  O673  1  0.522030  0.077690  0.191850  1.0  -0.5497
  O  O674  1  0.386820  0.078670  0.250090  1.0  -0.5471
  O  O675  1  0.643980  0.992830  0.225210  1.0  -0.7369
  O  O676  1  0.462910  0.977630  0.217350  1.0  -0.7477
  O  O677  1  0.133700  0.960100  0.223500  1.0  -0.6062
  O  O678  1  0.295800  0.914600  0.226000  1.0  -0.5835
  O  O679  1  0.993900  0.913200  0.157800  1.0  -0.6318
  O  O680  1  0.906400  0.911000  0.221600  1.0  -0.741
  O  O681  1  0.059220  0.582770  0.346590  1.0  -0.6434
  O  O682  1  0.990500  0.550700  0.403500  1.0  -0.6511
  O  O683  1  0.367400  0.557300  0.406300  1.0  -0.6433
  O  O684  1  0.270170  0.513930  0.380330  1.0  -0.6533
  O  O685  1  0.616520  0.503300  0.368060  1.0  -0.7304
  O  O686  1  0.819320  0.484860  0.362100  1.0  -0.7489
  O  O687  1  0.678390  0.399970  0.339450  1.0  -0.5603
  O  O688  1  0.794640  0.427980  0.289140  1.0  -0.5492
  O  O689  1  0.291570  0.422310  0.308150  1.0  -0.5507
  O  O690  1  0.215580  0.421330  0.249910  1.0  -0.548
  O  O691  1  0.362020  0.507170  0.274790  1.0  -0.7346
  O  O692  1  0.157890  0.522370  0.282650  1.0  -0.7461
  O  O693  1  0.817300  0.539900  0.276500  1.0  -0.6031
  O  O694  1  0.936400  0.585400  0.274000  1.0  -0.5838
  O  O695  1  0.564900  0.586800  0.342200  1.0  -0.6317
  O  O696  1  0.539000  0.589000  0.278400  1.0  -0.7432
  O  O697  1  0.641990  0.846590  0.417230  1.0  -0.6381
  O  O698  1  0.541200  0.903500  0.449300  1.0  -0.6482
  O  O699  1  0.924700  0.906300  0.442700  1.0  -0.6461
  O  O700  1  0.784100  0.880330  0.486070  1.0  -0.6489
  O  O701  1  0.119820  0.868060  0.496700  1.0  -0.7303
  O  O702  1  0.304180  0.862100  0.515140  1.0  -0.7483
  O  O703  1  0.078360  0.839450  0.600030  1.0  -0.5574
  O  O704  1  0.222620  0.789140  0.572020  1.0  -0.5428
  O  O705  1  0.713880  0.808150  0.577690  1.0  -0.5472
  O  O706  1  0.636910  0.749910  0.578670  1.0  -0.545
  O  O707  1  0.869190  0.774790  0.492830  1.0  -0.7349
  O  O708  1  0.680260  0.782650  0.477630  1.0  -0.748
  O  O709  1  0.357200  0.776500  0.460100  1.0  -0.6127
  O  O710  1  0.521800  0.774000  0.414600  1.0  -0.5825
  O  O711  1  0.151700  0.842200  0.413200  1.0  -0.6312
  O  O712  1  0.128000  0.778400  0.411000  1.0  -0.742
  O  O713  1  0.405810  0.653410  0.082770  1.0  -0.6373
  O  O714  1  0.394000  0.596500  0.050700  1.0  -0.6521
  O  O715  1  0.773700  0.593700  0.057300  1.0  -0.645
  O  O716  1  0.650500  0.619670  0.013930  1.0  -0.6515
  O  O717  1  0.984580  0.631940  0.003300  1.0  -0.731
  O  O718  1  0.181420  0.637900  0.984860  1.0  -0.747
  O  O719  1  0.017840  0.660550  0.899970  1.0  -0.5619
  O  O720  1  0.083780  0.710860  0.927980  1.0  -0.5451
  O  O721  1  0.599720  0.691850  0.922310  1.0  -0.5487
  O  O722  1  0.465490  0.750090  0.921330  1.0  -0.5485
  O  O723  1  0.636810  0.725210  0.007170  1.0  -0.7364
  O  O724  1  0.440540  0.717350  0.022370  1.0  -0.7469
  O  O725  1  0.093800  0.723500  0.039900  1.0  -0.6106
  O  O726  1  0.210400  0.726000  0.085400  1.0  -0.5817
  O  O727  1  0.907100  0.657800  0.086800  1.0  -0.6291
  O  O728  1  0.817400  0.721600  0.089000  1.0  -0.7415
  O  O729  1  0.511420  0.082770  0.846590  1.0  -0.6431
  O  O730  1  0.555300  0.050700  0.903500  1.0  -0.652
  O  O731  1  0.169000  0.057300  0.906300  1.0  -0.6442
  O  O732  1  0.335570  0.013930  0.880330  1.0  -0.6505
  O  O733  1  0.012120  0.003300  0.868060  1.0  -0.7312
  O  O734  1  0.833720  0.984860  0.862100  1.0  -0.7464
  O  O735  1  0.082190  0.899970  0.839450  1.0  -0.5621
  O  O736  1  0.988240  0.927980  0.789140  1.0  -0.5473
  O  O737  1  0.477970  0.922310  0.808150  1.0  -0.5523
  O  O738  1  0.613180  0.921330  0.749910  1.0  -0.5462
  O  O739  1  0.356020  0.007170  0.774790  1.0  -0.7356
  O  O740  1  0.537090  0.022370  0.782650  1.0  -0.7466
  O  O741  1  0.866300  0.039900  0.776500  1.0  -0.6024
  O  O742  1  0.704200  0.085400  0.774000  1.0  -0.584
  O  O743  1  0.006100  0.086800  0.842200  1.0  -0.6313
  O  O744  1  0.093600  0.089000  0.778400  1.0  -0.7421
  O  O745  1  0.940780  0.417230  0.653410  1.0  -0.6442
  O  O746  1  0.009500  0.449300  0.596500  1.0  -0.651
  O  O747  1  0.632600  0.442700  0.593700  1.0  -0.6432
  O  O748  1  0.729830  0.486070  0.619670  1.0  -0.6538
  O  O749  1  0.383480  0.496700  0.631940  1.0  -0.7301
  O  O750  1  0.180680  0.515140  0.637900  1.0  -0.7485
  O  O751  1  0.321610  0.600030  0.660550  1.0  -0.5604
  O  O752  1  0.205360  0.572020  0.710860  1.0  -0.5499
  O  O753  1  0.708430  0.577690  0.691850  1.0  -0.5483
  O  O754  1  0.784420  0.578670  0.750090  1.0  -0.5488
  O  O755  1  0.637980  0.492830  0.725210  1.0  -0.7353
  O  O756  1  0.842110  0.477630  0.717350  1.0  -0.7471
  O  O757  1  0.182700  0.460100  0.723500  1.0  -0.6057
  O  O758  1  0.063600  0.414600  0.726000  1.0  -0.5843
  O  O759  1  0.435100  0.413200  0.657800  1.0  -0.6312
  O  O760  1  0.461000  0.411000  0.721600  1.0  -0.7435
  O  O761  1  0.358010  0.153410  0.582770  1.0  -0.6372
  O  O762  1  0.458800  0.096500  0.550700  1.0  -0.6515
  O  O763  1  0.075300  0.093700  0.557300  1.0  -0.6462
  O  O764  1  0.215900  0.119670  0.513930  1.0  -0.6497
  O  O765  1  0.880180  0.131940  0.503300  1.0  -0.7303
  O  O766  1  0.695820  0.137900  0.484860  1.0  -0.7486
  O  O767  1  0.921640  0.160550  0.399970  1.0  -0.5621
  O  O768  1  0.777380  0.210860  0.427980  1.0  -0.5448
  O  O769  1  0.286120  0.191850  0.422310  1.0  -0.5492
  O  O770  1  0.363090  0.250090  0.421330  1.0  -0.546
  O  O771  1  0.130810  0.225210  0.507170  1.0  -0.7352
  O  O772  1  0.319740  0.217350  0.522370  1.0  -0.7476
  O  O773  1  0.642800  0.223500  0.539900  1.0  -0.6116
  O  O774  1  0.478200  0.226000  0.585400  1.0  -0.5829
  O  O775  1  0.848300  0.157800  0.586800  1.0  -0.6291
  O  O776  1  0.872000  0.221600  0.589000  1.0  -0.7416
  O  O777  1  0.594190  0.346590  0.917230  1.0  -0.6383
  O  O778  1  0.606000  0.403500  0.949300  1.0  -0.6488
  O  O779  1  0.226300  0.406300  0.942700  1.0  -0.645
  O  O780  1  0.349500  0.380330  0.986070  1.0  -0.6516
  O  O781  1  0.015420  0.368060  0.996700  1.0  -0.7311
  O  O782  1  0.818580  0.362100  0.015140  1.0  -0.7487
  O  O783  1  0.982160  0.339450  0.100030  1.0  -0.5639
  O  O784  1  0.916220  0.289140  0.072020  1.0  -0.5433
  O  O785  1  0.400280  0.308150  0.077690  1.0  -0.5478
  O  O786  1  0.534510  0.249910  0.078670  1.0  -0.5463
  O  O787  1  0.363190  0.274790  0.992830  1.0  -0.7362
  O  O788  1  0.559460  0.282650  0.977630  1.0  -0.7463
  O  O789  1  0.906200  0.276500  0.960100  1.0  -0.6118
  O  O790  1  0.789600  0.274000  0.914600  1.0  -0.5824
  O  O791  1  0.092900  0.342200  0.913200  1.0  -0.6311
  O  O792  1  0.182600  0.278400  0.911000  1.0  -0.7424
