# generated using pymatgen
data_Eu2CoH24C48(NO2)8
_symmetry_space_group_name_H-M   'P 1'
_cell_length_a   11.10610000
_cell_length_b   32.91230000
_cell_length_c   32.91230000
_cell_angle_alpha   88.36870000
_cell_angle_beta   80.28640000
_cell_angle_gamma   80.28640000
_symmetry_Int_Tables_number   1
_chemical_formula_structural   Eu2CoH24C48(NO2)8
_chemical_formula_sum   'Eu16 Co8 H192 C384 N64 O128'
_cell_volume   11687.86936233
_cell_formula_units_Z   8
loop_
 _symmetry_equiv_pos_site_id
 _symmetry_equiv_pos_as_xyz
  1  'x, y, z'
loop_
 _atom_site_type_symbol
 _atom_site_label
 _atom_site_symmetry_multiplicity
 _atom_site_fract_x
 _atom_site_fract_y
 _atom_site_fract_z
 _atom_site_occupancy
 _atom_site_charge
  Eu  Eu1  1  0.212880  0.328740  0.972100  1.0  2.1851
  Eu  Eu2  1  0.711450  0.326090  0.974430  1.0  2.1487
  Eu  Eu3  1  0.013720  0.171260  0.527900  1.0  2.1852
  Eu  Eu4  1  0.511970  0.173910  0.525570  1.0  2.1489
  Eu  Eu5  1  0.184980  0.027900  0.828740  1.0  2.1851
  Eu  Eu6  1  0.685880  0.025570  0.826090  1.0  2.1496
  Eu  Eu7  1  0.541630  0.472090  0.671260  1.0  2.1855
  Eu  Eu8  1  0.037540  0.474430  0.673910  1.0  2.1496
  Eu  Eu9  1  0.787120  0.671260  0.027900  1.0  2.1856
  Eu  Eu10  1  0.288550  0.673910  0.025570  1.0  2.1491
  Eu  Eu11  1  0.986280  0.828740  0.472100  1.0  2.1854
  Eu  Eu12  1  0.488030  0.826090  0.474430  1.0  2.1489
  Eu  Eu13  1  0.815020  0.972100  0.171260  1.0  2.1858
  Eu  Eu14  1  0.314120  0.974430  0.173910  1.0  2.1497
  Eu  Eu15  1  0.458380  0.527900  0.328740  1.0  2.1855
  Eu  Eu16  1  0.962460  0.525570  0.326090  1.0  2.1498
  Co  Co17  1  0.418240  0.536140  0.871300  1.0  0.7479
  Co  Co18  1  0.325680  0.963860  0.628700  1.0  0.7497
  Co  Co19  1  0.289540  0.128700  0.036140  1.0  0.7483
  Co  Co20  1  0.954380  0.371300  0.463860  1.0  0.7476
  Co  Co21  1  0.581760  0.463860  0.128700  1.0  0.7509
  Co  Co22  1  0.674320  0.036140  0.371300  1.0  0.7492
  Co  Co23  1  0.710460  0.871300  0.963860  1.0  0.7485
  Co  Co24  1  0.045620  0.628700  0.536140  1.0  0.7494
  H  H25  1  0.607800  0.366900  0.843300  1.0  0.1018
  H  H26  1  0.555100  0.405800  0.787400  1.0  0.1227
  H  H27  1  0.447000  0.472300  0.798700  1.0  0.0754
  H  H28  1  0.396500  0.558000  0.968000  1.0  0.0883
  H  H29  1  0.313100  0.528000  0.028000  1.0  0.1051
  H  H30  1  0.274400  0.461400  0.026800  1.0  0.1102
  H  H31  1  0.033400  0.438100  0.017700  1.0  0.089
  H  H32  1  0.002400  0.495000  0.062000  1.0  0.1186
  H  H33  1  0.829800  0.502900  0.113100  1.0  0.0674
  H  H34  1  0.443900  0.388500  0.139100  1.0  0.0738
  H  H35  1  0.501400  0.319500  0.148500  1.0  0.1244
  H  H36  1  0.708000  0.289800  0.127400  1.0  0.1159
  H  H37  1  0.673700  0.210100  0.955700  1.0  0.0878
  H  H38  1  0.723600  0.139700  0.961700  1.0  0.1117
  H  H39  1  0.581000  0.104500  0.000100  1.0  0.0789
  H  H40  1  0.067800  0.187500  0.086700  1.0  0.0783
  H  H41  1  0.046000  0.243200  0.129000  1.0  0.1226
  H  H42  1  0.209800  0.279500  0.124900  1.0  0.1094
  H  H43  1  0.935700  0.187100  0.957700  1.0  0.0959
  H  H44  1  0.048600  0.127100  0.928100  1.0  0.1076
  H  H45  1  0.172600  0.134400  0.871000  1.0  0.0742
  H  H46  1  0.965300  0.296200  0.760800  1.0  0.0727
  H  H47  1  0.942300  0.361800  0.787600  1.0  0.1059
  H  H48  1  0.035200  0.364300  0.846900  1.0  0.0827
  H  H49  1  0.318000  0.133100  0.656700  1.0  0.1021
  H  H50  1  0.248300  0.094200  0.712600  1.0  0.1209
  H  H51  1  0.218000  0.027700  0.701300  1.0  0.074
  H  H52  1  0.422500  0.942000  0.532000  1.0  0.0886
  H  H53  1  0.369100  0.972000  0.472000  1.0  0.1038
  H  H54  1  0.262600  0.038600  0.473200  1.0  0.1095
  H  H55  1  0.989200  0.061900  0.482300  1.0  0.0899
  H  H56  1  0.059400  0.005000  0.438000  1.0  0.1192
  H  H57  1  0.945800  0.997100  0.386900  1.0  0.0698
  H  H58  1  0.471500  0.111500  0.360900  1.0  0.0737
  H  H59  1  0.469400  0.180500  0.351500  1.0  0.1239
  H  H60  1  0.625200  0.210200  0.372600  1.0  0.1159
  H  H61  1  0.339500  0.289900  0.544300  1.0  0.0877
  H  H62  1  0.325000  0.360300  0.538300  1.0  0.111
  H  H63  1  0.185600  0.395500  0.499900  1.0  0.0769
  H  H64  1  0.842000  0.312500  0.413300  1.0  0.0785
  H  H65  1  0.918200  0.256800  0.371000  1.0  0.1225
  H  H66  1  0.114200  0.220500  0.375100  1.0  0.1097
  H  H67  1  0.580500  0.312900  0.542300  1.0  0.096
  H  H68  1  0.603800  0.372900  0.571900  1.0  0.1081
  H  H69  1  0.678000  0.365600  0.629000  1.0  0.074
  H  H70  1  0.522300  0.203800  0.739200  1.0  0.0721
  H  H71  1  0.591700  0.138200  0.712400  1.0  0.1058
  H  H72  1  0.746400  0.135700  0.653100  1.0  0.0832
  H  H73  1  0.451100  0.156700  0.866900  1.0  0.1019
  H  H74  1  0.342500  0.212600  0.905800  1.0  0.1226
  H  H75  1  0.245700  0.201300  0.972300  1.0  0.0739
  H  H76  1  0.364500  0.032000  0.058000  1.0  0.0883
  H  H77  1  0.341100  0.972000  0.028000  1.0  0.1048
  H  H78  1  0.301200  0.973200  0.961400  1.0  0.1099
  H  H79  1  0.051100  0.982300  0.938100  1.0  0.0888
  H  H80  1  0.064400  0.938000  0.995000  1.0  0.118
  H  H81  1  0.942900  0.886900  0.002900  1.0  0.0685
  H  H82  1  0.583000  0.860900  0.888500  1.0  0.0731
  H  H83  1  0.649900  0.851500  0.819500  1.0  0.1241
  H  H84  1  0.835400  0.872600  0.789800  1.0  0.1156
  H  H85  1  0.629400  0.044300  0.710100  1.0  0.0877
  H  H86  1  0.685300  0.038300  0.639700  1.0  0.1115
  H  H87  1  0.581100  0.999900  0.604500  1.0  0.0787
  H  H88  1  0.154500  0.913300  0.687500  1.0  0.0783
  H  H89  1  0.175000  0.871000  0.743200  1.0  0.1211
  H  H90  1  0.334700  0.875100  0.779500  1.0  0.1102
  H  H91  1  0.893400  0.042300  0.687100  1.0  0.0964
  H  H92  1  0.976700  0.071900  0.627100  1.0  0.1081
  H  H93  1  0.043600  0.129000  0.634400  1.0  0.0738
  H  H94  1  0.726100  0.239200  0.796200  1.0  0.0725
  H  H95  1  0.729900  0.212400  0.861800  1.0  0.1059
  H  H96  1  0.882100  0.153100  0.864300  1.0  0.0838
  H  H97  1  0.974700  0.343300  0.633100  1.0  0.1022
  H  H98  1  0.960900  0.287400  0.594200  1.0  0.1229
  H  H99  1  0.919300  0.298700  0.527700  1.0  0.0734
  H  H100  1  0.954500  0.468000  0.442000  1.0  0.0891
  H  H101  1  0.841100  0.528000  0.472000  1.0  0.1051
  H  H102  1  0.735800  0.526800  0.538600  1.0  0.1101
  H  H103  1  0.471500  0.517700  0.561900  1.0  0.0897
  H  H104  1  0.497400  0.562000  0.505000  1.0  0.1182
  H  H105  1  0.332700  0.613100  0.497100  1.0  0.0698
  H  H106  1  0.832400  0.639100  0.611500  1.0  0.0732
  H  H107  1  0.820900  0.648500  0.680500  1.0  0.1244
  H  H108  1  0.997800  0.627400  0.710200  1.0  0.1159
  H  H109  1  0.883800  0.455700  0.789900  1.0  0.0875
  H  H110  1  0.863300  0.461700  0.860300  1.0  0.1119
  H  H111  1  0.685500  0.500100  0.895500  1.0  0.0783
  H  H112  1  0.255300  0.586700  0.812500  1.0  0.0779
  H  H113  1  0.289200  0.629000  0.756800  1.0  0.122
  H  H114  1  0.489300  0.624900  0.720500  1.0  0.1106
  H  H115  1  0.122800  0.457700  0.812900  1.0  0.0962
  H  H116  1  0.175700  0.428100  0.872900  1.0  0.1067
  H  H117  1  0.307000  0.371000  0.865600  1.0  0.0755
  H  H118  1  0.261500  0.260800  0.703800  1.0  0.0713
  H  H119  1  0.304100  0.287600  0.638200  1.0  0.1063
  H  H120  1  0.399500  0.346900  0.635700  1.0  0.0838
  H  H121  1  0.392200  0.633100  0.156700  1.0  0.1014
  H  H122  1  0.444900  0.594200  0.212600  1.0  0.122
  H  H123  1  0.553000  0.527700  0.201300  1.0  0.075
  H  H124  1  0.603500  0.442000  0.032000  1.0  0.0885
  H  H125  1  0.686900  0.472000  0.972000  1.0  0.105
  H  H126  1  0.725600  0.538600  0.973200  1.0  0.11
  H  H127  1  0.966600  0.561900  0.982300  1.0  0.0887
  H  H128  1  0.997600  0.505000  0.938000  1.0  0.1185
  H  H129  1  0.170200  0.497100  0.886900  1.0  0.0692
  H  H130  1  0.556100  0.611500  0.860900  1.0  0.0744
  H  H131  1  0.498600  0.680500  0.851500  1.0  0.1246
  H  H132  1  0.292000  0.710200  0.872600  1.0  0.1158
  H  H133  1  0.326300  0.789900  0.044300  1.0  0.0877
  H  H134  1  0.276400  0.860300  0.038300  1.0  0.1111
  H  H135  1  0.419000  0.895500  0.999900  1.0  0.0771
  H  H136  1  0.932200  0.812500  0.913300  1.0  0.0787
  H  H137  1  0.954000  0.756800  0.871000  1.0  0.122
  H  H138  1  0.790200  0.720500  0.875100  1.0  0.1088
  H  H139  1  0.064300  0.812900  0.042300  1.0  0.0961
  H  H140  1  0.951400  0.872900  0.071900  1.0  0.1088
  H  H141  1  0.827400  0.865600  0.129000  1.0  0.0735
  H  H142  1  0.034700  0.703800  0.239200  1.0  0.0722
  H  H143  1  0.057700  0.638200  0.212400  1.0  0.1057
  H  H144  1  0.964800  0.635700  0.153100  1.0  0.0828
  H  H145  1  0.682000  0.866900  0.343300  1.0  0.1021
  H  H146  1  0.751700  0.905800  0.287400  1.0  0.122
  H  H147  1  0.782000  0.972300  0.298700  1.0  0.0739
  H  H148  1  0.577500  0.058000  0.468000  1.0  0.0883
  H  H149  1  0.630900  0.028000  0.528000  1.0  0.1043
  H  H150  1  0.737400  0.961400  0.526800  1.0  0.1094
  H  H151  1  0.010800  0.938100  0.517700  1.0  0.0894
  H  H152  1  0.940600  0.995000  0.562000  1.0  0.1188
  H  H153  1  0.054200  0.002900  0.613100  1.0  0.069
  H  H154  1  0.528500  0.888500  0.639100  1.0  0.0744
  H  H155  1  0.530600  0.819500  0.648500  1.0  0.1237
  H  H156  1  0.374800  0.789800  0.627400  1.0  0.1161
  H  H157  1  0.660500  0.710100  0.455700  1.0  0.0878
  H  H158  1  0.675000  0.639700  0.461700  1.0  0.111
  H  H159  1  0.814400  0.604500  0.500100  1.0  0.0791
  H  H160  1  0.158000  0.687500  0.586700  1.0  0.0794
  H  H161  1  0.081800  0.743200  0.629000  1.0  0.1222
  H  H162  1  0.885800  0.779500  0.624900  1.0  0.1101
  H  H163  1  0.419500  0.687100  0.457700  1.0  0.096
  H  H164  1  0.396200  0.627100  0.428100  1.0  0.1074
  H  H165  1  0.322000  0.634400  0.371000  1.0  0.0745
  H  H166  1  0.477700  0.796200  0.260800  1.0  0.0732
  H  H167  1  0.408300  0.861800  0.287600  1.0  0.1056
  H  H168  1  0.253600  0.864300  0.346900  1.0  0.0832
  H  H169  1  0.548900  0.843300  0.133100  1.0  0.1026
  H  H170  1  0.657500  0.787400  0.094200  1.0  0.1225
  H  H171  1  0.754300  0.798700  0.027700  1.0  0.0738
  H  H172  1  0.635500  0.968000  0.942000  1.0  0.0886
  H  H173  1  0.658900  0.028000  0.972000  1.0  0.1051
  H  H174  1  0.698800  0.026800  0.038600  1.0  0.1095
  H  H175  1  0.948900  0.017700  0.061900  1.0  0.0886
  H  H176  1  0.935600  0.062000  0.005000  1.0  0.1181
  H  H177  1  0.057100  0.113100  0.997100  1.0  0.0689
  H  H178  1  0.417000  0.139100  0.111500  1.0  0.0749
  H  H179  1  0.350100  0.148500  0.180500  1.0  0.1242
  H  H180  1  0.164600  0.127400  0.210200  1.0  0.1159
  H  H181  1  0.370600  0.955700  0.289900  1.0  0.0879
  H  H182  1  0.314700  0.961700  0.360300  1.0  0.1114
  H  H183  1  0.418900  0.000100  0.395500  1.0  0.0789
  H  H184  1  0.845500  0.086700  0.312500  1.0  0.0784
  H  H185  1  0.825000  0.129000  0.256800  1.0  0.1211
  H  H186  1  0.665300  0.124900  0.220500  1.0  0.1098
  H  H187  1  0.106600  0.957700  0.312900  1.0  0.0965
  H  H188  1  0.023300  0.928100  0.372900  1.0  0.1069
  H  H189  1  0.956400  0.871000  0.365600  1.0  0.0734
  H  H190  1  0.273900  0.760800  0.203800  1.0  0.0717
  H  H191  1  0.270100  0.787600  0.138200  1.0  0.1057
  H  H192  1  0.117900  0.846900  0.135700  1.0  0.0849
  H  H193  1  0.025300  0.656700  0.366900  1.0  0.1021
  H  H194  1  0.039100  0.712600  0.405800  1.0  0.1227
  H  H195  1  0.080700  0.701300  0.472300  1.0  0.0739
  H  H196  1  0.045500  0.532000  0.558000  1.0  0.0884
  H  H197  1  0.158900  0.472000  0.528000  1.0  0.1045
  H  H198  1  0.264200  0.473200  0.461400  1.0  0.1101
  H  H199  1  0.528500  0.482300  0.438100  1.0  0.0894
  H  H200  1  0.502600  0.438000  0.495000  1.0  0.1185
  H  H201  1  0.667300  0.386900  0.502900  1.0  0.069
  H  H202  1  0.167600  0.360900  0.388500  1.0  0.0736
  H  H203  1  0.179100  0.351500  0.319500  1.0  0.1239
  H  H204  1  0.002200  0.372600  0.289800  1.0  0.1155
  H  H205  1  0.116200  0.544300  0.210100  1.0  0.0874
  H  H206  1  0.136700  0.538300  0.139700  1.0  0.1121
  H  H207  1  0.314500  0.499900  0.104500  1.0  0.0787
  H  H208  1  0.744700  0.413300  0.187500  1.0  0.0796
  H  H209  1  0.710800  0.371000  0.243200  1.0  0.1218
  H  H210  1  0.510700  0.375100  0.279500  1.0  0.1109
  H  H211  1  0.877200  0.542300  0.187100  1.0  0.0964
  H  H212  1  0.824300  0.571900  0.127100  1.0  0.1073
  H  H213  1  0.693000  0.629000  0.134400  1.0  0.0755
  H  H214  1  0.738500  0.739200  0.296200  1.0  0.0724
  H  H215  1  0.695900  0.712400  0.361800  1.0  0.106
  H  H216  1  0.600500  0.653100  0.364300  1.0  0.0839
  C  C217  1  0.581500  0.386500  0.921900  1.0  0.6694
  C  C218  1  0.528290  0.409880  0.887540  1.0  -0.0986
  C  C219  1  0.563300  0.393500  0.847300  1.0  0.0093
  C  C220  1  0.532500  0.416400  0.814000  1.0  -0.1452
  C  C221  1  0.466030  0.456180  0.821160  1.0  0.1495
  C  C222  1  0.455140  0.448690  0.891830  1.0  0.1545
  C  C223  1  0.406320  0.468990  0.932170  1.0  0.1723
  C  C224  1  0.385360  0.530600  0.967680  1.0  0.1621
  C  C225  1  0.333270  0.513030  0.003630  1.0  -0.1038
  C  C226  1  0.311540  0.473170  0.002950  1.0  -0.0371
  C  C227  1  0.345580  0.450200  0.966240  1.0  -0.0762
  C  C228  1  0.304600  0.408850  0.964750  1.0  0.6934
  C  C229  1  0.912540  0.376500  0.017420  1.0  0.7277
  C  C230  1  0.896540  0.410440  0.048680  1.0  -0.1591
  C  C231  1  0.970300  0.440800  0.040400  1.0  -0.0059
  C  C232  1  0.950400  0.475300  0.065900  1.0  -0.1106
  C  C233  1  0.849300  0.479000  0.097400  1.0  0.1734
  C  C234  1  0.804780  0.414890  0.083550  1.0  0.0622
  C  C235  1  0.724750  0.383830  0.100270  1.0  0.1516
  C  C236  1  0.526180  0.376690  0.130750  1.0  0.1596
  C  C237  1  0.559350  0.335510  0.136390  1.0  -0.1708
  C  C238  1  0.682330  0.317820  0.123520  1.0  -0.0802
  C  C239  1  0.766570  0.342210  0.104850  1.0  -0.0712
  C  C240  1  0.899720  0.322100  0.090660  1.0  0.7113
  C  C241  1  0.476930  0.262860  0.988880  1.0  0.691
  C  C242  1  0.514730  0.217150  0.996790  1.0  -0.1205
  C  C243  1  0.621140  0.195760  0.973360  1.0  0.0037
  C  C244  1  0.649600  0.153900  0.975900  1.0  -0.104
  C  C245  1  0.565900  0.133100  0.000100  1.0  0.1697
  C  C246  1  0.440370  0.194410  0.023850  1.0  0.0933
  C  C247  1  0.330530  0.211790  0.054350  1.0  0.0954
  C  C248  1  0.132660  0.202320  0.084960  1.0  0.1705
  C  C249  1  0.118810  0.235400  0.110380  1.0  -0.1822
  C  C250  1  0.216390  0.257150  0.107670  1.0  -0.0871
  C  C251  1  0.323060  0.245810  0.079670  1.0  -0.0787
  C  C252  1  0.430230  0.269860  0.078080  1.0  0.6911
  C  C253  1  0.883800  0.260600  0.930000  1.0  0.6803
  C  C254  1  0.976000  0.225600  0.910000  1.0  -0.0338
  C  C255  1  0.981600  0.187800  0.931400  1.0  -0.1114
  C  C256  1  0.050300  0.152700  0.915300  1.0  -0.0658
  C  C257  1  0.118000  0.157900  0.880900  1.0  0.1264
  C  C258  1  0.046400  0.228300  0.872300  1.0  0.0653
  C  C259  1  0.034300  0.267000  0.847000  1.0  0.1811
  C  C260  1  0.980700  0.299000  0.787400  1.0  0.1538
  C  C261  1  0.975100  0.338400  0.801000  1.0  -0.1153
  C  C262  1  0.024400  0.339100  0.837300  1.0  -0.0617
  C  C263  1  0.059500  0.302200  0.860400  1.0  -0.1151
  C  C264  1  0.117900  0.306800  0.900200  1.0  0.6668
  C  C265  1  0.389900  0.113500  0.578100  1.0  0.6688
  C  C266  1  0.325710  0.090120  0.612460  1.0  -0.0966
  C  C267  1  0.304100  0.106500  0.652700  1.0  0.0108
  C  C268  1  0.262900  0.083600  0.686000  1.0  -0.144
  C  C269  1  0.243370  0.043820  0.678840  1.0  0.1497
  C  C270  1  0.295660  0.051310  0.608170  1.0  0.1551
  C  C271  1  0.307480  0.031010  0.567830  1.0  0.173
  C  C272  1  0.383640  0.969400  0.532320  1.0  0.1618
  C  C273  1  0.349930  0.986970  0.496370  1.0  -0.1051
  C  C274  1  0.287660  0.026830  0.497050  1.0  -0.0391
  C  C275  1  0.262020  0.049800  0.533760  1.0  -0.0767
  C  C276  1  0.178200  0.091150  0.535250  1.0  0.6926
  C  C277  1  0.806460  0.123500  0.482580  1.0  0.7271
  C  C278  1  0.855660  0.089560  0.451320  1.0  -0.1587
  C  C279  1  0.951500  0.059200  0.459600  1.0  -0.0077
  C  C280  1  0.991600  0.024700  0.434100  1.0  -0.1106
  C  C281  1  0.925700  0.021000  0.402600  1.0  0.1708
  C  C282  1  0.803220  0.085110  0.416450  1.0  0.0621
  C  C283  1  0.708850  0.116170  0.399730  1.0  0.152
  C  C284  1  0.533620  0.123310  0.369250  1.0  0.161
  C  C285  1  0.531250  0.164490  0.363610  1.0  -0.1693
  C  C286  1  0.623670  0.182180  0.376480  1.0  -0.0803
  C  C287  1  0.713630  0.157790  0.395150  1.0  -0.0696
  C  C288  1  0.812480  0.177900  0.409340  1.0  0.7111
  C  C289  1  0.228670  0.237140  0.511120  1.0  0.6906
  C  C290  1  0.228670  0.282850  0.503210  1.0  -0.1205
  C  C291  1  0.290260  0.304240  0.526640  1.0  0.003
  C  C292  1  0.279400  0.346100  0.524100  1.0  -0.1042
  C  C293  1  0.199100  0.366900  0.499900  1.0  0.1667
  C  C294  1  0.158630  0.305590  0.476150  1.0  0.0923
  C  C295  1  0.096670  0.288210  0.445650  1.0  0.0963
  C  C296  1  0.919940  0.297680  0.415040  1.0  0.1683
  C  C297  1  0.964590  0.264600  0.389620  1.0  -0.1776
  C  C298  1  0.081210  0.242850  0.392330  1.0  -0.0887
  C  C299  1  0.148540  0.254190  0.420330  1.0  -0.0794
  C  C300  1  0.278170  0.230140  0.421920  1.0  0.6936
  C  C301  1  0.574400  0.239400  0.570000  1.0  0.6804
  C  C302  1  0.611600  0.274400  0.590000  1.0  -0.0347
  C  C303  1  0.600800  0.312200  0.568600  1.0  -0.1116
  C  C304  1  0.618300  0.347300  0.584700  1.0  -0.0657
  C  C305  1  0.656800  0.342100  0.619100  1.0  0.1271
  C  C306  1  0.647000  0.271700  0.627700  1.0  0.0653
  C  C307  1  0.648300  0.233000  0.653000  1.0  0.1821
  C  C308  1  0.567100  0.201000  0.712600  1.0  0.1523
  C  C309  1  0.614500  0.161600  0.699000  1.0  -0.1157
  C  C310  1  0.700800  0.160900  0.662700  1.0  -0.062
  C  C311  1  0.722100  0.197800  0.639600  1.0  -0.1154
  C  C312  1  0.824900  0.193200  0.599800  1.0  0.6661
  C  C313  1  0.503400  0.078100  0.886500  1.0  0.6693
  C  C314  1  0.415830  0.112460  0.909880  1.0  -0.1002
  C  C315  1  0.410600  0.152700  0.893500  1.0  0.0142
  C  C316  1  0.346500  0.186000  0.916400  1.0  -0.1418
  C  C317  1  0.287190  0.178840  0.956180  1.0  0.1478
  C  C318  1  0.346970  0.108170  0.948690  1.0  0.1549
  C  C319  1  0.338490  0.067830  0.968990  1.0  0.1727
  C  C320  1  0.353040  0.032320  0.030600  1.0  0.161
  C  C321  1  0.336900  0.996370  0.013030  1.0  -0.1003
  C  C322  1  0.314490  0.997050  0.973170  1.0  -0.0368
  C  C323  1  0.311820  0.033760  0.950200  1.0  -0.0773
  C  C324  1  0.269350  0.035250  0.908850  1.0  0.6967
  C  C325  1  0.929960  0.982580  0.876500  1.0  0.724
  C  C326  1  0.945220  0.951320  0.910440  1.0  -0.1542
  C  C327  1  0.010700  0.959600  0.940800  1.0  -0.0058
  C  C328  1  0.016300  0.934100  0.975300  1.0  -0.111
  C  C329  1  0.946700  0.902600  0.979000  1.0  0.167
  C  C330  1  0.888330  0.916450  0.914890  1.0  0.063
  C  C331  1  0.825020  0.899730  0.883830  1.0  0.1538
  C  C332  1  0.656930  0.869250  0.876690  1.0  0.1629
  C  C333  1  0.695740  0.863610  0.835510  1.0  -0.17
  C  C334  1  0.805850  0.876480  0.817820  1.0  -0.0796
  C  C335  1  0.871420  0.895150  0.842210  1.0  -0.07
  C  C336  1  0.990380  0.909340  0.822100  1.0  0.7136
  C  C337  1  0.465810  0.011120  0.762860  1.0  0.6933
  C  C338  1  0.511520  0.003210  0.717150  1.0  -0.1158
  C  C339  1  0.594500  0.026640  0.695760  1.0  0.0041
  C  C340  1  0.625500  0.024100  0.653900  1.0  -0.1062
  C  C341  1  0.566000  0.999900  0.633100  1.0  0.1659
  C  C342  1  0.464220  0.976150  0.694410  1.0  0.0943
  C  C343  1  0.384880  0.945650  0.711790  1.0  0.0947
  C  C344  1  0.217620  0.915040  0.702320  1.0  0.1697
  C  C345  1  0.229190  0.889620  0.735400  1.0  -0.1807
  C  C346  1  0.324060  0.892330  0.757150  1.0  -0.0875
  C  C347  1  0.402730  0.920330  0.745810  1.0  -0.0803
  C  C348  1  0.508310  0.921920  0.769860  1.0  0.6925
  C  C349  1  0.813800  0.070000  0.760600  1.0  0.6791
  C  C350  1  0.886000  0.090000  0.725600  1.0  -0.0317
  C  C351  1  0.913000  0.068600  0.687800  1.0  -0.1169
  C  C352  1  0.965600  0.084700  0.652700  1.0  -0.0703
  C  C353  1  0.998900  0.119100  0.657900  1.0  0.1234
  C  C354  1  0.918700  0.127700  0.728300  1.0  0.0619
  C  C355  1  0.881300  0.153000  0.767000  1.0  0.1855
  C  C356  1  0.768100  0.212600  0.799000  1.0  0.1509
  C  C357  1  0.776100  0.199000  0.838400  1.0  -0.115
  C  C358  1  0.861700  0.162700  0.839100  1.0  -0.0627
  C  C359  1  0.919900  0.139600  0.802200  1.0  -0.116
  C  C360  1  0.018100  0.099800  0.806800  1.0  0.6668
  C  C361  1  0.968000  0.421900  0.613500  1.0  0.6725
  C  C362  1  0.938170  0.387540  0.590120  1.0  -0.0961
  C  C363  1  0.956800  0.347300  0.606500  1.0  0.0156
  C  C364  1  0.948900  0.314000  0.583600  1.0  -0.1418
  C  C365  1  0.922210  0.321160  0.543820  1.0  0.149
  C  C366  1  0.903830  0.391830  0.551310  1.0  0.1563
  C  C367  1  0.875310  0.432170  0.531010  1.0  0.1728
  C  C368  1  0.915960  0.467680  0.469400  1.0  0.1613
  C  C369  1  0.846300  0.503630  0.486970  1.0  -0.1
  C  C370  1  0.784710  0.502950  0.526830  1.0  -0.0361
  C  C371  1  0.795780  0.466240  0.549800  1.0  -0.0766
  C  C372  1  0.713450  0.464750  0.591150  1.0  0.693
  C  C373  1  0.289040  0.517420  0.623500  1.0  0.7256
  C  C374  1  0.306980  0.548680  0.589560  1.0  -0.1547
  C  C375  1  0.411100  0.540400  0.559200  1.0  -0.0052
  C  C376  1  0.425700  0.565900  0.524700  1.0  -0.1099
  C  C377  1  0.328300  0.597400  0.521000  1.0  0.1687
  C  C378  1  0.219670  0.583550  0.585110  1.0  0.0625
  C  C379  1  0.108580  0.600270  0.616170  1.0  0.1534
  C  C380  1  0.902870  0.630750  0.623310  1.0  0.1647
  C  C381  1  0.894860  0.636390  0.664490  1.0  -0.173
  C  C382  1  0.000150  0.623520  0.682180  1.0  -0.0771
  C  C383  1  0.108780  0.604850  0.657790  1.0  -0.0654
  C  C384  1  0.221820  0.590660  0.677900  1.0  0.713
  C  C385  1  0.739790  0.488880  0.737140  1.0  0.6962
  C  C386  1  0.731880  0.496790  0.782850  1.0  -0.1177
  C  C387  1  0.816900  0.473360  0.804240  1.0  0.0046
  C  C388  1  0.803500  0.475900  0.846100  1.0  -0.1061
  C  C389  1  0.699000  0.500100  0.866900  1.0  0.1702
  C  C390  1  0.634780  0.523850  0.805590  1.0  0.0929
  C  C391  1  0.542320  0.554350  0.788210  1.0  0.096
  C  C392  1  0.334980  0.584960  0.797680  1.0  0.1669
  C  C393  1  0.354210  0.610380  0.764600  1.0  -0.1795
  C  C394  1  0.473540  0.607670  0.742850  1.0  -0.0901
  C  C395  1  0.568870  0.579670  0.754190  1.0  -0.0804
  C  C396  1  0.700090  0.578080  0.730140  1.0  0.6913
  C  C397  1  0.144400  0.430000  0.739400  1.0  0.6817
  C  C398  1  0.201600  0.410000  0.774400  1.0  -0.0309
  C  C399  1  0.169400  0.431400  0.812200  1.0  -0.1152
  C  C400  1  0.203000  0.415300  0.847300  1.0  -0.071
  C  C401  1  0.275900  0.380900  0.842100  1.0  0.1232
  C  C402  1  0.274700  0.372300  0.771700  1.0  0.0613
  C  C403  1  0.301300  0.347000  0.733000  1.0  0.1846
  C  C404  1  0.279700  0.287400  0.701000  1.0  0.1505
  C  C405  1  0.313500  0.301000  0.661600  1.0  -0.1145
  C  C406  1  0.363500  0.337300  0.660900  1.0  -0.0622
  C  C407  1  0.361700  0.360400  0.697800  1.0  -0.1153
  C  C408  1  0.424700  0.400200  0.693200  1.0  0.6653
  C  C409  1  0.418500  0.613500  0.078100  1.0  0.6704
  C  C410  1  0.471710  0.590120  0.112460  1.0  -0.0961
  C  C411  1  0.436700  0.606500  0.152700  1.0  0.0118
  C  C412  1  0.467500  0.583600  0.186000  1.0  -0.1481
  C  C413  1  0.533970  0.543820  0.178840  1.0  0.1488
  C  C414  1  0.544860  0.551310  0.108170  1.0  0.1547
  C  C415  1  0.593680  0.531010  0.067830  1.0  0.1731
  C  C416  1  0.614640  0.469400  0.032320  1.0  0.1612
  C  C417  1  0.666667  0.486970  0.996370  1.0  -0.1056
  C  C418  1  0.688460  0.526830  0.997050  1.0  -0.0395
  C  C419  1  0.654420  0.549800  0.033760  1.0  -0.0743
  C  C420  1  0.695400  0.591150  0.035250  1.0  0.693
  C  C421  1  0.087460  0.623500  0.982580  1.0  0.7276
  C  C422  1  0.103460  0.589560  0.951320  1.0  -0.1587
  C  C423  1  0.029700  0.559200  0.959600  1.0  -0.0067
  C  C424  1  0.049600  0.524700  0.934100  1.0  -0.1117
  C  C425  1  0.150700  0.521000  0.902600  1.0  0.1731
  C  C426  1  0.195220  0.585110  0.916450  1.0  0.0622
  C  C427  1  0.275250  0.616170  0.899730  1.0  0.151
  C  C428  1  0.473820  0.623310  0.869250  1.0  0.1598
  C  C429  1  0.440650  0.664490  0.863610  1.0  -0.17
  C  C430  1  0.317670  0.682180  0.876480  1.0  -0.0805
  C  C431  1  0.233430  0.657790  0.895150  1.0  -0.069
  C  C432  1  0.100280  0.677900  0.909340  1.0  0.7129
  C  C433  1  0.523070  0.737140  0.011120  1.0  0.6913
  C  C434  1  0.485270  0.782850  0.003210  1.0  -0.1209
  C  C435  1  0.378860  0.804240  0.026640  1.0  0.0048
  C  C436  1  0.350400  0.846100  0.024100  1.0  -0.1039
  C  C437  1  0.434100  0.866900  0.999900  1.0  0.1693
  C  C438  1  0.559630  0.805590  0.976150  1.0  0.0942
  C  C439  1  0.669470  0.788210  0.945650  1.0  0.0942
  C  C440  1  0.867340  0.797680  0.915040  1.0  0.1709
  C  C441  1  0.881190  0.764600  0.889620  1.0  -0.1809
  C  C442  1  0.783610  0.742850  0.892330  1.0  -0.0877
  C  C443  1  0.676940  0.754190  0.920330  1.0  -0.0785
  C  C444  1  0.569770  0.730140  0.921920  1.0  0.6935
  C  C445  1  0.116200  0.739400  0.070000  1.0  0.6788
  C  C446  1  0.024000  0.774400  0.090000  1.0  -0.0334
  C  C447  1  0.018400  0.812200  0.068600  1.0  -0.112
  C  C448  1  0.949700  0.847300  0.084700  1.0  -0.066
  C  C449  1  0.882000  0.842100  0.119100  1.0  0.1256
  C  C450  1  0.953600  0.771700  0.127700  1.0  0.0643
  C  C451  1  0.965700  0.733000  0.153000  1.0  0.1812
  C  C452  1  0.019300  0.701000  0.212600  1.0  0.1539
  C  C453  1  0.024900  0.661600  0.199000  1.0  -0.1139
  C  C454  1  0.975600  0.660900  0.162700  1.0  -0.0613
  C  C455  1  0.940500  0.697800  0.139600  1.0  -0.1157
  C  C456  1  0.882100  0.693200  0.099800  1.0  0.6662
  C  C457  1  0.610100  0.886500  0.421900  1.0  0.6664
  C  C458  1  0.674290  0.909880  0.387540  1.0  -0.0995
  C  C459  1  0.695900  0.893500  0.347300  1.0  0.0102
  C  C460  1  0.737100  0.916400  0.314000  1.0  -0.1416
  C  C461  1  0.756630  0.956180  0.321160  1.0  0.1496
  C  C462  1  0.704340  0.948690  0.391830  1.0  0.1557
  C  C463  1  0.692520  0.968990  0.432170  1.0  0.1726
  C  C464  1  0.616360  0.030600  0.467680  1.0  0.1619
  C  C465  1  0.650070  0.013030  0.503630  1.0  -0.1034
  C  C466  1  0.712340  0.973170  0.502950  1.0  -0.0386
  C  C467  1  0.737980  0.950200  0.466240  1.0  -0.0778
  C  C468  1  0.821800  0.908850  0.464750  1.0  0.6932
  C  C469  1  0.193540  0.876500  0.517420  1.0  0.7268
  C  C470  1  0.144340  0.910440  0.548680  1.0  -0.1585
  C  C471  1  0.048500  0.940800  0.540400  1.0  -0.0064
  C  C472  1  0.008400  0.975300  0.565900  1.0  -0.1107
  C  C473  1  0.074300  0.979000  0.597400  1.0  0.1693
  C  C474  1  0.196780  0.914890  0.583550  1.0  0.062
  C  C475  1  0.291150  0.883830  0.600270  1.0  0.1523
  C  C476  1  0.466380  0.876690  0.630750  1.0  0.1598
  C  C477  1  0.468750  0.835510  0.636390  1.0  -0.1689
  C  C478  1  0.376330  0.817820  0.623520  1.0  -0.0796
  C  C479  1  0.286370  0.842210  0.604850  1.0  -0.0724
  C  C480  1  0.187520  0.822100  0.590660  1.0  0.7125
  C  C481  1  0.771330  0.762860  0.488880  1.0  0.6914
  C  C482  1  0.771330  0.717150  0.496790  1.0  -0.1203
  C  C483  1  0.709740  0.695760  0.473360  1.0  0.0049
  C  C484  1  0.720600  0.653900  0.475900  1.0  -0.1037
  C  C485  1  0.800900  0.633100  0.500100  1.0  0.1679
  C  C486  1  0.841370  0.694410  0.523850  1.0  0.0918
  C  C487  1  0.903330  0.711790  0.554350  1.0  0.0951
  C  C488  1  0.080060  0.702320  0.584960  1.0  0.1671
  C  C489  1  0.035410  0.735400  0.610380  1.0  -0.1782
  C  C490  1  0.918790  0.757150  0.607670  1.0  -0.0891
  C  C491  1  0.851460  0.745810  0.579670  1.0  -0.0778
  C  C492  1  0.721830  0.769860  0.578080  1.0  0.6913
  C  C493  1  0.425600  0.760600  0.430000  1.0  0.6801
  C  C494  1  0.388400  0.725600  0.410000  1.0  -0.0338
  C  C495  1  0.399200  0.687800  0.431400  1.0  -0.1103
  C  C496  1  0.381700  0.652700  0.415300  1.0  -0.0662
  C  C497  1  0.343200  0.657900  0.380900  1.0  0.1271
  C  C498  1  0.353000  0.728300  0.372300  1.0  0.0656
  C  C499  1  0.351700  0.767000  0.347000  1.0  0.1818
  C  C500  1  0.432900  0.799000  0.287400  1.0  0.1518
  C  C501  1  0.385500  0.838400  0.301000  1.0  -0.1153
  C  C502  1  0.299200  0.839100  0.337300  1.0  -0.0613
  C  C503  1  0.277900  0.802200  0.360400  1.0  -0.1162
  C  C504  1  0.175100  0.806800  0.400200  1.0  0.6673
  C  C505  1  0.496600  0.921900  0.113500  1.0  0.6695
  C  C506  1  0.584170  0.887540  0.090120  1.0  -0.0991
  C  C507  1  0.589400  0.847300  0.106500  1.0  0.0137
  C  C508  1  0.653500  0.814000  0.083600  1.0  -0.1431
  C  C509  1  0.712810  0.821160  0.043820  1.0  0.1475
  C  C510  1  0.653030  0.891830  0.051310  1.0  0.1562
  C  C511  1  0.661510  0.932170  0.031010  1.0  0.1722
  C  C512  1  0.646960  0.967680  0.969400  1.0  0.162
  C  C513  1  0.663100  0.003630  0.986970  1.0  -0.0993
  C  C514  1  0.685510  0.002950  0.026830  1.0  -0.0375
  C  C515  1  0.688180  0.966240  0.049800  1.0  -0.077
  C  C516  1  0.730650  0.964750  0.091150  1.0  0.6979
  C  C517  1  0.070040  0.017420  0.123500  1.0  0.7245
  C  C518  1  0.054780  0.048680  0.089560  1.0  -0.155
  C  C519  1  0.989300  0.040400  0.059200  1.0  -0.0069
  C  C520  1  0.983700  0.065900  0.024700  1.0  -0.1103
  C  C521  1  0.053300  0.097400  0.021000  1.0  0.1664
  C  C522  1  0.111670  0.083550  0.085110  1.0  0.0631
  C  C523  1  0.174980  0.100270  0.116170  1.0  0.1528
  C  C524  1  0.343070  0.130750  0.123310  1.0  0.1608
  C  C525  1  0.304260  0.136390  0.164490  1.0  -0.1678
  C  C526  1  0.194150  0.123520  0.182180  1.0  -0.0809
  C  C527  1  0.128580  0.104850  0.157790  1.0  -0.0704
  C  C528  1  0.009620  0.090660  0.177900  1.0  0.7136
  C  C529  1  0.534190  0.988880  0.237140  1.0  0.6968
  C  C530  1  0.488480  0.996790  0.282850  1.0  -0.1165
  C  C531  1  0.405500  0.973360  0.304240  1.0  0.0047
  C  C532  1  0.374500  0.975900  0.346100  1.0  -0.1062
  C  C533  1  0.434000  0.000100  0.366900  1.0  0.1655
  C  C534  1  0.535780  0.023850  0.305590  1.0  0.094
  C  C535  1  0.615120  0.054350  0.288210  1.0  0.0955
  C  C536  1  0.782380  0.084960  0.297680  1.0  0.1701
  C  C537  1  0.770810  0.110380  0.264600  1.0  -0.1802
  C  C538  1  0.675940  0.107670  0.242850  1.0  -0.0879
  C  C539  1  0.597270  0.079670  0.254190  1.0  -0.0787
  C  C540  1  0.491690  0.078080  0.230140  1.0  0.6928
  C  C541  1  0.186200  0.930000  0.239400  1.0  0.6782
  C  C542  1  0.114000  0.910000  0.274400  1.0  -0.0303
  C  C543  1  0.087000  0.931400  0.312200  1.0  -0.1163
  C  C544  1  0.034400  0.915300  0.347300  1.0  -0.0692
  C  C545  1  0.001100  0.880900  0.342100  1.0  0.1239
  C  C546  1  0.081300  0.872300  0.271700  1.0  0.0601
  C  C547  1  0.118700  0.847000  0.233000  1.0  0.1845
  C  C548  1  0.231900  0.787400  0.201000  1.0  0.1505
  C  C549  1  0.223900  0.801000  0.161600  1.0  -0.1153
  C  C550  1  0.138300  0.837300  0.160900  1.0  -0.0627
  C  C551  1  0.080100  0.860400  0.197800  1.0  -0.1158
  C  C552  1  0.981900  0.900200  0.193200  1.0  0.6679
  C  C553  1  0.032000  0.578100  0.386500  1.0  0.6719
  C  C554  1  0.061830  0.612460  0.409880  1.0  -0.0992
  C  C555  1  0.043200  0.652700  0.393500  1.0  0.0185
  C  C556  1  0.051100  0.686000  0.416400  1.0  -0.1414
  C  C557  1  0.077790  0.678840  0.456180  1.0  0.1495
  C  C558  1  0.096170  0.608170  0.448690  1.0  0.1552
  C  C559  1  0.124690  0.567830  0.468990  1.0  0.1737
  C  C560  1  0.084040  0.532320  0.530600  1.0  0.1614
  C  C561  1  0.153700  0.496370  0.513030  1.0  -0.1012
  C  C562  1  0.215290  0.497050  0.473170  1.0  -0.0377
  C  C563  1  0.204220  0.533760  0.450200  1.0  -0.0767
  C  C564  1  0.286550  0.535250  0.408850  1.0  0.6929
  C  C565  1  0.710960  0.482580  0.376500  1.0  0.7246
  C  C566  1  0.693020  0.451320  0.410440  1.0  -0.1547
  C  C567  1  0.588900  0.459600  0.440800  1.0  -0.0046
  C  C568  1  0.574300  0.434100  0.475300  1.0  -0.1119
  C  C569  1  0.671700  0.402600  0.479000  1.0  0.1672
  C  C570  1  0.780330  0.416450  0.414890  1.0  0.0635
  C  C571  1  0.891420  0.399730  0.383830  1.0  0.1539
  C  C572  1  0.097130  0.369250  0.376690  1.0  0.1642
  C  C573  1  0.105140  0.363610  0.335510  1.0  -0.1718
  C  C574  1  0.999850  0.376480  0.317820  1.0  -0.0768
  C  C575  1  0.891220  0.395150  0.342210  1.0  -0.0643
  C  C576  1  0.778180  0.409340  0.322100  1.0  0.7134
  C  C577  1  0.260210  0.511120  0.262860  1.0  0.6938
  C  C578  1  0.268120  0.503210  0.217150  1.0  -0.1167
  C  C579  1  0.183100  0.526640  0.195760  1.0  0.0051
  C  C580  1  0.196500  0.524100  0.153900  1.0  -0.1063
  C  C581  1  0.301000  0.499900  0.133100  1.0  0.1689
  C  C582  1  0.365220  0.476150  0.194410  1.0  0.0932
  C  C583  1  0.457680  0.445650  0.211790  1.0  0.095
  C  C584  1  0.665020  0.415040  0.202320  1.0  0.1668
  C  C585  1  0.645790  0.389620  0.235400  1.0  -0.1809
  C  C586  1  0.526460  0.392330  0.257150  1.0  -0.09
  C  C587  1  0.431130  0.420330  0.245810  1.0  -0.0799
  C  C588  1  0.299910  0.421920  0.269860  1.0  0.6924
  C  C589  1  0.855600  0.570000  0.260600  1.0  0.6816
  C  C590  1  0.798400  0.590000  0.225600  1.0  -0.0317
  C  C591  1  0.830600  0.568600  0.187800  1.0  -0.1165
  C  C592  1  0.797000  0.584700  0.152700  1.0  -0.0695
  C  C593  1  0.724100  0.619100  0.157900  1.0  0.1235
  C  C594  1  0.725300  0.627700  0.228300  1.0  0.0617
  C  C595  1  0.698700  0.653000  0.267000  1.0  0.1858
  C  C596  1  0.720300  0.712600  0.299000  1.0  0.1511
  C  C597  1  0.686500  0.699000  0.338400  1.0  -0.1142
  C  C598  1  0.636500  0.662700  0.339100  1.0  -0.0621
  C  C599  1  0.638300  0.639600  0.302200  1.0  -0.1165
  C  C600  1  0.575300  0.599800  0.306800  1.0  0.667
  N  N601  1  0.006400  0.263900  0.809100  1.0  -0.4214
  N  N602  1  0.126000  0.192100  0.855300  1.0  -0.3956
  N  N603  1  0.235870  0.190210  0.057450  1.0  -0.3116
  N  N604  1  0.462730  0.152740  0.023800  1.0  -0.2991
  N  N605  1  0.420200  0.509140  0.932460  1.0  -0.3249
  N  N606  1  0.428900  0.471970  0.858830  1.0  -0.3407
  N  N607  1  0.778810  0.449890  0.106090  1.0  -0.3115
  N  N608  1  0.605800  0.401030  0.113770  1.0  -0.3122
  N  N609  1  0.579400  0.236100  0.690900  1.0  -0.423
  N  N610  1  0.673400  0.307900  0.644700  1.0  -0.3886
  N  N611  1  0.983530  0.309790  0.442550  1.0  -0.3115
  N  N612  1  0.139270  0.347260  0.476200  1.0  -0.2983
  N  N613  1  0.361800  0.990860  0.567540  1.0  -0.3253
  N  N614  1  0.259700  0.028030  0.641170  1.0  -0.3408
  N  N615  1  0.834790  0.050110  0.393910  1.0  -0.3125
  N  N616  1  0.620600  0.098970  0.386230  1.0  -0.3131
  N  N617  1  0.815500  0.190900  0.763900  1.0  -0.4251
  N  N618  1  0.981300  0.144700  0.692100  1.0  -0.39
  N  N619  1  0.293320  0.942550  0.690210  1.0  -0.3123
  N  N620  1  0.486530  0.976200  0.652740  1.0  -0.2967
  N  N621  1  0.352660  0.067540  0.009140  1.0  -0.3239
  N  N622  1  0.287730  0.141170  0.971970  1.0  -0.3398
  N  N623  1  0.884900  0.893910  0.949890  1.0  -0.3102
  N  N624  1  0.719570  0.886230  0.901030  1.0  -0.3152
  N  N625  1  0.270300  0.309100  0.736100  1.0  -0.4257
  N  N626  1  0.318100  0.355300  0.807900  1.0  -0.3921
  N  N627  1  0.426080  0.557450  0.809790  1.0  -0.3115
  N  N628  1  0.615470  0.523800  0.847260  1.0  -0.3009
  N  N629  1  0.929340  0.432460  0.490860  1.0  -0.3258
  N  N630  1  0.900870  0.358830  0.528030  1.0  -0.3418
  N  N631  1  0.228700  0.606090  0.550110  1.0  -0.3132
  N  N632  1  0.006830  0.613770  0.598970  1.0  -0.3145
  N  N633  1  0.993600  0.736100  0.190900  1.0  -0.4226
  N  N634  1  0.874000  0.807900  0.144700  1.0  -0.3921
  N  N635  1  0.764130  0.809790  0.942550  1.0  -0.3106
  N  N636  1  0.537270  0.847260  0.976200  1.0  -0.3013
  N  N637  1  0.579800  0.490860  0.067540  1.0  -0.325
  N  N638  1  0.571100  0.528030  0.141170  1.0  -0.3407
  N  N639  1  0.221190  0.550110  0.893910  1.0  -0.3138
  N  N640  1  0.394200  0.598970  0.886230  1.0  -0.3135
  N  N641  1  0.420600  0.763900  0.309100  1.0  -0.4225
  N  N642  1  0.326600  0.692100  0.355300  1.0  -0.3879
  N  N643  1  0.016470  0.690210  0.557450  1.0  -0.3109
  N  N644  1  0.860730  0.652740  0.523800  1.0  -0.2981
  N  N645  1  0.638200  0.009140  0.432460  1.0  -0.3254
  N  N646  1  0.740300  0.971970  0.358830  1.0  -0.3408
  N  N647  1  0.165210  0.949890  0.606090  1.0  -0.3141
  N  N648  1  0.379400  0.901030  0.613770  1.0  -0.3116
  N  N649  1  0.184500  0.809100  0.236100  1.0  -0.4251
  N  N650  1  0.018700  0.855300  0.307900  1.0  -0.3898
  N  N651  1  0.706680  0.057450  0.309790  1.0  -0.3111
  N  N652  1  0.513470  0.023800  0.347260  1.0  -0.2987
  N  N653  1  0.647340  0.932460  0.990860  1.0  -0.3242
  N  N654  1  0.712270  0.858830  0.028030  1.0  -0.3395
  N  N655  1  0.115100  0.106090  0.050110  1.0  -0.3138
  N  N656  1  0.280430  0.113770  0.098970  1.0  -0.3151
  N  N657  1  0.729700  0.690900  0.263900  1.0  -0.4251
  N  N658  1  0.681900  0.644700  0.192100  1.0  -0.3879
  N  N659  1  0.573920  0.442550  0.190210  1.0  -0.3117
  N  N660  1  0.384530  0.476200  0.152740  1.0  -0.2993
  N  N661  1  0.070660  0.567540  0.509140  1.0  -0.3229
  N  N662  1  0.099130  0.641170  0.471970  1.0  -0.3411
  N  N663  1  0.771300  0.393910  0.449890  1.0  -0.3126
  N  N664  1  0.993170  0.386230  0.401030  1.0  -0.3147
  O  O665  1  0.535710  0.250200  0.078580  1.0  -0.5597
  O  O666  1  0.401970  0.308390  0.076470  1.0  -0.5537
  O  O667  1  0.612750  0.404560  0.949540  1.0  -0.6732
  O  O668  1  0.597700  0.346820  0.919180  1.0  -0.6432
  O  O669  1  0.560160  0.283330  0.977750  1.0  -0.7152
  O  O670  1  0.362070  0.275370  0.992090  1.0  -0.7335
  O  O671  1  0.221590  0.405850  0.944170  1.0  -0.6643
  O  O672  1  0.350150  0.379340  0.985360  1.0  -0.6544
  O  O673  1  0.188610  0.277240  0.912740  1.0  -0.702
  O  O674  1  0.097180  0.339720  0.914920  1.0  -0.587
  O  O675  1  0.016640  0.367260  0.995860  1.0  -0.7397
  O  O676  1  0.817230  0.361950  0.014590  1.0  -0.7453
  O  O677  1  0.918070  0.289100  0.070960  1.0  -0.5586
  O  O678  1  0.983730  0.339870  0.099670  1.0  -0.5652
  O  O679  1  0.906560  0.276620  0.961460  1.0  -0.6596
  O  O680  1  0.788620  0.273600  0.915560  1.0  -0.5876
  O  O681  1  0.364490  0.249800  0.421420  1.0  -0.5596
  O  O682  1  0.286830  0.191610  0.423530  1.0  -0.5575
  O  O683  1  0.466850  0.095440  0.550460  1.0  -0.6747
  O  O684  1  0.363700  0.153180  0.580820  1.0  -0.6428
  O  O685  1  0.321240  0.216670  0.522250  1.0  -0.716
  O  O686  1  0.129530  0.224630  0.507910  1.0  -0.7333
  O  O687  1  0.071610  0.094150  0.555830  1.0  -0.6643
  O  O688  1  0.214850  0.120660  0.514640  1.0  -0.6531
  O  O689  1  0.878590  0.222760  0.587260  1.0  -0.7029
  O  O690  1  0.851820  0.160280  0.585080  1.0  -0.5853
  O  O691  1  0.879760  0.132740  0.504140  1.0  -0.7381
  O  O692  1  0.693770  0.138050  0.485410  1.0  -0.7448
  O  O693  1  0.778130  0.210900  0.429040  1.0  -0.5579
  O  O694  1  0.923270  0.160130  0.400330  1.0  -0.5639
  O  O695  1  0.644640  0.223380  0.538540  1.0  -0.6612
  O  O696  1  0.477780  0.226400  0.584440  1.0  -0.5903
  O  O697  1  0.614290  0.921420  0.750200  1.0  -0.5592
  O  O698  1  0.478440  0.923530  0.808390  1.0  -0.5567
  O  O699  1  0.562290  0.050460  0.904560  1.0  -0.6753
  O  O700  1  0.516880  0.080820  0.846820  1.0  -0.6463
  O  O701  1  0.537910  0.022250  0.783330  1.0  -0.7141
  O  O702  1  0.354160  0.007910  0.775370  1.0  -0.7338
  O  O703  1  0.165760  0.055830  0.905850  1.0  -0.6633
  O  O704  1  0.335510  0.014640  0.879340  1.0  -0.6541
  O  O705  1  0.101350  0.087260  0.777240  1.0  -0.7017
  O  O706  1  0.012100  0.085080  0.839720  1.0  -0.5875
  O  O707  1  0.012500  0.004140  0.867260  1.0  -0.7402
  O  O708  1  0.831820  0.985410  0.861950  1.0  -0.7436
  O  O709  1  0.989030  0.929040  0.789100  1.0  -0.5578
  O  O710  1  0.083400  0.900330  0.839870  1.0  -0.5634
  O  O711  1  0.868020  0.038540  0.776620  1.0  -0.6508
  O  O712  1  0.704180  0.084440  0.773600  1.0  -0.5908
  O  O713  1  0.785910  0.578580  0.749800  1.0  -0.5632
  O  O714  1  0.710360  0.576470  0.691610  1.0  -0.5523
  O  O715  1  0.017310  0.449540  0.595440  1.0  -0.6753
  O  O716  1  0.944520  0.419180  0.653180  1.0  -0.6466
  O  O717  1  0.843490  0.477750  0.716670  1.0  -0.7158
  O  O718  1  0.637440  0.492090  0.724630  1.0  -0.7324
  O  O719  1  0.627440  0.444170  0.594150  1.0  -0.6624
  O  O720  1  0.729490  0.485360  0.620660  1.0  -0.6587
  O  O721  1  0.465850  0.412740  0.722760  1.0  -0.7035
  O  O722  1  0.436900  0.414920  0.660280  1.0  -0.5863
  O  O723  1  0.383900  0.495860  0.632740  1.0  -0.738
  O  O724  1  0.179180  0.514590  0.638050  1.0  -0.7448
  O  O725  1  0.207170  0.570960  0.710900  1.0  -0.5601
  O  O726  1  0.323600  0.599670  0.660130  1.0  -0.5635
  O  O727  1  0.183180  0.461460  0.723380  1.0  -0.6542
  O  O728  1  0.062220  0.415560  0.726400  1.0  -0.5918
  O  O729  1  0.464290  0.749800  0.921420  1.0  -0.5602
  O  O730  1  0.598030  0.691610  0.923530  1.0  -0.5571
  O  O731  1  0.387250  0.595440  0.050460  1.0  -0.6758
  O  O732  1  0.402300  0.653180  0.080820  1.0  -0.6433
  O  O733  1  0.439840  0.716670  0.022250  1.0  -0.7152
  O  O734  1  0.637930  0.724630  0.007910  1.0  -0.7333
  O  O735  1  0.778410  0.594150  0.055830  1.0  -0.6644
  O  O736  1  0.649850  0.620660  0.014640  1.0  -0.6539
  O  O737  1  0.811390  0.722760  0.087260  1.0  -0.7028
  O  O738  1  0.902820  0.660280  0.085080  1.0  -0.5862
  O  O739  1  0.983360  0.632740  0.004140  1.0  -0.7395
  O  O740  1  0.182770  0.638050  0.985410  1.0  -0.7436
  O  O741  1  0.081930  0.710900  0.929040  1.0  -0.5579
  O  O742  1  0.016270  0.660130  0.900330  1.0  -0.5658
  O  O743  1  0.093440  0.723380  0.038540  1.0  -0.6592
  O  O744  1  0.211380  0.726400  0.084440  1.0  -0.5881
  O  O745  1  0.635510  0.750200  0.578580  1.0  -0.5582
  O  O746  1  0.713170  0.808390  0.576470  1.0  -0.5533
  O  O747  1  0.533150  0.904560  0.449540  1.0  -0.6729
  O  O748  1  0.636300  0.846820  0.419180  1.0  -0.6428
  O  O749  1  0.678760  0.783330  0.477750  1.0  -0.7161
  O  O750  1  0.870470  0.775370  0.492090  1.0  -0.7326
  O  O751  1  0.928390  0.905850  0.444170  1.0  -0.6654
  O  O752  1  0.785150  0.879340  0.485360  1.0  -0.654
  O  O753  1  0.121410  0.777240  0.412740  1.0  -0.7023
  O  O754  1  0.148180  0.839720  0.414920  1.0  -0.5868
  O  O755  1  0.120240  0.867260  0.495860  1.0  -0.7391
  O  O756  1  0.306230  0.861950  0.514590  1.0  -0.7444
  O  O757  1  0.221870  0.789100  0.570960  1.0  -0.5583
  O  O758  1  0.076730  0.839870  0.599670  1.0  -0.5612
  O  O759  1  0.355360  0.776620  0.461460  1.0  -0.6604
  O  O760  1  0.522220  0.773600  0.415560  1.0  -0.5889
  O  O761  1  0.385710  0.078580  0.249800  1.0  -0.5598
  O  O762  1  0.521560  0.076470  0.191610  1.0  -0.5533
  O  O763  1  0.437710  0.949540  0.095440  1.0  -0.6766
  O  O764  1  0.483120  0.919180  0.153180  1.0  -0.6487
  O  O765  1  0.462090  0.977750  0.216670  1.0  -0.7154
  O  O766  1  0.645840  0.992090  0.224630  1.0  -0.7339
  O  O767  1  0.834240  0.944170  0.094150  1.0  -0.6632
  O  O768  1  0.664490  0.985360  0.120660  1.0  -0.6566
  O  O769  1  0.898650  0.912740  0.222760  1.0  -0.7019
  O  O770  1  0.987900  0.914920  0.160280  1.0  -0.587
  O  O771  1  0.987500  0.995860  0.132740  1.0  -0.7389
  O  O772  1  0.168180  0.014590  0.138050  1.0  -0.7423
  O  O773  1  0.010970  0.070960  0.210900  1.0  -0.5583
  O  O774  1  0.916600  0.099670  0.160130  1.0  -0.5645
  O  O775  1  0.131980  0.961460  0.223380  1.0  -0.6538
  O  O776  1  0.295820  0.915560  0.226400  1.0  -0.5904
  O  O777  1  0.214090  0.421420  0.250200  1.0  -0.5608
  O  O778  1  0.289640  0.423530  0.308390  1.0  -0.5557
  O  O779  1  0.982690  0.550460  0.404560  1.0  -0.6753
  O  O780  1  0.055480  0.580820  0.346820  1.0  -0.6448
  O  O781  1  0.156510  0.522250  0.283330  1.0  -0.7154
  O  O782  1  0.362560  0.507910  0.275370  1.0  -0.7321
  O  O783  1  0.372560  0.555830  0.405850  1.0  -0.6627
  O  O784  1  0.270510  0.514640  0.379340  1.0  -0.6573
  O  O785  1  0.534150  0.587260  0.277240  1.0  -0.7027
  O  O786  1  0.563100  0.585080  0.339720  1.0  -0.5875
  O  O787  1  0.616100  0.504140  0.367260  1.0  -0.7391
  O  O788  1  0.820820  0.485410  0.361950  1.0  -0.7447
  O  O789  1  0.792830  0.429040  0.289100  1.0  -0.5594
  O  O790  1  0.676400  0.400330  0.339870  1.0  -0.5645
  O  O791  1  0.816820  0.538540  0.276620  1.0  -0.6516
  O  O792  1  0.937780  0.584440  0.273600  1.0  -0.5917
