# generated using pymatgen
data_Sm2CoH24C48(NO2)8
_symmetry_space_group_name_H-M   'P 1'
_cell_length_a   11.18340000
_cell_length_b   32.98290000
_cell_length_c   32.98290000
_cell_angle_alpha   88.35300000
_cell_angle_beta   80.23930000
_cell_angle_gamma   80.23930000
_symmetry_Int_Tables_number   1
_chemical_formula_structural   Sm2CoH24C48(NO2)8
_chemical_formula_sum   'Sm16 Co8 H192 C384 N64 O128'
_cell_volume   11816.43066767
_cell_formula_units_Z   8
loop_
 _symmetry_equiv_pos_site_id
 _symmetry_equiv_pos_as_xyz
  1  'x, y, z'
loop_
 _atom_site_type_symbol
 _atom_site_label
 _atom_site_symmetry_multiplicity
 _atom_site_fract_x
 _atom_site_fract_y
 _atom_site_fract_z
 _atom_site_occupancy
 _atom_site_charge
  Sm  Sm1  1  0.318140  0.974770  0.173630  1.0  2.167
  Sm  Sm2  1  0.817940  0.972000  0.170790  1.0  2.2992
  Sm  Sm3  1  0.966540  0.525230  0.326370  1.0  2.1672
  Sm  Sm4  1  0.460730  0.528000  0.329200  1.0  2.2984
  Sm  Sm5  1  0.491770  0.826370  0.474770  1.0  2.1669
  Sm  Sm6  1  0.988720  0.829210  0.472010  1.0  2.2993
  Sm  Sm7  1  0.292910  0.673630  0.025230  1.0  2.1671
  Sm  Sm8  1  0.789940  0.670790  0.028000  1.0  2.2989
  Sm  Sm9  1  0.681860  0.025230  0.826370  1.0  2.1672
  Sm  Sm10  1  0.182070  0.028000  0.829200  1.0  2.2985
  Sm  Sm11  1  0.033460  0.474770  0.673630  1.0  2.1669
  Sm  Sm12  1  0.539280  0.472000  0.670790  1.0  2.2992
  Sm  Sm13  1  0.508230  0.173630  0.525230  1.0  2.1665
  Sm  Sm14  1  0.011280  0.170790  0.527990  1.0  2.2985
  Sm  Sm15  1  0.707090  0.326370  0.974770  1.0  2.1671
  Sm  Sm16  1  0.210060  0.329210  0.972010  1.0  2.2992
  Co  Co17  1  0.711620  0.870940  0.963910  1.0  0.7346
  Co  Co18  1  0.046460  0.629060  0.536100  1.0  0.7355
  Co  Co19  1  0.675530  0.036090  0.370940  1.0  0.7345
  Co  Co20  1  0.582560  0.463910  0.129050  1.0  0.7369
  Co  Co21  1  0.288380  0.129060  0.036100  1.0  0.7343
  Co  Co22  1  0.953540  0.370940  0.463910  1.0  0.7338
  Co  Co23  1  0.324480  0.963910  0.629050  1.0  0.7356
  Co  Co24  1  0.417440  0.536090  0.870950  1.0  0.7338
  H  H25  1  0.168200  0.127100  0.209500  1.0  0.1087
  H  H26  1  0.350400  0.148400  0.180000  1.0  0.1173
  H  H27  1  0.416700  0.139400  0.111000  1.0  0.0761
  H  H28  1  0.054000  0.114300  0.998700  1.0  0.0659
  H  H29  1  0.936700  0.063100  0.006300  1.0  0.1169
  H  H30  1  0.946700  0.019400  0.063000  1.0  0.0883
  H  H31  1  0.698100  0.026200  0.037800  1.0  0.1116
  H  H32  1  0.655700  0.027100  0.971900  1.0  0.1052
  H  H33  1  0.634600  0.967300  0.942700  1.0  0.0752
  H  H34  1  0.757400  0.798700  0.027900  1.0  0.0746
  H  H35  1  0.659600  0.788000  0.093800  1.0  0.1177
  H  H36  1  0.548900  0.843100  0.131700  1.0  0.0992
  H  H37  1  0.114500  0.846100  0.137500  1.0  0.082
  H  H38  1  0.259500  0.786300  0.141700  1.0  0.107
  H  H39  1  0.280200  0.763500  0.208100  1.0  0.0663
  H  H40  1  0.960100  0.866300  0.364700  1.0  0.0675
  H  H41  1  0.015700  0.927300  0.371700  1.0  0.1148
  H  H42  1  0.106700  0.958400  0.313600  1.0  0.1084
  H  H43  1  0.375200  0.955600  0.289400  1.0  0.0925
  H  H44  1  0.322300  0.961300  0.359700  1.0  0.1074
  H  H45  1  0.424600  0.999100  0.394500  1.0  0.0725
  H  H46  1  0.845100  0.086400  0.312200  1.0  0.0746
  H  H47  1  0.825300  0.128400  0.257000  1.0  0.1195
  H  H48  1  0.667700  0.125000  0.220800  1.0  0.1094
  H  H49  1  0.004800  0.372900  0.290500  1.0  0.1083
  H  H50  1  0.178800  0.351600  0.320000  1.0  0.1174
  H  H51  1  0.167100  0.360600  0.389000  1.0  0.0749
  H  H52  1  0.667000  0.385700  0.501300  1.0  0.066
  H  H53  1  0.506100  0.436900  0.493700  1.0  0.1183
  H  H54  1  0.529100  0.480600  0.437000  1.0  0.0894
  H  H55  1  0.262100  0.473800  0.462200  1.0  0.1121
  H  H56  1  0.154700  0.472900  0.528100  1.0  0.1051
  H  H57  1  0.044600  0.532700  0.557300  1.0  0.0748
  H  H58  1  0.084000  0.701300  0.472100  1.0  0.075
  H  H59  1  0.041400  0.712000  0.406200  1.0  0.1179
  H  H60  1  0.023700  0.656900  0.368300  1.0  0.1001
  H  H61  1  0.598100  0.653900  0.362500  1.0  0.0822
  H  H62  1  0.687500  0.713700  0.358300  1.0  0.1072
  H  H63  1  0.751800  0.736500  0.291900  1.0  0.0686
  H  H64  1  0.691100  0.633700  0.135300  1.0  0.0688
  H  H65  1  0.814700  0.572700  0.128300  1.0  0.1156
  H  H66  1  0.878700  0.541600  0.186400  1.0  0.109
  H  H67  1  0.120200  0.544400  0.210600  1.0  0.0921
  H  H68  1  0.143300  0.538700  0.140300  1.0  0.1087
  H  H69  1  0.318200  0.500900  0.105500  1.0  0.0721
  H  H70  1  0.743700  0.413600  0.187800  1.0  0.0749
  H  H71  1  0.710700  0.371600  0.243000  1.0  0.1195
  H  H72  1  0.513500  0.375000  0.279200  1.0  0.1098
  H  H73  1  0.377700  0.790500  0.627100  1.0  0.1082
  H  H74  1  0.530400  0.820000  0.648400  1.0  0.117
  H  H75  1  0.527700  0.889000  0.639400  1.0  0.0759
  H  H76  1  0.052700  0.001300  0.614300  1.0  0.0656
  H  H77  1  0.943000  0.993700  0.563100  1.0  0.1179
  H  H78  1  0.009700  0.937000  0.519400  1.0  0.0891
  H  H79  1  0.735900  0.962200  0.526200  1.0  0.111
  H  H80  1  0.627600  0.028100  0.527100  1.0  0.1045
  H  H81  1  0.577300  0.057300  0.467300  1.0  0.0746
  H  H82  1  0.785300  0.972100  0.298700  1.0  0.0743
  H  H83  1  0.753400  0.906200  0.288000  1.0  0.1161
  H  H84  1  0.680600  0.868300  0.343100  1.0  0.1
  H  H85  1  0.252000  0.862500  0.346100  1.0  0.0816
  H  H86  1  0.401200  0.858300  0.286300  1.0  0.1072
  H  H87  1  0.488300  0.791900  0.263500  1.0  0.0665
  H  H88  1  0.324800  0.635300  0.366300  1.0  0.068
  H  H89  1  0.387400  0.628300  0.427300  1.0  0.1149
  H  H90  1  0.420300  0.686400  0.458400  1.0  0.1086
  H  H91  1  0.664600  0.710600  0.455600  1.0  0.0925
  H  H92  1  0.682000  0.640300  0.461300  1.0  0.1072
  H  H93  1  0.819100  0.605500  0.499100  1.0  0.0725
  H  H94  1  0.157300  0.687800  0.586400  1.0  0.0756
  H  H95  1  0.082300  0.743000  0.628400  1.0  0.12
  H  H96  1  0.888500  0.779200  0.625000  1.0  0.1094
  H  H97  1  0.295300  0.709500  0.872900  1.0  0.1075
  H  H98  1  0.498800  0.680000  0.851600  1.0  0.118
  H  H99  1  0.556100  0.611000  0.860600  1.0  0.0755
  H  H100  1  0.168300  0.498700  0.885700  1.0  0.065
  H  H101  1  0.999800  0.506300  0.936900  1.0  0.1179
  H  H102  1  0.966100  0.563000  0.980600  1.0  0.0883
  H  H103  1  0.724300  0.537800  0.973800  1.0  0.1119
  H  H104  1  0.682800  0.471900  0.972900  1.0  0.1058
  H  H105  1  0.601900  0.442700  0.032700  1.0  0.0749
  H  H106  1  0.556100  0.527900  0.201300  1.0  0.0758
  H  H107  1  0.447600  0.593800  0.212000  1.0  0.117
  H  H108  1  0.392000  0.631700  0.156900  1.0  0.0994
  H  H109  1  0.960600  0.637500  0.153900  1.0  0.0811
  H  H110  1  0.045800  0.641700  0.213700  1.0  0.1081
  H  H111  1  0.043700  0.708100  0.236500  1.0  0.0677
  H  H112  1  0.826400  0.864700  0.133700  1.0  0.0681
  H  H113  1  0.943000  0.871700  0.072700  1.0  0.1158
  H  H114  1  0.065100  0.813600  0.041600  1.0  0.109
  H  H115  1  0.330800  0.789400  0.044400  1.0  0.0923
  H  H116  1  0.283600  0.859700  0.038700  1.0  0.1076
  H  H117  1  0.423700  0.894500  0.000900  1.0  0.0729
  H  H118  1  0.931500  0.812200  0.913600  1.0  0.0752
  H  H119  1  0.953700  0.757000  0.871600  1.0  0.1204
  H  H120  1  0.792700  0.720800  0.875000  1.0  0.1079
  H  H121  1  0.831800  0.872900  0.790500  1.0  0.1088
  H  H122  1  0.649600  0.851600  0.820000  1.0  0.117
  H  H123  1  0.583300  0.860600  0.889000  1.0  0.0738
  H  H124  1  0.946000  0.885700  0.001300  1.0  0.0656
  H  H125  1  0.063300  0.936900  0.993700  1.0  0.1172
  H  H126  1  0.053300  0.980600  0.937000  1.0  0.0888
  H  H127  1  0.301900  0.973800  0.962200  1.0  0.1119
  H  H128  1  0.344300  0.972900  0.028100  1.0  0.1056
  H  H129  1  0.365400  0.032700  0.057300  1.0  0.0745
  H  H130  1  0.242600  0.201300  0.972100  1.0  0.0752
  H  H131  1  0.340400  0.212000  0.906200  1.0  0.1178
  H  H132  1  0.451100  0.156900  0.868300  1.0  0.0994
  H  H133  1  0.885500  0.153900  0.862500  1.0  0.0813
  H  H134  1  0.740500  0.213700  0.858300  1.0  0.1068
  H  H135  1  0.719800  0.236500  0.791900  1.0  0.0667
  H  H136  1  0.039900  0.133700  0.635300  1.0  0.0669
  H  H137  1  0.984300  0.072700  0.628300  1.0  0.1184
  H  H138  1  0.893300  0.041600  0.686400  1.0  0.1086
  H  H139  1  0.624800  0.044400  0.710600  1.0  0.0923
  H  H140  1  0.677700  0.038700  0.640300  1.0  0.1075
  H  H141  1  0.575400  0.000900  0.605500  1.0  0.0723
  H  H142  1  0.154900  0.913600  0.687800  1.0  0.0749
  H  H143  1  0.174700  0.871600  0.743000  1.0  0.1189
  H  H144  1  0.332300  0.875000  0.779200  1.0  0.1091
  H  H145  1  0.995200  0.627100  0.709500  1.0  0.1085
  H  H146  1  0.821200  0.648400  0.680000  1.0  0.1178
  H  H147  1  0.832900  0.639400  0.611000  1.0  0.0746
  H  H148  1  0.333000  0.614300  0.498700  1.0  0.0657
  H  H149  1  0.493900  0.563100  0.506300  1.0  0.1186
  H  H150  1  0.470900  0.519400  0.563000  1.0  0.0895
  H  H151  1  0.737900  0.526200  0.537800  1.0  0.1119
  H  H152  1  0.845300  0.527100  0.471900  1.0  0.1057
  H  H153  1  0.955400  0.467300  0.442700  1.0  0.0759
  H  H154  1  0.916000  0.298700  0.527900  1.0  0.0743
  H  H155  1  0.958600  0.288000  0.593800  1.0  0.1174
  H  H156  1  0.976300  0.343100  0.631700  1.0  0.0994
  H  H157  1  0.401900  0.346100  0.637500  1.0  0.0819
  H  H158  1  0.312500  0.286300  0.641700  1.0  0.1071
  H  H159  1  0.248200  0.263500  0.708100  1.0  0.0673
  H  H160  1  0.308900  0.366300  0.864700  1.0  0.0692
  H  H161  1  0.185300  0.427300  0.871700  1.0  0.1171
  H  H162  1  0.121300  0.458400  0.813600  1.0  0.1085
  H  H163  1  0.879800  0.455600  0.789400  1.0  0.0921
  H  H164  1  0.856700  0.461300  0.859700  1.0  0.1084
  H  H165  1  0.681800  0.499100  0.894500  1.0  0.0716
  H  H166  1  0.256300  0.586400  0.812200  1.0  0.0735
  H  H167  1  0.289300  0.628400  0.757000  1.0  0.1205
  H  H168  1  0.486500  0.625000  0.720800  1.0  0.1098
  H  H169  1  0.622300  0.209500  0.372900  1.0  0.1077
  H  H170  1  0.469600  0.180000  0.351600  1.0  0.117
  H  H171  1  0.472300  0.111000  0.360600  1.0  0.0751
  H  H172  1  0.947300  0.998700  0.385700  1.0  0.0658
  H  H173  1  0.057000  0.006300  0.436900  1.0  0.1182
  H  H174  1  0.990300  0.063000  0.480600  1.0  0.0895
  H  H175  1  0.264100  0.037800  0.473800  1.0  0.1107
  H  H176  1  0.372400  0.971900  0.472900  1.0  0.1044
  H  H177  1  0.422700  0.942700  0.532700  1.0  0.0752
  H  H178  1  0.214700  0.027900  0.701300  1.0  0.0748
  H  H179  1  0.246600  0.093800  0.712000  1.0  0.1169
  H  H180  1  0.319400  0.131700  0.656900  1.0  0.0996
  H  H181  1  0.748000  0.137500  0.653900  1.0  0.0814
  H  H182  1  0.598800  0.141700  0.713700  1.0  0.1078
  H  H183  1  0.511700  0.208100  0.736500  1.0  0.0671
  H  H184  1  0.675200  0.364700  0.633700  1.0  0.0677
  H  H185  1  0.612600  0.371700  0.572700  1.0  0.1158
  H  H186  1  0.579700  0.313600  0.541600  1.0  0.1087
  H  H187  1  0.335400  0.289400  0.544400  1.0  0.0923
  H  H188  1  0.318000  0.359700  0.538700  1.0  0.107
  H  H189  1  0.180900  0.394500  0.500900  1.0  0.0731
  H  H190  1  0.842700  0.312200  0.413600  1.0  0.0755
  H  H191  1  0.917700  0.257000  0.371600  1.0  0.1207
  H  H192  1  0.111500  0.220800  0.375000  1.0  0.1085
  H  H193  1  0.704700  0.290500  0.127100  1.0  0.1078
  H  H194  1  0.501200  0.320000  0.148400  1.0  0.1177
  H  H195  1  0.443900  0.389000  0.139400  1.0  0.0752
  H  H196  1  0.831700  0.501300  0.114300  1.0  0.065
  H  H197  1  0.000200  0.493700  0.063100  1.0  0.1184
  H  H198  1  0.033900  0.437000  0.019400  1.0  0.0885
  H  H199  1  0.275700  0.462200  0.026200  1.0  0.1115
  H  H200  1  0.317200  0.528100  0.027100  1.0  0.1062
  H  H201  1  0.398100  0.557300  0.967300  1.0  0.0749
  H  H202  1  0.443900  0.472100  0.798700  1.0  0.0759
  H  H203  1  0.552400  0.406200  0.788000  1.0  0.1171
  H  H204  1  0.608000  0.368300  0.843100  1.0  0.0995
  H  H205  1  0.039400  0.362500  0.846100  1.0  0.0805
  H  H206  1  0.954200  0.358300  0.786300  1.0  0.1074
  H  H207  1  0.956300  0.291900  0.763500  1.0  0.0679
  H  H208  1  0.173600  0.135300  0.866300  1.0  0.0685
  H  H209  1  0.057000  0.128300  0.927300  1.0  0.1158
  H  H210  1  0.934900  0.186400  0.958400  1.0  0.1083
  H  H211  1  0.669200  0.210600  0.955600  1.0  0.0923
  H  H212  1  0.716400  0.140300  0.961300  1.0  0.1073
  H  H213  1  0.576300  0.105500  0.999100  1.0  0.073
  H  H214  1  0.068500  0.187800  0.086400  1.0  0.0745
  H  H215  1  0.046300  0.243000  0.128400  1.0  0.1207
  H  H216  1  0.207300  0.279200  0.125000  1.0  0.1088
  C  C217  1  0.011960  0.091090  0.178190  1.0  0.7121
  C  C218  1  0.130640  0.105290  0.157830  1.0  -0.0724
  C  C219  1  0.196730  0.123470  0.181470  1.0  -0.0601
  C  C220  1  0.304950  0.136300  0.164000  1.0  -0.1962
  C  C221  1  0.343640  0.130840  0.122880  1.0  0.1572
  C  C222  1  0.177090  0.100110  0.116110  1.0  0.1367
  C  C223  1  0.112750  0.083850  0.085250  1.0  0.1433
  C  C224  1  0.052000  0.098190  0.022410  1.0  0.1683
  C  C225  1  0.984150  0.067120  0.025980  1.0  -0.1607
  C  C226  1  0.988790  0.041630  0.060190  1.0  0.0008
  C  C227  1  0.055920  0.049150  0.090010  1.0  -0.134
  C  C228  1  0.073630  0.017920  0.123220  1.0  0.7183
  C  C229  1  0.732910  0.964750  0.090230  1.0  0.6953
  C  C230  1  0.689470  0.966040  0.049020  1.0  -0.0828
  C  C231  1  0.684970  0.002250  0.026210  1.0  -0.0261
  C  C232  1  0.661430  0.002800  0.986940  1.0  -0.1251
  C  C233  1  0.646480  0.967120  0.969920  1.0  0.1507
  C  C234  1  0.663710  0.931760  0.030820  1.0  0.1831
  C  C235  1  0.655360  0.891710  0.051170  1.0  0.0877
  C  C236  1  0.715220  0.821160  0.043800  1.0  0.1295
  C  C237  1  0.655630  0.814450  0.083090  1.0  -0.1564
  C  C238  1  0.591060  0.847290  0.105590  1.0  0.024
  C  C239  1  0.587170  0.886750  0.090310  1.0  -0.1136
  C  C240  1  0.498880  0.921560  0.113480  1.0  0.6869
  C  C241  1  0.986050  0.899870  0.192830  1.0  0.6881
  C  C242  1  0.083320  0.861620  0.197740  1.0  -0.0872
  C  C243  1  0.135600  0.837600  0.162800  1.0  -0.0162
  C  C244  1  0.218200  0.801200  0.165000  1.0  -0.1723
  C  C245  1  0.233800  0.789200  0.204800  1.0  0.1557
  C  C246  1  0.118900  0.848130  0.233670  1.0  0.2296
  C  C247  1  0.083000  0.873130  0.271870  1.0  0.079
  C  C248  1  0.000700  0.877800  0.341400  1.0  0.1546
  C  C249  1  0.031600  0.914450  0.346150  1.0  -0.1039
  C  C250  1  0.087600  0.932250  0.311950  1.0  -0.0943
  C  C251  1  0.116780  0.911120  0.273920  1.0  -0.1094
  C  C252  1  0.187440  0.930400  0.238520  1.0  0.6647
  C  C253  1  0.538220  0.988480  0.236880  1.0  0.7107
  C  C254  1  0.492390  0.996540  0.282280  1.0  -0.121
  C  C255  1  0.410410  0.973120  0.303660  1.0  0.0142
  C  C256  1  0.381150  0.975650  0.345450  1.0  -0.1056
  C  C257  1  0.439420  0.999410  0.365950  1.0  0.1701
  C  C258  1  0.538990  0.023490  0.305130  1.0  0.0858
  C  C259  1  0.617470  0.054530  0.287930  1.0  0.1315
  C  C260  1  0.782530  0.084610  0.297330  1.0  0.1642
  C  C261  1  0.771240  0.109900  0.264620  1.0  -0.1775
  C  C262  1  0.678070  0.107570  0.243090  1.0  -0.0508
  C  C263  1  0.599000  0.079380  0.254220  1.0  -0.0743
  C  C264  1  0.495960  0.078410  0.229470  1.0  0.694
  C  C265  1  0.781240  0.408910  0.321810  1.0  0.7111
  C  C266  1  0.893760  0.394710  0.342170  1.0  -0.0676
  C  C267  1  0.001670  0.376530  0.318530  1.0  -0.0552
  C  C268  1  0.105250  0.363700  0.336000  1.0  -0.1993
  C  C269  1  0.097360  0.369160  0.377120  1.0  0.1609
  C  C270  1  0.893310  0.399890  0.383890  1.0  0.1357
  C  C271  1  0.781850  0.416150  0.414750  1.0  0.1435
  C  C272  1  0.672600  0.401810  0.477590  1.0  0.1676
  C  C273  1  0.577250  0.432880  0.474020  1.0  -0.1607
  C  C274  1  0.590610  0.458370  0.439810  1.0  0.0035
  C  C275  1  0.695080  0.450850  0.409990  1.0  -0.1342
  C  C276  1  0.714770  0.482080  0.376780  1.0  0.7222
  C  C277  1  0.287890  0.535250  0.409770  1.0  0.6924
  C  C278  1  0.204530  0.533960  0.450980  1.0  -0.0826
  C  C279  1  0.213430  0.497750  0.473790  1.0  -0.0261
  C  C280  1  0.151170  0.497200  0.513060  1.0  -0.1262
  C  C281  1  0.083520  0.532880  0.530080  1.0  0.1498
  C  C282  1  0.126290  0.568240  0.469180  1.0  0.1836
  C  C283  1  0.098240  0.608290  0.448830  1.0  0.0871
  C  C284  1  0.080180  0.678840  0.456200  1.0  0.1303
  C  C285  1  0.053170  0.685550  0.416910  1.0  -0.1558
  C  C286  1  0.043940  0.652710  0.394410  1.0  0.0259
  C  C287  1  0.064230  0.613250  0.409690  1.0  -0.1128
  C  C288  1  0.033920  0.578440  0.386520  1.0  0.6906
  C  C289  1  0.578750  0.600130  0.307170  1.0  0.6875
  C  C290  1  0.642680  0.638380  0.302260  1.0  -0.0867
  C  C291  1  0.636000  0.662400  0.337200  1.0  -0.0154
  C  C292  1  0.684400  0.698800  0.335000  1.0  -0.1711
  C  C293  1  0.727800  0.710800  0.295200  1.0  0.1587
  C  C294  1  0.700700  0.651870  0.266330  1.0  0.2307
  C  C295  1  0.728000  0.626870  0.228130  1.0  0.0793
  C  C296  1  0.719900  0.622200  0.158600  1.0  0.153
  C  C297  1  0.792200  0.585550  0.153850  1.0  -0.1034
  C  C298  1  0.831800  0.567750  0.188050  1.0  -0.0961
  C  C299  1  0.801820  0.588880  0.226080  1.0  -0.1105
  C  C300  1  0.856360  0.569600  0.261480  1.0  0.6666
  C  C301  1  0.263580  0.511520  0.263120  1.0  0.7081
  C  C302  1  0.271210  0.503460  0.217720  1.0  -0.1211
  C  C303  1  0.187190  0.526880  0.196340  1.0  0.0151
  C  C304  1  0.202250  0.524350  0.154550  1.0  -0.1053
  C  C305  1  0.304780  0.500590  0.134050  1.0  0.171
  C  C306  1  0.367610  0.476510  0.194870  1.0  0.0851
  C  C307  1  0.459930  0.445470  0.212070  1.0  0.1316
  C  C308  1  0.664470  0.415390  0.202670  1.0  0.1614
  C  C309  1  0.645760  0.390100  0.235380  1.0  -0.1778
  C  C310  1  0.528730  0.392430  0.256910  1.0  -0.0525
  C  C311  1  0.432600  0.420620  0.245780  1.0  -0.0769
  C  C312  1  0.303840  0.421590  0.270530  1.0  0.6934
  C  C313  1  0.190150  0.821810  0.591090  1.0  0.7101
  C  C314  1  0.288470  0.842170  0.605290  1.0  -0.075
  C  C315  1  0.378200  0.818530  0.623470  1.0  -0.0594
  C  C316  1  0.468950  0.836000  0.636300  1.0  -0.1962
  C  C317  1  0.466520  0.877120  0.630840  1.0  0.1563
  C  C318  1  0.293200  0.883890  0.600110  1.0  0.1346
  C  C319  1  0.198000  0.914750  0.583850  1.0  0.1424
  C  C320  1  0.074410  0.977590  0.598190  1.0  0.1707
  C  C321  1  0.010130  0.974020  0.567120  1.0  -0.1606
  C  C322  1  0.048980  0.939810  0.541630  1.0  0.0012
  C  C323  1  0.145930  0.909990  0.549150  1.0  -0.1379
  C  C324  1  0.196850  0.876780  0.517920  1.0  0.7206
  C  C325  1  0.823140  0.909770  0.464750  1.0  0.6925
  C  C326  1  0.738490  0.950980  0.466040  1.0  -0.084
  C  C327  1  0.711180  0.973790  0.502250  1.0  -0.0266
  C  C328  1  0.648370  0.013060  0.502800  1.0  -0.127
  C  C329  1  0.616400  0.030080  0.467120  1.0  0.1499
  C  C330  1  0.694530  0.969180  0.431760  1.0  0.1839
  C  C331  1  0.706530  0.948830  0.391710  1.0  0.0871
  C  C332  1  0.759020  0.956200  0.321160  1.0  0.1306
  C  C333  1  0.738720  0.916910  0.314450  1.0  -0.1568
  C  C334  1  0.696650  0.894410  0.347290  1.0  0.0223
  C  C335  1  0.677480  0.909690  0.386750  1.0  -0.1123
  C  C336  1  0.612360  0.886520  0.421560  1.0  0.6828
  C  C337  1  0.178880  0.807170  0.399870  1.0  0.6875
  C  C338  1  0.281060  0.802260  0.361620  1.0  -0.0879
  C  C339  1  0.298400  0.837200  0.337600  1.0  -0.0158
  C  C340  1  0.383200  0.835000  0.301200  1.0  -0.1735
  C  C341  1  0.438600  0.795200  0.289200  1.0  0.1563
  C  C342  1  0.352570  0.766330  0.348130  1.0  0.2283
  C  C343  1  0.354870  0.728130  0.373130  1.0  0.0815
  C  C344  1  0.342100  0.658600  0.377800  1.0  0.1577
  C  C345  1  0.377750  0.653850  0.414450  1.0  -0.0996
  C  C346  1  0.399550  0.688050  0.432250  1.0  -0.0897
  C  C347  1  0.390700  0.726080  0.411120  1.0  -0.1113
  C  C348  1  0.425960  0.761480  0.430400  1.0  0.6663
  C  C349  1  0.775100  0.763120  0.488480  1.0  0.7053
  C  C350  1  0.774670  0.717720  0.496540  1.0  -0.1238
  C  C351  1  0.714070  0.696340  0.473120  1.0  0.0146
  C  C352  1  0.726600  0.654550  0.475650  1.0  -0.103
  C  C353  1  0.805370  0.634050  0.499410  1.0  0.1698
  C  C354  1  0.844120  0.694870  0.523490  1.0  0.0847
  C  C355  1  0.905400  0.712070  0.554530  1.0  0.1323
  C  C356  1  0.079860  0.702670  0.584610  1.0  0.1612
  C  C357  1  0.035860  0.735380  0.609900  1.0  -0.176
  C  C358  1  0.921160  0.756910  0.607570  1.0  -0.0528
  C  C359  1  0.853220  0.745780  0.579380  1.0  -0.074
  C  C360  1  0.725430  0.770530  0.578410  1.0  0.6927
  C  C361  1  0.103050  0.678190  0.908910  1.0  0.71
  C  C362  1  0.235930  0.657830  0.894710  1.0  -0.0723
  C  C363  1  0.320200  0.681470  0.876530  1.0  -0.0572
  C  C364  1  0.441250  0.664000  0.863700  1.0  -0.1974
  C  C365  1  0.474480  0.622880  0.869160  1.0  0.1562
  C  C366  1  0.277200  0.616110  0.899890  1.0  0.1355
  C  C367  1  0.196600  0.585250  0.916150  1.0  0.1427
  C  C368  1  0.150190  0.522410  0.901810  1.0  0.1718
  C  C369  1  0.051270  0.525980  0.932880  1.0  -0.162
  C  C370  1  0.030420  0.560190  0.958370  1.0  0.0013
  C  C371  1  0.105070  0.590010  0.950850  1.0  -0.1372
  C  C372  1  0.091550  0.623220  0.982080  1.0  0.7193
  C  C373  1  0.697660  0.590230  0.035250  1.0  0.693
  C  C374  1  0.655510  0.549020  0.033960  1.0  -0.0812
  C  C375  1  0.687220  0.526210  0.997750  1.0  -0.0261
  C  C376  1  0.664230  0.486940  0.997200  1.0  -0.128
  C  C377  1  0.613600  0.469920  0.032880  1.0  0.1499
  C  C378  1  0.595470  0.530820  0.068240  1.0  0.1832
  C  C379  1  0.547070  0.551170  0.108290  1.0  0.087
  C  C380  1  0.536380  0.543800  0.178840  1.0  0.1305
  C  C381  1  0.470080  0.583090  0.185550  1.0  -0.1599
  C  C382  1  0.438350  0.605590  0.152710  1.0  0.0216
  C  C383  1  0.473920  0.590310  0.113250  1.0  -0.1109
  C  C384  1  0.420440  0.613480  0.078440  1.0  0.6858
  C  C385  1  0.885920  0.692830  0.100130  1.0  0.6879
  C  C386  1  0.944940  0.697740  0.138380  1.0  -0.0877
  C  C387  1  0.973200  0.662800  0.162400  1.0  -0.0155
  C  C388  1  0.019400  0.665000  0.198800  1.0  -0.1714
  C  C389  1  0.023000  0.704800  0.210800  1.0  0.1581
  C  C390  1  0.967030  0.733670  0.151870  1.0  0.2294
  C  C391  1  0.956130  0.771870  0.126870  1.0  0.0805
  C  C392  1  0.878500  0.841400  0.122200  1.0  0.1562
  C  C393  1  0.946050  0.846150  0.085550  1.0  -0.0993
  C  C394  1  0.019850  0.811950  0.067750  1.0  -0.0932
  C  C395  1  0.027900  0.773920  0.088880  1.0  -0.1125
  C  C396  1  0.117840  0.738520  0.069600  1.0  0.6648
  C  C397  1  0.526700  0.736880  0.011520  1.0  0.7028
  C  C398  1  0.488930  0.782280  0.003460  1.0  -0.1244
  C  C399  1  0.383530  0.803660  0.026880  1.0  0.0142
  C  C400  1  0.356800  0.845450  0.024350  1.0  -0.1041
  C  C401  1  0.438830  0.865950  0.000590  1.0  0.1695
  C  C402  1  0.562480  0.805130  0.976510  1.0  0.0864
  C  C403  1  0.672000  0.787930  0.945470  1.0  0.1304
  C  C404  1  0.867140  0.797330  0.915390  1.0  0.1657
  C  C405  1  0.881140  0.764620  0.890100  1.0  -0.1774
  C  C406  1  0.785640  0.743090  0.892430  1.0  -0.0518
  C  C407  1  0.678380  0.754220  0.920620  1.0  -0.0758
  C  C408  1  0.574370  0.729470  0.921590  1.0  0.6947
  C  C409  1  0.988040  0.908910  0.821810  1.0  0.7119
  C  C410  1  0.869360  0.894710  0.842170  1.0  -0.0707
  C  C411  1  0.803270  0.876530  0.818530  1.0  -0.0563
  C  C412  1  0.695050  0.863700  0.836000  1.0  -0.1951
  C  C413  1  0.656360  0.869160  0.877120  1.0  0.1588
  C  C414  1  0.822910  0.899890  0.883890  1.0  0.1369
  C  C415  1  0.887250  0.916150  0.914750  1.0  0.1431
  C  C416  1  0.948000  0.901810  0.977590  1.0  0.1682
  C  C417  1  0.015850  0.932880  0.974020  1.0  -0.1616
  C  C418  1  0.011210  0.958370  0.939810  1.0  0.0013
  C  C419  1  0.944080  0.950850  0.909990  1.0  -0.1335
  C  C420  1  0.926370  0.982080  0.876780  1.0  0.7211
  C  C421  1  0.267090  0.035250  0.909770  1.0  0.6961
  C  C422  1  0.310530  0.033960  0.950980  1.0  -0.0834
  C  C423  1  0.315030  0.997750  0.973790  1.0  -0.0246
  C  C424  1  0.338570  0.997200  0.013060  1.0  -0.1257
  C  C425  1  0.353520  0.032880  0.030080  1.0  0.1499
  C  C426  1  0.336290  0.068240  0.969180  1.0  0.1825
  C  C427  1  0.344640  0.108290  0.948830  1.0  0.0863
  C  C428  1  0.284780  0.178840  0.956200  1.0  0.1287
  C  C429  1  0.344370  0.185550  0.916910  1.0  -0.1541
  C  C430  1  0.408940  0.152710  0.894410  1.0  0.0241
  C  C431  1  0.412830  0.113250  0.909690  1.0  -0.1155
  C  C432  1  0.501120  0.078440  0.886520  1.0  0.6879
  C  C433  1  0.013950  0.100130  0.807170  1.0  0.6883
  C  C434  1  0.916680  0.138380  0.802260  1.0  -0.0871
  C  C435  1  0.864400  0.162400  0.837200  1.0  -0.0165
  C  C436  1  0.781800  0.198800  0.835000  1.0  -0.1736
  C  C437  1  0.766200  0.210800  0.795200  1.0  0.1576
  C  C438  1  0.881100  0.151870  0.766330  1.0  0.2305
  C  C439  1  0.917000  0.126870  0.728130  1.0  0.0807
  C  C440  1  0.999300  0.122200  0.658600  1.0  0.1547
  C  C441  1  0.968400  0.085550  0.653850  1.0  -0.1037
  C  C442  1  0.912400  0.067750  0.688050  1.0  -0.0946
  C  C443  1  0.883220  0.088880  0.726080  1.0  -0.1119
  C  C444  1  0.812560  0.069600  0.761480  1.0  0.6651
  C  C445  1  0.461780  0.011520  0.763120  1.0  0.7081
  C  C446  1  0.507610  0.003460  0.717720  1.0  -0.1202
  C  C447  1  0.589590  0.026880  0.696340  1.0  0.0149
  C  C448  1  0.618850  0.024350  0.654550  1.0  -0.1027
  C  C449  1  0.560580  0.000590  0.634050  1.0  0.1688
  C  C450  1  0.461010  0.976510  0.694870  1.0  0.0851
  C  C451  1  0.382530  0.945470  0.712070  1.0  0.1318
  C  C452  1  0.217470  0.915390  0.702670  1.0  0.1649
  C  C453  1  0.228760  0.890100  0.735380  1.0  -0.1788
  C  C454  1  0.321930  0.892430  0.756910  1.0  -0.0505
  C  C455  1  0.401000  0.920620  0.745780  1.0  -0.0744
  C  C456  1  0.504040  0.921590  0.770530  1.0  0.6939
  C  C457  1  0.218760  0.591090  0.678190  1.0  0.7108
  C  C458  1  0.106240  0.605290  0.657830  1.0  -0.0674
  C  C459  1  0.998330  0.623470  0.681470  1.0  -0.0574
  C  C460  1  0.894750  0.636300  0.664000  1.0  -0.2018
  C  C461  1  0.902640  0.630840  0.622880  1.0  0.161
  C  C462  1  0.106690  0.600110  0.616110  1.0  0.136
  C  C463  1  0.218150  0.583850  0.585250  1.0  0.142
  C  C464  1  0.327400  0.598190  0.522410  1.0  0.1691
  C  C465  1  0.422750  0.567120  0.525980  1.0  -0.1608
  C  C466  1  0.409390  0.541630  0.560190  1.0  0.0024
  C  C467  1  0.304920  0.549150  0.590010  1.0  -0.1337
  C  C468  1  0.285230  0.517920  0.623220  1.0  0.7192
  C  C469  1  0.712110  0.464750  0.590230  1.0  0.6909
  C  C470  1  0.795470  0.466040  0.549020  1.0  -0.0828
  C  C471  1  0.786570  0.502250  0.526210  1.0  -0.0258
  C  C472  1  0.848830  0.502800  0.486940  1.0  -0.1261
  C  C473  1  0.916480  0.467120  0.469920  1.0  0.1488
  C  C474  1  0.873710  0.431760  0.530820  1.0  0.1844
  C  C475  1  0.901760  0.391710  0.551170  1.0  0.0872
  C  C476  1  0.919820  0.321160  0.543800  1.0  0.1304
  C  C477  1  0.946830  0.314450  0.583090  1.0  -0.1557
  C  C478  1  0.956060  0.347290  0.605590  1.0  0.0251
  C  C479  1  0.935770  0.386750  0.590310  1.0  -0.1098
  C  C480  1  0.966080  0.421560  0.613480  1.0  0.6897
  C  C481  1  0.421250  0.399870  0.692830  1.0  0.6865
  C  C482  1  0.357320  0.361620  0.697740  1.0  -0.0871
  C  C483  1  0.364000  0.337600  0.662800  1.0  -0.0155
  C  C484  1  0.315600  0.301200  0.665000  1.0  -0.1708
  C  C485  1  0.272200  0.289200  0.704800  1.0  0.158
  C  C486  1  0.299300  0.348130  0.733670  1.0  0.2301
  C  C487  1  0.272000  0.373130  0.771870  1.0  0.08
  C  C488  1  0.280100  0.377800  0.841400  1.0  0.1533
  C  C489  1  0.207800  0.414450  0.846150  1.0  -0.1039
  C  C490  1  0.168200  0.432250  0.811950  1.0  -0.0919
  C  C491  1  0.198180  0.411120  0.773920  1.0  -0.1108
  C  C492  1  0.143640  0.430400  0.738520  1.0  0.6687
  C  C493  1  0.736420  0.488480  0.736880  1.0  0.7104
  C  C494  1  0.728790  0.496540  0.782280  1.0  -0.122
  C  C495  1  0.812810  0.473120  0.803660  1.0  0.0144
  C  C496  1  0.797750  0.475650  0.845450  1.0  -0.102
  C  C497  1  0.695220  0.499410  0.865950  1.0  0.1707
  C  C498  1  0.632390  0.523490  0.805130  1.0  0.0847
  C  C499  1  0.540070  0.554530  0.787930  1.0  0.1323
  C  C500  1  0.335530  0.584610  0.797330  1.0  0.1619
  C  C501  1  0.354240  0.609900  0.764620  1.0  -0.1779
  C  C502  1  0.471270  0.607570  0.743090  1.0  -0.0539
  C  C503  1  0.567400  0.579380  0.754220  1.0  -0.0751
  C  C504  1  0.696160  0.578410  0.729470  1.0  0.6926
  C  C505  1  0.809850  0.178190  0.408910  1.0  0.7087
  C  C506  1  0.711530  0.157830  0.394710  1.0  -0.0715
  C  C507  1  0.621800  0.181470  0.376530  1.0  -0.057
  C  C508  1  0.531050  0.164000  0.363700  1.0  -0.196
  C  C509  1  0.533480  0.122880  0.369160  1.0  0.1565
  C  C510  1  0.706800  0.116110  0.399890  1.0  0.1361
  C  C511  1  0.802000  0.085250  0.416150  1.0  0.1418
  C  C512  1  0.925590  0.022410  0.401810  1.0  0.1716
  C  C513  1  0.989870  0.025980  0.432880  1.0  -0.1615
  C  C514  1  0.951020  0.060190  0.458370  1.0  0.0004
  C  C515  1  0.854070  0.090010  0.450850  1.0  -0.1377
  C  C516  1  0.803150  0.123220  0.482080  1.0  0.7194
  C  C517  1  0.176860  0.090230  0.535250  1.0  0.6924
  C  C518  1  0.261510  0.049020  0.533960  1.0  -0.0829
  C  C519  1  0.288820  0.026210  0.497750  1.0  -0.0252
  C  C520  1  0.351630  0.986940  0.497200  1.0  -0.1292
  C  C521  1  0.383600  0.969920  0.532880  1.0  0.1497
  C  C522  1  0.305470  0.030820  0.568240  1.0  0.1826
  C  C523  1  0.293470  0.051170  0.608290  1.0  0.0864
  C  C524  1  0.240980  0.043800  0.678840  1.0  0.131
  C  C525  1  0.261280  0.083090  0.685550  1.0  -0.1565
  C  C526  1  0.303350  0.105590  0.652710  1.0  0.0224
  C  C527  1  0.322520  0.090310  0.613250  1.0  -0.1107
  C  C528  1  0.387640  0.113480  0.578440  1.0  0.6835
  C  C529  1  0.821120  0.192830  0.600130  1.0  0.6873
  C  C530  1  0.718940  0.197740  0.638380  1.0  -0.0884
  C  C531  1  0.701600  0.162800  0.662400  1.0  -0.0165
  C  C532  1  0.616800  0.165000  0.698800  1.0  -0.1738
  C  C533  1  0.561400  0.204800  0.710800  1.0  0.1577
  C  C534  1  0.647430  0.233670  0.651870  1.0  0.23
  C  C535  1  0.645130  0.271870  0.626870  1.0  0.0818
  C  C536  1  0.657900  0.341400  0.622200  1.0  0.1579
  C  C537  1  0.622250  0.346150  0.585550  1.0  -0.0998
  C  C538  1  0.600450  0.311950  0.567750  1.0  -0.0903
  C  C539  1  0.609300  0.273920  0.588880  1.0  -0.1145
  C  C540  1  0.574040  0.238520  0.569600  1.0  0.6668
  C  C541  1  0.224900  0.236880  0.511520  1.0  0.7027
  C  C542  1  0.225330  0.282280  0.503460  1.0  -0.1238
  C  C543  1  0.285930  0.303660  0.526880  1.0  0.0139
  C  C544  1  0.273400  0.345450  0.524350  1.0  -0.1013
  C  C545  1  0.194630  0.365950  0.500590  1.0  0.1681
  C  C546  1  0.155880  0.305130  0.476510  1.0  0.0838
  C  C547  1  0.094600  0.287930  0.445470  1.0  0.132
  C  C548  1  0.920140  0.297330  0.415390  1.0  0.1632
  C  C549  1  0.964140  0.264620  0.390100  1.0  -0.1748
  C  C550  1  0.078840  0.243090  0.392430  1.0  -0.0526
  C  C551  1  0.146780  0.254220  0.420620  1.0  -0.0745
  C  C552  1  0.274570  0.229470  0.421590  1.0  0.6948
  C  C553  1  0.896950  0.321810  0.091090  1.0  0.7094
  C  C554  1  0.764070  0.342170  0.105290  1.0  -0.0724
  C  C555  1  0.679800  0.318530  0.123470  1.0  -0.0579
  C  C556  1  0.558750  0.336000  0.136300  1.0  -0.1982
  C  C557  1  0.525520  0.377120  0.130840  1.0  0.1553
  C  C558  1  0.722800  0.383890  0.100110  1.0  0.1352
  C  C559  1  0.803400  0.414750  0.083850  1.0  0.1421
  C  C560  1  0.849810  0.477590  0.098190  1.0  0.1728
  C  C561  1  0.948730  0.474020  0.067120  1.0  -0.1605
  C  C562  1  0.969580  0.439810  0.041630  1.0  0.0022
  C  C563  1  0.894930  0.409990  0.049150  1.0  -0.1377
  C  C564  1  0.908450  0.376780  0.017920  1.0  0.7217
  C  C565  1  0.302340  0.409770  0.964750  1.0  0.6928
  C  C566  1  0.344490  0.450980  0.966040  1.0  -0.0824
  C  C567  1  0.312780  0.473790  0.002250  1.0  -0.0249
  C  C568  1  0.335770  0.513060  0.002800  1.0  -0.1272
  C  C569  1  0.386400  0.530080  0.967120  1.0  0.1499
  C  C570  1  0.404530  0.469180  0.931760  1.0  0.1839
  C  C571  1  0.452930  0.448830  0.891710  1.0  0.0869
  C  C572  1  0.463620  0.456200  0.821160  1.0  0.1307
  C  C573  1  0.529920  0.416910  0.814450  1.0  -0.1583
  C  C574  1  0.561650  0.394410  0.847290  1.0  0.0213
  C  C575  1  0.526080  0.409690  0.886750  1.0  -0.1117
  C  C576  1  0.579560  0.386520  0.921560  1.0  0.685
  C  C577  1  0.114080  0.307170  0.899870  1.0  0.6893
  C  C578  1  0.055060  0.302260  0.861620  1.0  -0.0873
  C  C579  1  0.026800  0.337200  0.837600  1.0  -0.0167
  C  C580  1  0.980600  0.335000  0.801200  1.0  -0.1722
  C  C581  1  0.977000  0.295200  0.789200  1.0  0.1594
  C  C582  1  0.032970  0.266330  0.848130  1.0  0.2278
  C  C583  1  0.043870  0.228130  0.873130  1.0  0.081
  C  C584  1  0.121500  0.158600  0.877800  1.0  0.1567
  C  C585  1  0.053950  0.153850  0.914450  1.0  -0.0989
  C  C586  1  0.980150  0.188050  0.932250  1.0  -0.0915
  C  C587  1  0.972100  0.226080  0.911120  1.0  -0.1118
  C  C588  1  0.882160  0.261480  0.930400  1.0  0.6679
  C  C589  1  0.473300  0.263120  0.988480  1.0  0.7047
  C  C590  1  0.511070  0.217720  0.996540  1.0  -0.1239
  C  C591  1  0.616470  0.196340  0.973120  1.0  0.0131
  C  C592  1  0.643200  0.154550  0.975650  1.0  -0.1016
  C  C593  1  0.561170  0.134050  0.999410  1.0  0.1694
  C  C594  1  0.437520  0.194870  0.023490  1.0  0.085
  C  C595  1  0.328000  0.212070  0.054530  1.0  0.132
  C  C596  1  0.132860  0.202670  0.084610  1.0  0.1666
  C  C597  1  0.118860  0.235380  0.109900  1.0  -0.1807
  C  C598  1  0.214360  0.256910  0.107570  1.0  -0.0503
  C  C599  1  0.321620  0.245780  0.079380  1.0  -0.0722
  C  C600  1  0.425630  0.270530  0.078410  1.0  0.6927
  N  N601  1  0.708350  0.057220  0.309480  1.0  -0.3163
  N  N602  1  0.517190  0.023320  0.346700  1.0  -0.3212
  N  N603  1  0.022300  0.855550  0.306050  1.0  -0.4291
  N  N604  1  0.187710  0.811480  0.238500  1.0  -0.4259
  N  N605  1  0.115370  0.106780  0.050880  1.0  -0.3105
  N  N606  1  0.280970  0.113670  0.098790  1.0  -0.3097
  N  N607  1  0.648400  0.931940  0.991060  1.0  -0.3381
  N  N608  1  0.714310  0.858650  0.027930  1.0  -0.3382
  N  N609  1  0.575050  0.442780  0.190520  1.0  -0.3155
  N  N610  1  0.387210  0.476680  0.153300  1.0  -0.3218
  N  N611  1  0.683900  0.644450  0.193950  1.0  -0.4297
  N  N612  1  0.737690  0.688520  0.261500  1.0  -0.4274
  N  N613  1  0.773030  0.393220  0.449120  1.0  -0.3104
  N  N614  1  0.993430  0.386330  0.401210  1.0  -0.3097
  N  N615  1  0.071400  0.568060  0.508940  1.0  -0.3374
  N  N616  1  0.100890  0.641350  0.472070  1.0  -0.3395
  N  N617  1  0.017830  0.690520  0.557220  1.0  -0.3155
  N  N618  1  0.863890  0.653300  0.523320  1.0  -0.3212
  N  N619  1  0.328350  0.693950  0.355550  1.0  -0.4332
  N  N620  1  0.426210  0.761500  0.311480  1.0  -0.4198
  N  N621  1  0.166250  0.949120  0.606780  1.0  -0.3084
  N  N622  1  0.379760  0.901210  0.613670  1.0  -0.3072
  N  N623  1  0.639460  0.008940  0.431940  1.0  -0.3387
  N  N624  1  0.742240  0.972070  0.358650  1.0  -0.3399
  N  N625  1  0.765570  0.809480  0.942780  1.0  -0.3158
  N  N626  1  0.540510  0.846700  0.976680  1.0  -0.3218
  N  N627  1  0.877850  0.806050  0.144450  1.0  -0.4366
  N  N628  1  0.999190  0.738500  0.188520  1.0  -0.4238
  N  N629  1  0.222150  0.550880  0.893220  1.0  -0.3109
  N  N630  1  0.394640  0.598790  0.886330  1.0  -0.309
  N  N631  1  0.580340  0.491060  0.068060  1.0  -0.3393
  N  N632  1  0.572960  0.527930  0.141350  1.0  -0.3406
  N  N633  1  0.291650  0.942780  0.690520  1.0  -0.3155
  N  N634  1  0.482810  0.976680  0.653300  1.0  -0.3179
  N  N635  1  0.977700  0.144450  0.693950  1.0  -0.4325
  N  N636  1  0.812290  0.188520  0.761500  1.0  -0.4272
  N  N637  1  0.884630  0.893220  0.949120  1.0  -0.3091
  N  N638  1  0.719030  0.886330  0.901210  1.0  -0.3112
  N  N639  1  0.351600  0.068060  0.008940  1.0  -0.3363
  N  N640  1  0.285690  0.141350  0.972070  1.0  -0.3389
  N  N641  1  0.424950  0.557220  0.809480  1.0  -0.3159
  N  N642  1  0.612790  0.523320  0.846700  1.0  -0.3213
  N  N643  1  0.316100  0.355550  0.806050  1.0  -0.4304
  N  N644  1  0.262310  0.311480  0.738500  1.0  -0.4259
  N  N645  1  0.226970  0.606780  0.550880  1.0  -0.3117
  N  N646  1  0.006570  0.613670  0.598790  1.0  -0.309
  N  N647  1  0.928600  0.431940  0.491060  1.0  -0.3392
  N  N648  1  0.899110  0.358650  0.527930  1.0  -0.3398
  N  N649  1  0.982170  0.309480  0.442780  1.0  -0.3158
  N  N650  1  0.136110  0.346700  0.476680  1.0  -0.321
  N  N651  1  0.671650  0.306050  0.644450  1.0  -0.4344
  N  N652  1  0.573790  0.238500  0.688520  1.0  -0.4232
  N  N653  1  0.833750  0.050880  0.393220  1.0  -0.3089
  N  N654  1  0.620240  0.098790  0.386330  1.0  -0.309
  N  N655  1  0.360540  0.991060  0.568060  1.0  -0.3376
  N  N656  1  0.257760  0.027930  0.641350  1.0  -0.3409
  N  N657  1  0.234430  0.190520  0.057220  1.0  -0.316
  N  N658  1  0.459490  0.153300  0.023320  1.0  -0.3197
  N  N659  1  0.122150  0.193950  0.855550  1.0  -0.4367
  N  N660  1  0.000810  0.261500  0.811480  1.0  -0.4198
  N  N661  1  0.777850  0.449120  0.106780  1.0  -0.3093
  N  N662  1  0.605360  0.401210  0.113670  1.0  -0.3087
  N  N663  1  0.419660  0.508940  0.931940  1.0  -0.3382
  N  N664  1  0.427040  0.472070  0.858650  1.0  -0.3405
  O  O665  1  0.920120  0.099880  0.160880  1.0  -0.5595
  O  O666  1  0.016450  0.071430  0.210870  1.0  -0.5649
  O  O667  1  0.991290  0.996290  0.132930  1.0  -0.7471
  O  O668  1  0.171860  0.014620  0.137260  1.0  -0.7456
  O  O669  1  0.134760  0.962320  0.222960  1.0  -0.6366
  O  O670  1  0.296400  0.916110  0.225690  1.0  -0.5978
  O  O671  1  0.442680  0.949360  0.095080  1.0  -0.6853
  O  O672  1  0.485620  0.919230  0.152530  1.0  -0.6678
  O  O673  1  0.466030  0.977450  0.216490  1.0  -0.722
  O  O674  1  0.647960  0.992290  0.224190  1.0  -0.7426
  O  O675  1  0.834190  0.944110  0.093510  1.0  -0.6271
  O  O676  1  0.669050  0.986150  0.119550  1.0  -0.6501
  O  O677  1  0.904610  0.913040  0.222140  1.0  -0.7119
  O  O678  1  0.990570  0.914920  0.158740  1.0  -0.6015
  O  O679  1  0.390680  0.078300  0.249540  1.0  -0.5671
  O  O680  1  0.526260  0.076980  0.191500  1.0  -0.5625
  O  O681  1  0.680880  0.400120  0.339120  1.0  -0.5605
  O  O682  1  0.798750  0.428570  0.289130  1.0  -0.5652
  O  O683  1  0.620510  0.503710  0.367070  1.0  -0.7472
  O  O684  1  0.823740  0.485380  0.362740  1.0  -0.7479
  O  O685  1  0.820040  0.537680  0.277040  1.0  -0.6344
  O  O686  1  0.938200  0.583890  0.274310  1.0  -0.5982
  O  O687  1  0.987120  0.550640  0.404920  1.0  -0.684
  O  O688  1  0.057380  0.580770  0.347470  1.0  -0.6635
  O  O689  1  0.159970  0.522550  0.283510  1.0  -0.7215
  O  O690  1  0.364440  0.507710  0.275810  1.0  -0.7413
  O  O691  1  0.371810  0.555890  0.406490  1.0  -0.6275
  O  O692  1  0.274750  0.513850  0.380450  1.0  -0.6518
  O  O693  1  0.539790  0.586960  0.277860  1.0  -0.7123
  O  O694  1  0.564230  0.585080  0.341260  1.0  -0.6018
  O  O695  1  0.218520  0.421700  0.250460  1.0  -0.5682
  O  O696  1  0.294740  0.423020  0.308500  1.0  -0.5616
  O  O697  1  0.081000  0.839120  0.599880  1.0  -0.5599
  O  O698  1  0.227320  0.789130  0.571430  1.0  -0.5626
  O  O699  1  0.124220  0.867070  0.496290  1.0  -0.7468
  O  O700  1  0.309120  0.862740  0.514620  1.0  -0.7474
  O  O701  1  0.357720  0.777040  0.462320  1.0  -0.6439
  O  O702  1  0.522090  0.774310  0.416110  1.0  -0.5965
  O  O703  1  0.537760  0.904920  0.449360  1.0  -0.6806
  O  O704  1  0.638150  0.847470  0.419230  1.0  -0.6617
  O  O705  1  0.682520  0.783510  0.477450  1.0  -0.722
  O  O706  1  0.872150  0.775810  0.492290  1.0  -0.7422
  O  O707  1  0.927700  0.906490  0.444110  1.0  -0.6292
  O  O708  1  0.788600  0.880450  0.486150  1.0  -0.647
  O  O709  1  0.126750  0.777860  0.413040  1.0  -0.712
  O  O710  1  0.149310  0.841260  0.414920  1.0  -0.6013
  O  O711  1  0.640220  0.750460  0.578300  1.0  -0.565
  O  O712  1  0.717760  0.808500  0.576980  1.0  -0.5602
  O  O713  1  0.020000  0.660880  0.900120  1.0  -0.5626
  O  O714  1  0.087880  0.710870  0.928570  1.0  -0.5643
  O  O715  1  0.987580  0.632930  0.003710  1.0  -0.7471
  O  O716  1  0.186480  0.637260  0.985380  1.0  -0.7469
  O  O717  1  0.097080  0.722960  0.037680  1.0  -0.6418
  O  O718  1  0.212510  0.725690  0.083890  1.0  -0.596
  O  O719  1  0.392040  0.595080  0.050640  1.0  -0.6843
  O  O720  1  0.404850  0.652530  0.080770  1.0  -0.6624
  O  O721  1  0.443480  0.716490  0.022550  1.0  -0.7215
  O  O722  1  0.640250  0.724190  0.007710  1.0  -0.7431
  O  O723  1  0.778300  0.593510  0.055890  1.0  -0.6278
  O  O724  1  0.655200  0.619550  0.013850  1.0  -0.6493
  O  O725  1  0.817650  0.722140  0.086960  1.0  -0.7136
  O  O726  1  0.905490  0.658740  0.085080  1.0  -0.6011
  O  O727  1  0.468980  0.749540  0.921700  1.0  -0.568
  O  O728  1  0.603240  0.691500  0.923020  1.0  -0.5629
  O  O729  1  0.079880  0.900120  0.839120  1.0  -0.5615
  O  O730  1  0.983550  0.928570  0.789130  1.0  -0.5639
  O  O731  1  0.008710  0.003710  0.867070  1.0  -0.7481
  O  O732  1  0.828140  0.985380  0.862740  1.0  -0.7468
  O  O733  1  0.865240  0.037680  0.777040  1.0  -0.6354
  O  O734  1  0.703600  0.083890  0.774310  1.0  -0.5982
  O  O735  1  0.557320  0.050640  0.904920  1.0  -0.6849
  O  O736  1  0.514380  0.080770  0.847470  1.0  -0.6637
  O  O737  1  0.533970  0.022550  0.783510  1.0  -0.7203
  O  O738  1  0.352040  0.007710  0.775810  1.0  -0.7433
  O  O739  1  0.165810  0.055890  0.906490  1.0  -0.6278
  O  O740  1  0.330950  0.013850  0.880450  1.0  -0.6481
  O  O741  1  0.095390  0.086960  0.777860  1.0  -0.7109
  O  O742  1  0.009430  0.085080  0.841260  1.0  -0.6013
  O  O743  1  0.609320  0.921700  0.750460  1.0  -0.5675
  O  O744  1  0.473740  0.923020  0.808500  1.0  -0.5641
  O  O745  1  0.319120  0.599880  0.660880  1.0  -0.56
  O  O746  1  0.201250  0.571430  0.710870  1.0  -0.5669
  O  O747  1  0.379490  0.496290  0.632930  1.0  -0.7463
  O  O748  1  0.176260  0.514620  0.637260  1.0  -0.7482
  O  O749  1  0.179960  0.462320  0.722960  1.0  -0.6362
  O  O750  1  0.061800  0.416110  0.725690  1.0  -0.5991
  O  O751  1  0.012880  0.449360  0.595080  1.0  -0.6852
  O  O752  1  0.942620  0.419230  0.652530  1.0  -0.6656
  O  O753  1  0.840030  0.477450  0.716490  1.0  -0.7223
  O  O754  1  0.635560  0.492290  0.724190  1.0  -0.7418
  O  O755  1  0.628190  0.444110  0.593510  1.0  -0.6269
  O  O756  1  0.725250  0.486150  0.619550  1.0  -0.6516
  O  O757  1  0.460210  0.413040  0.722140  1.0  -0.712
  O  O758  1  0.435770  0.414920  0.658740  1.0  -0.6017
  O  O759  1  0.781480  0.578300  0.749540  1.0  -0.5697
  O  O760  1  0.705260  0.576980  0.691500  1.0  -0.5614
  O  O761  1  0.919000  0.160880  0.400120  1.0  -0.5606
  O  O762  1  0.772680  0.210870  0.428570  1.0  -0.5639
  O  O763  1  0.875780  0.132930  0.503710  1.0  -0.7464
  O  O764  1  0.690880  0.137260  0.485380  1.0  -0.7486
  O  O765  1  0.642280  0.222960  0.537680  1.0  -0.6436
  O  O766  1  0.477910  0.225690  0.583890  1.0  -0.5981
  O  O767  1  0.462240  0.095080  0.550640  1.0  -0.6832
  O  O768  1  0.361850  0.152530  0.580770  1.0  -0.6617
  O  O769  1  0.317480  0.216490  0.522550  1.0  -0.7222
  O  O770  1  0.127850  0.224190  0.507710  1.0  -0.7428
  O  O771  1  0.072300  0.093510  0.555890  1.0  -0.6289
  O  O772  1  0.211400  0.119550  0.513850  1.0  -0.6466
  O  O773  1  0.873250  0.222140  0.586960  1.0  -0.7119
  O  O774  1  0.850690  0.158740  0.585080  1.0  -0.5998
  O  O775  1  0.359780  0.249540  0.421700  1.0  -0.5668
  O  O776  1  0.282240  0.191500  0.423020  1.0  -0.5619
  O  O777  1  0.980000  0.339120  0.099880  1.0  -0.5636
  O  O778  1  0.912120  0.289130  0.071430  1.0  -0.5629
  O  O779  1  0.012420  0.367070  0.996290  1.0  -0.7478
  O  O780  1  0.813520  0.362740  0.014620  1.0  -0.7481
  O  O781  1  0.902920  0.277040  0.962320  1.0  -0.644
  O  O782  1  0.787490  0.274310  0.916110  1.0  -0.5951
  O  O783  1  0.607960  0.404920  0.949360  1.0  -0.6818
  O  O784  1  0.595150  0.347470  0.919230  1.0  -0.6618
  O  O785  1  0.556520  0.283510  0.977450  1.0  -0.7205
  O  O786  1  0.359750  0.275810  0.992290  1.0  -0.7431
  O  O787  1  0.221700  0.406490  0.944110  1.0  -0.6277
  O  O788  1  0.344800  0.380450  0.986150  1.0  -0.6488
  O  O789  1  0.182350  0.277860  0.913040  1.0  -0.7119
  O  O790  1  0.094510  0.341260  0.914920  1.0  -0.602
  O  O791  1  0.531020  0.250460  0.078300  1.0  -0.5669
  O  O792  1  0.396760  0.308500  0.076980  1.0  -0.561
