# generated using pymatgen
data_Gd2CoH24C48(NO2)8
_symmetry_space_group_name_H-M   'P 1'
_cell_length_a   10.78360000
_cell_length_b   32.41560000
_cell_length_c   32.41560000
_cell_angle_alpha   88.41460000
_cell_angle_beta   80.42530000
_cell_angle_gamma   80.42530000
_symmetry_Int_Tables_number   1
_chemical_formula_structural   Gd2CoH24C48(NO2)8
_chemical_formula_sum   'Gd16 Co8 H192 C384 N64 O128'
_cell_volume   11017.60053780
_cell_formula_units_Z   8
loop_
 _symmetry_equiv_pos_site_id
 _symmetry_equiv_pos_as_xyz
  1  'x, y, z'
loop_
 _atom_site_type_symbol
 _atom_site_label
 _atom_site_symmetry_multiplicity
 _atom_site_fract_x
 _atom_site_fract_y
 _atom_site_fract_z
 _atom_site_occupancy
 _atom_site_charge
  Gd  Gd1  1  0.808210  0.171830  0.973770  1.0  2.1788
  Gd  Gd2  1  0.305070  0.175270  0.975520  1.0  2.1669
  Gd  Gd3  1  0.453820  0.328170  0.526220  1.0  2.1785
  Gd  Gd4  1  0.955850  0.324730  0.524480  1.0  2.1687
  Gd  Gd5  1  0.781990  0.026220  0.671830  1.0  2.1801
  Gd  Gd6  1  0.280580  0.024480  0.675270  1.0  2.1692
  Gd  Gd7  1  0.980030  0.473780  0.828180  1.0  2.1805
  Gd  Gd8  1  0.480340  0.475520  0.824720  1.0  2.169
  Gd  Gd9  1  0.191800  0.828170  0.026220  1.0  2.1798
  Gd  Gd10  1  0.694940  0.824730  0.024470  1.0  2.1664
  Gd  Gd11  1  0.546180  0.671830  0.473780  1.0  2.1806
  Gd  Gd12  1  0.044150  0.675270  0.475520  1.0  2.1643
  Gd  Gd13  1  0.218010  0.973780  0.328180  1.0  2.1808
  Gd  Gd14  1  0.719420  0.975520  0.324730  1.0  2.1661
  Gd  Gd15  1  0.019970  0.526220  0.171830  1.0  2.1811
  Gd  Gd16  1  0.519660  0.524480  0.175280  1.0  2.166
  Co  Co17  1  0.293580  0.034890  0.127590  1.0  0.7803
  Co  Co18  1  0.956060  0.465110  0.372410  1.0  0.7802
  Co  Co19  1  0.421170  0.872410  0.534890  1.0  0.7816
  Co  Co20  1  0.328470  0.627590  0.965110  1.0  0.7788
  Co  Co21  1  0.706420  0.965110  0.872410  1.0  0.7805
  Co  Co22  1  0.043940  0.534890  0.627590  1.0  0.7812
  Co  Co23  1  0.578830  0.127590  0.465110  1.0  0.7798
  Co  Co24  1  0.671530  0.372410  0.034890  1.0  0.7825
  H  H25  1  0.064800  0.084200  0.185600  1.0  0.079
  H  H26  1  0.043400  0.127700  0.241500  1.0  0.1021
  H  H27  1  0.208600  0.124700  0.278300  1.0  0.1075
  H  H28  1  0.683700  0.956000  0.209600  1.0  0.0857
  H  H29  1  0.734500  0.962100  0.138500  1.0  0.0984
  H  H30  1  0.589500  0.000700  0.102700  1.0  0.0673
  H  H31  1  0.253500  0.970800  0.201000  1.0  0.0619
  H  H32  1  0.351800  0.903800  0.211600  1.0  0.1014
  H  H33  1  0.470700  0.867100  0.155100  1.0  0.0918
  H  H34  1  0.301800  0.960300  0.972900  1.0  0.1076
  H  H35  1  0.340500  0.027500  0.971500  1.0  0.0932
  H  H36  1  0.363200  0.058000  0.031600  1.0  0.0781
  H  H37  1  0.056200  0.995000  0.112600  1.0  0.0546
  H  H38  1  0.938500  0.001900  0.060100  1.0  0.1017
  H  H39  1  0.940900  0.060300  0.018500  1.0  0.0737
  H  H40  1  0.161500  0.208400  0.128800  1.0  0.1064
  H  H41  1  0.354400  0.179600  0.148400  1.0  0.1138
  H  H42  1  0.424100  0.109800  0.138200  1.0  0.0668
  H  H43  1  0.952400  0.368200  0.875400  1.0  0.0639
  H  H44  1  0.034200  0.374000  0.929400  1.0  0.1065
  H  H45  1  0.100700  0.311200  0.957800  1.0  0.0596
  H  H46  1  0.120600  0.135100  0.851300  1.0  0.0849
  H  H47  1  0.273100  0.135200  0.787400  1.0  0.0956
  H  H48  1  0.256600  0.201800  0.759200  1.0  0.0434
  H  H49  1  0.834600  0.415800  0.314400  1.0  0.0784
  H  H50  1  0.912600  0.372300  0.258500  1.0  0.1017
  H  H51  1  0.111600  0.375300  0.221700  1.0  0.1074
  H  H52  1  0.349300  0.544000  0.290400  1.0  0.0855
  H  H53  1  0.335100  0.537900  0.361500  1.0  0.0985
  H  H54  1  0.192900  0.499300  0.397300  1.0  0.0663
  H  H55  1  0.925300  0.529200  0.299000  1.0  0.0633
  H  H56  1  0.967200  0.596200  0.288400  1.0  0.1018
  H  H57  1  0.992900  0.632900  0.344900  1.0  0.0907
  H  H58  1  0.735000  0.539700  0.527100  1.0  0.1075
  H  H59  1  0.839500  0.472500  0.528500  1.0  0.0933
  H  H60  1  0.952800  0.442000  0.468400  1.0  0.0785
  H  H61  1  0.663800  0.505000  0.387400  1.0  0.0538
  H  H62  1  0.500500  0.498100  0.439900  1.0  0.1017
  H  H63  1  0.519700  0.439700  0.481500  1.0  0.0723
  H  H64  1  0.998700  0.291600  0.371200  1.0  0.1062
  H  H65  1  0.182400  0.320400  0.351600  1.0  0.1147
  H  H66  1  0.172100  0.390200  0.361800  1.0  0.0671
  H  H67  1  0.696000  0.131800  0.624600  1.0  0.0638
  H  H68  1  0.837600  0.126000  0.570600  1.0  0.1064
  H  H69  1  0.869700  0.188800  0.542200  1.0  0.059
  H  H70  1  0.607000  0.364900  0.648700  1.0  0.084
  H  H71  1  0.695700  0.364800  0.712600  1.0  0.0944
  H  H72  1  0.717600  0.298200  0.740800  1.0  0.0409
  H  H73  1  0.250400  0.814400  0.584200  1.0  0.0796
  H  H74  1  0.284900  0.758500  0.627700  1.0  0.1025
  H  H75  1  0.486900  0.721700  0.624700  1.0  0.1066
  H  H76  1  0.893300  0.790400  0.456000  1.0  0.0857
  H  H77  1  0.873000  0.861500  0.462100  1.0  0.0987
  H  H78  1  0.692200  0.897300  0.500700  1.0  0.0665
  H  H79  1  0.454500  0.799000  0.470800  1.0  0.0615
  H  H80  1  0.563400  0.788400  0.403800  1.0  0.1023
  H  H81  1  0.625800  0.844900  0.367100  1.0  0.0917
  H  H82  1  0.274700  0.027100  0.460300  1.0  0.1077
  H  H83  1  0.312000  0.028500  0.527500  1.0  0.0935
  H  H84  1  0.394800  0.968400  0.558000  1.0  0.0783
  H  H85  1  0.168800  0.887400  0.495000  1.0  0.0548
  H  H86  1  0.998600  0.939900  0.501900  1.0  0.1014
  H  H87  1  0.959400  0.981500  0.560300  1.0  0.0719
  H  H88  1  0.290300  0.871200  0.708400  1.0  0.1076
  H  H89  1  0.502800  0.851600  0.679600  1.0  0.1139
  H  H90  1  0.562300  0.861800  0.609800  1.0  0.0668
  H  H91  1  0.827800  0.124600  0.868200  1.0  0.0635
  H  H92  1  0.963600  0.070600  0.874000  1.0  0.1059
  H  H93  1  0.058500  0.042200  0.811200  1.0  0.0593
  H  H94  1  0.971900  0.148700  0.635100  1.0  0.0846
  H  H95  1  0.060500  0.212600  0.635200  1.0  0.0955
  H  H96  1  0.015800  0.240800  0.701800  1.0  0.0419
  H  H97  1  0.149000  0.685600  0.915800  1.0  0.0797
  H  H98  1  0.171100  0.741500  0.872300  1.0  0.1013
  H  H99  1  0.333333  0.778300  0.875300  1.0  0.1082
  H  H100  1  0.639700  0.709600  0.044000  1.0  0.0858
  H  H101  1  0.696600  0.638500  0.037900  1.0  0.0991
  H  H102  1  0.590200  0.602700  0.999300  1.0  0.0669
  H  H103  1  0.224300  0.701000  0.029200  1.0  0.0619
  H  H104  1  0.255600  0.711600  0.096200  1.0  0.1023
  H  H105  1  0.337800  0.655100  0.132900  1.0  0.0914
  H  H106  1  0.262100  0.472900  0.039700  1.0  0.1079
  H  H107  1  0.368000  0.471500  0.972500  1.0  0.0928
  H  H108  1  0.421200  0.531600  0.942000  1.0  0.0793
  H  H109  1  0.051200  0.612600  0.005000  1.0  0.0544
  H  H110  1  0.940400  0.560100  0.998100  1.0  0.1019
  H  H111  1  0.001200  0.518500  0.939700  1.0  0.0722
  H  H112  1  0.369900  0.628800  0.791600  1.0  0.1067
  H  H113  1  0.534000  0.648400  0.820400  1.0  0.1143
  H  H114  1  0.533900  0.638200  0.890200  1.0  0.0656
  H  H115  1  0.320600  0.375400  0.631800  1.0  0.0639
  H  H116  1  0.408200  0.429400  0.626000  1.0  0.1053
  H  H117  1  0.411900  0.457800  0.688800  1.0  0.0584
  H  H118  1  0.255700  0.351300  0.864900  1.0  0.0841
  H  H119  1  0.408300  0.287400  0.864800  1.0  0.0959
  H  H120  1  0.458400  0.259200  0.798200  1.0  0.041
  H  H121  1  0.935200  0.915800  0.814400  1.0  0.0792
  H  H122  1  0.956600  0.872300  0.758500  1.0  0.1013
  H  H123  1  0.791400  0.875300  0.721700  1.0  0.1069
  H  H124  1  0.316300  0.044000  0.790400  1.0  0.0855
  H  H125  1  0.265500  0.037900  0.861500  1.0  0.0987
  H  H126  1  0.410500  0.999300  0.897300  1.0  0.0675
  H  H127  1  0.746500  0.029200  0.799000  1.0  0.062
  H  H128  1  0.648200  0.096200  0.788400  1.0  0.1013
  H  H129  1  0.529300  0.132900  0.844900  1.0  0.0909
  H  H130  1  0.698200  0.039700  0.027100  1.0  0.1075
  H  H131  1  0.659500  0.972500  0.028500  1.0  0.0932
  H  H132  1  0.636800  0.942000  0.968400  1.0  0.0781
  H  H133  1  0.943800  0.005000  0.887400  1.0  0.0548
  H  H134  1  0.061500  0.998100  0.939900  1.0  0.1019
  H  H135  1  0.059100  0.939700  0.981500  1.0  0.0734
  H  H136  1  0.838500  0.791600  0.871200  1.0  0.1067
  H  H137  1  0.645600  0.820400  0.851600  1.0  0.1136
  H  H138  1  0.575900  0.890200  0.861800  1.0  0.066
  H  H139  1  0.047600  0.631800  0.124600  1.0  0.0637
  H  H140  1  0.965800  0.626000  0.070600  1.0  0.1064
  H  H141  1  0.899300  0.688800  0.042200  1.0  0.0595
  H  H142  1  0.879400  0.864900  0.148700  1.0  0.0843
  H  H143  1  0.726900  0.864800  0.212600  1.0  0.0963
  H  H144  1  0.743400  0.798200  0.240800  1.0  0.0424
  H  H145  1  0.165400  0.584200  0.685600  1.0  0.08
  H  H146  1  0.087400  0.627700  0.741500  1.0  0.1019
  H  H147  1  0.888400  0.624700  0.778300  1.0  0.1079
  H  H148  1  0.650700  0.456000  0.709600  1.0  0.086
  H  H149  1  0.664900  0.462100  0.638500  1.0  0.0987
  H  H150  1  0.807100  0.500700  0.602700  1.0  0.0667
  H  H151  1  0.074700  0.470800  0.701000  1.0  0.0629
  H  H152  1  0.032800  0.403800  0.711600  1.0  0.1029
  H  H153  1  0.007100  0.367100  0.655100  1.0  0.0913
  H  H154  1  0.265000  0.460300  0.472900  1.0  0.1085
  H  H155  1  0.160500  0.527500  0.471500  1.0  0.0932
  H  H156  1  0.047200  0.558000  0.531600  1.0  0.0782
  H  H157  1  0.336200  0.495000  0.612600  1.0  0.0546
  H  H158  1  0.499500  0.501900  0.560100  1.0  0.1023
  H  H159  1  0.480300  0.560300  0.518500  1.0  0.0722
  H  H160  1  0.001300  0.708400  0.628800  1.0  0.1064
  H  H161  1  0.817600  0.679600  0.648400  1.0  0.1146
  H  H162  1  0.827900  0.609800  0.638200  1.0  0.0668
  H  H163  1  0.304000  0.868200  0.375400  1.0  0.0644
  H  H164  1  0.162400  0.874000  0.429400  1.0  0.1068
  H  H165  1  0.130300  0.811200  0.457800  1.0  0.0591
  H  H166  1  0.393000  0.635100  0.351300  1.0  0.0844
  H  H167  1  0.304300  0.635200  0.287400  1.0  0.095
  H  H168  1  0.282400  0.701800  0.259200  1.0  0.0433
  H  H169  1  0.749600  0.185600  0.415800  1.0  0.0798
  H  H170  1  0.715100  0.241500  0.372300  1.0  0.1017
  H  H171  1  0.513100  0.278300  0.375300  1.0  0.106
  H  H172  1  0.106700  0.209600  0.544000  1.0  0.0858
  H  H173  1  0.127000  0.138500  0.537900  1.0  0.0991
  H  H174  1  0.307800  0.102700  0.499300  1.0  0.0669
  H  H175  1  0.545500  0.201000  0.529200  1.0  0.0622
  H  H176  1  0.436600  0.211600  0.596200  1.0  0.1021
  H  H177  1  0.374200  0.155100  0.632900  1.0  0.0912
  H  H178  1  0.725300  0.972900  0.539700  1.0  0.1076
  H  H179  1  0.688000  0.971500  0.472500  1.0  0.0928
  H  H180  1  0.605200  0.031600  0.442000  1.0  0.0781
  H  H181  1  0.831200  0.112600  0.505000  1.0  0.0548
  H  H182  1  0.001400  0.060100  0.498100  1.0  0.1013
  H  H183  1  0.040600  0.018500  0.439700  1.0  0.0719
  H  H184  1  0.709700  0.128800  0.291600  1.0  0.107
  H  H185  1  0.497200  0.148400  0.320400  1.0  0.1141
  H  H186  1  0.437700  0.138200  0.390200  1.0  0.0652
  H  H187  1  0.172200  0.875400  0.131800  1.0  0.0635
  H  H188  1  0.036400  0.929400  0.126000  1.0  0.1061
  H  H189  1  0.941500  0.957800  0.188800  1.0  0.0586
  H  H190  1  0.028100  0.851300  0.364900  1.0  0.0844
  H  H191  1  0.939500  0.787400  0.364800  1.0  0.0958
  H  H192  1  0.984200  0.759200  0.298200  1.0  0.0418
  H  H193  1  0.851000  0.314400  0.084200  1.0  0.0804
  H  H194  1  0.828900  0.258500  0.127700  1.0  0.1017
  H  H195  1  0.666667  0.221700  0.124700  1.0  0.1083
  H  H196  1  0.360300  0.290400  0.956000  1.0  0.0853
  H  H197  1  0.303400  0.361500  0.962100  1.0  0.0987
  H  H198  1  0.409800  0.397300  0.000700  1.0  0.0668
  H  H199  1  0.775700  0.299000  0.970800  1.0  0.0619
  H  H200  1  0.744400  0.288400  0.903800  1.0  0.1028
  H  H201  1  0.662200  0.344900  0.867100  1.0  0.0919
  H  H202  1  0.737900  0.527100  0.960300  1.0  0.1083
  H  H203  1  0.632000  0.528500  0.027500  1.0  0.0938
  H  H204  1  0.578800  0.468400  0.058000  1.0  0.0779
  H  H205  1  0.948800  0.387400  0.995000  1.0  0.0568
  H  H206  1  0.059600  0.439900  0.001900  1.0  0.1018
  H  H207  1  0.998800  0.481500  0.060300  1.0  0.0722
  H  H208  1  0.630100  0.371200  0.208400  1.0  0.1076
  H  H209  1  0.466000  0.351600  0.179600  1.0  0.1141
  H  H210  1  0.466100  0.361800  0.109800  1.0  0.0656
  H  H211  1  0.679400  0.624600  0.368200  1.0  0.0637
  H  H212  1  0.591800  0.570600  0.374000  1.0  0.1059
  H  H213  1  0.588100  0.542200  0.311200  1.0  0.0588
  H  H214  1  0.744300  0.648700  0.135100  1.0  0.084
  H  H215  1  0.591700  0.712600  0.135200  1.0  0.0969
  H  H216  1  0.541600  0.740800  0.201800  1.0  0.0412
  C  C217  1  0.131800  0.083100  0.200500  1.0  0.1047
  C  C218  1  0.484050  0.989160  0.261540  1.0  0.6811
  C  C219  1  0.181000  0.241100  0.929900  1.0  0.7214
  C  C220  1  0.118500  0.109000  0.233800  1.0  -0.1592
  C  C221  1  0.216000  0.107100  0.255500  1.0  -0.0617
  C  C222  1  0.325460  0.079250  0.243830  1.0  -0.1059
  C  C223  1  0.434810  0.078390  0.267990  1.0  0.6796
  C  C224  1  0.333880  0.053770  0.210270  1.0  0.2041
  C  C225  1  0.446760  0.023740  0.193340  1.0  0.2203
  C  C226  1  0.977200  0.194600  0.905200  1.0  0.5992
  C  C227  1  0.522460  0.997140  0.215940  1.0  -0.0768
  C  C228  1  0.629710  0.973890  0.194890  1.0  -0.0295
  C  C229  1  0.658300  0.976500  0.152900  1.0  -0.1244
  C  C230  1  0.573600  0.000500  0.131900  1.0  0.1234
  C  C231  1  0.295900  0.954700  0.178100  1.0  0.106
  C  C232  1  0.356700  0.915200  0.184800  1.0  -0.1221
  C  C233  1  0.424100  0.893400  0.151200  1.0  -0.009
  C  C234  1  0.424900  0.909100  0.111700  1.0  -0.0817
  C  C235  1  0.352900  0.947400  0.107200  1.0  0.1749
  C  C236  1  0.342700  0.968200  0.067200  1.0  0.1609
  C  C237  1  0.317320  0.949480  0.032880  1.0  -0.0481
  C  C238  1  0.316590  0.972210  0.997010  1.0  -0.1342
  C  C239  1  0.337410  0.012240  0.996340  1.0  -0.0862
  C  C240  1  0.353500  0.030000  0.031800  1.0  0.0766
  C  C241  1  0.275720  0.907880  0.034880  1.0  0.6685
  C  C242  1  0.514100  0.885600  0.076600  1.0  0.694
  C  C243  1  0.053000  0.019200  0.096400  1.0  0.1593
  C  C244  1  0.984700  0.022500  0.065100  1.0  -0.1184
  C  C245  1  0.985900  0.057300  0.040900  1.0  -0.0134
  C  C246  1  0.052220  0.088300  0.048460  1.0  -0.1284
  C  C247  1  0.110110  0.083690  0.083690  1.0  0.2002
  C  C248  1  0.174510  0.114600  0.099980  1.0  0.2027
  C  C249  1  0.128420  0.156120  0.105440  1.0  -0.053
  C  C250  1  0.193650  0.180170  0.124130  1.0  -0.0751
  C  C251  1  0.307060  0.163180  0.136300  1.0  -0.1852
  C  C252  1  0.347400  0.121780  0.130020  1.0  0.1596
  C  C253  1  0.005420  0.175980  0.091980  1.0  0.6781
  C  C254  1  0.063920  0.122750  0.018210  1.0  0.7032
  C  C255  1  0.999800  0.343700  0.883700  1.0  0.0314
  C  C256  1  0.037700  0.348400  0.916600  1.0  -0.1162
  C  C257  1  0.083600  0.312000  0.930600  1.0  -0.1043
  C  C258  1  0.109400  0.274600  0.909200  1.0  0.08
  C  C259  1  0.080100  0.270300  0.871500  1.0  0.0392
  C  C260  1  0.113900  0.232500  0.847100  1.0  0.2996
  C  C261  1  0.074100  0.199200  0.864400  1.0  -0.0745
  C  C262  1  0.138300  0.160600  0.840000  1.0  -0.0825
  C  C263  1  0.224800  0.159000  0.800800  1.0  -0.1769
  C  C264  1  0.222000  0.199000  0.787200  1.0  0.1347
  C  C265  1  0.915400  0.416900  0.299500  1.0  0.1026
  C  C266  1  0.234750  0.510840  0.238460  1.0  0.6803
  C  C267  1  0.852000  0.258900  0.570100  1.0  0.7207
  C  C268  1  0.961300  0.391000  0.266200  1.0  -0.1568
  C  C269  1  0.078600  0.392900  0.244500  1.0  -0.0627
  C  C270  1  0.148540  0.420750  0.256170  1.0  -0.1059
  C  C271  1  0.281190  0.421610  0.232010  1.0  0.6815
  C  C272  1  0.097920  0.446230  0.289730  1.0  0.2049
  C  C273  1  0.163840  0.476260  0.306660  1.0  0.2195
  C  C274  1  0.577000  0.305400  0.594800  1.0  0.5986
  C  C275  1  0.235540  0.502860  0.284060  1.0  -0.079
  C  C276  1  0.298490  0.526110  0.305110  1.0  -0.0296
  C  C277  1  0.287700  0.523500  0.347100  1.0  -0.1227
  C  C278  1  0.206000  0.499500  0.368100  1.0  0.124
  C  C279  1  0.928700  0.545300  0.321900  1.0  0.1058
  C  C280  1  0.956700  0.584800  0.315200  1.0  -0.1231
  C  C281  1  0.968700  0.606600  0.348800  1.0  -0.0083
  C  C282  1  0.945700  0.590900  0.388300  1.0  -0.0801
  C  C283  1  0.907500  0.552600  0.392800  1.0  0.175
  C  C284  1  0.878100  0.531800  0.432800  1.0  0.1606
  C  C285  1  0.799680  0.550520  0.467120  1.0  -0.044
  C  C286  1  0.785810  0.527790  0.502990  1.0  -0.1319
  C  C287  1  0.845990  0.487760  0.503660  1.0  -0.0861
  C  C288  1  0.915300  0.470000  0.468200  1.0  0.0782
  C  C289  1  0.718480  0.592120  0.465120  1.0  0.6689
  C  C290  1  0.976300  0.614400  0.423400  1.0  0.6966
  C  C291  1  0.668600  0.480800  0.403600  1.0  0.1618
  C  C292  1  0.572300  0.477500  0.434900  1.0  -0.1203
  C  C293  1  0.584100  0.442700  0.459100  1.0  -0.0151
  C  C294  1  0.688980  0.411700  0.451540  1.0  -0.1279
  C  C295  1  0.777490  0.416310  0.416310  1.0  0.2004
  C  C296  1  0.889090  0.385400  0.400020  1.0  0.202
  C  C297  1  0.889980  0.343880  0.394560  1.0  -0.0529
  C  C298  1  0.997950  0.319830  0.375870  1.0  -0.0751
  C  C299  1  0.106540  0.336820  0.363700  1.0  -0.1853
  C  C300  1  0.099200  0.378220  0.369980  1.0  0.159
  C  C301  1  0.773380  0.324020  0.408020  1.0  0.6806
  C  C302  1  0.704880  0.377250  0.481790  1.0  0.7019
  C  C303  1  0.727200  0.156300  0.616300  1.0  0.0311
  C  C304  1  0.802700  0.151600  0.583400  1.0  -0.1152
  C  C305  1  0.826200  0.188000  0.569400  1.0  -0.1064
  C  C306  1  0.793200  0.225400  0.590800  1.0  0.0805
  C  C307  1  0.721900  0.229700  0.628500  1.0  0.0413
  C  C308  1  0.693500  0.267500  0.652900  1.0  0.297
  C  C309  1  0.637700  0.300800  0.635600  1.0  -0.0727
  C  C310  1  0.638900  0.339400  0.660000  1.0  -0.0845
  C  C311  1  0.684600  0.341000  0.699200  1.0  -0.1746
  C  C312  1  0.708200  0.301000  0.712800  1.0  0.1368
  C  C313  1  0.332300  0.799500  0.583100  1.0  0.1034
  C  C314  1  0.745590  0.738460  0.489160  1.0  0.6767
  C  C315  1  0.110900  0.070100  0.741100  1.0  0.7216
  C  C316  1  0.352300  0.766200  0.609000  1.0  -0.1612
  C  C317  1  0.471500  0.744500  0.607100  1.0  -0.0587
  C  C318  1  0.569290  0.756170  0.579250  1.0  -0.1044
  C  C319  1  0.702800  0.732010  0.578390  1.0  0.6808
  C  C320  1  0.544150  0.789730  0.553770  1.0  0.204
  C  C321  1  0.640100  0.806660  0.523740  1.0  0.2199
  C  C322  1  0.882400  0.094800  0.694600  1.0  0.6011
  C  C323  1  0.738400  0.784060  0.497140  1.0  -0.0822
  C  C324  1  0.824600  0.805110  0.473890  1.0  -0.0296
  C  C325  1  0.811200  0.847100  0.476500  1.0  -0.1213
  C  C326  1  0.705500  0.868100  0.500500  1.0  0.1246
  C  C327  1  0.474000  0.821900  0.454700  1.0  0.1061
  C  C328  1  0.541500  0.815200  0.415200  1.0  -0.1232
  C  C329  1  0.575300  0.848800  0.393400  1.0  -0.0056
  C  C330  1  0.536600  0.888300  0.409100  1.0  -0.0837
  C  C331  1  0.460100  0.892800  0.447400  1.0  0.1769
  C  C332  1  0.409900  0.932800  0.468200  1.0  0.1613
  C  C333  1  0.350200  0.967120  0.449480  1.0  -0.0476
  C  C334  1  0.313600  0.002990  0.472210  1.0  -0.1367
  C  C335  1  0.333750  0.003660  0.512240  1.0  -0.0812
  C  C336  1  0.385300  0.968200  0.530000  1.0  0.0799
  C  C337  1  0.310600  0.965120  0.407880  1.0  0.6739
  C  C338  1  0.590700  0.923400  0.385600  1.0  0.6977
  C  C339  1  0.149400  0.903600  0.519200  1.0  0.155
  C  C340  1  0.049800  0.934900  0.522500  1.0  -0.1182
  C  C341  1  0.026800  0.959100  0.557300  1.0  -0.0142
  C  C342  1  0.100680  0.951540  0.588300  1.0  -0.1255
  C  C343  1  0.193800  0.916310  0.583690  1.0  0.2009
  C  C344  1  0.274490  0.900020  0.614600  1.0  0.2036
  C  C345  1  0.233860  0.894560  0.656120  1.0  -0.0537
  C  C346  1  0.317780  0.875870  0.680170  1.0  -0.0731
  C  C347  1  0.443360  0.863700  0.663180  1.0  -0.1823
  C  C348  1  0.477420  0.869980  0.621780  1.0  0.1599
  C  C349  1  0.097400  0.908020  0.675980  1.0  0.6799
  C  C350  1  0.082130  0.981790  0.622750  1.0  0.6986
  C  C351  1  0.883500  0.116300  0.843700  1.0  0.0308
  C  C352  1  0.954300  0.083400  0.848400  1.0  -0.1178
  C  C353  1  0.014200  0.069400  0.812000  1.0  -0.1082
  C  C354  1  0.018600  0.090800  0.774600  1.0  0.0799
  C  C355  1  0.951600  0.128500  0.770300  1.0  0.0407
  C  C356  1  0.961000  0.152900  0.732500  1.0  0.301
  C  C357  1  0.938500  0.135600  0.699200  1.0  -0.0743
  C  C358  1  0.978300  0.160000  0.660600  1.0  -0.0809
  C  C359  1  0.025600  0.199200  0.659000  1.0  -0.1755
  C  C360  1  0.009200  0.212800  0.699000  1.0  0.1332
  C  C361  1  0.214900  0.700500  0.916900  1.0  0.1028
  C  C362  1  0.473210  0.761540  0.010840  1.0  0.677
  C  C363  1  0.422100  0.429900  0.758900  1.0  0.7267
  C  C364  1  0.227500  0.733800  0.891000  1.0  -0.149
  C  C365  1  0.323100  0.755500  0.892900  1.0  -0.0637
  C  C366  1  0.404710  0.743830  0.920750  1.0  -0.1041
  C  C367  1  0.513200  0.767990  0.921610  1.0  0.6809
  C  C368  1  0.387650  0.710270  0.946230  1.0  0.2034
  C  C369  1  0.470500  0.693340  0.976260  1.0  0.2197
  C  C370  1  0.171800  0.405200  0.805400  1.0  0.6032
  C  C371  1  0.519600  0.715940  0.002860  1.0  -0.0811
  C  C372  1  0.603600  0.694890  0.026110  1.0  -0.0302
  C  C373  1  0.634800  0.652900  0.023500  1.0  -0.1224
  C  C374  1  0.574100  0.631900  0.999500  1.0  0.1231
  C  C375  1  0.250600  0.678100  0.045300  1.0  0.1068
  C  C376  1  0.271900  0.684800  0.084800  1.0  -0.1199
  C  C377  1  0.317500  0.651200  0.106600  1.0  -0.0028
  C  C378  1  0.334000  0.611700  0.090900  1.0  -0.0794
  C  C379  1  0.300300  0.607200  0.052600  1.0  0.176
  C  C380  1  0.310900  0.567200  0.031800  1.0  0.1616
  C  C381  1  0.266800  0.532880  0.050520  1.0  -0.0491
  C  C382  1  0.288800  0.497010  0.027790  1.0  -0.1341
  C  C383  1  0.349650  0.496340  0.987760  1.0  -0.0835
  C  C384  1  0.383500  0.531800  0.970000  1.0  0.0771
  C  C385  1  0.183600  0.534880  0.092120  1.0  0.669
  C  C386  1  0.399700  0.576600  0.114400  1.0  0.7006
  C  C387  1  0.072200  0.596400  0.980800  1.0  0.1571
  C  C388  1  0.007200  0.565100  0.977500  1.0  -0.1189
  C  C389  1  0.043200  0.540900  0.942700  1.0  -0.0134
  C  C390  1  0.140520  0.548460  0.911700  1.0  -0.1276
  C  C391  1  0.193800  0.583690  0.916310  1.0  0.2022
  C  C392  1  0.289110  0.599980  0.885400  1.0  0.2049
  C  C393  1  0.284540  0.605440  0.843880  1.0  -0.0473
  C  C394  1  0.373820  0.624130  0.819830  1.0  -0.0655
  C  C395  1  0.470240  0.636300  0.836820  1.0  -0.186
  C  C396  1  0.469180  0.630020  0.878220  1.0  0.1627
  C  C397  1  0.181400  0.591980  0.824020  1.0  0.6808
  C  C398  1  0.186670  0.518210  0.877250  1.0  0.6998
  C  C399  1  0.343500  0.383700  0.656300  1.0  0.0308
  C  C400  1  0.386100  0.416600  0.651600  1.0  -0.1191
  C  C401  1  0.395600  0.430600  0.688000  1.0  -0.1068
  C  C402  1  0.384000  0.409200  0.725400  1.0  0.0806
  C  C403  1  0.350400  0.371500  0.729700  1.0  0.039
  C  C404  1  0.346400  0.347100  0.767500  1.0  0.2997
  C  C405  1  0.273300  0.364400  0.800800  1.0  -0.0741
  C  C406  1  0.298900  0.340000  0.839400  1.0  -0.0816
  C  C407  1  0.383800  0.300800  0.841000  1.0  -0.1745
  C  C408  1  0.421000  0.287200  0.801000  1.0  0.1319
  C  C409  1  0.868200  0.916900  0.799500  1.0  0.1045
  C  C410  1  0.515950  0.010840  0.738460  1.0  0.6802
  C  C411  1  0.819000  0.758900  0.070100  1.0  0.7205
  C  C412  1  0.881500  0.891000  0.766200  1.0  -0.1578
  C  C413  1  0.784000  0.892900  0.744500  1.0  -0.0609
  C  C414  1  0.674540  0.920750  0.756170  1.0  -0.1076
  C  C415  1  0.565190  0.921610  0.732010  1.0  0.682
  C  C416  1  0.666120  0.946230  0.789730  1.0  0.2035
  C  C417  1  0.553240  0.976260  0.806660  1.0  0.219
  C  C418  1  0.022800  0.805400  0.094800  1.0  0.6001
  C  C419  1  0.477540  0.002860  0.784060  1.0  -0.0764
  C  C420  1  0.370290  0.026110  0.805110  1.0  -0.0292
  C  C421  1  0.341700  0.023500  0.847100  1.0  -0.1246
  C  C422  1  0.426400  0.999500  0.868100  1.0  0.1238
  C  C423  1  0.704100  0.045300  0.821900  1.0  0.1061
  C  C424  1  0.643300  0.084800  0.815200  1.0  -0.1201
  C  C425  1  0.575900  0.106600  0.848800  1.0  -0.0074
  C  C426  1  0.575100  0.090900  0.888300  1.0  -0.0797
  C  C427  1  0.647100  0.052600  0.892800  1.0  0.1744
  C  C428  1  0.657300  0.031800  0.932800  1.0  0.161
  C  C429  1  0.682680  0.050520  0.967120  1.0  -0.0449
  C  C430  1  0.683410  0.027790  0.002990  1.0  -0.1323
  C  C431  1  0.662590  0.987760  0.003660  1.0  -0.0852
  C  C432  1  0.646500  0.970000  0.968200  1.0  0.0775
  C  C433  1  0.724280  0.092120  0.965120  1.0  0.6686
  C  C434  1  0.485900  0.114400  0.923400  1.0  0.6949
  C  C435  1  0.947000  0.980800  0.903600  1.0  0.1581
  C  C436  1  0.015300  0.977500  0.934900  1.0  -0.1164
  C  C437  1  0.014100  0.942700  0.959100  1.0  -0.0124
  C  C438  1  0.947780  0.911700  0.951540  1.0  -0.127
  C  C439  1  0.889890  0.916310  0.916310  1.0  0.2003
  C  C440  1  0.825490  0.885400  0.900020  1.0  0.2039
  C  C441  1  0.871580  0.843880  0.894560  1.0  -0.0506
  C  C442  1  0.806350  0.819830  0.875870  1.0  -0.0754
  C  C443  1  0.692940  0.836820  0.863700  1.0  -0.182
  C  C444  1  0.652600  0.878220  0.869980  1.0  0.1592
  C  C445  1  0.994580  0.824020  0.908020  1.0  0.678
  C  C446  1  0.936080  0.877250  0.981790  1.0  0.704
  C  C447  1  0.000200  0.656300  0.116300  1.0  0.0324
  C  C448  1  0.962300  0.651600  0.083400  1.0  -0.1164
  C  C449  1  0.916400  0.688000  0.069400  1.0  -0.1065
  C  C450  1  0.890600  0.725400  0.090800  1.0  0.08
  C  C451  1  0.919900  0.729700  0.128500  1.0  0.0405
  C  C452  1  0.886100  0.767500  0.152900  1.0  0.2984
  C  C453  1  0.925900  0.800800  0.135600  1.0  -0.0738
  C  C454  1  0.861700  0.839400  0.160000  1.0  -0.0827
  C  C455  1  0.775200  0.841000  0.199200  1.0  -0.1768
  C  C456  1  0.778000  0.801000  0.212800  1.0  0.1365
  C  C457  1  0.084600  0.583100  0.700500  1.0  0.1011
  C  C458  1  0.765250  0.489160  0.761540  1.0  0.6795
  C  C459  1  0.148000  0.741100  0.429900  1.0  0.7217
  C  C460  1  0.038700  0.609000  0.733800  1.0  -0.1574
  C  C461  1  0.921400  0.607100  0.755500  1.0  -0.0635
  C  C462  1  0.851460  0.579250  0.743830  1.0  -0.1075
  C  C463  1  0.718810  0.578390  0.767990  1.0  0.6787
  C  C464  1  0.902080  0.553770  0.710270  1.0  0.2029
  C  C465  1  0.836160  0.523740  0.693340  1.0  0.2195
  C  C466  1  0.423000  0.694600  0.405200  1.0  0.6009
  C  C467  1  0.764460  0.497140  0.715940  1.0  -0.0766
  C  C468  1  0.701510  0.473890  0.694890  1.0  -0.03
  C  C469  1  0.712300  0.476500  0.652900  1.0  -0.1255
  C  C470  1  0.794000  0.500500  0.631900  1.0  0.1241
  C  C471  1  0.071300  0.454700  0.678100  1.0  0.1065
  C  C472  1  0.043300  0.415200  0.684800  1.0  -0.1246
  C  C473  1  0.031300  0.393400  0.651200  1.0  -0.0076
  C  C474  1  0.054300  0.409100  0.611700  1.0  -0.0805
  C  C475  1  0.092500  0.447400  0.607200  1.0  0.1742
  C  C476  1  0.121900  0.468200  0.567200  1.0  0.1602
  C  C477  1  0.200320  0.449480  0.532880  1.0  -0.0469
  C  C478  1  0.214190  0.472210  0.497010  1.0  -0.1353
  C  C479  1  0.154010  0.512240  0.496340  1.0  -0.0869
  C  C480  1  0.084700  0.530000  0.531800  1.0  0.0772
  C  C481  1  0.281520  0.407880  0.534880  1.0  0.6684
  C  C482  1  0.023700  0.385600  0.576600  1.0  0.6977
  C  C483  1  0.331400  0.519200  0.596400  1.0  0.162
  C  C484  1  0.427700  0.522500  0.565100  1.0  -0.1182
  C  C485  1  0.415900  0.557300  0.540900  1.0  -0.0134
  C  C486  1  0.311020  0.588300  0.548460  1.0  -0.1277
  C  C487  1  0.222510  0.583690  0.583690  1.0  0.2011
  C  C488  1  0.110910  0.614600  0.599980  1.0  0.2034
  C  C489  1  0.110020  0.656120  0.605440  1.0  -0.0504
  C  C490  1  0.002050  0.680170  0.624130  1.0  -0.0736
  C  C491  1  0.893460  0.663180  0.636300  1.0  -0.1852
  C  C492  1  0.900800  0.621780  0.630020  1.0  0.1585
  C  C493  1  0.226620  0.675980  0.591980  1.0  0.678
  C  C494  1  0.295120  0.622750  0.518210  1.0  0.7022
  C  C495  1  0.272800  0.843700  0.383700  1.0  0.0304
  C  C496  1  0.197300  0.848400  0.416600  1.0  -0.1155
  C  C497  1  0.173800  0.812000  0.430600  1.0  -0.1045
  C  C498  1  0.206800  0.774600  0.409200  1.0  0.0803
  C  C499  1  0.278100  0.770300  0.371500  1.0  0.0397
  C  C500  1  0.306500  0.732500  0.347100  1.0  0.298
  C  C501  1  0.362300  0.699200  0.364400  1.0  -0.0738
  C  C502  1  0.361100  0.660600  0.340000  1.0  -0.0811
  C  C503  1  0.315400  0.659000  0.300800  1.0  -0.1773
  C  C504  1  0.291800  0.699000  0.287200  1.0  0.1359
  C  C505  1  0.667700  0.200500  0.416900  1.0  0.1042
  C  C506  1  0.254410  0.261540  0.510840  1.0  0.6772
  C  C507  1  0.889100  0.929900  0.258900  1.0  0.7224
  C  C508  1  0.647700  0.233800  0.391000  1.0  -0.1583
  C  C509  1  0.528500  0.255500  0.392900  1.0  -0.0589
  C  C510  1  0.430710  0.243830  0.420750  1.0  -0.1067
  C  C511  1  0.297200  0.267990  0.421610  1.0  0.6795
  C  C512  1  0.455850  0.210270  0.446230  1.0  0.2026
  C  C513  1  0.359900  0.193340  0.476260  1.0  0.2208
  C  C514  1  0.117600  0.905200  0.305400  1.0  0.6028
  C  C515  1  0.261600  0.215940  0.502860  1.0  -0.0809
  C  C516  1  0.175400  0.194890  0.526110  1.0  -0.0296
  C  C517  1  0.188800  0.152900  0.523500  1.0  -0.1236
  C  C518  1  0.294500  0.131900  0.499500  1.0  0.1256
  C  C519  1  0.526000  0.178100  0.545300  1.0  0.1066
  C  C520  1  0.458500  0.184800  0.584800  1.0  -0.1208
  C  C521  1  0.424700  0.151200  0.606600  1.0  -0.0035
  C  C522  1  0.463400  0.111700  0.590900  1.0  -0.082
  C  C523  1  0.539900  0.107200  0.552600  1.0  0.1758
  C  C524  1  0.590100  0.067200  0.531800  1.0  0.1613
  C  C525  1  0.649800  0.032880  0.550520  1.0  -0.0493
  C  C526  1  0.686400  0.997010  0.527790  1.0  -0.1347
  C  C527  1  0.666250  0.996340  0.487760  1.0  -0.0816
  C  C528  1  0.614700  0.031800  0.470000  1.0  0.0801
  C  C529  1  0.689400  0.034880  0.592120  1.0  0.6739
  C  C530  1  0.409300  0.076600  0.614400  1.0  0.6978
  C  C531  1  0.850600  0.096400  0.480800  1.0  0.1551
  C  C532  1  0.950200  0.065100  0.477500  1.0  -0.1165
  C  C533  1  0.973200  0.040900  0.442700  1.0  -0.0141
  C  C534  1  0.899320  0.048460  0.411700  1.0  -0.1261
  C  C535  1  0.806200  0.083690  0.416310  1.0  0.202
  C  C536  1  0.725510  0.099980  0.385400  1.0  0.2048
  C  C537  1  0.766140  0.105440  0.343880  1.0  -0.0521
  C  C538  1  0.682220  0.124130  0.319830  1.0  -0.0651
  C  C539  1  0.556640  0.136300  0.336820  1.0  -0.1825
  C  C540  1  0.522580  0.130020  0.378220  1.0  0.1604
  C  C541  1  0.902600  0.091980  0.324020  1.0  0.6786
  C  C542  1  0.917870  0.018210  0.377250  1.0  0.6987
  C  C543  1  0.116500  0.883700  0.156300  1.0  0.0311
  C  C544  1  0.045700  0.916600  0.151600  1.0  -0.1191
  C  C545  1  0.985800  0.930600  0.188000  1.0  -0.1086
  C  C546  1  0.981400  0.909200  0.225400  1.0  0.0811
  C  C547  1  0.048400  0.871500  0.229700  1.0  0.0392
  C  C548  1  0.039000  0.847100  0.267500  1.0  0.3
  C  C549  1  0.061500  0.864400  0.300800  1.0  -0.0743
  C  C550  1  0.021700  0.840000  0.339400  1.0  -0.0795
  C  C551  1  0.974400  0.800800  0.341000  1.0  -0.1764
  C  C552  1  0.990800  0.787200  0.301000  1.0  0.1312
  C  C553  1  0.785100  0.299500  0.083100  1.0  0.1006
  C  C554  1  0.526790  0.238460  0.989160  1.0  0.6752
  C  C555  1  0.577900  0.570100  0.241100  1.0  0.7249
  C  C556  1  0.772500  0.266200  0.109000  1.0  -0.1494
  C  C557  1  0.676900  0.244500  0.107100  1.0  -0.063
  C  C558  1  0.595290  0.256170  0.079250  1.0  -0.1072
  C  C559  1  0.486800  0.232010  0.078390  1.0  0.6801
  C  C560  1  0.612350  0.289730  0.053770  1.0  0.2019
  C  C561  1  0.529500  0.306660  0.023740  1.0  0.2193
  C  C562  1  0.828200  0.594800  0.194600  1.0  0.6046
  C  C563  1  0.480400  0.284060  0.997140  1.0  -0.0816
  C  C564  1  0.396400  0.305110  0.973890  1.0  -0.0305
  C  C565  1  0.365200  0.347100  0.976500  1.0  -0.1223
  C  C566  1  0.425900  0.368100  0.000500  1.0  0.1228
  C  C567  1  0.749400  0.321900  0.954700  1.0  0.1087
  C  C568  1  0.728100  0.315200  0.915200  1.0  -0.1233
  C  C569  1  0.682500  0.348800  0.893400  1.0  -0.001
  C  C570  1  0.666000  0.388300  0.909100  1.0  -0.0821
  C  C571  1  0.699700  0.392800  0.947400  1.0  0.1765
  C  C572  1  0.689100  0.432800  0.968200  1.0  0.1613
  C  C573  1  0.733200  0.467120  0.949480  1.0  -0.0477
  C  C574  1  0.711200  0.502990  0.972210  1.0  -0.1377
  C  C575  1  0.650350  0.503660  0.012240  1.0  -0.0799
  C  C576  1  0.616500  0.468200  0.030000  1.0  0.077
  C  C577  1  0.816400  0.465120  0.907880  1.0  0.6697
  C  C578  1  0.600300  0.423400  0.885600  1.0  0.7004
  C  C579  1  0.927800  0.403600  0.019200  1.0  0.1563
  C  C580  1  0.992800  0.434900  0.022500  1.0  -0.1168
  C  C581  1  0.956800  0.459100  0.057300  1.0  -0.0107
  C  C582  1  0.859480  0.451540  0.088300  1.0  -0.1251
  C  C583  1  0.806200  0.416310  0.083690  1.0  0.2016
  C  C584  1  0.710890  0.400020  0.114600  1.0  0.2042
  C  C585  1  0.715460  0.394560  0.156120  1.0  -0.0441
  C  C586  1  0.626180  0.375870  0.180170  1.0  -0.0723
  C  C587  1  0.529760  0.363700  0.163180  1.0  -0.1857
  C  C588  1  0.530820  0.369980  0.121780  1.0  0.1621
  C  C589  1  0.818600  0.408020  0.175980  1.0  0.6805
  C  C590  1  0.813330  0.481790  0.122750  1.0  0.6997
  C  C591  1  0.656500  0.616300  0.343700  1.0  0.0313
  C  C592  1  0.613900  0.583400  0.348400  1.0  -0.1195
  C  C593  1  0.604400  0.569400  0.312000  1.0  -0.1081
  C  C594  1  0.616000  0.590800  0.274600  1.0  0.0796
  C  C595  1  0.649600  0.628500  0.270300  1.0  0.0411
  C  C596  1  0.653600  0.652900  0.232500  1.0  0.3011
  C  C597  1  0.726700  0.635600  0.199200  1.0  -0.0739
  C  C598  1  0.701100  0.660000  0.160600  1.0  -0.0822
  C  C599  1  0.616200  0.699200  0.159000  1.0  -0.1767
  C  C600  1  0.579000  0.712800  0.199000  1.0  0.133
  N  N601  1  0.238730  0.056280  0.188860  1.0  -0.3092
  N  N602  1  0.468400  0.023790  0.151810  1.0  -0.3111
  N  N603  1  0.294590  0.970930  0.140490  1.0  -0.3449
  N  N604  1  0.355720  0.008660  0.066700  1.0  -0.3382
  N  N605  1  0.116010  0.048650  0.105530  1.0  -0.3011
  N  N606  1  0.282590  0.097440  0.112780  1.0  -0.3088
  N  N607  1  0.177900  0.234400  0.807400  1.0  -0.4135
  N  N608  1  0.008700  0.312100  0.856300  1.0  -0.2974
  N  N609  1  0.983870  0.443720  0.311140  1.0  -0.3081
  N  N610  1  0.144000  0.476210  0.348190  1.0  -0.3134
  N  N611  1  0.906010  0.529070  0.359510  1.0  -0.3452
  N  N612  1  0.931080  0.491340  0.433300  1.0  -0.3387
  N  N613  1  0.770190  0.451350  0.394470  1.0  -0.3016
  N  N614  1  0.992810  0.402560  0.387220  1.0  -0.3095
  N  N615  1  0.719700  0.265600  0.692600  1.0  -0.4131
  N  N616  1  0.677100  0.187900  0.643700  1.0  -0.2955
  N  N617  1  0.427590  0.811140  0.556280  1.0  -0.3082
  N  N618  1  0.620210  0.848190  0.523790  1.0  -0.3137
  N  N619  1  0.435080  0.859510  0.470930  1.0  -0.3426
  N  N620  1  0.422420  0.933300  0.508660  1.0  -0.3376
  N  N621  1  0.221540  0.894470  0.548650  1.0  -0.2993
  N  N622  1  0.395370  0.887220  0.597440  1.0  -0.3131
  N  N623  1  0.985300  0.192600  0.734400  1.0  -0.4157
  N  N624  1  0.865000  0.143700  0.812100  1.0  -0.293
  N  N625  1  0.295010  0.688860  0.943720  1.0  -0.3094
  N  N626  1  0.492190  0.651810  0.976210  1.0  -0.3114
  N  N627  1  0.265520  0.640490  0.029070  1.0  -0.3445
  N  N628  1  0.364380  0.566700  0.991340  1.0  -0.3377
  N  N629  1  0.164660  0.605530  0.951350  1.0  -0.3033
  N  N630  1  0.380030  0.612780  0.902560  1.0  -0.3089
  N  N631  1  0.412300  0.307400  0.765600  1.0  -0.4143
  N  N632  1  0.320800  0.356300  0.687900  1.0  -0.2928
  N  N633  1  0.761270  0.943720  0.811140  1.0  -0.309
  N  N634  1  0.531600  0.976210  0.848190  1.0  -0.3143
  N  N635  1  0.705410  0.029070  0.859510  1.0  -0.3444
  N  N636  1  0.644280  0.991340  0.933300  1.0  -0.3397
  N  N637  1  0.883990  0.951350  0.894470  1.0  -0.298
  N  N638  1  0.717410  0.902560  0.887220  1.0  -0.3084
  N  N639  1  0.822100  0.765600  0.192600  1.0  -0.4137
  N  N640  1  0.991300  0.687900  0.143700  1.0  -0.2997
  N  N641  1  0.016130  0.556280  0.688860  1.0  -0.3086
  N  N642  1  0.856000  0.523790  0.651810  1.0  -0.3137
  N  N643  1  0.093990  0.470930  0.640490  1.0  -0.3449
  N  N644  1  0.068920  0.508660  0.566700  1.0  -0.3382
  N  N645  1  0.229810  0.548650  0.605530  1.0  -0.3011
  N  N646  1  0.007190  0.597440  0.612780  1.0  -0.3097
  N  N647  1  0.280300  0.734400  0.307400  1.0  -0.4126
  N  N648  1  0.322900  0.812100  0.356300  1.0  -0.2991
  N  N649  1  0.572410  0.188860  0.443720  1.0  -0.3097
  N  N650  1  0.379790  0.151810  0.476210  1.0  -0.3139
  N  N651  1  0.564920  0.140490  0.529070  1.0  -0.3439
  N  N652  1  0.577580  0.066700  0.491340  1.0  -0.3361
  N  N653  1  0.778460  0.105530  0.451350  1.0  -0.2985
  N  N654  1  0.604630  0.112780  0.402560  1.0  -0.311
  N  N655  1  0.014700  0.807400  0.265600  1.0  -0.4147
  N  N656  1  0.135000  0.856300  0.187900  1.0  -0.2942
  N  N657  1  0.704990  0.311140  0.056280  1.0  -0.3087
  N  N658  1  0.507810  0.348190  0.023790  1.0  -0.3145
  N  N659  1  0.734480  0.359510  0.970930  1.0  -0.342
  N  N660  1  0.635620  0.433300  0.008660  1.0  -0.3383
  N  N661  1  0.835340  0.394470  0.048650  1.0  -0.2994
  N  N662  1  0.619970  0.387220  0.097440  1.0  -0.3111
  N  N663  1  0.587700  0.692600  0.234400  1.0  -0.4162
  N  N664  1  0.679200  0.643700  0.312100  1.0  -0.2933
  O  O665  1  0.406150  0.077960  0.306340  1.0  -0.5569
  O  O666  1  0.541960  0.078200  0.247680  1.0  -0.5583
  O  O667  1  0.366700  0.992710  0.273890  1.0  -0.7175
  O  O668  1  0.567400  0.978020  0.281980  1.0  -0.7008
  O  O669  1  0.525130  0.846340  0.078200  1.0  -0.6301
  O  O670  1  0.578070  0.903740  0.049920  1.0  -0.6939
  O  O671  1  0.339420  0.878560  0.013000  1.0  -0.635
  O  O672  1  0.172190  0.904190  0.056630  1.0  -0.648
  O  O673  1  0.006130  0.210110  0.073430  1.0  -0.5652
  O  O674  1  0.912760  0.157050  0.099630  1.0  -0.5679
  O  O675  1  0.160750  0.138240  0.014860  1.0  -0.7328
  O  O676  1  0.978580  0.131270  0.996770  1.0  -0.7349
  O  O677  1  0.979500  0.162700  0.917700  1.0  -0.5911
  O  O678  1  0.888300  0.224600  0.915000  1.0  -0.7097
  O  O679  1  0.129260  0.227300  0.963780  1.0  -0.6478
  O  O680  1  0.292610  0.226410  0.915170  1.0  -0.6162
  O  O681  1  0.290450  0.422040  0.193660  1.0  -0.5481
  O  O682  1  0.367840  0.421800  0.252320  1.0  -0.5631
  O  O683  1  0.133300  0.507290  0.226110  1.0  -0.714
  O  O684  1  0.327400  0.521980  0.218020  1.0  -0.7009
  O  O685  1  0.949670  0.653660  0.421800  1.0  -0.6289
  O  O686  1  0.031730  0.596260  0.450080  1.0  -0.6934
  O  O687  1  0.730980  0.621440  0.487000  1.0  -0.6393
  O  O688  1  0.633010  0.595810  0.443370  1.0  -0.6482
  O  O689  1  0.789670  0.289890  0.426570  1.0  -0.5662
  O  O690  1  0.669440  0.342950  0.400370  1.0  -0.5691
  O  O691  1  0.813850  0.361760  0.485140  1.0  -0.7331
  O  O692  1  0.606620  0.368730  0.503230  1.0  -0.7338
  O  O693  1  0.559900  0.337300  0.582300  1.0  -0.5907
  O  O694  1  0.527900  0.275400  0.585000  1.0  -0.7103
  O  O695  1  0.820340  0.272700  0.536220  1.0  -0.6458
  O  O696  1  0.934190  0.273590  0.584830  1.0  -0.6161
  O  O697  1  0.712490  0.693660  0.577960  1.0  -0.5524
  O  O698  1  0.789640  0.752320  0.578200  1.0  -0.5598
  O  O699  1  0.640590  0.726110  0.492710  1.0  -0.7166
  O  O700  1  0.849380  0.718020  0.478020  1.0  -0.7016
  O  O701  1  0.603330  0.921800  0.346340  1.0  -0.6287
  O  O702  1  0.627990  0.950080  0.403740  1.0  -0.6965
  O  O703  1  0.352420  0.987000  0.378560  1.0  -0.6375
  O  O704  1  0.228820  0.943370  0.404190  1.0  -0.6479
  O  O705  1  0.079560  0.926570  0.710110  1.0  -0.5688
  O  O706  1  0.012390  0.900370  0.657050  1.0  -0.5657
  O  O707  1  0.175610  0.985140  0.638240  1.0  -0.7325
  O  O708  1  0.975350  0.003230  0.631270  1.0  -0.7344
  O  O709  1  0.897200  0.082300  0.662700  1.0  -0.591
  O  O710  1  0.803300  0.085000  0.724600  1.0  -0.7106
  O  O711  1  0.093040  0.036220  0.727300  1.0  -0.6451
  O  O712  1  0.207780  0.084830  0.726410  1.0  -0.6168
  O  O713  1  0.484110  0.806340  0.922040  1.0  -0.5515
  O  O714  1  0.620160  0.747680  0.921800  1.0  -0.5575
  O  O715  1  0.359410  0.773890  0.007290  1.0  -0.7149
  O  O716  1  0.545420  0.781980  0.021980  1.0  -0.7027
  O  O717  1  0.371470  0.578200  0.153660  1.0  -0.6323
  O  O718  1  0.481810  0.549920  0.096260  1.0  -0.6928
  O  O719  1  0.217980  0.513000  0.121440  1.0  -0.6394
  O  O720  1  0.076380  0.556630  0.095810  1.0  -0.6458
  O  O721  1  0.216240  0.573430  0.789890  1.0  -0.5692
  O  O722  1  0.069810  0.599630  0.842950  1.0  -0.5645
  O  O723  1  0.298990  0.514860  0.861760  1.0  -0.735
  O  O724  1  0.109850  0.496770  0.868730  1.0  -0.7342
  O  O725  1  0.142200  0.417700  0.837300  1.0  -0.5903
  O  O726  1  0.112900  0.415000  0.775400  1.0  -0.7113
  O  O727  1  0.356560  0.463780  0.772700  1.0  -0.6428
  O  O728  1  0.519020  0.415170  0.773590  1.0  -0.6187
  O  O729  1  0.593850  0.922040  0.693660  1.0  -0.5499
  O  O730  1  0.458040  0.921800  0.752320  1.0  -0.5559
  O  O731  1  0.633300  0.007290  0.726110  1.0  -0.7155
  O  O732  1  0.432600  0.021980  0.718020  1.0  -0.7012
  O  O733  1  0.474870  0.153660  0.921800  1.0  -0.6293
  O  O734  1  0.421930  0.096260  0.950080  1.0  -0.694
  O  O735  1  0.660580  0.121440  0.987000  1.0  -0.6369
  O  O736  1  0.827810  0.095810  0.943370  1.0  -0.6484
  O  O737  1  0.993870  0.789890  0.926570  1.0  -0.5641
  O  O738  1  0.087240  0.842950  0.900370  1.0  -0.5726
  O  O739  1  0.839250  0.861760  0.985140  1.0  -0.7347
  O  O740  1  0.021420  0.868730  0.003230  1.0  -0.7333
  O  O741  1  0.020500  0.837300  0.082300  1.0  -0.5908
  O  O742  1  0.111700  0.775400  0.085000  1.0  -0.7103
  O  O743  1  0.870740  0.772700  0.036220  1.0  -0.6451
  O  O744  1  0.707390  0.773590  0.084830  1.0  -0.6166
  O  O745  1  0.709550  0.577960  0.806340  1.0  -0.5525
  O  O746  1  0.632160  0.578200  0.747680  1.0  -0.5609
  O  O747  1  0.866700  0.492710  0.773890  1.0  -0.7155
  O  O748  1  0.672600  0.478020  0.781980  1.0  -0.7023
  O  O749  1  0.050330  0.346340  0.578200  1.0  -0.6301
  O  O750  1  0.968270  0.403740  0.549920  1.0  -0.6936
  O  O751  1  0.269020  0.378560  0.513000  1.0  -0.6376
  O  O752  1  0.366990  0.404190  0.556630  1.0  -0.6483
  O  O753  1  0.210330  0.710110  0.573430  1.0  -0.5647
  O  O754  1  0.330560  0.657050  0.599630  1.0  -0.5689
  O  O755  1  0.186150  0.638240  0.514860  1.0  -0.733
  O  O756  1  0.393380  0.631270  0.496770  1.0  -0.7337
  O  O757  1  0.440100  0.662700  0.417700  1.0  -0.5909
  O  O758  1  0.472100  0.724600  0.415000  1.0  -0.7117
  O  O759  1  0.179660  0.727300  0.463780  1.0  -0.6478
  O  O760  1  0.065810  0.726410  0.415170  1.0  -0.6152
  O  O761  1  0.287510  0.306340  0.422040  1.0  -0.5517
  O  O762  1  0.210360  0.247680  0.421800  1.0  -0.5583
  O  O763  1  0.359410  0.273890  0.507290  1.0  -0.7151
  O  O764  1  0.150620  0.281980  0.521980  1.0  -0.7023
  O  O765  1  0.396670  0.078200  0.653660  1.0  -0.6325
  O  O766  1  0.372010  0.049920  0.596260  1.0  -0.6944
  O  O767  1  0.647580  0.013000  0.621440  1.0  -0.638
  O  O768  1  0.771180  0.056630  0.595810  1.0  -0.648
  O  O769  1  0.920440  0.073430  0.289890  1.0  -0.5665
  O  O770  1  0.987610  0.099630  0.342950  1.0  -0.5665
  O  O771  1  0.824390  0.014860  0.361760  1.0  -0.7346
  O  O772  1  0.024650  0.996770  0.368730  1.0  -0.734
  O  O773  1  0.102800  0.917700  0.337300  1.0  -0.5896
  O  O774  1  0.196700  0.915000  0.275400  1.0  -0.7117
  O  O775  1  0.906960  0.963780  0.272700  1.0  -0.6439
  O  O776  1  0.792220  0.915170  0.273590  1.0  -0.6179
  O  O777  1  0.515890  0.193660  0.077960  1.0  -0.5486
  O  O778  1  0.379840  0.252320  0.078200  1.0  -0.5541
  O  O779  1  0.640590  0.226110  0.992710  1.0  -0.7146
  O  O780  1  0.454580  0.218020  0.978020  1.0  -0.7034
  O  O781  1  0.628530  0.421800  0.846340  1.0  -0.6295
  O  O782  1  0.518190  0.450080  0.903740  1.0  -0.6937
  O  O783  1  0.782020  0.487000  0.878560  1.0  -0.6397
  O  O784  1  0.923620  0.443370  0.904190  1.0  -0.6467
  O  O785  1  0.783760  0.426570  0.210110  1.0  -0.5699
  O  O786  1  0.930190  0.400370  0.157050  1.0  -0.5666
  O  O787  1  0.701010  0.485140  0.138240  1.0  -0.7359
  O  O788  1  0.890150  0.503230  0.131270  1.0  -0.7333
  O  O789  1  0.857800  0.582300  0.162700  1.0  -0.5912
  O  O790  1  0.887100  0.585000  0.224600  1.0  -0.712
  O  O791  1  0.643440  0.536220  0.227300  1.0  -0.6432
  O  O792  1  0.480980  0.584830  0.226410  1.0  -0.6173
