# generated using pymatgen
data_Tb2CoH24C48(NO2)8
_symmetry_space_group_name_H-M   'P 1'
_cell_length_a   11.00460000
_cell_length_b   32.86490000
_cell_length_c   32.86490000
_cell_angle_alpha   88.39380000
_cell_angle_beta   80.36200000
_cell_angle_gamma   80.36200000
_symmetry_Int_Tables_number   1
_chemical_formula_structural   Tb2CoH24C48(NO2)8
_chemical_formula_sum   'Tb16 Co8 H192 C384 N64 O128'
_cell_volume   11552.91555620
_cell_formula_units_Z   8
loop_
 _symmetry_equiv_pos_site_id
 _symmetry_equiv_pos_as_xyz
  1  'x, y, z'
loop_
 _atom_site_type_symbol
 _atom_site_label
 _atom_site_symmetry_multiplicity
 _atom_site_fract_x
 _atom_site_fract_y
 _atom_site_fract_z
 _atom_site_occupancy
 _atom_site_charge
  Tb  Tb1  1  0.715170  0.328680  0.973040  1.0  2.2667
  Tb  Tb2  1  0.215090  0.325020  0.975290  1.0  2.1512
  Tb  Tb3  1  0.516890  0.171320  0.526960  1.0  2.2649
  Tb  Tb4  1  0.015410  0.174980  0.524700  1.0  2.1521
  Tb  Tb5  1  0.688210  0.026960  0.828680  1.0  2.2656
  Tb  Tb6  1  0.190380  0.024710  0.825020  1.0  2.1522
  Tb  Tb7  1  0.043850  0.473040  0.671320  1.0  2.2663
  Tb  Tb8  1  0.540110  0.475290  0.674990  1.0  2.1516
  Tb  Tb9  1  0.284830  0.671320  0.026960  1.0  2.2666
  Tb  Tb10  1  0.784910  0.674980  0.024700  1.0  2.1518
  Tb  Tb11  1  0.483110  0.828680  0.473040  1.0  2.2666
  Tb  Tb12  1  0.984590  0.825020  0.475290  1.0  2.1513
  Tb  Tb13  1  0.311790  0.973040  0.171320  1.0  2.2666
  Tb  Tb14  1  0.809620  0.975290  0.174980  1.0  2.1521
  Tb  Tb15  1  0.956150  0.526960  0.328680  1.0  2.2666
  Tb  Tb16  1  0.459880  0.524710  0.325020  1.0  2.1523
  Co  Co17  1  0.789800  0.128640  0.036240  1.0  0.7469
  Co  Co18  1  0.454680  0.371360  0.463760  1.0  0.7469
  Co  Co19  1  0.826040  0.963760  0.628640  1.0  0.7485
  Co  Co20  1  0.918440  0.536240  0.871360  1.0  0.7466
  Co  Co21  1  0.210200  0.871360  0.963760  1.0  0.7473
  Co  Co22  1  0.545320  0.628640  0.536240  1.0  0.7473
  Co  Co23  1  0.173960  0.036240  0.371360  1.0  0.7479
  Co  Co24  1  0.081560  0.463760  0.128640  1.0  0.7496
  H  H25  1  0.538600  0.438200  0.017800  1.0  0.0896
  H  H26  1  0.502100  0.495400  0.060800  1.0  0.1056
  H  H27  1  0.331900  0.502700  0.113700  1.0  0.064
  H  H28  1  0.941500  0.388200  0.139600  1.0  0.0802
  H  H29  1  0.001700  0.319000  0.149400  1.0  0.1189
  H  H30  1  0.209600  0.289600  0.129400  1.0  0.1129
  H  H31  1  0.709500  0.279300  0.125900  1.0  0.1065
  H  H32  1  0.545200  0.242900  0.129900  1.0  0.1145
  H  H33  1  0.566200  0.187100  0.086500  1.0  0.0777
  H  H34  1  0.082900  0.104200  0.001000  1.0  0.0723
  H  H35  1  0.226700  0.139000  0.962200  1.0  0.1106
  H  H36  1  0.179700  0.209900  0.956900  1.0  0.082
  H  H37  1  0.773200  0.460900  0.027100  1.0  0.1127
  H  H38  1  0.811500  0.528700  0.028300  1.0  0.1108
  H  H39  1  0.896000  0.558200  0.968200  1.0  0.0824
  H  H40  1  0.950100  0.471800  0.798600  1.0  0.0756
  H  H41  1  0.061900  0.405000  0.788000  1.0  0.1175
  H  H42  1  0.117800  0.367200  0.844600  1.0  0.0999
  H  H43  1  0.544600  0.362300  0.848300  1.0  0.0875
  H  H44  1  0.434400  0.364500  0.788700  1.0  0.1498
  H  H45  1  0.465400  0.296300  0.761700  1.0  0.0999
  H  H46  1  0.666000  0.132300  0.873900  1.0  0.062
  H  H47  1  0.547600  0.126600  0.931600  1.0  0.1082
  H  H48  1  0.435500  0.187700  0.958300  1.0  0.0729
  H  H49  1  0.494600  0.061800  0.482200  1.0  0.0904
  H  H50  1  0.558300  0.004600  0.439200  1.0  0.1056
  H  H51  1  0.448300  0.997300  0.386300  1.0  0.0662
  H  H52  1  0.969300  0.111800  0.360400  1.0  0.0798
  H  H53  1  0.970100  0.181000  0.350600  1.0  0.1179
  H  H54  1  0.128600  0.210400  0.370600  1.0  0.1132
  H  H55  1  0.614700  0.220700  0.374100  1.0  0.1065
  H  H56  1  0.418000  0.257100  0.370100  1.0  0.1139
  H  H57  1  0.339800  0.312900  0.413500  1.0  0.0781
  H  H58  1  0.688100  0.395800  0.499000  1.0  0.0724
  H  H59  1  0.827900  0.361000  0.537800  1.0  0.1101
  H  H60  1  0.846500  0.290100  0.543100  1.0  0.0823
  H  H61  1  0.761200  0.039100  0.472900  1.0  0.112
  H  H62  1  0.868500  0.971300  0.471700  1.0  0.11
  H  H63  1  0.922400  0.941800  0.531800  1.0  0.0822
  H  H64  1  0.720500  0.028200  0.701400  1.0  0.0741
  H  H65  1  0.754900  0.095000  0.712000  1.0  0.1169
  H  H66  1  0.829600  0.132800  0.655400  1.0  0.1003
  H  H67  1  0.255200  0.137700  0.651700  1.0  0.0876
  H  H68  1  0.087600  0.135500  0.711300  1.0  0.1508
  H  H69  1  0.023400  0.203700  0.738300  1.0  0.0983
  H  H70  1  0.172200  0.367700  0.626100  1.0  0.0614
  H  H71  1  0.105800  0.373400  0.568400  1.0  0.1083
  H  H72  1  0.081500  0.312300  0.541700  1.0  0.0743
  H  H73  1  0.556400  0.982200  0.938200  1.0  0.0892
  H  H74  1  0.562900  0.939200  0.995400  1.0  0.1049
  H  H75  1  0.445600  0.886300  0.002700  1.0  0.0652
  H  H76  1  0.081100  0.860400  0.888200  1.0  0.0787
  H  H77  1  0.151100  0.850600  0.819000  1.0  0.1183
  H  H78  1  0.339000  0.870600  0.789600  1.0  0.1128
  H  H79  1  0.835400  0.874100  0.779300  1.0  0.1072
  H  H80  1  0.675100  0.870100  0.742900  1.0  0.1128
  H  H81  1  0.652700  0.913500  0.687100  1.0  0.0779
  H  H82  1  0.083900  0.999000  0.604200  1.0  0.0727
  H  H83  1  0.188900  0.037800  0.639000  1.0  0.1104
  H  H84  1  0.136600  0.043100  0.709900  1.0  0.082
  H  H85  1  0.800300  0.972900  0.960900  1.0  0.1128
  H  H86  1  0.839800  0.971700  0.028700  1.0  0.1105
  H  H87  1  0.864200  0.031800  0.058200  1.0  0.0817
  H  H88  1  0.748700  0.201400  0.971800  1.0  0.074
  H  H89  1  0.849900  0.212000  0.905000  1.0  0.1181
  H  H90  1  0.962400  0.155400  0.867200  1.0  0.1001
  H  H91  1  0.392900  0.151700  0.862300  1.0  0.0877
  H  H92  1  0.223100  0.211300  0.864500  1.0  0.1494
  H  H93  1  0.227100  0.238300  0.796300  1.0  0.0994
  H  H94  1  0.539900  0.126100  0.632300  1.0  0.0617
  H  H95  1  0.479200  0.068400  0.626600  1.0  0.1072
  H  H96  1  0.393800  0.041700  0.687700  1.0  0.0732
  H  H97  1  0.976800  0.517800  0.561800  1.0  0.09
  H  H98  1  0.997500  0.560800  0.504600  1.0  0.1052
  H  H99  1  0.834600  0.613700  0.497300  1.0  0.0664
  H  H100  1  0.329700  0.639600  0.611800  1.0  0.0788
  H  H101  1  0.320700  0.649400  0.681000  1.0  0.119
  H  H102  1  0.499200  0.629400  0.710400  1.0  0.1129
  H  H103  1  0.988800  0.625900  0.720700  1.0  0.1076
  H  H104  1  0.788100  0.629900  0.757100  1.0  0.1139
  H  H105  1  0.753300  0.586500  0.812900  1.0  0.0776
  H  H106  1  0.187100  0.501000  0.895800  1.0  0.072
  H  H107  1  0.365700  0.462200  0.861000  1.0  0.1111
  H  H108  1  0.389600  0.456900  0.790100  1.0  0.0816
  H  H109  1  0.234100  0.527100  0.539100  1.0  0.1134
  H  H110  1  0.340200  0.528300  0.471300  1.0  0.1108
  H  H111  1  0.454200  0.468200  0.441800  1.0  0.083
  H  H112  1  0.421900  0.298600  0.528200  1.0  0.0733
  H  H113  1  0.466900  0.288000  0.595000  1.0  0.1182
  H  H114  1  0.485000  0.344600  0.632800  1.0  0.1005
  H  H115  1  0.906900  0.348300  0.637700  1.0  0.0868
  H  H116  1  0.798900  0.288700  0.635500  1.0  0.1499
  H  H117  1  0.761700  0.261700  0.703700  1.0  0.0976
  H  H118  1  0.798300  0.373900  0.867700  1.0  0.0618
  H  H119  1  0.674200  0.431600  0.873400  1.0  0.1071
  H  H120  1  0.623200  0.458300  0.812300  1.0  0.0726
  H  H121  1  0.461400  0.561800  0.982200  1.0  0.0894
  H  H122  1  0.497900  0.504600  0.939200  1.0  0.1052
  H  H123  1  0.668100  0.497300  0.886300  1.0  0.0642
  H  H124  1  0.058500  0.611800  0.860400  1.0  0.0807
  H  H125  1  0.998300  0.681000  0.850600  1.0  0.119
  H  H126  1  0.790400  0.710400  0.870600  1.0  0.1128
  H  H127  1  0.290500  0.720700  0.874100  1.0  0.1058
  H  H128  1  0.454800  0.757100  0.870100  1.0  0.1137
  H  H129  1  0.433800  0.812900  0.913500  1.0  0.0784
  H  H130  1  0.917100  0.895800  0.999000  1.0  0.0723
  H  H131  1  0.773300  0.861000  0.037800  1.0  0.1102
  H  H132  1  0.820300  0.790100  0.043100  1.0  0.0822
  H  H133  1  0.226800  0.539100  0.972900  1.0  0.1128
  H  H134  1  0.188500  0.471300  0.971700  1.0  0.1106
  H  H135  1  0.104000  0.441800  0.031800  1.0  0.0828
  H  H136  1  0.049900  0.528200  0.201400  1.0  0.0749
  H  H137  1  0.938100  0.595000  0.212000  1.0  0.1176
  H  H138  1  0.882200  0.632800  0.155400  1.0  0.1003
  H  H139  1  0.455400  0.637700  0.151700  1.0  0.0869
  H  H140  1  0.565600  0.635500  0.211300  1.0  0.15
  H  H141  1  0.534600  0.703700  0.238300  1.0  0.0986
  H  H142  1  0.334000  0.867700  0.126100  1.0  0.0619
  H  H143  1  0.452400  0.873400  0.068400  1.0  0.1081
  H  H144  1  0.564500  0.812300  0.041700  1.0  0.0732
  H  H145  1  0.505400  0.938200  0.517800  1.0  0.09
  H  H146  1  0.441700  0.995400  0.560800  1.0  0.1053
  H  H147  1  0.551700  0.002700  0.613700  1.0  0.0649
  H  H148  1  0.030700  0.888200  0.639600  1.0  0.0801
  H  H149  1  0.029900  0.819000  0.649400  1.0  0.1179
  H  H150  1  0.871400  0.789600  0.629400  1.0  0.1131
  H  H151  1  0.385300  0.779300  0.625900  1.0  0.1074
  H  H152  1  0.582000  0.742900  0.629900  1.0  0.1142
  H  H153  1  0.660200  0.687100  0.586500  1.0  0.0784
  H  H154  1  0.311900  0.604200  0.501000  1.0  0.0726
  H  H155  1  0.172100  0.639000  0.462200  1.0  0.11
  H  H156  1  0.153500  0.709900  0.456900  1.0  0.0823
  H  H157  1  0.238800  0.960900  0.527100  1.0  0.1124
  H  H158  1  0.131500  0.028700  0.528300  1.0  0.1102
  H  H159  1  0.077600  0.058200  0.468200  1.0  0.082
  H  H160  1  0.279500  0.971800  0.298600  1.0  0.0739
  H  H161  1  0.245100  0.905000  0.288000  1.0  0.117
  H  H162  1  0.170400  0.867200  0.344600  1.0  0.1004
  H  H163  1  0.744800  0.862300  0.348300  1.0  0.088
  H  H164  1  0.912400  0.864500  0.288700  1.0  0.1505
  H  H165  1  0.976600  0.796300  0.261700  1.0  0.0997
  H  H166  1  0.827800  0.632300  0.373900  1.0  0.0613
  H  H167  1  0.894200  0.626600  0.431600  1.0  0.1075
  H  H168  1  0.918500  0.687700  0.458300  1.0  0.0736
  H  H169  1  0.443600  0.017800  0.061800  1.0  0.0889
  H  H170  1  0.437100  0.060800  0.004600  1.0  0.1049
  H  H171  1  0.554400  0.113700  0.997300  1.0  0.0664
  H  H172  1  0.918900  0.139600  0.111800  1.0  0.0802
  H  H173  1  0.848900  0.149400  0.181000  1.0  0.1187
  H  H174  1  0.661000  0.129400  0.210400  1.0  0.1129
  H  H175  1  0.164600  0.125900  0.220700  1.0  0.1068
  H  H176  1  0.324900  0.129900  0.257100  1.0  0.1125
  H  H177  1  0.347300  0.086500  0.312900  1.0  0.0776
  H  H178  1  0.916100  0.001000  0.395800  1.0  0.0727
  H  H179  1  0.811100  0.962200  0.361000  1.0  0.1103
  H  H180  1  0.863400  0.956900  0.290100  1.0  0.0821
  H  H181  1  0.199700  0.027100  0.039100  1.0  0.113
  H  H182  1  0.160200  0.028300  0.971300  1.0  0.111
  H  H183  1  0.135800  0.968200  0.941800  1.0  0.082
  H  H184  1  0.251300  0.798600  0.028200  1.0  0.0737
  H  H185  1  0.150100  0.788000  0.095000  1.0  0.1177
  H  H186  1  0.037600  0.844600  0.132800  1.0  0.1004
  H  H187  1  0.607100  0.848300  0.137700  1.0  0.0868
  H  H188  1  0.776900  0.788700  0.135500  1.0  0.1492
  H  H189  1  0.772900  0.761700  0.203700  1.0  0.0981
  H  H190  1  0.460100  0.873900  0.367700  1.0  0.0605
  H  H191  1  0.520800  0.931600  0.373400  1.0  0.1078
  H  H192  1  0.606200  0.958300  0.312300  1.0  0.0727
  H  H193  1  0.023200  0.482200  0.438200  1.0  0.0898
  H  H194  1  0.002500  0.439200  0.495400  1.0  0.1054
  H  H195  1  0.165400  0.386300  0.502700  1.0  0.0656
  H  H196  1  0.670300  0.360400  0.388200  1.0  0.0792
  H  H197  1  0.679300  0.350600  0.319000  1.0  0.1185
  H  H198  1  0.500800  0.370600  0.289600  1.0  0.1125
  H  H199  1  0.011200  0.374100  0.279300  1.0  0.1077
  H  H200  1  0.211900  0.370100  0.242900  1.0  0.1138
  H  H201  1  0.246700  0.413500  0.187100  1.0  0.0785
  H  H202  1  0.812900  0.499000  0.104200  1.0  0.0728
  H  H203  1  0.634300  0.537800  0.139000  1.0  0.1108
  H  H204  1  0.610400  0.543100  0.209900  1.0  0.0817
  H  H205  1  0.765900  0.472900  0.460900  1.0  0.1133
  H  H206  1  0.659800  0.471700  0.528700  1.0  0.11
  H  H207  1  0.545800  0.531800  0.558200  1.0  0.0819
  H  H208  1  0.578100  0.701400  0.471800  1.0  0.0737
  H  H209  1  0.533100  0.712000  0.405000  1.0  0.1174
  H  H210  1  0.515000  0.655400  0.367200  1.0  0.1006
  H  H211  1  0.093100  0.651700  0.362300  1.0  0.0869
  H  H212  1  0.201100  0.711300  0.364500  1.0  0.1508
  H  H213  1  0.238300  0.738300  0.296300  1.0  0.0986
  H  H214  1  0.201700  0.626100  0.132300  1.0  0.062
  H  H215  1  0.325800  0.568400  0.126600  1.0  0.1062
  H  H216  1  0.376800  0.541700  0.187700  1.0  0.0733
  C  C217  1  0.415250  0.376120  0.017580  1.0  0.7174
  C  C218  1  0.399080  0.410170  0.048670  1.0  -0.1596
  C  C219  1  0.473930  0.440890  0.040250  1.0  0.0053
  C  C220  1  0.451310  0.475250  0.065330  1.0  -0.1149
  C  C221  1  0.350630  0.478950  0.097590  1.0  0.1764
  C  C222  1  0.306820  0.414690  0.083670  1.0  0.1484
  C  C223  1  0.225700  0.383370  0.100230  1.0  0.1201
  C  C224  1  0.024690  0.376460  0.131160  1.0  0.1481
  C  C225  1  0.059880  0.335070  0.137170  1.0  -0.1806
  C  C226  1  0.183390  0.317510  0.124710  1.0  -0.087
  C  C227  1  0.268180  0.341750  0.105290  1.0  -0.0753
  C  C228  1  0.402460  0.321840  0.091040  1.0  0.6972
  C  C229  1  0.931160  0.270010  0.078470  1.0  0.6935
  C  C230  1  0.824010  0.245860  0.080120  1.0  -0.0735
  C  C231  1  0.716060  0.257030  0.108450  1.0  -0.0861
  C  C232  1  0.618310  0.235330  0.111050  1.0  -0.1441
  C  C233  1  0.631750  0.201960  0.084940  1.0  0.1584
  C  C234  1  0.830990  0.211910  0.054510  1.0  0.0745
  C  C235  1  0.942550  0.194000  0.024100  1.0  0.0987
  C  C236  1  0.067730  0.132880  0.000860  1.0  0.1592
  C  C237  1  0.152710  0.153440  0.976540  1.0  -0.1179
  C  C238  1  0.125450  0.195600  0.974100  1.0  0.0287
  C  C239  1  0.018010  0.216990  0.996990  1.0  -0.1082
  C  C240  1  0.978770  0.262720  0.988740  1.0  0.7101
  C  C241  1  0.804160  0.408860  0.964820  1.0  0.6911
  C  C242  1  0.844750  0.450500  0.966800  1.0  -0.096
  C  C243  1  0.810440  0.472870  0.003250  1.0  -0.0345
  C  C244  1  0.832190  0.513500  0.003920  1.0  -0.107
  C  C245  1  0.884820  0.530800  0.967960  1.0  0.1558
  C  C246  1  0.906210  0.469270  0.932310  1.0  0.1547
  C  C247  1  0.956550  0.448710  0.891990  1.0  0.1703
  C  C248  1  0.969550  0.455860  0.821240  1.0  0.1298
  C  C249  1  0.038510  0.415930  0.814450  1.0  -0.1446
  C  C250  1  0.070530  0.393490  0.848250  1.0  0.0068
  C  C251  1  0.032460  0.409860  0.888020  1.0  -0.1175
  C  C252  1  0.087130  0.387230  0.923110  1.0  0.6776
  C  C253  1  0.621700  0.305500  0.901500  1.0  0.6346
  C  C254  1  0.559000  0.301500  0.861500  1.0  -0.1063
  C  C255  1  0.527200  0.337900  0.838700  1.0  -0.046
  C  C256  1  0.469700  0.340700  0.801300  1.0  -0.1731
  C  C257  1  0.479800  0.299600  0.788400  1.0  0.1382
  C  C258  1  0.534500  0.266300  0.847900  1.0  0.2272
  C  C259  1  0.548900  0.228000  0.872200  1.0  0.0451
  C  C260  1  0.614600  0.156700  0.883700  1.0  0.0931
  C  C261  1  0.549000  0.151800  0.918000  1.0  -0.0909
  C  C262  1  0.482500  0.187400  0.932000  1.0  -0.1294
  C  C263  1  0.477100  0.225500  0.909900  1.0  -0.038
  C  C264  1  0.385240  0.260080  0.930040  1.0  0.6708
  C  C265  1  0.308950  0.123880  0.482420  1.0  0.7171
  C  C266  1  0.357920  0.089830  0.451330  1.0  -0.1587
  C  C267  1  0.455070  0.059110  0.459750  1.0  0.0056
  C  C268  1  0.491890  0.024750  0.434670  1.0  -0.1149
  C  C269  1  0.427170  0.021050  0.402410  1.0  0.1748
  C  C270  1  0.305180  0.085310  0.416330  1.0  0.1479
  C  C271  1  0.209300  0.116630  0.399770  1.0  0.1215
  C  C272  1  0.032310  0.123540  0.368840  1.0  0.1487
  C  C273  1  0.032120  0.164930  0.362830  1.0  -0.1779
  C  C274  1  0.125610  0.182490  0.375290  1.0  -0.087
  C  C275  1  0.215220  0.158250  0.394710  1.0  -0.073
  C  C276  1  0.315340  0.178160  0.408960  1.0  0.6975
  C  C277  1  0.779640  0.229990  0.421530  1.0  0.6947
  C  C278  1  0.649990  0.254140  0.419880  1.0  -0.0739
  C  C279  1  0.581540  0.242970  0.391550  1.0  -0.0874
  C  C280  1  0.464690  0.264670  0.388950  1.0  -0.1389
  C  C281  1  0.418650  0.298040  0.415060  1.0  0.1556
  C  C282  1  0.597410  0.288090  0.445490  1.0  0.0748
  C  C283  1  0.660650  0.306000  0.475900  1.0  0.096
  C  C284  1  0.701470  0.367120  0.499140  1.0  0.1549
  C  C285  1  0.782690  0.346560  0.523460  1.0  -0.1185
  C  C286  1  0.795150  0.304400  0.525900  1.0  0.0284
  C  C287  1  0.731990  0.283010  0.503010  1.0  -0.108
  C  C288  1  0.730230  0.237280  0.511260  1.0  0.7094
  C  C289  1  0.677840  0.091140  0.535180  1.0  0.6919
  C  C290  1  0.762050  0.049500  0.533200  1.0  -0.0964
  C  C291  1  0.786560  0.027130  0.496750  1.0  -0.0364
  C  C292  1  0.849610  0.986500  0.496080  1.0  -0.1089
  C  C293  1  0.883580  0.969200  0.532040  1.0  0.156
  C  C294  1  0.807790  0.030730  0.567690  1.0  0.1539
  C  C295  1  0.797250  0.051290  0.608010  1.0  0.1703
  C  C296  1  0.746650  0.044140  0.678760  1.0  0.1297
  C  C297  1  0.768890  0.084070  0.685550  1.0  -0.1413
  C  C298  1  0.812270  0.106510  0.651750  1.0  0.0073
  C  C299  1  0.830340  0.090140  0.611980  1.0  -0.1148
  C  C300  1  0.897470  0.112770  0.576890  1.0  0.6757
  C  C301  1  0.328700  0.194500  0.598500  1.0  0.6342
  C  C302  1  0.222000  0.198500  0.638500  1.0  -0.1064
  C  C303  1  0.203800  0.162100  0.661300  1.0  -0.046
  C  C304  1  0.111700  0.159300  0.698700  1.0  -0.1731
  C  C305  1  0.067800  0.200400  0.711600  1.0  0.1365
  C  C306  1  0.148700  0.233700  0.652100  1.0  0.2287
  C  C307  1  0.149100  0.272000  0.627800  1.0  0.0437
  C  C308  1  0.155000  0.343300  0.616300  1.0  0.0948
  C  C309  1  0.118800  0.348200  0.582000  1.0  -0.091
  C  C310  1  0.101900  0.312600  0.568000  1.0  -0.1275
  C  C311  1  0.112500  0.274500  0.590100  1.0  -0.0385
  C  C312  1  0.075360  0.239920  0.569960  1.0  0.6693
  C  C313  1  0.432830  0.982420  0.876120  1.0  0.7152
  C  C314  1  0.447750  0.951330  0.910170  1.0  -0.1551
  C  C315  1  0.514180  0.959750  0.940890  1.0  0.0059
  C  C316  1  0.516640  0.934670  0.975250  1.0  -0.1152
  C  C317  1  0.448220  0.902410  0.978950  1.0  0.1702
  C  C318  1  0.390490  0.916330  0.914690  1.0  0.1487
  C  C319  1  0.325930  0.899770  0.883370  1.0  0.1223
  C  C320  1  0.155850  0.868840  0.876460  1.0  0.15
  C  C321  1  0.197050  0.862830  0.835070  1.0  -0.1788
  C  C322  1  0.308100  0.875290  0.817510  1.0  -0.0863
  C  C323  1  0.373470  0.894710  0.841750  1.0  -0.0744
  C  C324  1  0.493500  0.908960  0.821840  1.0  0.6984
  C  C325  1  0.009630  0.921530  0.770010  1.0  0.6951
  C  C326  1  0.904130  0.919880  0.745860  1.0  -0.0747
  C  C327  1  0.824510  0.891550  0.757030  1.0  -0.086
  C  C328  1  0.729360  0.888950  0.735330  1.0  -0.1427
  C  C329  1  0.716690  0.915060  0.701960  1.0  0.1561
  C  C330  1  0.885500  0.945490  0.711910  1.0  0.0742
  C  C331  1  0.966650  0.975900  0.694000  1.0  0.0982
  C  C332  1  0.068590  0.999140  0.632880  1.0  0.1547
  C  C333  1  0.129250  0.023460  0.653440  1.0  -0.12
  C  C334  1  0.099550  0.025900  0.695600  1.0  0.029
  C  C335  1  0.015000  0.003010  0.716990  1.0  -0.1042
  C  C336  1  0.967510  0.011260  0.762720  1.0  0.7136
  C  C337  1  0.768980  0.035180  0.908860  1.0  0.6945
  C  C338  1  0.811550  0.033200  0.950500  1.0  -0.096
  C  C339  1  0.813690  0.996750  0.972870  1.0  -0.0351
  C  C340  1  0.836110  0.996080  0.013500  1.0  -0.1039
  C  C341  1  0.852780  0.032040  0.030800  1.0  0.1545
  C  C342  1  0.838520  0.067690  0.969270  1.0  0.1546
  C  C343  1  0.848540  0.108010  0.948710  1.0  0.1708
  C  C344  1  0.790790  0.178760  0.955860  1.0  0.1277
  C  C345  1  0.852960  0.185550  0.915930  1.0  -0.1396
  C  C346  1  0.918780  0.151750  0.893490  1.0  0.0082
  C  C347  1  0.920480  0.111980  0.909860  1.0  -0.1195
  C  C348  1  0.010240  0.076890  0.887230  1.0  0.6796
  C  C349  1  0.523200  0.098500  0.805500  1.0  0.6338
  C  C350  1  0.420500  0.138500  0.801500  1.0  -0.1075
  C  C351  1  0.365900  0.161300  0.837900  1.0  -0.0483
  C  C352  1  0.271000  0.198700  0.840700  1.0  -0.1731
  C  C353  1  0.268200  0.211600  0.799600  1.0  0.1363
  C  C354  1  0.382400  0.152100  0.766300  1.0  0.23
  C  C355  1  0.421100  0.127800  0.728000  1.0  0.0414
  C  C356  1  0.498300  0.116300  0.656700  1.0  0.0899
  C  C357  1  0.467000  0.082000  0.651800  1.0  -0.0934
  C  C358  1  0.414500  0.068000  0.687400  1.0  -0.1348
  C  C359  1  0.387000  0.090100  0.725500  1.0  -0.0375
  C  C360  1  0.315280  0.069960  0.760080  1.0  0.6696
  C  C361  1  0.791370  0.517580  0.623880  1.0  0.7153
  C  C362  1  0.809250  0.548670  0.589830  1.0  -0.1553
  C  C363  1  0.914820  0.540250  0.559110  1.0  0.007
  C  C364  1  0.926560  0.565330  0.524750  1.0  -0.1153
  C  C365  1  0.829580  0.597590  0.521050  1.0  0.1715
  C  C366  1  0.721510  0.583670  0.585310  1.0  0.1476
  C  C367  1  0.609070  0.600230  0.616630  1.0  0.1206
  C  C368  1  0.401150  0.631160  0.623540  1.0  0.1529
  C  C369  1  0.394950  0.637170  0.664930  1.0  -0.1836
  C  C370  1  0.500900  0.624710  0.682490  1.0  -0.0832
  C  C371  1  0.609930  0.605290  0.658250  1.0  -0.0692
  C  C372  1  0.724300  0.591040  0.678160  1.0  0.698
  C  C373  1  0.201170  0.578470  0.729990  1.0  0.6929
  C  C374  1  0.069870  0.580120  0.754140  1.0  -0.0747
  C  C375  1  0.973090  0.608450  0.742970  1.0  -0.0891
  C  C376  1  0.853640  0.611050  0.764670  1.0  -0.1386
  C  C377  1  0.833710  0.584940  0.798040  1.0  0.1551
  C  C378  1  0.042900  0.554510  0.788090  1.0  0.0749
  C  C379  1  0.136550  0.524100  0.806000  1.0  0.0983
  C  C380  1  0.200610  0.500860  0.867120  1.0  0.1574
  C  C381  1  0.306150  0.476540  0.846560  1.0  -0.1208
  C  C382  1  0.321050  0.474100  0.804400  1.0  0.0286
  C  C383  1  0.235000  0.496990  0.783010  1.0  -0.1065
  C  C384  1  0.241490  0.488740  0.737280  1.0  0.7144
  C  C385  1  0.213020  0.464820  0.591140  1.0  0.6898
  C  C386  1  0.295250  0.466800  0.549500  1.0  -0.0963
  C  C387  1  0.283310  0.503250  0.527130  1.0  -0.0357
  C  C388  1  0.345690  0.503920  0.486500  1.0  -0.1033
  C  C389  1  0.415620  0.467960  0.469200  1.0  0.1541
  C  C390  1  0.375480  0.432310  0.530730  1.0  0.1553
  C  C391  1  0.405260  0.391990  0.551290  1.0  0.1725
  C  C392  1  0.425410  0.321240  0.544140  1.0  0.1285
  C  C393  1  0.454440  0.314450  0.584070  1.0  -0.1393
  C  C394  1  0.464020  0.348250  0.606510  1.0  0.0098
  C  C395  1  0.442320  0.388020  0.590140  1.0  -0.1151
  C  C396  1  0.474360  0.423110  0.612770  1.0  0.6819
  C  C397  1  0.927200  0.401500  0.694500  1.0  0.6304
  C  C398  1  0.860500  0.361500  0.698500  1.0  -0.1057
  C  C399  1  0.865100  0.338700  0.662100  1.0  -0.046
  C  C400  1  0.810400  0.301300  0.659300  1.0  -0.1714
  C  C401  1  0.779400  0.288400  0.700400  1.0  0.1365
  C  C402  1  0.800800  0.347900  0.733700  1.0  0.2299
  C  C403  1  0.776900  0.372200  0.772000  1.0  0.0413
  C  C404  1  0.771300  0.383700  0.843300  1.0  0.0904
  C  C405  1  0.700800  0.418000  0.848200  1.0  -0.093
  C  C406  1  0.669900  0.432000  0.812600  1.0  -0.1331
  C  C407  1  0.702600  0.409900  0.774500  1.0  -0.037
  C  C408  1  0.645320  0.430040  0.739920  1.0  0.6716
  C  C409  1  0.584750  0.623880  0.982420  1.0  0.7176
  C  C410  1  0.600920  0.589830  0.951330  1.0  -0.1591
  C  C411  1  0.526070  0.559110  0.959750  1.0  0.0057
  C  C412  1  0.548690  0.524750  0.934670  1.0  -0.1145
  C  C413  1  0.649370  0.521050  0.902410  1.0  0.1785
  C  C414  1  0.693180  0.585310  0.916330  1.0  0.1485
  C  C415  1  0.774300  0.616630  0.899770  1.0  0.1209
  C  C416  1  0.975310  0.623540  0.868840  1.0  0.1487
  C  C417  1  0.940120  0.664930  0.862830  1.0  -0.1795
  C  C418  1  0.816610  0.682490  0.875290  1.0  -0.087
  C  C419  1  0.731820  0.658250  0.894710  1.0  -0.073
  C  C420  1  0.597540  0.678160  0.908960  1.0  0.6986
  C  C421  1  0.068840  0.729990  0.921530  1.0  0.6952
  C  C422  1  0.175990  0.754140  0.919880  1.0  -0.0722
  C  C423  1  0.283940  0.742970  0.891550  1.0  -0.0863
  C  C424  1  0.381690  0.764670  0.888950  1.0  -0.1424
  C  C425  1  0.368250  0.798040  0.915060  1.0  0.1607
  C  C426  1  0.169010  0.788090  0.945490  1.0  0.0738
  C  C427  1  0.057450  0.806000  0.975900  1.0  0.0969
  C  C428  1  0.932270  0.867120  0.999140  1.0  0.1566
  C  C429  1  0.847290  0.846560  0.023460  1.0  -0.1174
  C  C430  1  0.874550  0.804400  0.025900  1.0  0.0299
  C  C431  1  0.981990  0.783010  0.003010  1.0  -0.1086
  C  C432  1  0.021230  0.737280  0.011260  1.0  0.7093
  C  C433  1  0.195840  0.591140  0.035180  1.0  0.6919
  C  C434  1  0.155250  0.549500  0.033200  1.0  -0.0947
  C  C435  1  0.189560  0.527130  0.996750  1.0  -0.0373
  C  C436  1  0.167810  0.486500  0.996080  1.0  -0.1084
  C  C437  1  0.115180  0.469200  0.032040  1.0  0.1561
  C  C438  1  0.093790  0.530730  0.067690  1.0  0.155
  C  C439  1  0.043450  0.551290  0.108010  1.0  0.1696
  C  C440  1  0.030450  0.544140  0.178760  1.0  0.1295
  C  C441  1  0.961490  0.584070  0.185550  1.0  -0.1444
  C  C442  1  0.929470  0.606510  0.151750  1.0  0.0079
  C  C443  1  0.967540  0.590140  0.111980  1.0  -0.1145
  C  C444  1  0.912870  0.612770  0.076890  1.0  0.6784
  C  C445  1  0.378300  0.694500  0.098500  1.0  0.6337
  C  C446  1  0.441000  0.698500  0.138500  1.0  -0.1064
  C  C447  1  0.472800  0.662100  0.161300  1.0  -0.048
  C  C448  1  0.530300  0.659300  0.198700  1.0  -0.1706
  C  C449  1  0.520200  0.700400  0.211600  1.0  0.138
  C  C450  1  0.465500  0.733700  0.152100  1.0  0.2285
  C  C451  1  0.451100  0.772000  0.127800  1.0  0.0451
  C  C452  1  0.385400  0.843300  0.116300  1.0  0.0938
  C  C453  1  0.451000  0.848200  0.082000  1.0  -0.0911
  C  C454  1  0.517500  0.812600  0.068000  1.0  -0.1298
  C  C455  1  0.522900  0.774500  0.090100  1.0  -0.0374
  C  C456  1  0.614760  0.739920  0.069960  1.0  0.6678
  C  C457  1  0.691050  0.876120  0.517580  1.0  0.7173
  C  C458  1  0.642080  0.910170  0.548670  1.0  -0.1592
  C  C459  1  0.544930  0.940890  0.540250  1.0  0.0055
  C  C460  1  0.508110  0.975250  0.565330  1.0  -0.1131
  C  C461  1  0.572830  0.978950  0.597590  1.0  0.1731
  C  C462  1  0.694820  0.914690  0.583670  1.0  0.1482
  C  C463  1  0.790700  0.883370  0.600230  1.0  0.1202
  C  C464  1  0.967690  0.876460  0.631160  1.0  0.1488
  C  C465  1  0.967880  0.835070  0.637170  1.0  -0.1767
  C  C466  1  0.874390  0.817510  0.624710  1.0  -0.0861
  C  C467  1  0.784780  0.841750  0.605290  1.0  -0.0761
  C  C468  1  0.684660  0.821840  0.591040  1.0  0.6981
  C  C469  1  0.220360  0.770010  0.578470  1.0  0.6933
  C  C470  1  0.350010  0.745860  0.580120  1.0  -0.0726
  C  C471  1  0.418460  0.757030  0.608450  1.0  -0.0869
  C  C472  1  0.535310  0.735330  0.611050  1.0  -0.1387
  C  C473  1  0.581350  0.701960  0.584940  1.0  0.1552
  C  C474  1  0.402590  0.711910  0.554510  1.0  0.0741
  C  C475  1  0.339350  0.694000  0.524100  1.0  0.096
  C  C476  1  0.298530  0.632880  0.500860  1.0  0.1563
  C  C477  1  0.217310  0.653440  0.476540  1.0  -0.1181
  C  C478  1  0.204850  0.695600  0.474100  1.0  0.0305
  C  C479  1  0.268010  0.716990  0.496990  1.0  -0.1075
  C  C480  1  0.269770  0.762720  0.488740  1.0  0.7109
  C  C481  1  0.322160  0.908860  0.464820  1.0  0.6902
  C  C482  1  0.237950  0.950500  0.466800  1.0  -0.0966
  C  C483  1  0.213440  0.972870  0.503250  1.0  -0.0369
  C  C484  1  0.150390  0.013500  0.503920  1.0  -0.1075
  C  C485  1  0.116420  0.030800  0.467960  1.0  0.1556
  C  C486  1  0.192210  0.969270  0.432310  1.0  0.1545
  C  C487  1  0.202750  0.948710  0.391990  1.0  0.1704
  C  C488  1  0.253350  0.955860  0.321240  1.0  0.1303
  C  C489  1  0.231110  0.915930  0.314450  1.0  -0.142
  C  C490  1  0.187730  0.893490  0.348250  1.0  0.0078
  C  C491  1  0.169660  0.909860  0.388020  1.0  -0.1182
  C  C492  1  0.102530  0.887230  0.423110  1.0  0.6763
  C  C493  1  0.671300  0.805500  0.401500  1.0  0.6353
  C  C494  1  0.778000  0.801500  0.361500  1.0  -0.1066
  C  C495  1  0.796200  0.837900  0.338700  1.0  -0.0473
  C  C496  1  0.888300  0.840700  0.301300  1.0  -0.1719
  C  C497  1  0.932200  0.799600  0.288400  1.0  0.1366
  C  C498  1  0.851300  0.766300  0.347900  1.0  0.2277
  C  C499  1  0.850900  0.728000  0.372200  1.0  0.0431
  C  C500  1  0.845000  0.656700  0.383700  1.0  0.094
  C  C501  1  0.881200  0.651800  0.418000  1.0  -0.0909
  C  C502  1  0.898100  0.687400  0.432000  1.0  -0.1294
  C  C503  1  0.887500  0.725500  0.409900  1.0  -0.0384
  C  C504  1  0.924640  0.760080  0.430040  1.0  0.6708
  C  C505  1  0.567170  0.017580  0.123880  1.0  0.7155
  C  C506  1  0.552250  0.048670  0.089830  1.0  -0.1552
  C  C507  1  0.485820  0.040250  0.059110  1.0  0.0056
  C  C508  1  0.483360  0.065330  0.024750  1.0  -0.1146
  C  C509  1  0.551780  0.097590  0.021050  1.0  0.1709
  C  C510  1  0.609510  0.083670  0.085310  1.0  0.1488
  C  C511  1  0.674070  0.100230  0.116630  1.0  0.1216
  C  C512  1  0.844150  0.131160  0.123540  1.0  0.1487
  C  C513  1  0.802950  0.137170  0.164930  1.0  -0.1773
  C  C514  1  0.691900  0.124710  0.182490  1.0  -0.0873
  C  C515  1  0.626530  0.105290  0.158250  1.0  -0.0742
  C  C516  1  0.506500  0.091040  0.178160  1.0  0.6977
  C  C517  1  0.990370  0.078470  0.229990  1.0  0.6963
  C  C518  1  0.095870  0.080120  0.254140  1.0  -0.0725
  C  C519  1  0.175490  0.108450  0.242970  1.0  -0.0859
  C  C520  1  0.270640  0.111050  0.264670  1.0  -0.139
  C  C521  1  0.283310  0.084940  0.298040  1.0  0.158
  C  C522  1  0.114500  0.054510  0.288090  1.0  0.0752
  C  C523  1  0.033350  0.024100  0.306000  1.0  0.0989
  C  C524  1  0.931410  0.000860  0.367120  1.0  0.1543
  C  C525  1  0.870750  0.976540  0.346560  1.0  -0.1202
  C  C526  1  0.900450  0.974100  0.304400  1.0  0.0293
  C  C527  1  0.985000  0.996990  0.283010  1.0  -0.1056
  C  C528  1  0.032490  0.988740  0.237280  1.0  0.7159
  C  C529  1  0.231020  0.964820  0.091140  1.0  0.6947
  C  C530  1  0.188450  0.966800  0.049500  1.0  -0.0966
  C  C531  1  0.186310  0.003250  0.027130  1.0  -0.0363
  C  C532  1  0.163890  0.003920  0.986500  1.0  -0.103
  C  C533  1  0.147220  0.967960  0.969200  1.0  0.1566
  C  C534  1  0.161480  0.932310  0.030730  1.0  0.1542
  C  C535  1  0.151460  0.891990  0.051290  1.0  0.1722
  C  C536  1  0.209210  0.821240  0.044140  1.0  0.1274
  C  C537  1  0.147040  0.814450  0.084070  1.0  -0.141
  C  C538  1  0.081220  0.848250  0.106510  1.0  0.0071
  C  C539  1  0.079520  0.888020  0.090140  1.0  -0.1183
  C  C540  1  0.989760  0.923110  0.112770  1.0  0.6798
  C  C541  1  0.476800  0.901500  0.194500  1.0  0.6309
  C  C542  1  0.579500  0.861500  0.198500  1.0  -0.107
  C  C543  1  0.634100  0.838700  0.162100  1.0  -0.0487
  C  C544  1  0.729000  0.801300  0.159300  1.0  -0.1716
  C  C545  1  0.731800  0.788400  0.200400  1.0  0.1353
  C  C546  1  0.617600  0.847900  0.233700  1.0  0.2304
  C  C547  1  0.578900  0.872200  0.272000  1.0  0.0406
  C  C548  1  0.501700  0.883700  0.343300  1.0  0.0899
  C  C549  1  0.533000  0.918000  0.348200  1.0  -0.093
  C  C550  1  0.585500  0.932000  0.312600  1.0  -0.1333
  C  C551  1  0.613000  0.909900  0.274500  1.0  -0.0364
  C  C552  1  0.684720  0.930040  0.239920  1.0  0.6686
  C  C553  1  0.208630  0.482420  0.376120  1.0  0.7155
  C  C554  1  0.190750  0.451330  0.410170  1.0  -0.1567
  C  C555  1  0.085180  0.459750  0.440890  1.0  0.0077
  C  C556  1  0.073440  0.434670  0.475250  1.0  -0.1135
  C  C557  1  0.170420  0.402410  0.478950  1.0  0.172
  C  C558  1  0.278490  0.416330  0.414690  1.0  0.1491
  C  C559  1  0.390930  0.399770  0.383370  1.0  0.122
  C  C560  1  0.598850  0.368840  0.376460  1.0  0.1536
  C  C561  1  0.605050  0.362830  0.335070  1.0  -0.1818
  C  C562  1  0.499100  0.375290  0.317510  1.0  -0.0828
  C  C563  1  0.390070  0.394710  0.341750  1.0  -0.0686
  C  C564  1  0.275700  0.408960  0.321840  1.0  0.6995
  C  C565  1  0.798830  0.421530  0.270010  1.0  0.6942
  C  C566  1  0.930130  0.419880  0.245860  1.0  -0.0741
  C  C567  1  0.026910  0.391550  0.257030  1.0  -0.0879
  C  C568  1  0.146360  0.388950  0.235330  1.0  -0.1425
  C  C569  1  0.166290  0.415060  0.201960  1.0  0.155
  C  C570  1  0.957100  0.445490  0.211910  1.0  0.0747
  C  C571  1  0.863450  0.475900  0.194000  1.0  0.096
  C  C572  1  0.799390  0.499140  0.132880  1.0  0.1562
  C  C573  1  0.693850  0.523460  0.153440  1.0  -0.1207
  C  C574  1  0.678950  0.525900  0.195600  1.0  0.0305
  C  C575  1  0.765000  0.503010  0.216990  1.0  -0.1056
  C  C576  1  0.758510  0.511260  0.262720  1.0  0.7143
  C  C577  1  0.786980  0.535180  0.408860  1.0  0.6904
  C  C578  1  0.704750  0.533200  0.450500  1.0  -0.0958
  C  C579  1  0.716690  0.496750  0.472870  1.0  -0.037
  C  C580  1  0.654310  0.496080  0.513500  1.0  -0.1044
  C  C581  1  0.584380  0.532040  0.530800  1.0  0.1534
  C  C582  1  0.624520  0.567690  0.469270  1.0  0.1557
  C  C583  1  0.594740  0.608010  0.448710  1.0  0.1715
  C  C584  1  0.574590  0.678760  0.455860  1.0  0.1301
  C  C585  1  0.545560  0.685550  0.415930  1.0  -0.139
  C  C586  1  0.535980  0.651750  0.393490  1.0  0.0142
  C  C587  1  0.557680  0.611980  0.409860  1.0  -0.1182
  C  C588  1  0.525640  0.576890  0.387230  1.0  0.6818
  C  C589  1  0.072800  0.598500  0.305500  1.0  0.6334
  C  C590  1  0.139500  0.638500  0.301500  1.0  -0.1072
  C  C591  1  0.134900  0.661300  0.337900  1.0  -0.0472
  C  C592  1  0.189600  0.698700  0.340700  1.0  -0.1711
  C  C593  1  0.220600  0.711600  0.299600  1.0  0.1363
  C  C594  1  0.199200  0.652100  0.266300  1.0  0.2304
  C  C595  1  0.223100  0.627800  0.228000  1.0  0.0417
  C  C596  1  0.228700  0.616300  0.156700  1.0  0.0905
  C  C597  1  0.299200  0.582000  0.151800  1.0  -0.0929
  C  C598  1  0.330100  0.568000  0.187400  1.0  -0.1329
  C  C599  1  0.297400  0.590100  0.225500  1.0  -0.037
  C  C600  1  0.354680  0.569960  0.260080  1.0  0.6725
  N  N601  1  0.279630  0.449370  0.106170  1.0  -0.315
  N  N602  1  0.105660  0.400840  0.113640  1.0  -0.3173
  N  N603  1  0.735510  0.190350  0.057630  1.0  -0.3236
  N  N604  1  0.963730  0.152670  0.024270  1.0  -0.3121
  N  N605  1  0.930930  0.471780  0.858960  1.0  -0.343
  N  N606  1  0.920300  0.509420  0.932580  1.0  -0.3236
  N  N607  1  0.629500  0.188400  0.857200  1.0  -0.3111
  N  N608  1  0.507200  0.264500  0.809300  1.0  -0.4099
  N  N609  1  0.335170  0.050630  0.393830  1.0  -0.3146
  N  N610  1  0.120140  0.099160  0.386360  1.0  -0.317
  N  N611  1  0.483490  0.309650  0.442370  1.0  -0.3243
  N  N612  1  0.640670  0.347330  0.475730  1.0  -0.3116
  N  N613  1  0.761670  0.028220  0.641040  1.0  -0.3437
  N  N614  1  0.862300  0.990580  0.567420  1.0  -0.3241
  N  N615  1  0.175100  0.311600  0.642800  1.0  -0.3073
  N  N616  1  0.081000  0.235500  0.690700  1.0  -0.411
  N  N617  1  0.385800  0.893830  0.949370  1.0  -0.3141
  N  N618  1  0.219300  0.886360  0.900840  1.0  -0.32
  N  N619  1  0.793140  0.942370  0.690350  1.0  -0.3248
  N  N620  1  0.988000  0.975730  0.652670  1.0  -0.3099
  N  N621  1  0.789890  0.141040  0.971780  1.0  -0.3419
  N  N622  1  0.852880  0.067420  0.009420  1.0  -0.3228
  N  N623  1  0.486700  0.142800  0.688400  1.0  -0.3058
  N  N624  1  0.316500  0.190700  0.764500  1.0  -0.4116
  N  N625  1  0.729000  0.606170  0.550630  1.0  -0.3169
  N  N626  1  0.506500  0.613640  0.599160  1.0  -0.3177
  N  N627  1  0.925860  0.557630  0.809650  1.0  -0.3239
  N  N628  1  0.116400  0.524270  0.847330  1.0  -0.3131
  N  N629  1  0.402710  0.358960  0.528220  1.0  -0.3434
  N  N630  1  0.429720  0.432580  0.490580  1.0  -0.3243
  N  N631  1  0.817900  0.357200  0.811600  1.0  -0.3057
  N  N632  1  0.771700  0.309300  0.735500  1.0  -0.4108
  N  N633  1  0.720370  0.550630  0.893830  1.0  -0.3154
  N  N634  1  0.894340  0.599160  0.886360  1.0  -0.3176
  N  N635  1  0.264490  0.809650  0.942370  1.0  -0.3234
  N  N636  1  0.036270  0.847330  0.975730  1.0  -0.3121
  N  N637  1  0.069070  0.528220  0.141040  1.0  -0.3431
  N  N638  1  0.079700  0.490580  0.067420  1.0  -0.3244
  N  N639  1  0.370500  0.811600  0.142800  1.0  -0.3085
  N  N640  1  0.492800  0.735500  0.190700  1.0  -0.4102
  N  N641  1  0.664830  0.949370  0.606170  1.0  -0.3158
  N  N642  1  0.879860  0.900840  0.613640  1.0  -0.3164
  N  N643  1  0.516510  0.690350  0.557630  1.0  -0.3228
  N  N644  1  0.359330  0.652670  0.524270  1.0  -0.3107
  N  N645  1  0.238330  0.971780  0.358960  1.0  -0.3422
  N  N646  1  0.137700  0.009420  0.432580  1.0  -0.3247
  N  N647  1  0.824900  0.688400  0.357200  1.0  -0.3089
  N  N648  1  0.919000  0.764500  0.309300  1.0  -0.4106
  N  N649  1  0.614200  0.106170  0.050630  1.0  -0.3168
  N  N650  1  0.780700  0.113640  0.099160  1.0  -0.3181
  N  N651  1  0.206860  0.057630  0.309650  1.0  -0.3246
  N  N652  1  0.012000  0.024270  0.347330  1.0  -0.312
  N  N653  1  0.210110  0.858960  0.028220  1.0  -0.3413
  N  N654  1  0.147120  0.932580  0.990580  1.0  -0.3231
  N  N655  1  0.513300  0.857200  0.311600  1.0  -0.3046
  N  N656  1  0.683500  0.809300  0.235500  1.0  -0.4105
  N  N657  1  0.271000  0.393830  0.449370  1.0  -0.3164
  N  N658  1  0.493500  0.386360  0.400840  1.0  -0.3194
  N  N659  1  0.074140  0.442370  0.190350  1.0  -0.3246
  N  N660  1  0.883600  0.475730  0.152670  1.0  -0.3126
  N  N661  1  0.597290  0.641040  0.471780  1.0  -0.3424
  N  N662  1  0.570280  0.567420  0.509420  1.0  -0.3219
  N  N663  1  0.182100  0.642800  0.188400  1.0  -0.304
  N  N664  1  0.228300  0.690700  0.264500  1.0  -0.4107
  O  O665  1  0.519900  0.367180  0.996020  1.0  -0.7385
  O  O666  1  0.319330  0.361280  0.014660  1.0  -0.7542
  O  O667  1  0.419980  0.288980  0.071460  1.0  -0.5682
  O  O668  1  0.486980  0.339980  0.100060  1.0  -0.5675
  O  O669  1  0.721470  0.405550  0.944110  1.0  -0.6408
  O  O670  1  0.850560  0.379090  0.985590  1.0  -0.6603
  O  O671  1  0.118460  0.406230  0.949650  1.0  -0.6721
  O  O672  1  0.100550  0.347850  0.921650  1.0  -0.6171
  O  O673  1  0.904970  0.308330  0.076530  1.0  -0.5538
  O  O674  1  0.038510  0.249440  0.079140  1.0  -0.567
  O  O675  1  0.863610  0.275160  0.992220  1.0  -0.7425
  O  O676  1  0.064200  0.283090  0.977510  1.0  -0.7433
  O  O677  1  0.601290  0.336700  0.916320  1.0  -0.5768
  O  O678  1  0.693420  0.275620  0.913340  1.0  -0.6848
  O  O679  1  0.406270  0.274620  0.962640  1.0  -0.6465
  O  O680  1  0.290240  0.274070  0.915450  1.0  -0.6008
  O  O681  1  0.383100  0.132820  0.503980  1.0  -0.7376
  O  O682  1  0.195270  0.138720  0.485340  1.0  -0.7528
  O  O683  1  0.280420  0.211020  0.428540  1.0  -0.568
  O  O684  1  0.427020  0.160020  0.399940  1.0  -0.5639
  O  O685  1  0.571130  0.094450  0.555890  1.0  -0.6417
  O  O686  1  0.715240  0.120910  0.514410  1.0  -0.6587
  O  O687  1  0.974340  0.093770  0.550350  1.0  -0.6731
  O  O688  1  0.870050  0.152150  0.578350  1.0  -0.6188
  O  O689  1  0.789830  0.191670  0.423470  1.0  -0.5536
  O  O690  1  0.867090  0.250560  0.420860  1.0  -0.5666
  O  O691  1  0.630990  0.224840  0.507780  1.0  -0.7414
  O  O692  1  0.824800  0.216910  0.522490  1.0  -0.7446
  O  O693  1  0.354310  0.163300  0.583680  1.0  -0.577
  O  O694  1  0.382380  0.224380  0.586660  1.0  -0.6855
  O  O695  1  0.143530  0.225380  0.537360  1.0  -0.6472
  O  O696  1  0.979760  0.225930  0.584550  1.0  -0.6024
  O  O697  1  0.515920  0.003980  0.867180  1.0  -0.7388
  O  O698  1  0.333990  0.985340  0.861280  1.0  -0.7512
  O  O699  1  0.491440  0.928540  0.788980  1.0  -0.5673
  O  O700  1  0.587040  0.899940  0.839980  1.0  -0.5635
  O  O701  1  0.665580  0.055890  0.905550  1.0  -0.6409
  O  O702  1  0.836150  0.014410  0.879090  1.0  -0.6611
  O  O703  1  0.068110  0.050350  0.906230  1.0  -0.6742
  O  O704  1  0.022200  0.078350  0.847850  1.0  -0.6177
  O  O705  1  0.981500  0.923470  0.808330  1.0  -0.5552
  O  O706  1  0.117650  0.920860  0.749440  1.0  -0.5677
  O  O707  1  0.855830  0.007780  0.775160  1.0  -0.7433
  O  O708  1  0.041710  0.022490  0.783090  1.0  -0.7411
  O  O709  1  0.517610  0.083680  0.836700  1.0  -0.578
  O  O710  1  0.606760  0.086660  0.775620  1.0  -0.6849
  O  O711  1  0.368910  0.037360  0.774620  1.0  -0.6379
  O  O712  1  0.205690  0.084550  0.774070  1.0  -0.6039
  O  O713  1  0.887080  0.496020  0.632820  1.0  -0.7378
  O  O714  1  0.680610  0.514660  0.638720  1.0  -0.7533
  O  O715  1  0.708960  0.571460  0.711020  1.0  -0.5691
  O  O716  1  0.826960  0.600060  0.660020  1.0  -0.5624
  O  O717  1  0.127020  0.444110  0.594450  1.0  -0.6398
  O  O718  1  0.229650  0.485590  0.620910  1.0  -0.6651
  O  O719  1  0.524690  0.449650  0.593770  1.0  -0.6741
  O  O720  1  0.448400  0.421650  0.652150  1.0  -0.6214
  O  O721  1  0.213300  0.576530  0.691670  1.0  -0.5526
  O  O722  1  0.287950  0.579140  0.750560  1.0  -0.5715
  O  O723  1  0.138770  0.492220  0.724840  1.0  -0.7414
  O  O724  1  0.347290  0.477510  0.716910  1.0  -0.7436
  O  O725  1  0.937990  0.416320  0.663300  1.0  -0.5764
  O  O726  1  0.969040  0.413340  0.724380  1.0  -0.6865
  O  O727  1  0.680890  0.462640  0.725380  1.0  -0.6405
  O  O728  1  0.564310  0.415450  0.725930  1.0  -0.605
  O  O729  1  0.480100  0.632820  0.003980  1.0  -0.7382
  O  O730  1  0.680670  0.638720  0.985340  1.0  -0.7515
  O  O731  1  0.580020  0.711020  0.928540  1.0  -0.568
  O  O732  1  0.513020  0.660020  0.899940  1.0  -0.5656
  O  O733  1  0.278530  0.594450  0.055890  1.0  -0.641
  O  O734  1  0.149440  0.620910  0.014410  1.0  -0.6593
  O  O735  1  0.881540  0.593770  0.050350  1.0  -0.6739
  O  O736  1  0.899450  0.652150  0.078350  1.0  -0.619
  O  O737  1  0.095030  0.691670  0.923470  1.0  -0.5537
  O  O738  1  0.961490  0.750560  0.920860  1.0  -0.5679
  O  O739  1  0.136390  0.724840  0.007780  1.0  -0.7439
  O  O740  1  0.935800  0.716910  0.022490  1.0  -0.7439
  O  O741  1  0.398710  0.663300  0.083680  1.0  -0.5777
  O  O742  1  0.306580  0.724380  0.086660  1.0  -0.685
  O  O743  1  0.593730  0.725380  0.037360  1.0  -0.6448
  O  O744  1  0.709760  0.725930  0.084550  1.0  -0.6001
  O  O745  1  0.616900  0.867180  0.496020  1.0  -0.7377
  O  O746  1  0.804730  0.861280  0.514660  1.0  -0.7524
  O  O747  1  0.719580  0.788980  0.571460  1.0  -0.5673
  O  O748  1  0.572980  0.839980  0.600060  1.0  -0.5597
  O  O749  1  0.428870  0.905550  0.444110  1.0  -0.6427
  O  O750  1  0.284760  0.879090  0.485590  1.0  -0.6587
  O  O751  1  0.025660  0.906230  0.449650  1.0  -0.6718
  O  O752  1  0.129950  0.847850  0.421650  1.0  -0.6175
  O  O753  1  0.210170  0.808330  0.576530  1.0  -0.5531
  O  O754  1  0.132910  0.749440  0.579140  1.0  -0.5635
  O  O755  1  0.369010  0.775160  0.492220  1.0  -0.7423
  O  O756  1  0.175200  0.783090  0.477510  1.0  -0.7451
  O  O757  1  0.645690  0.836700  0.416320  1.0  -0.5765
  O  O758  1  0.617620  0.775620  0.413340  1.0  -0.6845
  O  O759  1  0.856470  0.774620  0.462640  1.0  -0.6487
  O  O760  1  0.020240  0.774070  0.415450  1.0  -0.6014
  O  O761  1  0.484080  0.996020  0.132820  1.0  -0.7377
  O  O762  1  0.666010  0.014660  0.138720  1.0  -0.7514
  O  O763  1  0.508560  0.071460  0.211020  1.0  -0.5679
  O  O764  1  0.412960  0.100060  0.160020  1.0  -0.5604
  O  O765  1  0.334420  0.944110  0.094450  1.0  -0.6409
  O  O766  1  0.163850  0.985590  0.120910  1.0  -0.6619
  O  O767  1  0.931890  0.949650  0.093770  1.0  -0.6743
  O  O768  1  0.977800  0.921650  0.152150  1.0  -0.6217
  O  O769  1  0.018500  0.076530  0.191670  1.0  -0.553
  O  O770  1  0.882350  0.079140  0.250560  1.0  -0.5665
  O  O771  1  0.144170  0.992220  0.224840  1.0  -0.7434
  O  O772  1  0.958290  0.977510  0.216910  1.0  -0.7423
  O  O773  1  0.482390  0.916320  0.163300  1.0  -0.5764
  O  O774  1  0.393240  0.913340  0.224380  1.0  -0.6849
  O  O775  1  0.631090  0.962640  0.225380  1.0  -0.6406
  O  O776  1  0.794310  0.915450  0.225930  1.0  -0.6028
  O  O777  1  0.112920  0.503980  0.367180  1.0  -0.7381
  O  O778  1  0.319390  0.485340  0.361280  1.0  -0.7526
  O  O779  1  0.291040  0.428540  0.288980  1.0  -0.5684
  O  O780  1  0.173040  0.399940  0.339980  1.0  -0.5608
  O  O781  1  0.872980  0.555890  0.405550  1.0  -0.6398
  O  O782  1  0.770350  0.514410  0.379090  1.0  -0.6629
  O  O783  1  0.475310  0.550350  0.406230  1.0  -0.6735
  O  O784  1  0.551600  0.578350  0.347850  1.0  -0.6183
  O  O785  1  0.786700  0.423470  0.308330  1.0  -0.554
  O  O786  1  0.712050  0.420860  0.249440  1.0  -0.5686
  O  O787  1  0.861230  0.507780  0.275160  1.0  -0.7435
  O  O788  1  0.652710  0.522490  0.283090  1.0  -0.7433
  O  O789  1  0.062010  0.583680  0.336700  1.0  -0.5776
  O  O790  1  0.030960  0.586660  0.275620  1.0  -0.685
  O  O791  1  0.319110  0.537360  0.274620  1.0  -0.6382
  O  O792  1  0.435690  0.584550  0.274070  1.0  -0.6036
