# generated using pymatgen
data_ZnH10(C7N2)2
_symmetry_space_group_name_H-M   'P 1'
_cell_length_a   32.24410000
_cell_length_b   32.24410000
_cell_length_c   32.24410000
_cell_angle_alpha   60.00000000
_cell_angle_beta   60.00000000
_cell_angle_gamma   60.00000000
_symmetry_Int_Tables_number   1
_chemical_formula_structural   ZnH10(C7N2)2
_chemical_formula_sum   'Zn48 H480 C672 N192'
_cell_volume   23704.77188053
_cell_formula_units_Z   48
loop_
 _symmetry_equiv_pos_site_id
 _symmetry_equiv_pos_as_xyz
  1  'x, y, z'
loop_
 _atom_site_type_symbol
 _atom_site_label
 _atom_site_symmetry_multiplicity
 _atom_site_fract_x
 _atom_site_fract_y
 _atom_site_fract_z
 _atom_site_occupancy
 _atom_site_charge
  Zn  Zn1  1  0.525930  0.342990  0.156570  1.0  0.7654
  Zn  Zn2  1  0.342990  0.525930  0.974510  1.0  0.7661
  Zn  Zn3  1  0.156570  0.974510  0.525930  1.0  0.7657
  Zn  Zn4  1  0.974510  0.156570  0.342990  1.0  0.7649
  Zn  Zn5  1  0.525930  0.156570  0.974510  1.0  0.7645
  Zn  Zn6  1  0.342990  0.974510  0.156570  1.0  0.7662
  Zn  Zn7  1  0.156570  0.525930  0.342990  1.0  0.766
  Zn  Zn8  1  0.974510  0.342990  0.525930  1.0  0.7649
  Zn  Zn9  1  0.525930  0.974510  0.342990  1.0  0.766
  Zn  Zn10  1  0.342990  0.156570  0.525930  1.0  0.7659
  Zn  Zn11  1  0.156570  0.342990  0.974510  1.0  0.7658
  Zn  Zn12  1  0.974510  0.525930  0.156570  1.0  0.7654
  Zn  Zn13  1  0.657010  0.474070  0.843430  1.0  0.766
  Zn  Zn14  1  0.474070  0.657010  0.025490  1.0  0.7647
  Zn  Zn15  1  0.025490  0.843430  0.474070  1.0  0.7647
  Zn  Zn16  1  0.843430  0.025490  0.657010  1.0  0.7659
  Zn  Zn17  1  0.843430  0.474070  0.025490  1.0  0.7654
  Zn  Zn18  1  0.025490  0.657010  0.843430  1.0  0.7648
  Zn  Zn19  1  0.474070  0.843430  0.657010  1.0  0.7649
  Zn  Zn20  1  0.657010  0.025490  0.474070  1.0  0.766
  Zn  Zn21  1  0.025490  0.474070  0.657010  1.0  0.7648
  Zn  Zn22  1  0.843430  0.657010  0.474070  1.0  0.7659
  Zn  Zn23  1  0.657010  0.843430  0.025490  1.0  0.766
  Zn  Zn24  1  0.474070  0.025490  0.843430  1.0  0.7669
  Zn  Zn25  1  0.474070  0.657010  0.843430  1.0  0.7651
  Zn  Zn26  1  0.657010  0.474070  0.025490  1.0  0.7656
  Zn  Zn27  1  0.843430  0.025490  0.474070  1.0  0.7664
  Zn  Zn28  1  0.025490  0.843430  0.657010  1.0  0.7644
  Zn  Zn29  1  0.474070  0.843430  0.025490  1.0  0.7651
  Zn  Zn30  1  0.657010  0.025490  0.843430  1.0  0.7661
  Zn  Zn31  1  0.843430  0.474070  0.657010  1.0  0.7651
  Zn  Zn32  1  0.025490  0.657010  0.474070  1.0  0.7646
  Zn  Zn33  1  0.474070  0.025490  0.657010  1.0  0.7668
  Zn  Zn34  1  0.657010  0.843430  0.474070  1.0  0.766
  Zn  Zn35  1  0.843430  0.657010  0.025490  1.0  0.7659
  Zn  Zn36  1  0.025490  0.474070  0.843430  1.0  0.7648
  Zn  Zn37  1  0.342990  0.525930  0.156570  1.0  0.7657
  Zn  Zn38  1  0.525930  0.342990  0.974510  1.0  0.7657
  Zn  Zn39  1  0.974510  0.156570  0.525930  1.0  0.7645
  Zn  Zn40  1  0.156570  0.974510  0.342990  1.0  0.766
  Zn  Zn41  1  0.156570  0.525930  0.974510  1.0  0.7658
  Zn  Zn42  1  0.974510  0.342990  0.156570  1.0  0.7648
  Zn  Zn43  1  0.525930  0.156570  0.342990  1.0  0.7647
  Zn  Zn44  1  0.342990  0.974510  0.525930  1.0  0.7664
  Zn  Zn45  1  0.974510  0.525930  0.342990  1.0  0.7655
  Zn  Zn46  1  0.156570  0.342990  0.525930  1.0  0.7658
  Zn  Zn47  1  0.342990  0.156570  0.974510  1.0  0.7658
  Zn  Zn48  1  0.525930  0.974510  0.156570  1.0  0.7659
  H  H49  1  0.429700  0.300700  0.206300  1.0  0.0983
  H  H50  1  0.368500  0.281100  0.212300  1.0  0.0903
  H  H51  1  0.640700  0.262300  0.113900  1.0  0.069
  H  H52  1  0.719400  0.232600  0.068400  1.0  0.1007
  H  H53  1  0.499600  0.357400  0.262600  1.0  0.0863
  H  H54  1  0.462900  0.388900  0.326900  1.0  0.1305
  H  H55  1  0.612100  0.331100  0.189300  1.0  0.0953
  H  H56  1  0.656200  0.309400  0.236400  1.0  0.1938
  H  H57  1  0.300700  0.429700  0.063300  1.0  0.0982
  H  H58  1  0.281100  0.368500  0.138100  1.0  0.0902
  H  H59  1  0.262300  0.640700  0.983100  1.0  0.069
  H  H60  1  0.232600  0.719400  0.979600  1.0  0.1004
  H  H61  1  0.357400  0.499600  0.880400  1.0  0.0863
  H  H62  1  0.388900  0.462900  0.821300  1.0  0.1322
  H  H63  1  0.331100  0.612100  0.867500  1.0  0.0942
  H  H64  1  0.309400  0.656200  0.798000  1.0  0.196
  H  H65  1  0.206300  0.063300  0.429700  1.0  0.0981
  H  H66  1  0.212300  0.138100  0.368500  1.0  0.0907
  H  H67  1  0.113900  0.983100  0.640700  1.0  0.0688
  H  H68  1  0.068400  0.979600  0.719400  1.0  0.0994
  H  H69  1  0.262600  0.880400  0.499600  1.0  0.0871
  H  H70  1  0.326900  0.821300  0.462900  1.0  0.1325
  H  H71  1  0.189300  0.867500  0.612100  1.0  0.0952
  H  H72  1  0.236400  0.798000  0.656200  1.0  0.1944
  H  H73  1  0.063300  0.206300  0.300700  1.0  0.0986
  H  H74  1  0.138100  0.212300  0.281100  1.0  0.0901
  H  H75  1  0.983100  0.113900  0.262300  1.0  0.0677
  H  H76  1  0.979600  0.068400  0.232600  1.0  0.1002
  H  H77  1  0.880400  0.262600  0.357400  1.0  0.0873
  H  H78  1  0.821300  0.326900  0.388900  1.0  0.1307
  H  H79  1  0.867500  0.189300  0.331100  1.0  0.096
  H  H80  1  0.798000  0.236400  0.309400  1.0  0.1948
  H  H81  1  0.429700  0.206300  0.063300  1.0  0.0978
  H  H82  1  0.368500  0.212300  0.138100  1.0  0.0905
  H  H83  1  0.640700  0.113900  0.983100  1.0  0.0693
  H  H84  1  0.719400  0.068400  0.979600  1.0  0.0995
  H  H85  1  0.499600  0.262600  0.880400  1.0  0.0859
  H  H86  1  0.462900  0.326900  0.821300  1.0  0.131
  H  H87  1  0.612100  0.189300  0.867500  1.0  0.0958
  H  H88  1  0.656200  0.236400  0.798000  1.0  0.1948
  H  H89  1  0.300700  0.063300  0.206300  1.0  0.0986
  H  H90  1  0.281100  0.138100  0.212300  1.0  0.0902
  H  H91  1  0.262300  0.983100  0.113900  1.0  0.0703
  H  H92  1  0.232600  0.979600  0.068400  1.0  0.0997
  H  H93  1  0.357400  0.880400  0.262600  1.0  0.0855
  H  H94  1  0.388900  0.821300  0.326900  1.0  0.1324
  H  H95  1  0.331100  0.867500  0.189300  1.0  0.0951
  H  H96  1  0.309400  0.798000  0.236400  1.0  0.196
  H  H97  1  0.206300  0.429700  0.300700  1.0  0.0985
  H  H98  1  0.212300  0.368500  0.281100  1.0  0.0898
  H  H99  1  0.113900  0.640700  0.262300  1.0  0.0679
  H  H100  1  0.068400  0.719400  0.232600  1.0  0.1003
  H  H101  1  0.262600  0.499600  0.357400  1.0  0.0862
  H  H102  1  0.326900  0.462900  0.388900  1.0  0.1316
  H  H103  1  0.189300  0.612100  0.331100  1.0  0.0951
  H  H104  1  0.236400  0.656200  0.309400  1.0  0.1956
  H  H105  1  0.063300  0.300700  0.429700  1.0  0.0981
  H  H106  1  0.138100  0.281100  0.368500  1.0  0.091
  H  H107  1  0.983100  0.262300  0.640700  1.0  0.0699
  H  H108  1  0.979600  0.232600  0.719400  1.0  0.1009
  H  H109  1  0.880400  0.357400  0.499600  1.0  0.0857
  H  H110  1  0.821300  0.388900  0.462900  1.0  0.1312
  H  H111  1  0.867500  0.331100  0.612100  1.0  0.0954
  H  H112  1  0.798000  0.309400  0.656200  1.0  0.1945
  H  H113  1  0.429700  0.063300  0.300700  1.0  0.0985
  H  H114  1  0.368500  0.138100  0.281100  1.0  0.0898
  H  H115  1  0.640700  0.983100  0.262300  1.0  0.0699
  H  H116  1  0.719400  0.979600  0.232600  1.0  0.1005
  H  H117  1  0.499600  0.880400  0.357400  1.0  0.0857
  H  H118  1  0.462900  0.821300  0.388900  1.0  0.1311
  H  H119  1  0.612100  0.867500  0.331100  1.0  0.0972
  H  H120  1  0.656200  0.798000  0.309400  1.0  0.1949
  H  H121  1  0.300700  0.206300  0.429700  1.0  0.098
  H  H122  1  0.281100  0.212300  0.368500  1.0  0.0891
  H  H123  1  0.262300  0.113900  0.640700  1.0  0.0686
  H  H124  1  0.232600  0.068400  0.719400  1.0  0.102
  H  H125  1  0.357400  0.262600  0.499600  1.0  0.0858
  H  H126  1  0.388900  0.326900  0.462900  1.0  0.1311
  H  H127  1  0.331100  0.189300  0.612100  1.0  0.0955
  H  H128  1  0.309400  0.236400  0.656200  1.0  0.1937
  H  H129  1  0.206300  0.300700  0.063300  1.0  0.0983
  H  H130  1  0.212300  0.281100  0.138100  1.0  0.0896
  H  H131  1  0.113900  0.262300  0.983100  1.0  0.0695
  H  H132  1  0.068400  0.232600  0.979600  1.0  0.1014
  H  H133  1  0.262600  0.357400  0.880400  1.0  0.0863
  H  H134  1  0.326900  0.388900  0.821300  1.0  0.1322
  H  H135  1  0.189300  0.331100  0.867500  1.0  0.0952
  H  H136  1  0.236400  0.309400  0.798000  1.0  0.197
  H  H137  1  0.063300  0.429700  0.206300  1.0  0.0992
  H  H138  1  0.138100  0.368500  0.212300  1.0  0.0899
  H  H139  1  0.983100  0.640700  0.113900  1.0  0.0687
  H  H140  1  0.979600  0.719400  0.068400  1.0  0.1013
  H  H141  1  0.880400  0.499600  0.262600  1.0  0.086
  H  H142  1  0.821300  0.462900  0.326900  1.0  0.1309
  H  H143  1  0.867500  0.612100  0.189300  1.0  0.0977
  H  H144  1  0.798000  0.656200  0.236400  1.0  0.195
  H  H145  1  0.699300  0.570300  0.793700  1.0  0.0982
  H  H146  1  0.718900  0.631500  0.787700  1.0  0.0911
  H  H147  1  0.737700  0.359300  0.886100  1.0  0.0681
  H  H148  1  0.767400  0.280600  0.931600  1.0  0.1009
  H  H149  1  0.642600  0.500400  0.737400  1.0  0.0857
  H  H150  1  0.611100  0.537100  0.673100  1.0  0.1303
  H  H151  1  0.668900  0.387900  0.810700  1.0  0.0944
  H  H152  1  0.690600  0.343800  0.763600  1.0  0.1922
  H  H153  1  0.570300  0.699300  0.936700  1.0  0.0982
  H  H154  1  0.631500  0.718900  0.861900  1.0  0.0903
  H  H155  1  0.359300  0.737700  0.016900  1.0  0.0681
  H  H156  1  0.280600  0.767400  0.020400  1.0  0.101
  H  H157  1  0.500400  0.642600  0.119600  1.0  0.0864
  H  H158  1  0.537100  0.611100  0.178700  1.0  0.1311
  H  H159  1  0.387900  0.668900  0.132500  1.0  0.0951
  H  H160  1  0.343800  0.690600  0.202000  1.0  0.1916
  H  H161  1  0.936700  0.793700  0.570300  1.0  0.0986
  H  H162  1  0.861900  0.787700  0.631500  1.0  0.0896
  H  H163  1  0.016900  0.886100  0.359300  1.0  0.068
  H  H164  1  0.020400  0.931600  0.280600  1.0  0.0998
  H  H165  1  0.119600  0.737400  0.500400  1.0  0.0868
  H  H166  1  0.178700  0.673100  0.537100  1.0  0.1311
  H  H167  1  0.132500  0.810700  0.387900  1.0  0.0957
  H  H168  1  0.202000  0.763600  0.343800  1.0  0.1942
  H  H169  1  0.793700  0.936700  0.699300  1.0  0.0987
  H  H170  1  0.787700  0.861900  0.718900  1.0  0.0906
  H  H171  1  0.886100  0.016900  0.737700  1.0  0.0704
  H  H172  1  0.931600  0.020400  0.767400  1.0  0.1001
  H  H173  1  0.737400  0.119600  0.642600  1.0  0.0871
  H  H174  1  0.673100  0.178700  0.611100  1.0  0.1317
  H  H175  1  0.810700  0.132500  0.668900  1.0  0.0951
  H  H176  1  0.763600  0.202000  0.690600  1.0  0.1937
  H  H177  1  0.793700  0.570300  0.936700  1.0  0.0979
  H  H178  1  0.787700  0.631500  0.861900  1.0  0.0905
  H  H179  1  0.886100  0.359300  0.016900  1.0  0.0681
  H  H180  1  0.931600  0.280600  0.020400  1.0  0.1
  H  H181  1  0.737400  0.500400  0.119600  1.0  0.0862
  H  H182  1  0.673100  0.537100  0.178700  1.0  0.1313
  H  H183  1  0.810700  0.387900  0.132500  1.0  0.0955
  H  H184  1  0.763600  0.343800  0.202000  1.0  0.1934
  H  H185  1  0.936700  0.699300  0.793700  1.0  0.0984
  H  H186  1  0.861900  0.718900  0.787700  1.0  0.0913
  H  H187  1  0.016900  0.737700  0.886100  1.0  0.0702
  H  H188  1  0.020400  0.767400  0.931600  1.0  0.1005
  H  H189  1  0.119600  0.642600  0.737400  1.0  0.0855
  H  H190  1  0.178700  0.611100  0.673100  1.0  0.1325
  H  H191  1  0.132500  0.668900  0.810700  1.0  0.0956
  H  H192  1  0.202000  0.690600  0.763600  1.0  0.1963
  H  H193  1  0.570300  0.793700  0.699300  1.0  0.0976
  H  H194  1  0.631500  0.787700  0.718900  1.0  0.0907
  H  H195  1  0.359300  0.886100  0.737700  1.0  0.0703
  H  H196  1  0.280600  0.931600  0.767400  1.0  0.1015
  H  H197  1  0.500400  0.737400  0.642600  1.0  0.0858
  H  H198  1  0.537100  0.673100  0.611100  1.0  0.1305
  H  H199  1  0.387900  0.810700  0.668900  1.0  0.0954
  H  H200  1  0.343800  0.763600  0.690600  1.0  0.1939
  H  H201  1  0.699300  0.936700  0.570300  1.0  0.0987
  H  H202  1  0.718900  0.861900  0.631500  1.0  0.0899
  H  H203  1  0.737700  0.016900  0.359300  1.0  0.0692
  H  H204  1  0.767400  0.020400  0.280600  1.0  0.1005
  H  H205  1  0.642600  0.119600  0.500400  1.0  0.086
  H  H206  1  0.611100  0.178700  0.537100  1.0  0.1318
  H  H207  1  0.668900  0.132500  0.387900  1.0  0.095
  H  H208  1  0.690600  0.202000  0.343800  1.0  0.1929
  H  H209  1  0.936700  0.570300  0.699300  1.0  0.0997
  H  H210  1  0.861900  0.631500  0.718900  1.0  0.0897
  H  H211  1  0.016900  0.359300  0.737700  1.0  0.07
  H  H212  1  0.020400  0.280600  0.767400  1.0  0.1013
  H  H213  1  0.119600  0.500400  0.642600  1.0  0.0856
  H  H214  1  0.178700  0.537100  0.611100  1.0  0.1313
  H  H215  1  0.132500  0.387900  0.668900  1.0  0.097
  H  H216  1  0.202000  0.343800  0.690600  1.0  0.1957
  H  H217  1  0.793700  0.699300  0.570300  1.0  0.0979
  H  H218  1  0.787700  0.718900  0.631500  1.0  0.0891
  H  H219  1  0.886100  0.737700  0.359300  1.0  0.0682
  H  H220  1  0.931600  0.767400  0.280600  1.0  0.1012
  H  H221  1  0.737400  0.642600  0.500400  1.0  0.086
  H  H222  1  0.673100  0.611100  0.537100  1.0  0.1317
  H  H223  1  0.810700  0.668900  0.387900  1.0  0.0948
  H  H224  1  0.763600  0.690600  0.343800  1.0  0.1957
  H  H225  1  0.699300  0.793700  0.936700  1.0  0.098
  H  H226  1  0.718900  0.787700  0.861900  1.0  0.0902
  H  H227  1  0.737700  0.886100  0.016900  1.0  0.0683
  H  H228  1  0.767400  0.931600  0.020400  1.0  0.1034
  H  H229  1  0.642600  0.737400  0.119600  1.0  0.0858
  H  H230  1  0.611100  0.673100  0.178700  1.0  0.1315
  H  H231  1  0.668900  0.810700  0.132500  1.0  0.0956
  H  H232  1  0.690600  0.763600  0.202000  1.0  0.1935
  H  H233  1  0.570300  0.936700  0.793700  1.0  0.099
  H  H234  1  0.631500  0.861900  0.787700  1.0  0.09
  H  H235  1  0.359300  0.016900  0.886100  1.0  0.07
  H  H236  1  0.280600  0.020400  0.931600  1.0  0.1001
  H  H237  1  0.500400  0.119600  0.737400  1.0  0.0858
  H  H238  1  0.537100  0.178700  0.673100  1.0  0.1316
  H  H239  1  0.387900  0.132500  0.810700  1.0  0.097
  H  H240  1  0.343800  0.202000  0.763600  1.0  0.1928
  H  H241  1  0.570300  0.699300  0.793700  1.0  0.0983
  H  H242  1  0.631500  0.718900  0.787700  1.0  0.0903
  H  H243  1  0.359300  0.737700  0.886100  1.0  0.0677
  H  H244  1  0.280600  0.767400  0.931600  1.0  0.1009
  H  H245  1  0.500400  0.642600  0.737400  1.0  0.0858
  H  H246  1  0.537100  0.611100  0.673100  1.0  0.1308
  H  H247  1  0.387900  0.668900  0.810700  1.0  0.0949
  H  H248  1  0.343800  0.690600  0.763600  1.0  0.193
  H  H249  1  0.699300  0.570300  0.936700  1.0  0.0981
  H  H250  1  0.718900  0.631500  0.861900  1.0  0.0908
  H  H251  1  0.737700  0.359300  0.016900  1.0  0.0685
  H  H252  1  0.767400  0.280600  0.020400  1.0  0.101
  H  H253  1  0.642600  0.500400  0.119600  1.0  0.0863
  H  H254  1  0.611100  0.537100  0.178700  1.0  0.1305
  H  H255  1  0.668900  0.387900  0.132500  1.0  0.0944
  H  H256  1  0.690600  0.343800  0.202000  1.0  0.1923
  H  H257  1  0.793700  0.936700  0.570300  1.0  0.0988
  H  H258  1  0.787700  0.861900  0.631500  1.0  0.09
  H  H259  1  0.886100  0.016900  0.359300  1.0  0.0688
  H  H260  1  0.931600  0.020400  0.280600  1.0  0.0994
  H  H261  1  0.737400  0.119600  0.500400  1.0  0.0872
  H  H262  1  0.673100  0.178700  0.537100  1.0  0.1326
  H  H263  1  0.810700  0.132500  0.387900  1.0  0.0952
  H  H264  1  0.763600  0.202000  0.343800  1.0  0.1938
  H  H265  1  0.936700  0.793700  0.699300  1.0  0.0985
  H  H266  1  0.861900  0.787700  0.718900  1.0  0.09
  H  H267  1  0.016900  0.886100  0.737700  1.0  0.0696
  H  H268  1  0.020400  0.931600  0.767400  1.0  0.1004
  H  H269  1  0.119600  0.737400  0.642600  1.0  0.0867
  H  H270  1  0.178700  0.673100  0.611100  1.0  0.131
  H  H271  1  0.132500  0.810700  0.668900  1.0  0.0957
  H  H272  1  0.202000  0.763600  0.690600  1.0  0.194
  H  H273  1  0.570300  0.793700  0.936700  1.0  0.0978
  H  H274  1  0.631500  0.787700  0.861900  1.0  0.0898
  H  H275  1  0.359300  0.886100  0.016900  1.0  0.0689
  H  H276  1  0.280600  0.931600  0.020400  1.0  0.0998
  H  H277  1  0.500400  0.737400  0.119600  1.0  0.0861
  H  H278  1  0.537100  0.673100  0.178700  1.0  0.1309
  H  H279  1  0.387900  0.810700  0.132500  1.0  0.0955
  H  H280  1  0.343800  0.763600  0.202000  1.0  0.1935
  H  H281  1  0.699300  0.936700  0.793700  1.0  0.0988
  H  H282  1  0.718900  0.861900  0.787700  1.0  0.0902
  H  H283  1  0.737700  0.016900  0.886100  1.0  0.0692
  H  H284  1  0.767400  0.020400  0.931600  1.0  0.1003
  H  H285  1  0.642600  0.119600  0.737400  1.0  0.0859
  H  H286  1  0.611100  0.178700  0.673100  1.0  0.1317
  H  H287  1  0.668900  0.132500  0.810700  1.0  0.0949
  H  H288  1  0.690600  0.202000  0.763600  1.0  0.1935
  H  H289  1  0.793700  0.570300  0.699300  1.0  0.0981
  H  H290  1  0.787700  0.631500  0.718900  1.0  0.0892
  H  H291  1  0.886100  0.359300  0.737700  1.0  0.0699
  H  H292  1  0.931600  0.280600  0.767400  1.0  0.1008
  H  H293  1  0.737400  0.500400  0.642600  1.0  0.0861
  H  H294  1  0.673100  0.537100  0.611100  1.0  0.1312
  H  H295  1  0.810700  0.387900  0.668900  1.0  0.0951
  H  H296  1  0.763600  0.343800  0.690600  1.0  0.1941
  H  H297  1  0.936700  0.699300  0.570300  1.0  0.0987
  H  H298  1  0.861900  0.718900  0.631500  1.0  0.0892
  H  H299  1  0.016900  0.737700  0.359300  1.0  0.0698
  H  H300  1  0.020400  0.767400  0.280600  1.0  0.1005
  H  H301  1  0.119600  0.642600  0.500400  1.0  0.0857
  H  H302  1  0.178700  0.611100  0.537100  1.0  0.1325
  H  H303  1  0.132500  0.668900  0.387900  1.0  0.0956
  H  H304  1  0.202000  0.690600  0.343800  1.0  0.1949
  H  H305  1  0.570300  0.936700  0.699300  1.0  0.0991
  H  H306  1  0.631500  0.861900  0.718900  1.0  0.0895
  H  H307  1  0.359300  0.016900  0.737700  1.0  0.0706
  H  H308  1  0.280600  0.020400  0.767400  1.0  0.1015
  H  H309  1  0.500400  0.119600  0.642600  1.0  0.0855
  H  H310  1  0.537100  0.178700  0.611100  1.0  0.1311
  H  H311  1  0.387900  0.132500  0.668900  1.0  0.0973
  H  H312  1  0.343800  0.202000  0.690600  1.0  0.1948
  H  H313  1  0.699300  0.793700  0.570300  1.0  0.0977
  H  H314  1  0.718900  0.787700  0.631500  1.0  0.0898
  H  H315  1  0.737700  0.886100  0.359300  1.0  0.0683
  H  H316  1  0.767400  0.931600  0.280600  1.0  0.1036
  H  H317  1  0.642600  0.737400  0.500400  1.0  0.0855
  H  H318  1  0.611100  0.673100  0.537100  1.0  0.1308
  H  H319  1  0.668900  0.810700  0.387900  1.0  0.0957
  H  H320  1  0.690600  0.763600  0.343800  1.0  0.1953
  H  H321  1  0.793700  0.699300  0.936700  1.0  0.098
  H  H322  1  0.787700  0.718900  0.861900  1.0  0.0902
  H  H323  1  0.886100  0.737700  0.016900  1.0  0.0689
  H  H324  1  0.931600  0.767400  0.020400  1.0  0.1012
  H  H325  1  0.737400  0.642600  0.119600  1.0  0.0861
  H  H326  1  0.673100  0.611100  0.178700  1.0  0.1321
  H  H327  1  0.810700  0.668900  0.132500  1.0  0.0947
  H  H328  1  0.763600  0.690600  0.202000  1.0  0.1933
  H  H329  1  0.936700  0.570300  0.793700  1.0  0.0994
  H  H330  1  0.861900  0.631500  0.787700  1.0  0.0904
  H  H331  1  0.016900  0.359300  0.886100  1.0  0.0684
  H  H332  1  0.020400  0.280600  0.931600  1.0  0.1005
  H  H333  1  0.119600  0.500400  0.737400  1.0  0.0855
  H  H334  1  0.178700  0.537100  0.673100  1.0  0.1309
  H  H335  1  0.132500  0.387900  0.810700  1.0  0.0968
  H  H336  1  0.202000  0.343800  0.763600  1.0  0.194
  H  H337  1  0.300700  0.429700  0.206300  1.0  0.0983
  H  H338  1  0.281100  0.368500  0.212300  1.0  0.0906
  H  H339  1  0.262300  0.640700  0.113900  1.0  0.0693
  H  H340  1  0.232600  0.719400  0.068400  1.0  0.1006
  H  H341  1  0.357400  0.499600  0.262600  1.0  0.0868
  H  H342  1  0.388900  0.462900  0.326900  1.0  0.1312
  H  H343  1  0.331100  0.612100  0.189300  1.0  0.0944
  H  H344  1  0.309400  0.656200  0.236400  1.0  0.1942
  H  H345  1  0.429700  0.300700  0.063300  1.0  0.098
  H  H346  1  0.368500  0.281100  0.138100  1.0  0.0898
  H  H347  1  0.640700  0.262300  0.983100  1.0  0.0686
  H  H348  1  0.719400  0.232600  0.979600  1.0  0.101
  H  H349  1  0.499600  0.357400  0.880400  1.0  0.0858
  H  H350  1  0.462900  0.388900  0.821300  1.0  0.1317
  H  H351  1  0.612100  0.331100  0.867500  1.0  0.0949
  H  H352  1  0.656200  0.309400  0.798000  1.0  0.1947
  H  H353  1  0.063300  0.206300  0.429700  1.0  0.0984
  H  H354  1  0.138100  0.212300  0.368500  1.0  0.091
  H  H355  1  0.983100  0.113900  0.640700  1.0  0.068
  H  H356  1  0.979600  0.068400  0.719400  1.0  0.0997
  H  H357  1  0.880400  0.262600  0.499600  1.0  0.0868
  H  H358  1  0.821300  0.326900  0.462900  1.0  0.1301
  H  H359  1  0.867500  0.189300  0.612100  1.0  0.0959
  H  H360  1  0.798000  0.236400  0.656200  1.0  0.1951
  H  H361  1  0.206300  0.063300  0.300700  1.0  0.0982
  H  H362  1  0.212300  0.138100  0.281100  1.0  0.0901
  H  H363  1  0.113900  0.983100  0.262300  1.0  0.0683
  H  H364  1  0.068400  0.979600  0.232600  1.0  0.1
  H  H365  1  0.262600  0.880400  0.357400  1.0  0.0871
  H  H366  1  0.326900  0.821300  0.388900  1.0  0.1322
  H  H367  1  0.189300  0.867500  0.331100  1.0  0.0953
  H  H368  1  0.236400  0.798000  0.309400  1.0  0.1949
  H  H369  1  0.206300  0.429700  0.063300  1.0  0.0983
  H  H370  1  0.212300  0.368500  0.138100  1.0  0.0888
  H  H371  1  0.113900  0.640700  0.983100  1.0  0.0689
  H  H372  1  0.068400  0.719400  0.979600  1.0  0.1001
  H  H373  1  0.262600  0.499600  0.880400  1.0  0.086
  H  H374  1  0.326900  0.462900  0.821300  1.0  0.1325
  H  H375  1  0.189300  0.612100  0.867500  1.0  0.0951
  H  H376  1  0.236400  0.656200  0.798000  1.0  0.1968
  H  H377  1  0.063300  0.300700  0.206300  1.0  0.0983
  H  H378  1  0.138100  0.281100  0.212300  1.0  0.0891
  H  H379  1  0.983100  0.262300  0.113900  1.0  0.0702
  H  H380  1  0.979600  0.232600  0.068400  1.0  0.1006
  H  H381  1  0.880400  0.357400  0.262600  1.0  0.0861
  H  H382  1  0.821300  0.388900  0.326900  1.0  0.1311
  H  H383  1  0.867500  0.331100  0.189300  1.0  0.0956
  H  H384  1  0.798000  0.309400  0.236400  1.0  0.1952
  H  H385  1  0.429700  0.206300  0.300700  1.0  0.0978
  H  H386  1  0.368500  0.212300  0.281100  1.0  0.0901
  H  H387  1  0.640700  0.113900  0.262300  1.0  0.0685
  H  H388  1  0.719400  0.068400  0.232600  1.0  0.1003
  H  H389  1  0.499600  0.262600  0.357400  1.0  0.0862
  H  H390  1  0.462900  0.326900  0.388900  1.0  0.1301
  H  H391  1  0.612100  0.189300  0.331100  1.0  0.0959
  H  H392  1  0.656200  0.236400  0.309400  1.0  0.1957
  H  H393  1  0.300700  0.063300  0.429700  1.0  0.0982
  H  H394  1  0.281100  0.138100  0.368500  1.0  0.0913
  H  H395  1  0.262300  0.983100  0.640700  1.0  0.0701
  H  H396  1  0.232600  0.979600  0.719400  1.0  0.0996
  H  H397  1  0.357400  0.880400  0.499600  1.0  0.0855
  H  H398  1  0.388900  0.821300  0.462900  1.0  0.1324
  H  H399  1  0.331100  0.867500  0.612100  1.0  0.0953
  H  H400  1  0.309400  0.798000  0.656200  1.0  0.1964
  H  H401  1  0.063300  0.429700  0.300700  1.0  0.099
  H  H402  1  0.138100  0.368500  0.281100  1.0  0.0905
  H  H403  1  0.983100  0.640700  0.262300  1.0  0.0691
  H  H404  1  0.979600  0.719400  0.232600  1.0  0.1008
  H  H405  1  0.880400  0.499600  0.357400  1.0  0.0863
  H  H406  1  0.821300  0.462900  0.388900  1.0  0.1308
  H  H407  1  0.867500  0.612100  0.331100  1.0  0.0971
  H  H408  1  0.798000  0.656200  0.309400  1.0  0.1933
  H  H409  1  0.206300  0.300700  0.429700  1.0  0.0985
  H  H410  1  0.212300  0.281100  0.368500  1.0  0.09
  H  H411  1  0.113900  0.262300  0.640700  1.0  0.0692
  H  H412  1  0.068400  0.232600  0.719400  1.0  0.1017
  H  H413  1  0.262600  0.357400  0.499600  1.0  0.0863
  H  H414  1  0.326900  0.388900  0.462900  1.0  0.1314
  H  H415  1  0.189300  0.331100  0.612100  1.0  0.0951
  H  H416  1  0.236400  0.309400  0.656200  1.0  0.1938
  H  H417  1  0.300700  0.206300  0.063300  1.0  0.0979
  H  H418  1  0.281100  0.212300  0.138100  1.0  0.089
  H  H419  1  0.262300  0.113900  0.983100  1.0  0.0687
  H  H420  1  0.232600  0.068400  0.979600  1.0  0.1018
  H  H421  1  0.357400  0.262600  0.880400  1.0  0.0859
  H  H422  1  0.388900  0.326900  0.821300  1.0  0.132
  H  H423  1  0.331100  0.189300  0.867500  1.0  0.0957
  H  H424  1  0.309400  0.236400  0.798000  1.0  0.1952
  H  H425  1  0.429700  0.063300  0.206300  1.0  0.0989
  H  H426  1  0.368500  0.138100  0.212300  1.0  0.0896
  H  H427  1  0.640700  0.983100  0.113900  1.0  0.07
  H  H428  1  0.719400  0.979600  0.068400  1.0  0.1004
  H  H429  1  0.499600  0.880400  0.262600  1.0  0.0859
  H  H430  1  0.462900  0.821300  0.326900  1.0  0.1319
  H  H431  1  0.612100  0.867500  0.189300  1.0  0.0974
  H  H432  1  0.656200  0.798000  0.236400  1.0  0.1961
  H  H433  1  0.553900  0.347500  0.049300  1.0  0.0517
  H  H434  1  0.347500  0.553900  0.049300  1.0  0.0526
  H  H435  1  0.049300  0.049300  0.553900  1.0  0.0526
  H  H436  1  0.049300  0.049300  0.347500  1.0  0.0528
  H  H437  1  0.553900  0.049300  0.049300  1.0  0.0528
  H  H438  1  0.347500  0.049300  0.049300  1.0  0.0519
  H  H439  1  0.049300  0.553900  0.347500  1.0  0.0519
  H  H440  1  0.049300  0.347500  0.553900  1.0  0.0515
  H  H441  1  0.553900  0.049300  0.347500  1.0  0.0528
  H  H442  1  0.347500  0.049300  0.553900  1.0  0.0523
  H  H443  1  0.049300  0.347500  0.049300  1.0  0.052
  H  H444  1  0.049300  0.553900  0.049300  1.0  0.0526
  H  H445  1  0.652500  0.446100  0.950700  1.0  0.053
  H  H446  1  0.446100  0.652500  0.950700  1.0  0.0522
  H  H447  1  0.950700  0.950700  0.446100  1.0  0.053
  H  H448  1  0.950700  0.950700  0.652500  1.0  0.0528
  H  H449  1  0.950700  0.446100  0.950700  1.0  0.0526
  H  H450  1  0.950700  0.652500  0.950700  1.0  0.0524
  H  H451  1  0.446100  0.950700  0.652500  1.0  0.0527
  H  H452  1  0.652500  0.950700  0.446100  1.0  0.0519
  H  H453  1  0.950700  0.446100  0.652500  1.0  0.0527
  H  H454  1  0.950700  0.652500  0.446100  1.0  0.0517
  H  H455  1  0.652500  0.950700  0.950700  1.0  0.0516
  H  H456  1  0.446100  0.950700  0.950700  1.0  0.0521
  H  H457  1  0.560900  0.439100  0.091700  1.0  0.08
  H  H458  1  0.439100  0.560900  0.908300  1.0  0.0802
  H  H459  1  0.091700  0.908300  0.560900  1.0  0.0774
  H  H460  1  0.908300  0.091700  0.439100  1.0  0.0766
  H  H461  1  0.560900  0.091700  0.908300  1.0  0.0781
  H  H462  1  0.439100  0.908300  0.091700  1.0  0.0779
  H  H463  1  0.091700  0.560900  0.439100  1.0  0.0802
  H  H464  1  0.908300  0.439100  0.560900  1.0  0.0802
  H  H465  1  0.560900  0.908300  0.439100  1.0  0.0791
  H  H466  1  0.439100  0.091700  0.560900  1.0  0.0785
  H  H467  1  0.091700  0.439100  0.908300  1.0  0.0807
  H  H468  1  0.908300  0.560900  0.091700  1.0  0.0806
  H  H469  1  0.560900  0.439100  0.908300  1.0  0.08
  H  H470  1  0.439100  0.560900  0.091700  1.0  0.08
  H  H471  1  0.091700  0.908300  0.439100  1.0  0.0769
  H  H472  1  0.908300  0.091700  0.560900  1.0  0.0776
  H  H473  1  0.908300  0.439100  0.091700  1.0  0.0801
  H  H474  1  0.091700  0.560900  0.908300  1.0  0.0798
  H  H475  1  0.439100  0.908300  0.560900  1.0  0.0781
  H  H476  1  0.560900  0.091700  0.439100  1.0  0.0782
  H  H477  1  0.091700  0.439100  0.560900  1.0  0.0804
  H  H478  1  0.908300  0.560900  0.439100  1.0  0.0809
  H  H479  1  0.560900  0.908300  0.091700  1.0  0.0788
  H  H480  1  0.439100  0.091700  0.908300  1.0  0.0787
  H  H481  1  0.435400  0.435400  0.129600  1.0  0.0793
  H  H482  1  0.435400  0.435400  0.999600  1.0  0.0785
  H  H483  1  0.129600  0.999600  0.435400  1.0  0.078
  H  H484  1  0.999600  0.129600  0.435400  1.0  0.0782
  H  H485  1  0.435400  0.129600  0.999600  1.0  0.0785
  H  H486  1  0.435400  0.999600  0.129600  1.0  0.0794
  H  H487  1  0.129600  0.435400  0.435400  1.0  0.0787
  H  H488  1  0.999600  0.435400  0.435400  1.0  0.0781
  H  H489  1  0.435400  0.999600  0.435400  1.0  0.0784
  H  H490  1  0.435400  0.129600  0.435400  1.0  0.078
  H  H491  1  0.129600  0.435400  0.999600  1.0  0.079
  H  H492  1  0.999600  0.435400  0.129600  1.0  0.0788
  H  H493  1  0.564600  0.564600  0.870400  1.0  0.0787
  H  H494  1  0.564600  0.564600  0.000400  1.0  0.0793
  H  H495  1  0.000400  0.870400  0.564600  1.0  0.0789
  H  H496  1  0.870400  0.000400  0.564600  1.0  0.0773
  H  H497  1  0.870400  0.564600  0.000400  1.0  0.0786
  H  H498  1  0.000400  0.564600  0.870400  1.0  0.078
  H  H499  1  0.564600  0.870400  0.564600  1.0  0.0789
  H  H500  1  0.564600  0.000400  0.564600  1.0  0.0787
  H  H501  1  0.000400  0.564600  0.564600  1.0  0.0784
  H  H502  1  0.870400  0.564600  0.564600  1.0  0.0791
  H  H503  1  0.564600  0.870400  0.000400  1.0  0.0787
  H  H504  1  0.564600  0.000400  0.870400  1.0  0.0784
  H  H505  1  0.506400  0.240600  0.240600  1.0  0.0582
  H  H506  1  0.240600  0.506400  0.012400  1.0  0.0584
  H  H507  1  0.240600  0.012400  0.506400  1.0  0.0576
  H  H508  1  0.012400  0.240600  0.240600  1.0  0.0577
  H  H509  1  0.506400  0.240600  0.012400  1.0  0.0581
  H  H510  1  0.240600  0.012400  0.240600  1.0  0.0579
  H  H511  1  0.240600  0.506400  0.240600  1.0  0.0585
  H  H512  1  0.012400  0.240600  0.506400  1.0  0.0574
  H  H513  1  0.506400  0.012400  0.240600  1.0  0.0577
  H  H514  1  0.240600  0.240600  0.506400  1.0  0.0595
  H  H515  1  0.240600  0.240600  0.012400  1.0  0.0593
  H  H516  1  0.012400  0.506400  0.240600  1.0  0.0571
  H  H517  1  0.759400  0.493600  0.759400  1.0  0.0582
  H  H518  1  0.493600  0.759400  0.987600  1.0  0.0585
  H  H519  1  0.987600  0.759400  0.493600  1.0  0.0571
  H  H520  1  0.759400  0.987600  0.759400  1.0  0.0573
  H  H521  1  0.759400  0.493600  0.987600  1.0  0.0593
  H  H522  1  0.987600  0.759400  0.759400  1.0  0.057
  H  H523  1  0.493600  0.759400  0.759400  1.0  0.0578
  H  H524  1  0.759400  0.987600  0.493600  1.0  0.0577
  H  H525  1  0.987600  0.493600  0.759400  1.0  0.0572
  H  H526  1  0.759400  0.759400  0.493600  1.0  0.0584
  H  H527  1  0.759400  0.759400  0.987600  1.0  0.0595
  H  H528  1  0.493600  0.987600  0.759400  1.0  0.0578
  C  C529  1  0.463900  0.315300  0.132300  1.0  0.1327
  C  C530  1  0.429000  0.301600  0.177400  1.0  -0.0553
  C  C531  1  0.393400  0.289600  0.181000  1.0  -0.1361
  C  C532  1  0.635200  0.334200  0.087600  1.0  0.153
  C  C533  1  0.659200  0.284400  0.091600  1.0  -0.1532
  C  C534  1  0.705800  0.266400  0.066400  1.0  -0.1056
  C  C535  1  0.453400  0.410800  0.223800  1.0  0.1682
  C  C536  1  0.471500  0.386900  0.262300  1.0  -0.1316
  C  C537  1  0.449400  0.405000  0.300800  1.0  -0.1878
  C  C538  1  0.580700  0.275700  0.233700  1.0  0.1427
  C  C539  1  0.610800  0.303000  0.219000  1.0  -0.1454
  C  C540  1  0.637300  0.289900  0.245900  1.0  -0.1408
  C  C541  1  0.315300  0.463900  0.088500  1.0  0.1368
  C  C542  1  0.301600  0.429000  0.092000  1.0  -0.0577
  C  C543  1  0.289600  0.393400  0.136000  1.0  -0.1377
  C  C544  1  0.334200  0.635200  0.943000  1.0  0.1521
  C  C545  1  0.284400  0.659200  0.964800  1.0  -0.1545
  C  C546  1  0.266400  0.705800  0.961400  1.0  -0.1008
  C  C547  1  0.410800  0.453400  0.912000  1.0  0.1657
  C  C548  1  0.386900  0.471500  0.879300  1.0  -0.1327
  C  C549  1  0.405000  0.449400  0.844800  1.0  -0.1881
  C  C550  1  0.275700  0.580700  0.909900  1.0  0.142
  C  C551  1  0.303000  0.610800  0.867200  1.0  -0.1447
  C  C552  1  0.289900  0.637300  0.826900  1.0  -0.138
  C  C553  1  0.132300  0.088500  0.463900  1.0  0.1347
  C  C554  1  0.177400  0.092000  0.429000  1.0  -0.0597
  C  C555  1  0.181000  0.136000  0.393400  1.0  -0.138
  C  C556  1  0.087600  0.943000  0.635200  1.0  0.154
  C  C557  1  0.091600  0.964800  0.659200  1.0  -0.1565
  C  C558  1  0.066400  0.961400  0.705800  1.0  -0.0985
  C  C559  1  0.223800  0.912000  0.453400  1.0  0.1681
  C  C560  1  0.262300  0.879300  0.471500  1.0  -0.1311
  C  C561  1  0.300800  0.844800  0.449400  1.0  -0.1883
  C  C562  1  0.233700  0.909900  0.580700  1.0  0.142
  C  C563  1  0.219000  0.867200  0.610800  1.0  -0.1497
  C  C564  1  0.245900  0.826900  0.637300  1.0  -0.1375
  C  C565  1  0.088500  0.132300  0.315300  1.0  0.1353
  C  C566  1  0.092000  0.177400  0.301600  1.0  -0.0583
  C  C567  1  0.136000  0.181000  0.289600  1.0  -0.1354
  C  C568  1  0.943000  0.087600  0.334200  1.0  0.1538
  C  C569  1  0.964800  0.091600  0.284400  1.0  -0.1563
  C  C570  1  0.961400  0.066400  0.266400  1.0  -0.1002
  C  C571  1  0.912000  0.223800  0.410800  1.0  0.1673
  C  C572  1  0.879300  0.262300  0.386900  1.0  -0.1315
  C  C573  1  0.844800  0.300800  0.405000  1.0  -0.1892
  C  C574  1  0.909900  0.233700  0.275700  1.0  0.1428
  C  C575  1  0.867200  0.219000  0.303000  1.0  -0.1474
  C  C576  1  0.826900  0.245900  0.289900  1.0  -0.1412
  C  C577  1  0.463900  0.132300  0.088500  1.0  0.1337
  C  C578  1  0.429000  0.177400  0.092000  1.0  -0.0572
  C  C579  1  0.393400  0.181000  0.136000  1.0  -0.1342
  C  C580  1  0.635200  0.087600  0.943000  1.0  0.1528
  C  C581  1  0.659200  0.091600  0.964800  1.0  -0.1565
  C  C582  1  0.705800  0.066400  0.961400  1.0  -0.0991
  C  C583  1  0.453400  0.223800  0.912000  1.0  0.1681
  C  C584  1  0.471500  0.262300  0.879300  1.0  -0.1291
  C  C585  1  0.449400  0.300800  0.844800  1.0  -0.1903
  C  C586  1  0.580700  0.233700  0.909900  1.0  0.1436
  C  C587  1  0.610800  0.219000  0.867200  1.0  -0.1489
  C  C588  1  0.637300  0.245900  0.826900  1.0  -0.1397
  C  C589  1  0.315300  0.088500  0.132300  1.0  0.1343
  C  C590  1  0.301600  0.092000  0.177400  1.0  -0.0613
  C  C591  1  0.289600  0.136000  0.181000  1.0  -0.1342
  C  C592  1  0.334200  0.943000  0.087600  1.0  0.153
  C  C593  1  0.284400  0.964800  0.091600  1.0  -0.1554
  C  C594  1  0.266400  0.961400  0.066400  1.0  -0.1048
  C  C595  1  0.410800  0.912000  0.223800  1.0  0.1694
  C  C596  1  0.386900  0.879300  0.262300  1.0  -0.1316
  C  C597  1  0.405000  0.844800  0.300800  1.0  -0.1902
  C  C598  1  0.275700  0.909900  0.233700  1.0  0.142
  C  C599  1  0.303000  0.867200  0.219000  1.0  -0.1494
  C  C600  1  0.289900  0.826900  0.245900  1.0  -0.1389
  C  C601  1  0.132300  0.463900  0.315300  1.0  0.1323
  C  C602  1  0.177400  0.429000  0.301600  1.0  -0.0557
  C  C603  1  0.181000  0.393400  0.289600  1.0  -0.1357
  C  C604  1  0.087600  0.635200  0.334200  1.0  0.1522
  C  C605  1  0.091600  0.659200  0.284400  1.0  -0.1551
  C  C606  1  0.066400  0.705800  0.266400  1.0  -0.0969
  C  C607  1  0.223800  0.453400  0.410800  1.0  0.166
  C  C608  1  0.262300  0.471500  0.386900  1.0  -0.131
  C  C609  1  0.300800  0.449400  0.405000  1.0  -0.1915
  C  C610  1  0.233700  0.580700  0.275700  1.0  0.1426
  C  C611  1  0.219000  0.610800  0.303000  1.0  -0.1484
  C  C612  1  0.245900  0.637300  0.289900  1.0  -0.1404
  C  C613  1  0.088500  0.315300  0.463900  1.0  0.133
  C  C614  1  0.092000  0.301600  0.429000  1.0  -0.0605
  C  C615  1  0.136000  0.289600  0.393400  1.0  -0.1321
  C  C616  1  0.943000  0.334200  0.635200  1.0  0.1528
  C  C617  1  0.964800  0.284400  0.659200  1.0  -0.1543
  C  C618  1  0.961400  0.266400  0.705800  1.0  -0.1045
  C  C619  1  0.912000  0.410800  0.453400  1.0  0.1669
  C  C620  1  0.879300  0.386900  0.471500  1.0  -0.1313
  C  C621  1  0.844800  0.405000  0.449400  1.0  -0.1898
  C  C622  1  0.909900  0.275700  0.580700  1.0  0.1415
  C  C623  1  0.867200  0.303000  0.610800  1.0  -0.1477
  C  C624  1  0.826900  0.289900  0.637300  1.0  -0.1381
  C  C625  1  0.463900  0.088500  0.315300  1.0  0.134
  C  C626  1  0.429000  0.092000  0.301600  1.0  -0.0574
  C  C627  1  0.393400  0.136000  0.289600  1.0  -0.1351
  C  C628  1  0.635200  0.943000  0.334200  1.0  0.1529
  C  C629  1  0.659200  0.964800  0.284400  1.0  -0.1546
  C  C630  1  0.705800  0.961400  0.266400  1.0  -0.0943
  C  C631  1  0.453400  0.912000  0.410800  1.0  0.1683
  C  C632  1  0.471500  0.879300  0.386900  1.0  -0.1336
  C  C633  1  0.449400  0.844800  0.405000  1.0  -0.1889
  C  C634  1  0.580700  0.909900  0.275700  1.0  0.1405
  C  C635  1  0.610800  0.867200  0.303000  1.0  -0.1465
  C  C636  1  0.637300  0.826900  0.289900  1.0  -0.1384
  C  C637  1  0.315300  0.132300  0.463900  1.0  0.1327
  C  C638  1  0.301600  0.177400  0.429000  1.0  -0.0587
  C  C639  1  0.289600  0.181000  0.393400  1.0  -0.1343
  C  C640  1  0.334200  0.087600  0.635200  1.0  0.1534
  C  C641  1  0.284400  0.091600  0.659200  1.0  -0.1553
  C  C642  1  0.266400  0.066400  0.705800  1.0  -0.1027
  C  C643  1  0.410800  0.223800  0.453400  1.0  0.1665
  C  C644  1  0.386900  0.262300  0.471500  1.0  -0.1331
  C  C645  1  0.405000  0.300800  0.449400  1.0  -0.19
  C  C646  1  0.275700  0.233700  0.580700  1.0  0.142
  C  C647  1  0.303000  0.219000  0.610800  1.0  -0.1457
  C  C648  1  0.289900  0.245900  0.637300  1.0  -0.1389
  C  C649  1  0.132300  0.315300  0.088500  1.0  0.1347
  C  C650  1  0.177400  0.301600  0.092000  1.0  -0.0563
  C  C651  1  0.181000  0.289600  0.136000  1.0  -0.1359
  C  C652  1  0.087600  0.334200  0.943000  1.0  0.1536
  C  C653  1  0.091600  0.284400  0.964800  1.0  -0.1493
  C  C654  1  0.066400  0.266400  0.961400  1.0  -0.1033
  C  C655  1  0.223800  0.410800  0.912000  1.0  0.1662
  C  C656  1  0.262300  0.386900  0.879300  1.0  -0.1344
  C  C657  1  0.300800  0.405000  0.844800  1.0  -0.1888
  C  C658  1  0.233700  0.275700  0.909900  1.0  0.142
  C  C659  1  0.219000  0.303000  0.867200  1.0  -0.148
  C  C660  1  0.245900  0.289900  0.826900  1.0  -0.1413
  C  C661  1  0.088500  0.463900  0.132300  1.0  0.1357
  C  C662  1  0.092000  0.429000  0.177400  1.0  -0.0576
  C  C663  1  0.136000  0.393400  0.181000  1.0  -0.1332
  C  C664  1  0.943000  0.635200  0.087600  1.0  0.1534
  C  C665  1  0.964800  0.659200  0.091600  1.0  -0.1539
  C  C666  1  0.961400  0.705800  0.066400  1.0  -0.0966
  C  C667  1  0.912000  0.453400  0.223800  1.0  0.1658
  C  C668  1  0.879300  0.471500  0.262300  1.0  -0.1336
  C  C669  1  0.844800  0.449400  0.300800  1.0  -0.1885
  C  C670  1  0.909900  0.580700  0.233700  1.0  0.1431
  C  C671  1  0.867200  0.610800  0.219000  1.0  -0.148
  C  C672  1  0.826900  0.637300  0.245900  1.0  -0.1391
  C  C673  1  0.684700  0.536100  0.867700  1.0  0.1362
  C  C674  1  0.698400  0.571000  0.822600  1.0  -0.0583
  C  C675  1  0.710400  0.606600  0.819000  1.0  -0.1366
  C  C676  1  0.665800  0.364800  0.912400  1.0  0.1525
  C  C677  1  0.715600  0.340800  0.908400  1.0  -0.1519
  C  C678  1  0.733600  0.294200  0.933600  1.0  -0.1007
  C  C679  1  0.589200  0.546600  0.776200  1.0  0.1661
  C  C680  1  0.613100  0.528500  0.737700  1.0  -0.133
  C  C681  1  0.595000  0.550600  0.699200  1.0  -0.1873
  C  C682  1  0.724300  0.419300  0.766300  1.0  0.1427
  C  C683  1  0.697000  0.389200  0.781000  1.0  -0.1468
  C  C684  1  0.710100  0.362700  0.754100  1.0  -0.1408
  C  C685  1  0.536100  0.684700  0.911500  1.0  0.1322
  C  C686  1  0.571000  0.698400  0.908000  1.0  -0.0556
  C  C687  1  0.606600  0.710400  0.864000  1.0  -0.1359
  C  C688  1  0.364800  0.665800  0.057000  1.0  0.1545
  C  C689  1  0.340800  0.715600  0.035200  1.0  -0.1533
  C  C690  1  0.294200  0.733600  0.038600  1.0  -0.0977
  C  C691  1  0.546600  0.589200  0.088000  1.0  0.1678
  C  C692  1  0.528500  0.613100  0.120700  1.0  -0.1327
  C  C693  1  0.550600  0.595000  0.155200  1.0  -0.1882
  C  C694  1  0.419300  0.724300  0.090100  1.0  0.1416
  C  C695  1  0.389200  0.697000  0.132800  1.0  -0.1459
  C  C696  1  0.362700  0.710100  0.173100  1.0  -0.1409
  C  C697  1  0.911500  0.867700  0.536100  1.0  0.1341
  C  C698  1  0.908000  0.822600  0.571000  1.0  -0.0587
  C  C699  1  0.864000  0.819000  0.606600  1.0  -0.1347
  C  C700  1  0.057000  0.912400  0.364800  1.0  0.1523
  C  C701  1  0.035200  0.908400  0.340800  1.0  -0.1572
  C  C702  1  0.038600  0.933600  0.294200  1.0  -0.1007
  C  C703  1  0.088000  0.776200  0.546600  1.0  0.1675
  C  C704  1  0.120700  0.737700  0.528500  1.0  -0.132
  C  C705  1  0.155200  0.699200  0.550600  1.0  -0.1885
  C  C706  1  0.090100  0.766300  0.419300  1.0  0.1424
  C  C707  1  0.132800  0.781000  0.389200  1.0  -0.1471
  C  C708  1  0.173100  0.754100  0.362700  1.0  -0.1404
  C  C709  1  0.867700  0.911500  0.684700  1.0  0.134
  C  C710  1  0.822600  0.908000  0.698400  1.0  -0.0589
  C  C711  1  0.819000  0.864000  0.710400  1.0  -0.1394
  C  C712  1  0.912400  0.057000  0.665800  1.0  0.1522
  C  C713  1  0.908400  0.035200  0.715600  1.0  -0.157
  C  C714  1  0.933600  0.038600  0.733600  1.0  -0.1009
  C  C715  1  0.776200  0.088000  0.589200  1.0  0.1679
  C  C716  1  0.737700  0.120700  0.613100  1.0  -0.1305
  C  C717  1  0.699200  0.155200  0.595000  1.0  -0.1879
  C  C718  1  0.766300  0.090100  0.724300  1.0  0.1418
  C  C719  1  0.781000  0.132800  0.697000  1.0  -0.1476
  C  C720  1  0.754100  0.173100  0.710100  1.0  -0.1371
  C  C721  1  0.867700  0.536100  0.911500  1.0  0.1331
  C  C722  1  0.822600  0.571000  0.908000  1.0  -0.0577
  C  C723  1  0.819000  0.606600  0.864000  1.0  -0.1356
  C  C724  1  0.912400  0.364800  0.057000  1.0  0.1523
  C  C725  1  0.908400  0.340800  0.035200  1.0  -0.1536
  C  C726  1  0.933600  0.294200  0.038600  1.0  -0.0997
  C  C727  1  0.776200  0.546600  0.088000  1.0  0.1667
  C  C728  1  0.737700  0.528500  0.120700  1.0  -0.1313
  C  C729  1  0.699200  0.550600  0.155200  1.0  -0.191
  C  C730  1  0.766300  0.419300  0.090100  1.0  0.1427
  C  C731  1  0.781000  0.389200  0.132800  1.0  -0.1471
  C  C732  1  0.754100  0.362700  0.173100  1.0  -0.14
  C  C733  1  0.911500  0.684700  0.867700  1.0  0.1323
  C  C734  1  0.908000  0.698400  0.822600  1.0  -0.0592
  C  C735  1  0.864000  0.710400  0.819000  1.0  -0.1331
  C  C736  1  0.057000  0.665800  0.912400  1.0  0.1526
  C  C737  1  0.035200  0.715600  0.908400  1.0  -0.1569
  C  C738  1  0.038600  0.733600  0.933600  1.0  -0.0996
  C  C739  1  0.088000  0.589200  0.776200  1.0  0.1666
  C  C740  1  0.120700  0.613100  0.737700  1.0  -0.1309
  C  C741  1  0.155200  0.595000  0.699200  1.0  -0.1876
  C  C742  1  0.090100  0.724300  0.766300  1.0  0.142
  C  C743  1  0.132800  0.697000  0.781000  1.0  -0.1479
  C  C744  1  0.173100  0.710100  0.754100  1.0  -0.1383
  C  C745  1  0.536100  0.867700  0.684700  1.0  0.1338
  C  C746  1  0.571000  0.822600  0.698400  1.0  -0.06
  C  C747  1  0.606600  0.819000  0.710400  1.0  -0.1333
  C  C748  1  0.364800  0.912400  0.665800  1.0  0.1541
  C  C749  1  0.340800  0.908400  0.715600  1.0  -0.1566
  C  C750  1  0.294200  0.933600  0.733600  1.0  -0.1015
  C  C751  1  0.546600  0.776200  0.589200  1.0  0.1682
  C  C752  1  0.528500  0.737700  0.613100  1.0  -0.1295
  C  C753  1  0.550600  0.699200  0.595000  1.0  -0.1906
  C  C754  1  0.419300  0.766300  0.724300  1.0  0.142
  C  C755  1  0.389200  0.781000  0.697000  1.0  -0.1479
  C  C756  1  0.362700  0.754100  0.710100  1.0  -0.1408
  C  C757  1  0.684700  0.911500  0.536100  1.0  0.1344
  C  C758  1  0.698400  0.908000  0.571000  1.0  -0.0595
  C  C759  1  0.710400  0.864000  0.606600  1.0  -0.1339
  C  C760  1  0.665800  0.057000  0.364800  1.0  0.1538
  C  C761  1  0.715600  0.035200  0.340800  1.0  -0.153
  C  C762  1  0.733600  0.038600  0.294200  1.0  -0.1034
  C  C763  1  0.589200  0.088000  0.546600  1.0  0.1684
  C  C764  1  0.613100  0.120700  0.528500  1.0  -0.1317
  C  C765  1  0.595000  0.155200  0.550600  1.0  -0.1878
  C  C766  1  0.724300  0.090100  0.419300  1.0  0.1424
  C  C767  1  0.697000  0.132800  0.389200  1.0  -0.1508
  C  C768  1  0.710100  0.173100  0.362700  1.0  -0.1396
  C  C769  1  0.911500  0.536100  0.684700  1.0  0.1347
  C  C770  1  0.908000  0.571000  0.698400  1.0  -0.0563
  C  C771  1  0.864000  0.606600  0.710400  1.0  -0.1338
  C  C772  1  0.057000  0.364800  0.665800  1.0  0.1527
  C  C773  1  0.035200  0.340800  0.715600  1.0  -0.1542
  C  C774  1  0.038600  0.294200  0.733600  1.0  -0.0998
  C  C775  1  0.088000  0.546600  0.589200  1.0  0.1666
  C  C776  1  0.120700  0.528500  0.613100  1.0  -0.1337
  C  C777  1  0.155200  0.550600  0.595000  1.0  -0.186
  C  C778  1  0.090100  0.419300  0.724300  1.0  0.1434
  C  C779  1  0.132800  0.389200  0.697000  1.0  -0.149
  C  C780  1  0.173100  0.362700  0.710100  1.0  -0.1395
  C  C781  1  0.867700  0.684700  0.536100  1.0  0.1348
  C  C782  1  0.822600  0.698400  0.571000  1.0  -0.057
  C  C783  1  0.819000  0.710400  0.606600  1.0  -0.1351
  C  C784  1  0.912400  0.665800  0.364800  1.0  0.1531
  C  C785  1  0.908400  0.715600  0.340800  1.0  -0.1532
  C  C786  1  0.933600  0.733600  0.294200  1.0  -0.0961
  C  C787  1  0.776200  0.589200  0.546600  1.0  0.1663
  C  C788  1  0.737700  0.613100  0.528500  1.0  -0.1343
  C  C789  1  0.699200  0.595000  0.550600  1.0  -0.189
  C  C790  1  0.766300  0.724300  0.419300  1.0  0.142
  C  C791  1  0.781000  0.697000  0.389200  1.0  -0.1472
  C  C792  1  0.754100  0.710100  0.362700  1.0  -0.1409
  C  C793  1  0.684700  0.867700  0.911500  1.0  0.1325
  C  C794  1  0.698400  0.822600  0.908000  1.0  -0.0593
  C  C795  1  0.710400  0.819000  0.864000  1.0  -0.1322
  C  C796  1  0.665800  0.912400  0.057000  1.0  0.1534
  C  C797  1  0.715600  0.908400  0.035200  1.0  -0.1536
  C  C798  1  0.733600  0.933600  0.038600  1.0  -0.1014
  C  C799  1  0.589200  0.776200  0.088000  1.0  0.1676
  C  C800  1  0.613100  0.737700  0.120700  1.0  -0.1345
  C  C801  1  0.595000  0.699200  0.155200  1.0  -0.189
  C  C802  1  0.724300  0.766300  0.090100  1.0  0.1426
  C  C803  1  0.697000  0.781000  0.132800  1.0  -0.1462
  C  C804  1  0.710100  0.754100  0.173100  1.0  -0.1393
  C  C805  1  0.536100  0.911500  0.867700  1.0  0.1342
  C  C806  1  0.571000  0.908000  0.822600  1.0  -0.0552
  C  C807  1  0.606600  0.864000  0.819000  1.0  -0.1349
  C  C808  1  0.364800  0.057000  0.912400  1.0  0.1534
  C  C809  1  0.340800  0.035200  0.908400  1.0  -0.1539
  C  C810  1  0.294200  0.038600  0.933600  1.0  -0.0954
  C  C811  1  0.546600  0.088000  0.776200  1.0  0.1673
  C  C812  1  0.528500  0.120700  0.737700  1.0  -0.1333
  C  C813  1  0.550600  0.155200  0.699200  1.0  -0.1888
  C  C814  1  0.419300  0.090100  0.766300  1.0  0.1399
  C  C815  1  0.389200  0.132800  0.781000  1.0  -0.1473
  C  C816  1  0.362700  0.173100  0.754100  1.0  -0.1395
  C  C817  1  0.536100  0.684700  0.867700  1.0  0.1347
  C  C818  1  0.571000  0.698400  0.822600  1.0  -0.057
  C  C819  1  0.606600  0.710400  0.819000  1.0  -0.1356
  C  C820  1  0.364800  0.665800  0.912400  1.0  0.154
  C  C821  1  0.340800  0.715600  0.908400  1.0  -0.1531
  C  C822  1  0.294200  0.733600  0.933600  1.0  -0.0988
  C  C823  1  0.546600  0.589200  0.776200  1.0  0.1683
  C  C824  1  0.528500  0.613100  0.737700  1.0  -0.1338
  C  C825  1  0.550600  0.595000  0.699200  1.0  -0.1909
  C  C826  1  0.419300  0.724300  0.766300  1.0  0.1431
  C  C827  1  0.389200  0.697000  0.781000  1.0  -0.1454
  C  C828  1  0.362700  0.710100  0.754100  1.0  -0.1405
  C  C829  1  0.684700  0.536100  0.911500  1.0  0.1338
  C  C830  1  0.698400  0.571000  0.908000  1.0  -0.0574
  C  C831  1  0.710400  0.606600  0.864000  1.0  -0.1363
  C  C832  1  0.665800  0.364800  0.057000  1.0  0.1522
  C  C833  1  0.715600  0.340800  0.035200  1.0  -0.1524
  C  C834  1  0.733600  0.294200  0.038600  1.0  -0.1036
  C  C835  1  0.589200  0.546600  0.088000  1.0  0.1669
  C  C836  1  0.613100  0.528500  0.120700  1.0  -0.1335
  C  C837  1  0.595000  0.550600  0.155200  1.0  -0.1887
  C  C838  1  0.724300  0.419300  0.090100  1.0  0.1444
  C  C839  1  0.697000  0.389200  0.132800  1.0  -0.1464
  C  C840  1  0.710100  0.362700  0.173100  1.0  -0.1406
  C  C841  1  0.867700  0.911500  0.536100  1.0  0.1347
  C  C842  1  0.822600  0.908000  0.571000  1.0  -0.0598
  C  C843  1  0.819000  0.864000  0.606600  1.0  -0.1385
  C  C844  1  0.912400  0.057000  0.364800  1.0  0.1517
  C  C845  1  0.908400  0.035200  0.340800  1.0  -0.1562
  C  C846  1  0.933600  0.038600  0.294200  1.0  -0.1028
  C  C847  1  0.776200  0.088000  0.546600  1.0  0.17
  C  C848  1  0.737700  0.120700  0.528500  1.0  -0.1314
  C  C849  1  0.699200  0.155200  0.550600  1.0  -0.1908
  C  C850  1  0.766300  0.090100  0.419300  1.0  0.1431
  C  C851  1  0.781000  0.132800  0.389200  1.0  -0.1471
  C  C852  1  0.754100  0.173100  0.362700  1.0  -0.137
  C  C853  1  0.911500  0.867700  0.684700  1.0  0.1342
  C  C854  1  0.908000  0.822600  0.698400  1.0  -0.0591
  C  C855  1  0.864000  0.819000  0.710400  1.0  -0.1345
  C  C856  1  0.057000  0.912400  0.665800  1.0  0.152
  C  C857  1  0.035200  0.908400  0.715600  1.0  -0.1577
  C  C858  1  0.038600  0.933600  0.733600  1.0  -0.1012
  C  C859  1  0.088000  0.776200  0.589200  1.0  0.167
  C  C860  1  0.120700  0.737700  0.613100  1.0  -0.132
  C  C861  1  0.155200  0.699200  0.595000  1.0  -0.1903
  C  C862  1  0.090100  0.766300  0.724300  1.0  0.1442
  C  C863  1  0.132800  0.781000  0.697000  1.0  -0.1471
  C  C864  1  0.173100  0.754100  0.710100  1.0  -0.1403
  C  C865  1  0.536100  0.867700  0.911500  1.0  0.1334
  C  C866  1  0.571000  0.822600  0.908000  1.0  -0.0601
  C  C867  1  0.606600  0.819000  0.864000  1.0  -0.1325
  C  C868  1  0.364800  0.912400  0.057000  1.0  0.1521
  C  C869  1  0.340800  0.908400  0.035200  1.0  -0.1573
  C  C870  1  0.294200  0.933600  0.038600  1.0  -0.1034
  C  C871  1  0.546600  0.776200  0.088000  1.0  0.1683
  C  C872  1  0.528500  0.737700  0.120700  1.0  -0.1304
  C  C873  1  0.550600  0.699200  0.155200  1.0  -0.1935
  C  C874  1  0.419300  0.766300  0.090100  1.0  0.143
  C  C875  1  0.389200  0.781000  0.132800  1.0  -0.1478
  C  C876  1  0.362700  0.754100  0.173100  1.0  -0.1398
  C  C877  1  0.684700  0.911500  0.867700  1.0  0.1346
  C  C878  1  0.698400  0.908000  0.822600  1.0  -0.0592
  C  C879  1  0.710400  0.864000  0.819000  1.0  -0.1349
  C  C880  1  0.665800  0.057000  0.912400  1.0  0.1532
  C  C881  1  0.715600  0.035200  0.908400  1.0  -0.1557
  C  C882  1  0.733600  0.038600  0.933600  1.0  -0.1042
  C  C883  1  0.589200  0.088000  0.776200  1.0  0.1677
  C  C884  1  0.613100  0.120700  0.737700  1.0  -0.1332
  C  C885  1  0.595000  0.155200  0.699200  1.0  -0.1906
  C  C886  1  0.724300  0.090100  0.766300  1.0  0.1431
  C  C887  1  0.697000  0.132800  0.781000  1.0  -0.1499
  C  C888  1  0.710100  0.173100  0.754100  1.0  -0.1397
  C  C889  1  0.867700  0.536100  0.684700  1.0  0.134
  C  C890  1  0.822600  0.571000  0.698400  1.0  -0.0592
  C  C891  1  0.819000  0.606600  0.710400  1.0  -0.1351
  C  C892  1  0.912400  0.364800  0.665800  1.0  0.1531
  C  C893  1  0.908400  0.340800  0.715600  1.0  -0.1551
  C  C894  1  0.933600  0.294200  0.733600  1.0  -0.1006
  C  C895  1  0.776200  0.546600  0.589200  1.0  0.1682
  C  C896  1  0.737700  0.528500  0.613100  1.0  -0.1318
  C  C897  1  0.699200  0.550600  0.595000  1.0  -0.1923
  C  C898  1  0.766300  0.419300  0.724300  1.0  0.1443
  C  C899  1  0.781000  0.389200  0.697000  1.0  -0.1469
  C  C900  1  0.754100  0.362700  0.710100  1.0  -0.1406
  C  C901  1  0.911500  0.684700  0.536100  1.0  0.1324
  C  C902  1  0.908000  0.698400  0.571000  1.0  -0.0605
  C  C903  1  0.864000  0.710400  0.606600  1.0  -0.1315
  C  C904  1  0.057000  0.665800  0.364800  1.0  0.1519
  C  C905  1  0.035200  0.715600  0.340800  1.0  -0.1547
  C  C906  1  0.038600  0.733600  0.294200  1.0  -0.1005
  C  C907  1  0.088000  0.589200  0.546600  1.0  0.169
  C  C908  1  0.120700  0.613100  0.528500  1.0  -0.1319
  C  C909  1  0.155200  0.595000  0.550600  1.0  -0.1896
  C  C910  1  0.090100  0.724300  0.419300  1.0  0.1438
  C  C911  1  0.132800  0.697000  0.389200  1.0  -0.1492
  C  C912  1  0.173100  0.710100  0.362700  1.0  -0.139
  C  C913  1  0.536100  0.911500  0.684700  1.0  0.1344
  C  C914  1  0.571000  0.908000  0.698400  1.0  -0.0568
  C  C915  1  0.606600  0.864000  0.710400  1.0  -0.134
  C  C916  1  0.364800  0.057000  0.665800  1.0  0.1533
  C  C917  1  0.340800  0.035200  0.715600  1.0  -0.1539
  C  C918  1  0.294200  0.038600  0.733600  1.0  -0.0985
  C  C919  1  0.546600  0.088000  0.589200  1.0  0.1681
  C  C920  1  0.528500  0.120700  0.613100  1.0  -0.1345
  C  C921  1  0.550600  0.155200  0.595000  1.0  -0.1909
  C  C922  1  0.419300  0.090100  0.724300  1.0  0.1437
  C  C923  1  0.389200  0.132800  0.697000  1.0  -0.1485
  C  C924  1  0.362700  0.173100  0.710100  1.0  -0.1389
  C  C925  1  0.684700  0.867700  0.536100  1.0  0.1344
  C  C926  1  0.698400  0.822600  0.571000  1.0  -0.0605
  C  C927  1  0.710400  0.819000  0.606600  1.0  -0.1321
  C  C928  1  0.665800  0.912400  0.364800  1.0  0.1534
  C  C929  1  0.715600  0.908400  0.340800  1.0  -0.1533
  C  C930  1  0.733600  0.933600  0.294200  1.0  -0.1015
  C  C931  1  0.589200  0.776200  0.546600  1.0  0.1681
  C  C932  1  0.613100  0.737700  0.528500  1.0  -0.1352
  C  C933  1  0.595000  0.699200  0.550600  1.0  -0.1904
  C  C934  1  0.724300  0.766300  0.419300  1.0  0.1442
  C  C935  1  0.697000  0.781000  0.389200  1.0  -0.1458
  C  C936  1  0.710100  0.754100  0.362700  1.0  -0.1398
  C  C937  1  0.867700  0.684700  0.911500  1.0  0.1333
  C  C938  1  0.822600  0.698400  0.908000  1.0  -0.0572
  C  C939  1  0.819000  0.710400  0.864000  1.0  -0.1346
  C  C940  1  0.912400  0.665800  0.057000  1.0  0.1529
  C  C941  1  0.908400  0.715600  0.035200  1.0  -0.1531
  C  C942  1  0.933600  0.733600  0.038600  1.0  -0.0997
  C  C943  1  0.776200  0.589200  0.088000  1.0  0.1671
  C  C944  1  0.737700  0.613100  0.120700  1.0  -0.1345
  C  C945  1  0.699200  0.595000  0.155200  1.0  -0.1918
  C  C946  1  0.766300  0.724300  0.090100  1.0  0.1435
  C  C947  1  0.781000  0.697000  0.132800  1.0  -0.1469
  C  C948  1  0.754100  0.710100  0.173100  1.0  -0.1407
  C  C949  1  0.911500  0.536100  0.867700  1.0  0.1341
  C  C950  1  0.908000  0.571000  0.822600  1.0  -0.0566
  C  C951  1  0.864000  0.606600  0.819000  1.0  -0.1339
  C  C952  1  0.057000  0.364800  0.912400  1.0  0.1522
  C  C953  1  0.035200  0.340800  0.908400  1.0  -0.1523
  C  C954  1  0.038600  0.294200  0.933600  1.0  -0.0997
  C  C955  1  0.088000  0.546600  0.776200  1.0  0.1673
  C  C956  1  0.120700  0.528500  0.737700  1.0  -0.1338
  C  C957  1  0.155200  0.550600  0.699200  1.0  -0.1889
  C  C958  1  0.090100  0.419300  0.766300  1.0  0.1428
  C  C959  1  0.132800  0.389200  0.781000  1.0  -0.1468
  C  C960  1  0.173100  0.362700  0.754100  1.0  -0.1395
  C  C961  1  0.315300  0.463900  0.132300  1.0  0.1342
  C  C962  1  0.301600  0.429000  0.177400  1.0  -0.0575
  C  C963  1  0.289600  0.393400  0.181000  1.0  -0.136
  C  C964  1  0.334200  0.635200  0.087600  1.0  0.1517
  C  C965  1  0.284400  0.659200  0.091600  1.0  -0.1544
  C  C966  1  0.266400  0.705800  0.066400  1.0  -0.1036
  C  C967  1  0.410800  0.453400  0.223800  1.0  0.1668
  C  C968  1  0.386900  0.471500  0.262300  1.0  -0.133
  C  C969  1  0.405000  0.449400  0.300800  1.0  -0.1902
  C  C970  1  0.275700  0.580700  0.233700  1.0  0.1441
  C  C971  1  0.303000  0.610800  0.219000  1.0  -0.1446
  C  C972  1  0.289900  0.637300  0.245900  1.0  -0.1386
  C  C973  1  0.463900  0.315300  0.088500  1.0  0.1356
  C  C974  1  0.429000  0.301600  0.092000  1.0  -0.0564
  C  C975  1  0.393400  0.289600  0.136000  1.0  -0.1369
  C  C976  1  0.635200  0.334200  0.943000  1.0  0.1526
  C  C977  1  0.659200  0.284400  0.964800  1.0  -0.1529
  C  C978  1  0.705800  0.266400  0.961400  1.0  -0.1065
  C  C979  1  0.453400  0.410800  0.912000  1.0  0.1692
  C  C980  1  0.471500  0.386900  0.879300  1.0  -0.133
  C  C981  1  0.449400  0.405000  0.844800  1.0  -0.1904
  C  C982  1  0.580700  0.275700  0.909900  1.0  0.1436
  C  C983  1  0.610800  0.303000  0.867200  1.0  -0.1452
  C  C984  1  0.637300  0.289900  0.826900  1.0  -0.1404
  C  C985  1  0.088500  0.132300  0.463900  1.0  0.1351
  C  C986  1  0.092000  0.177400  0.429000  1.0  -0.0592
  C  C987  1  0.136000  0.181000  0.393400  1.0  -0.135
  C  C988  1  0.943000  0.087600  0.635200  1.0  0.1536
  C  C989  1  0.964800  0.091600  0.659200  1.0  -0.1572
  C  C990  1  0.961400  0.066400  0.705800  1.0  -0.0988
  C  C991  1  0.912000  0.223800  0.453400  1.0  0.167
  C  C992  1  0.879300  0.262300  0.471500  1.0  -0.1316
  C  C993  1  0.844800  0.300800  0.449400  1.0  -0.1916
  C  C994  1  0.909900  0.233700  0.580700  1.0  0.1445
  C  C995  1  0.867200  0.219000  0.610800  1.0  -0.1474
  C  C996  1  0.826900  0.245900  0.637300  1.0  -0.1413
  C  C997  1  0.132300  0.088500  0.315300  1.0  0.1351
  C  C998  1  0.177400  0.092000  0.301600  1.0  -0.0603
  C  C999  1  0.181000  0.136000  0.289600  1.0  -0.1375
  C  C1000  1  0.087600  0.943000  0.334200  1.0  0.1532
  C  C1001  1  0.091600  0.964800  0.284400  1.0  -0.1561
  C  C1002  1  0.066400  0.961400  0.266400  1.0  -0.1022
  C  C1003  1  0.223800  0.912000  0.410800  1.0  0.1703
  C  C1004  1  0.262300  0.879300  0.386900  1.0  -0.1324
  C  C1005  1  0.300800  0.844800  0.405000  1.0  -0.1908
  C  C1006  1  0.233700  0.909900  0.275700  1.0  0.1434
  C  C1007  1  0.219000  0.867200  0.303000  1.0  -0.149
  C  C1008  1  0.245900  0.826900  0.289900  1.0  -0.1377
  C  C1009  1  0.132300  0.463900  0.088500  1.0  0.1333
  C  C1010  1  0.177400  0.429000  0.092000  1.0  -0.0562
  C  C1011  1  0.181000  0.393400  0.136000  1.0  -0.1359
  C  C1012  1  0.087600  0.635200  0.943000  1.0  0.1533
  C  C1013  1  0.091600  0.659200  0.964800  1.0  -0.1539
  C  C1014  1  0.066400  0.705800  0.961400  1.0  -0.0987
  C  C1015  1  0.223800  0.453400  0.912000  1.0  0.1673
  C  C1016  1  0.262300  0.471500  0.879300  1.0  -0.1317
  C  C1017  1  0.300800  0.449400  0.844800  1.0  -0.193
  C  C1018  1  0.233700  0.580700  0.909900  1.0  0.1441
  C  C1019  1  0.219000  0.610800  0.867200  1.0  -0.1483
  C  C1020  1  0.245900  0.637300  0.826900  1.0  -0.1402
  C  C1021  1  0.088500  0.315300  0.132300  1.0  0.1328
  C  C1022  1  0.092000  0.301600  0.177400  1.0  -0.0609
  C  C1023  1  0.136000  0.289600  0.181000  1.0  -0.1309
  C  C1024  1  0.943000  0.334200  0.087600  1.0  0.1528
  C  C1025  1  0.964800  0.284400  0.091600  1.0  -0.1521
  C  C1026  1  0.961400  0.266400  0.066400  1.0  -0.1063
  C  C1027  1  0.912000  0.410800  0.223800  1.0  0.1691
  C  C1028  1  0.879300  0.386900  0.262300  1.0  -0.1314
  C  C1029  1  0.844800  0.405000  0.300800  1.0  -0.1919
  C  C1030  1  0.909900  0.275700  0.233700  1.0  0.1439
  C  C1031  1  0.867200  0.303000  0.219000  1.0  -0.148
  C  C1032  1  0.826900  0.289900  0.245900  1.0  -0.1385
  C  C1033  1  0.463900  0.132300  0.315300  1.0  0.1332
  C  C1034  1  0.429000  0.177400  0.301600  1.0  -0.0582
  C  C1035  1  0.393400  0.181000  0.289600  1.0  -0.1329
  C  C1036  1  0.635200  0.087600  0.334200  1.0  0.1514
  C  C1037  1  0.659200  0.091600  0.284400  1.0  -0.1554
  C  C1038  1  0.705800  0.066400  0.266400  1.0  -0.101
  C  C1039  1  0.453400  0.223800  0.410800  1.0  0.1679
  C  C1040  1  0.471500  0.262300  0.386900  1.0  -0.1299
  C  C1041  1  0.449400  0.300800  0.405000  1.0  -0.1931
  C  C1042  1  0.580700  0.233700  0.275700  1.0  0.1449
  C  C1043  1  0.610800  0.219000  0.303000  1.0  -0.1479
  C  C1044  1  0.637300  0.245900  0.289900  1.0  -0.1389
  C  C1045  1  0.315300  0.088500  0.463900  1.0  0.1347
  C  C1046  1  0.301600  0.092000  0.429000  1.0  -0.0622
  C  C1047  1  0.289600  0.136000  0.393400  1.0  -0.1352
  C  C1048  1  0.334200  0.943000  0.635200  1.0  0.153
  C  C1049  1  0.284400  0.964800  0.659200  1.0  -0.1575
  C  C1050  1  0.266400  0.961400  0.705800  1.0  -0.1069
  C  C1051  1  0.410800  0.912000  0.453400  1.0  0.1689
  C  C1052  1  0.386900  0.879300  0.471500  1.0  -0.1326
  C  C1053  1  0.405000  0.844800  0.449400  1.0  -0.1928
  C  C1054  1  0.275700  0.909900  0.580700  1.0  0.1425
  C  C1055  1  0.303000  0.867200  0.610800  1.0  -0.1482
  C  C1056  1  0.289900  0.826900  0.637300  1.0  -0.1383
  C  C1057  1  0.088500  0.463900  0.315300  1.0  0.1355
  C  C1058  1  0.092000  0.429000  0.301600  1.0  -0.0577
  C  C1059  1  0.136000  0.393400  0.289600  1.0  -0.1331
  C  C1060  1  0.943000  0.635200  0.334200  1.0  0.1529
  C  C1061  1  0.964800  0.659200  0.284400  1.0  -0.1545
  C  C1062  1  0.961400  0.705800  0.266400  1.0  -0.0963
  C  C1063  1  0.912000  0.453400  0.410800  1.0  0.1665
  C  C1064  1  0.879300  0.471500  0.386900  1.0  -0.1334
  C  C1065  1  0.844800  0.449400  0.405000  1.0  -0.191
  C  C1066  1  0.909900  0.580700  0.275700  1.0  0.1426
  C  C1067  1  0.867200  0.610800  0.303000  1.0  -0.1464
  C  C1068  1  0.826900  0.637300  0.289900  1.0  -0.1394
  C  C1069  1  0.132300  0.315300  0.463900  1.0  0.1336
  C  C1070  1  0.177400  0.301600  0.429000  1.0  -0.0564
  C  C1071  1  0.181000  0.289600  0.393400  1.0  -0.1356
  C  C1072  1  0.087600  0.334200  0.635200  1.0  0.1528
  C  C1073  1  0.091600  0.284400  0.659200  1.0  -0.15
  C  C1074  1  0.066400  0.266400  0.705800  1.0  -0.1063
  C  C1075  1  0.223800  0.410800  0.453400  1.0  0.1669
  C  C1076  1  0.262300  0.386900  0.471500  1.0  -0.135
  C  C1077  1  0.300800  0.405000  0.449400  1.0  -0.1914
  C  C1078  1  0.233700  0.275700  0.580700  1.0  0.1435
  C  C1079  1  0.219000  0.303000  0.610800  1.0  -0.1477
  C  C1080  1  0.245900  0.289900  0.637300  1.0  -0.1399
  C  C1081  1  0.315300  0.132300  0.088500  1.0  0.1346
  C  C1082  1  0.301600  0.177400  0.092000  1.0  -0.0586
  C  C1083  1  0.289600  0.181000  0.136000  1.0  -0.134
  C  C1084  1  0.334200  0.087600  0.943000  1.0  0.1527
  C  C1085  1  0.284400  0.091600  0.964800  1.0  -0.1559
  C  C1086  1  0.266400  0.066400  0.961400  1.0  -0.1028
  C  C1087  1  0.410800  0.223800  0.912000  1.0  0.1675
  C  C1088  1  0.386900  0.262300  0.879300  1.0  -0.1343
  C  C1089  1  0.405000  0.300800  0.844800  1.0  -0.1918
  C  C1090  1  0.275700  0.233700  0.909900  1.0  0.1434
  C  C1091  1  0.303000  0.219000  0.867200  1.0  -0.1457
  C  C1092  1  0.289900  0.245900  0.826900  1.0  -0.1396
  C  C1093  1  0.463900  0.088500  0.132300  1.0  0.1346
  C  C1094  1  0.429000  0.092000  0.177400  1.0  -0.058
  C  C1095  1  0.393400  0.136000  0.181000  1.0  -0.1341
  C  C1096  1  0.635200  0.943000  0.087600  1.0  0.1526
  C  C1097  1  0.659200  0.964800  0.091600  1.0  -0.1547
  C  C1098  1  0.705800  0.961400  0.066400  1.0  -0.0957
  C  C1099  1  0.453400  0.912000  0.223800  1.0  0.1691
  C  C1100  1  0.471500  0.879300  0.262300  1.0  -0.135
  C  C1101  1  0.449400  0.844800  0.300800  1.0  -0.191
  C  C1102  1  0.580700  0.909900  0.233700  1.0  0.1439
  C  C1103  1  0.610800  0.867200  0.219000  1.0  -0.1479
  C  C1104  1  0.637300  0.826900  0.245900  1.0  -0.1383
  C  C1105  1  0.525300  0.337300  0.068700  1.0  0.2563
  C  C1106  1  0.337300  0.525300  0.068700  1.0  0.2552
  C  C1107  1  0.068700  0.068700  0.525300  1.0  0.2562
  C  C1108  1  0.068700  0.068700  0.337300  1.0  0.2559
  C  C1109  1  0.525300  0.068700  0.068700  1.0  0.2567
  C  C1110  1  0.337300  0.068700  0.068700  1.0  0.2553
  C  C1111  1  0.068700  0.525300  0.337300  1.0  0.2566
  C  C1112  1  0.068700  0.337300  0.525300  1.0  0.2564
  C  C1113  1  0.525300  0.068700  0.337300  1.0  0.2574
  C  C1114  1  0.337300  0.068700  0.525300  1.0  0.2559
  C  C1115  1  0.068700  0.337300  0.068700  1.0  0.2565
  C  C1116  1  0.068700  0.525300  0.068700  1.0  0.2562
  C  C1117  1  0.662700  0.474700  0.931300  1.0  0.2557
  C  C1118  1  0.474700  0.662700  0.931300  1.0  0.256
  C  C1119  1  0.931300  0.931300  0.474700  1.0  0.2564
  C  C1120  1  0.931300  0.931300  0.662700  1.0  0.2567
  C  C1121  1  0.931300  0.474700  0.931300  1.0  0.256
  C  C1122  1  0.931300  0.662700  0.931300  1.0  0.2566
  C  C1123  1  0.474700  0.931300  0.662700  1.0  0.2569
  C  C1124  1  0.662700  0.931300  0.474700  1.0  0.2562
  C  C1125  1  0.931300  0.474700  0.662700  1.0  0.2559
  C  C1126  1  0.931300  0.662700  0.474700  1.0  0.256
  C  C1127  1  0.662700  0.931300  0.931300  1.0  0.2563
  C  C1128  1  0.474700  0.931300  0.931300  1.0  0.2573
  C  C1129  1  0.589200  0.410800  0.085800  1.0  0.2858
  C  C1130  1  0.410800  0.589200  0.914200  1.0  0.2859
  C  C1131  1  0.085800  0.914200  0.589200  1.0  0.2869
  C  C1132  1  0.914200  0.085800  0.410800  1.0  0.2873
  C  C1133  1  0.589200  0.085800  0.914200  1.0  0.2856
  C  C1134  1  0.410800  0.914200  0.085800  1.0  0.2883
  C  C1135  1  0.085800  0.589200  0.410800  1.0  0.2855
  C  C1136  1  0.914200  0.410800  0.589200  1.0  0.2858
  C  C1137  1  0.589200  0.914200  0.410800  1.0  0.2857
  C  C1138  1  0.410800  0.085800  0.589200  1.0  0.2878
  C  C1139  1  0.085800  0.410800  0.914200  1.0  0.2855
  C  C1140  1  0.914200  0.589200  0.085800  1.0  0.2847
  C  C1141  1  0.589200  0.410800  0.914200  1.0  0.2851
  C  C1142  1  0.410800  0.589200  0.085800  1.0  0.2865
  C  C1143  1  0.085800  0.914200  0.410800  1.0  0.2871
  C  C1144  1  0.914200  0.085800  0.589200  1.0  0.2869
  C  C1145  1  0.914200  0.410800  0.085800  1.0  0.2863
  C  C1146  1  0.085800  0.589200  0.914200  1.0  0.2841
  C  C1147  1  0.410800  0.914200  0.589200  1.0  0.2871
  C  C1148  1  0.589200  0.085800  0.410800  1.0  0.2866
  C  C1149  1  0.085800  0.410800  0.589200  1.0  0.2864
  C  C1150  1  0.914200  0.589200  0.410800  1.0  0.2846
  C  C1151  1  0.589200  0.914200  0.085800  1.0  0.2858
  C  C1152  1  0.410800  0.085800  0.914200  1.0  0.2878
  C  C1153  1  0.434400  0.434400  0.159400  1.0  0.2428
  C  C1154  1  0.434400  0.434400  0.971800  1.0  0.2431
  C  C1155  1  0.159400  0.971800  0.434400  1.0  0.2418
  C  C1156  1  0.971800  0.159400  0.434400  1.0  0.2416
  C  C1157  1  0.434400  0.159400  0.971800  1.0  0.2429
  C  C1158  1  0.434400  0.971800  0.159400  1.0  0.2416
  C  C1159  1  0.159400  0.434400  0.434400  1.0  0.2429
  C  C1160  1  0.971800  0.434400  0.434400  1.0  0.2414
  C  C1161  1  0.434400  0.971800  0.434400  1.0  0.2415
  C  C1162  1  0.434400  0.159400  0.434400  1.0  0.2424
  C  C1163  1  0.159400  0.434400  0.971800  1.0  0.2428
  C  C1164  1  0.971800  0.434400  0.159400  1.0  0.2414
  C  C1165  1  0.565600  0.565600  0.840600  1.0  0.2424
  C  C1166  1  0.565600  0.565600  0.028200  1.0  0.2432
  C  C1167  1  0.028200  0.840600  0.565600  1.0  0.242
  C  C1168  1  0.840600  0.028200  0.565600  1.0  0.2425
  C  C1169  1  0.840600  0.565600  0.028200  1.0  0.2437
  C  C1170  1  0.028200  0.565600  0.840600  1.0  0.2414
  C  C1171  1  0.565600  0.840600  0.565600  1.0  0.2415
  C  C1172  1  0.565600  0.028200  0.565600  1.0  0.2421
  C  C1173  1  0.028200  0.565600  0.565600  1.0  0.2417
  C  C1174  1  0.840600  0.565600  0.565600  1.0  0.2441
  C  C1175  1  0.565600  0.840600  0.028200  1.0  0.2416
  C  C1176  1  0.565600  0.028200  0.840600  1.0  0.2423
  C  C1177  1  0.530700  0.244700  0.244700  1.0  0.2895
  C  C1178  1  0.244700  0.530700  0.979900  1.0  0.2878
  C  C1179  1  0.244700  0.979900  0.530700  1.0  0.2866
  C  C1180  1  0.979900  0.244700  0.244700  1.0  0.2892
  C  C1181  1  0.530700  0.244700  0.979900  1.0  0.2878
  C  C1182  1  0.244700  0.979900  0.244700  1.0  0.2862
  C  C1183  1  0.244700  0.530700  0.244700  1.0  0.2896
  C  C1184  1  0.979900  0.244700  0.530700  1.0  0.2892
  C  C1185  1  0.530700  0.979900  0.244700  1.0  0.2884
  C  C1186  1  0.244700  0.244700  0.530700  1.0  0.2895
  C  C1187  1  0.244700  0.244700  0.979900  1.0  0.288
  C  C1188  1  0.979900  0.530700  0.244700  1.0  0.2881
  C  C1189  1  0.755300  0.469300  0.755300  1.0  0.2883
  C  C1190  1  0.469300  0.755300  0.020100  1.0  0.2895
  C  C1191  1  0.020100  0.755300  0.469300  1.0  0.2891
  C  C1192  1  0.755300  0.020100  0.755300  1.0  0.2863
  C  C1193  1  0.755300  0.469300  0.020100  1.0  0.2897
  C  C1194  1  0.020100  0.755300  0.755300  1.0  0.2897
  C  C1195  1  0.469300  0.755300  0.755300  1.0  0.288
  C  C1196  1  0.755300  0.020100  0.469300  1.0  0.2861
  C  C1197  1  0.020100  0.469300  0.755300  1.0  0.288
  C  C1198  1  0.755300  0.755300  0.469300  1.0  0.2906
  C  C1199  1  0.755300  0.755300  0.020100  1.0  0.291
  C  C1200  1  0.469300  0.020100  0.755300  1.0  0.2863
  N  N1201  1  0.504160  0.329840  0.117640  1.0  -0.458
  N  N1202  1  0.586630  0.363710  0.105950  1.0  -0.4681
  N  N1203  1  0.469140  0.398200  0.181360  1.0  -0.4619
  N  N1204  1  0.548450  0.282250  0.212970  1.0  -0.4501
  N  N1205  1  0.329840  0.504160  0.048360  1.0  -0.461
  N  N1206  1  0.363710  0.586630  0.943710  1.0  -0.4666
  N  N1207  1  0.398200  0.469140  0.951300  1.0  -0.4623
  N  N1208  1  0.282250  0.548450  0.956330  1.0  -0.4494
  N  N1209  1  0.117640  0.048360  0.504160  1.0  -0.4619
  N  N1210  1  0.105950  0.943710  0.586630  1.0  -0.465
  N  N1211  1  0.181360  0.951300  0.469140  1.0  -0.4597
  N  N1212  1  0.212970  0.956330  0.548450  1.0  -0.4532
  N  N1213  1  0.048360  0.117640  0.329840  1.0  -0.4635
  N  N1214  1  0.943710  0.105950  0.363710  1.0  -0.4651
  N  N1215  1  0.951300  0.181360  0.398200  1.0  -0.4608
  N  N1216  1  0.956330  0.212970  0.282250  1.0  -0.4527
  N  N1217  1  0.504160  0.117640  0.048360  1.0  -0.4603
  N  N1218  1  0.586630  0.105950  0.943710  1.0  -0.4675
  N  N1219  1  0.469140  0.181360  0.951300  1.0  -0.4627
  N  N1220  1  0.548450  0.212970  0.956330  1.0  -0.452
  N  N1221  1  0.329840  0.048360  0.117640  1.0  -0.4627
  N  N1222  1  0.363710  0.943710  0.105950  1.0  -0.4676
  N  N1223  1  0.398200  0.951300  0.181360  1.0  -0.461
  N  N1224  1  0.282250  0.956330  0.212970  1.0  -0.4524
  N  N1225  1  0.117640  0.504160  0.329840  1.0  -0.4613
  N  N1226  1  0.105950  0.586630  0.363710  1.0  -0.4659
  N  N1227  1  0.181360  0.469140  0.398200  1.0  -0.4622
  N  N1228  1  0.212970  0.548450  0.282250  1.0  -0.4527
  N  N1229  1  0.048360  0.329840  0.504160  1.0  -0.4615
  N  N1230  1  0.943710  0.363710  0.586630  1.0  -0.466
  N  N1231  1  0.951300  0.398200  0.469140  1.0  -0.4613
  N  N1232  1  0.956330  0.282250  0.548450  1.0  -0.4504
  N  N1233  1  0.504160  0.048360  0.329840  1.0  -0.4627
  N  N1234  1  0.586630  0.943710  0.363710  1.0  -0.4676
  N  N1235  1  0.469140  0.951300  0.398200  1.0  -0.4626
  N  N1236  1  0.548450  0.956330  0.282250  1.0  -0.4498
  N  N1237  1  0.329840  0.117640  0.504160  1.0  -0.4622
  N  N1238  1  0.363710  0.105950  0.586630  1.0  -0.4663
  N  N1239  1  0.398200  0.181360  0.469140  1.0  -0.4625
  N  N1240  1  0.282250  0.212970  0.548450  1.0  -0.4538
  N  N1241  1  0.117640  0.329840  0.048360  1.0  -0.4613
  N  N1242  1  0.105950  0.363710  0.943710  1.0  -0.4641
  N  N1243  1  0.181360  0.398200  0.951300  1.0  -0.461
  N  N1244  1  0.212970  0.282250  0.956330  1.0  -0.4523
  N  N1245  1  0.048360  0.504160  0.117640  1.0  -0.4623
  N  N1246  1  0.943710  0.586630  0.105950  1.0  -0.4656
  N  N1247  1  0.951300  0.469140  0.181360  1.0  -0.4618
  N  N1248  1  0.956330  0.548450  0.212970  1.0  -0.4503
  N  N1249  1  0.670160  0.495840  0.882360  1.0  -0.4609
  N  N1250  1  0.636290  0.413370  0.894050  1.0  -0.4655
  N  N1251  1  0.601800  0.530860  0.818640  1.0  -0.4624
  N  N1252  1  0.717750  0.451550  0.787030  1.0  -0.4509
  N  N1253  1  0.495840  0.670160  0.951640  1.0  -0.4593
  N  N1254  1  0.413370  0.636290  0.056290  1.0  -0.4671
  N  N1255  1  0.530860  0.601800  0.048700  1.0  -0.4619
  N  N1256  1  0.451550  0.717750  0.043670  1.0  -0.4509
  N  N1257  1  0.951640  0.882360  0.495840  1.0  -0.4628
  N  N1258  1  0.056290  0.894050  0.413370  1.0  -0.4668
  N  N1259  1  0.048700  0.818640  0.530860  1.0  -0.4608
  N  N1260  1  0.043670  0.787030  0.451550  1.0  -0.4529
  N  N1261  1  0.882360  0.951640  0.670160  1.0  -0.4636
  N  N1262  1  0.894050  0.056290  0.636290  1.0  -0.4668
  N  N1263  1  0.818640  0.048700  0.601800  1.0  -0.4594
  N  N1264  1  0.787030  0.043670  0.717750  1.0  -0.451
  N  N1265  1  0.882360  0.495840  0.951640  1.0  -0.4624
  N  N1266  1  0.894050  0.413370  0.056290  1.0  -0.4666
  N  N1267  1  0.818640  0.530860  0.048700  1.0  -0.462
  N  N1268  1  0.787030  0.451550  0.043670  1.0  -0.452
  N  N1269  1  0.951640  0.670160  0.882360  1.0  -0.4615
  N  N1270  1  0.056290  0.636290  0.894050  1.0  -0.4669
  N  N1271  1  0.048700  0.601800  0.818640  1.0  -0.4617
  N  N1272  1  0.043670  0.717750  0.787030  1.0  -0.451
  N  N1273  1  0.495840  0.882360  0.670160  1.0  -0.4622
  N  N1274  1  0.413370  0.894050  0.636290  1.0  -0.4676
  N  N1275  1  0.530860  0.818640  0.601800  1.0  -0.4625
  N  N1276  1  0.451550  0.787030  0.717750  1.0  -0.4519
  N  N1277  1  0.670160  0.951640  0.495840  1.0  -0.4624
  N  N1278  1  0.636290  0.056290  0.413370  1.0  -0.4673
  N  N1279  1  0.601800  0.048700  0.530860  1.0  -0.4615
  N  N1280  1  0.717750  0.043670  0.451550  1.0  -0.4534
  N  N1281  1  0.951640  0.495840  0.670160  1.0  -0.4626
  N  N1282  1  0.056290  0.413370  0.636290  1.0  -0.4661
  N  N1283  1  0.048700  0.530860  0.601800  1.0  -0.4625
  N  N1284  1  0.043670  0.451550  0.717750  1.0  -0.4496
  N  N1285  1  0.882360  0.670160  0.495840  1.0  -0.4619
  N  N1286  1  0.894050  0.636290  0.413370  1.0  -0.4648
  N  N1287  1  0.818640  0.601800  0.530860  1.0  -0.4603
  N  N1288  1  0.787030  0.717750  0.451550  1.0  -0.4504
  N  N1289  1  0.670160  0.882360  0.951640  1.0  -0.4619
  N  N1290  1  0.636290  0.894050  0.056290  1.0  -0.4667
  N  N1291  1  0.601800  0.818640  0.048700  1.0  -0.4629
  N  N1292  1  0.717750  0.787030  0.043670  1.0  -0.453
  N  N1293  1  0.495840  0.951640  0.882360  1.0  -0.464
  N  N1294  1  0.413370  0.056290  0.894050  1.0  -0.4667
  N  N1295  1  0.530860  0.048700  0.818640  1.0  -0.462
  N  N1296  1  0.451550  0.043670  0.787030  1.0  -0.4501
  N  N1297  1  0.495840  0.670160  0.882360  1.0  -0.461
  N  N1298  1  0.413370  0.636290  0.894050  1.0  -0.4671
  N  N1299  1  0.530860  0.601800  0.818640  1.0  -0.4617
  N  N1300  1  0.451550  0.717750  0.787030  1.0  -0.4502
  N  N1301  1  0.670160  0.495840  0.951640  1.0  -0.4587
  N  N1302  1  0.636290  0.413370  0.056290  1.0  -0.4653
  N  N1303  1  0.601800  0.530860  0.048700  1.0  -0.4625
  N  N1304  1  0.717750  0.451550  0.043670  1.0  -0.4507
  N  N1305  1  0.882360  0.951640  0.495840  1.0  -0.4646
  N  N1306  1  0.894050  0.056290  0.413370  1.0  -0.4658
  N  N1307  1  0.818640  0.048700  0.530860  1.0  -0.4601
  N  N1308  1  0.787030  0.043670  0.451550  1.0  -0.4506
  N  N1309  1  0.951640  0.882360  0.670160  1.0  -0.4611
  N  N1310  1  0.056290  0.894050  0.636290  1.0  -0.4676
  N  N1311  1  0.048700  0.818640  0.601800  1.0  -0.4598
  N  N1312  1  0.043670  0.787030  0.717750  1.0  -0.4529
  N  N1313  1  0.495840  0.882360  0.951640  1.0  -0.4621
  N  N1314  1  0.413370  0.894050  0.056290  1.0  -0.468
  N  N1315  1  0.530860  0.818640  0.048700  1.0  -0.4622
  N  N1316  1  0.451550  0.787030  0.043670  1.0  -0.4511
  N  N1317  1  0.670160  0.951640  0.882360  1.0  -0.4616
  N  N1318  1  0.636290  0.056290  0.894050  1.0  -0.4673
  N  N1319  1  0.601800  0.048700  0.818640  1.0  -0.4619
  N  N1320  1  0.717750  0.043670  0.787030  1.0  -0.4527
  N  N1321  1  0.882360  0.495840  0.670160  1.0  -0.4622
  N  N1322  1  0.894050  0.413370  0.636290  1.0  -0.4662
  N  N1323  1  0.818640  0.530860  0.601800  1.0  -0.4619
  N  N1324  1  0.787030  0.451550  0.717750  1.0  -0.4521
  N  N1325  1  0.951640  0.670160  0.495840  1.0  -0.4622
  N  N1326  1  0.056290  0.636290  0.413370  1.0  -0.4676
  N  N1327  1  0.048700  0.601800  0.530860  1.0  -0.4612
  N  N1328  1  0.043670  0.717750  0.451550  1.0  -0.4516
  N  N1329  1  0.495840  0.951640  0.670160  1.0  -0.4645
  N  N1330  1  0.413370  0.056290  0.636290  1.0  -0.4667
  N  N1331  1  0.530860  0.048700  0.601800  1.0  -0.4624
  N  N1332  1  0.451550  0.043670  0.717750  1.0  -0.4524
  N  N1333  1  0.670160  0.882360  0.495840  1.0  -0.4629
  N  N1334  1  0.636290  0.894050  0.413370  1.0  -0.4662
  N  N1335  1  0.601800  0.818640  0.530860  1.0  -0.463
  N  N1336  1  0.717750  0.787030  0.451550  1.0  -0.4537
  N  N1337  1  0.882360  0.670160  0.951640  1.0  -0.4614
  N  N1338  1  0.894050  0.636290  0.056290  1.0  -0.4654
  N  N1339  1  0.818640  0.601800  0.048700  1.0  -0.4605
  N  N1340  1  0.787030  0.717750  0.043670  1.0  -0.4508
  N  N1341  1  0.951640  0.495840  0.882360  1.0  -0.4626
  N  N1342  1  0.056290  0.413370  0.894050  1.0  -0.4664
  N  N1343  1  0.048700  0.530860  0.818640  1.0  -0.4623
  N  N1344  1  0.043670  0.451550  0.787030  1.0  -0.4485
  N  N1345  1  0.329840  0.504160  0.117640  1.0  -0.4594
  N  N1346  1  0.363710  0.586630  0.105950  1.0  -0.4669
  N  N1347  1  0.398200  0.469140  0.181360  1.0  -0.4623
  N  N1348  1  0.282250  0.548450  0.212970  1.0  -0.4501
  N  N1349  1  0.504160  0.329840  0.048360  1.0  -0.4601
  N  N1350  1  0.586630  0.363710  0.943710  1.0  -0.4682
  N  N1351  1  0.469140  0.398200  0.951300  1.0  -0.4618
  N  N1352  1  0.548450  0.282250  0.956330  1.0  -0.4501
  N  N1353  1  0.048360  0.117640  0.504160  1.0  -0.4626
  N  N1354  1  0.943710  0.105950  0.586630  1.0  -0.4656
  N  N1355  1  0.951300  0.181360  0.469140  1.0  -0.4601
  N  N1356  1  0.956330  0.212970  0.548450  1.0  -0.4529
  N  N1357  1  0.117640  0.048360  0.329840  1.0  -0.4632
  N  N1358  1  0.105950  0.943710  0.363710  1.0  -0.4645
  N  N1359  1  0.181360  0.951300  0.398200  1.0  -0.4603
  N  N1360  1  0.212970  0.956330  0.282250  1.0  -0.4533
  N  N1361  1  0.117640  0.504160  0.048360  1.0  -0.4612
  N  N1362  1  0.105950  0.586630  0.943710  1.0  -0.4655
  N  N1363  1  0.181360  0.469140  0.951300  1.0  -0.4626
  N  N1364  1  0.212970  0.548450  0.956330  1.0  -0.4531
  N  N1365  1  0.048360  0.329840  0.117640  1.0  -0.4625
  N  N1366  1  0.943710  0.363710  0.105950  1.0  -0.4662
  N  N1367  1  0.951300  0.398200  0.181360  1.0  -0.4611
  N  N1368  1  0.956330  0.282250  0.212970  1.0  -0.4506
  N  N1369  1  0.504160  0.117640  0.329840  1.0  -0.4604
  N  N1370  1  0.586630  0.105950  0.363710  1.0  -0.4674
  N  N1371  1  0.469140  0.181360  0.398200  1.0  -0.4624
  N  N1372  1  0.548450  0.212970  0.282250  1.0  -0.4518
  N  N1373  1  0.329840  0.048360  0.504160  1.0  -0.4621
  N  N1374  1  0.363710  0.943710  0.586630  1.0  -0.4669
  N  N1375  1  0.398200  0.951300  0.469140  1.0  -0.4614
  N  N1376  1  0.282250  0.956330  0.548450  1.0  -0.4524
  N  N1377  1  0.048360  0.504160  0.329840  1.0  -0.4621
  N  N1378  1  0.943710  0.586630  0.363710  1.0  -0.4657
  N  N1379  1  0.951300  0.469140  0.398200  1.0  -0.4613
  N  N1380  1  0.956330  0.548450  0.282250  1.0  -0.449
  N  N1381  1  0.117640  0.329840  0.504160  1.0  -0.4606
  N  N1382  1  0.105950  0.363710  0.586630  1.0  -0.4653
  N  N1383  1  0.181360  0.398200  0.469140  1.0  -0.461
  N  N1384  1  0.212970  0.282250  0.548450  1.0  -0.4522
  N  N1385  1  0.329840  0.117640  0.048360  1.0  -0.4628
  N  N1386  1  0.363710  0.105950  0.943710  1.0  -0.4656
  N  N1387  1  0.398200  0.181360  0.951300  1.0  -0.4624
  N  N1388  1  0.282250  0.212970  0.956330  1.0  -0.4532
  N  N1389  1  0.504160  0.048360  0.117640  1.0  -0.4628
  N  N1390  1  0.586630  0.943710  0.105950  1.0  -0.4675
  N  N1391  1  0.469140  0.951300  0.181360  1.0  -0.4628
  N  N1392  1  0.548450  0.956330  0.212970  1.0  -0.4511
