# generated using pymatgen
data_ZnH6(C5N4)2
_symmetry_space_group_name_H-M   'P 1'
_cell_length_a   32.15390000
_cell_length_b   32.15390000
_cell_length_c   32.15390000
_cell_angle_alpha   60.00000000
_cell_angle_beta   60.00000000
_cell_angle_gamma   60.00000000
_symmetry_Int_Tables_number   1
_chemical_formula_structural   ZnH6(C5N4)2
_chemical_formula_sum   'Zn48 H288 C480 N384'
_cell_volume   23506.39189850
_cell_formula_units_Z   48
loop_
 _symmetry_equiv_pos_site_id
 _symmetry_equiv_pos_as_xyz
  1  'x, y, z'
loop_
 _atom_site_type_symbol
 _atom_site_label
 _atom_site_symmetry_multiplicity
 _atom_site_fract_x
 _atom_site_fract_y
 _atom_site_fract_z
 _atom_site_occupancy
 _atom_site_charge
  Zn  Zn1  1  0.050660  0.696540  0.028650  1.0  0.7717
  Zn  Zn2  1  0.046540  0.513740  0.031030  1.0  0.7165
  Zn  Zn3  1  0.863740  0.513520  0.030960  1.0  0.7328
  Zn  Zn4  1  0.683670  0.880710  0.026390  1.0  0.7579
  Zn  Zn5  1  0.681150  0.696210  0.030920  1.0  0.7536
  Zn  Zn6  1  0.866240  0.878860  0.031610  1.0  0.7128
  Zn  Zn7  1  0.180950  0.195960  0.531040  1.0  0.7431
  Zn  Zn8  1  0.364500  0.009900  0.084600  1.0  0.7252
  Zn  Zn9  1  0.051060  0.326520  0.214100  1.0  0.7249
  Zn  Zn10  1  0.048450  0.328690  0.398470  1.0  0.7174
  Zn  Zn11  1  0.181500  0.196050  0.081700  1.0  0.7251
  Zn  Zn12  1  0.363960  0.011350  0.531670  1.0  0.7182
  Zn  Zn13  1  0.998540  0.011200  0.898450  1.0  0.7435
  Zn  Zn14  1  0.551100  0.196010  0.713330  1.0  0.7239
  Zn  Zn15  1  0.548930  0.011610  0.531480  1.0  0.7143
  Zn  Zn16  1  0.996370  0.196210  0.083490  1.0  0.7465
  Zn  Zn17  1  0.683300  0.326000  0.398900  1.0  0.7191
  Zn  Zn18  1  0.866710  0.326250  0.583140  1.0  0.7668
  Zn  Zn19  1  0.681410  0.330720  0.580920  1.0  0.7123
  Zn  Zn20  1  0.865750  0.329100  0.214380  1.0  0.7132
  Zn  Zn21  1  0.998690  0.011310  0.083220  1.0  0.7306
  Zn  Zn22  1  0.548580  0.196250  0.531190  1.0  0.7277
  Zn  Zn23  1  0.549090  0.013740  0.898580  1.0  0.7298
  Zn  Zn24  1  0.998500  0.195530  0.714410  1.0  0.732
  Zn  Zn25  1  0.181070  0.828720  0.083470  1.0  0.7218
  Zn  Zn26  1  0.363780  0.381440  0.531810  1.0  0.7269
  Zn  Zn27  1  0.365950  0.828480  0.713870  1.0  0.7158
  Zn  Zn28  1  0.180780  0.381090  0.898500  1.0  0.7202
  Zn  Zn29  1  0.496840  0.880600  0.398940  1.0  0.7348
  Zn  Zn30  1  0.493820  0.513710  0.583150  1.0  0.7247
  Zn  Zn31  1  0.496070  0.696190  0.216020  1.0  0.7204
  Zn  Zn32  1  0.049350  0.513140  0.398470  1.0  0.7247
  Zn  Zn33  1  0.500860  0.878360  0.213850  1.0  0.7102
  Zn  Zn34  1  0.048880  0.696490  0.214020  1.0  0.7153
  Zn  Zn35  1  0.498330  0.511460  0.398570  1.0  0.7512
  Zn  Zn36  1  0.498470  0.696550  0.580970  1.0  0.72
  Zn  Zn37  1  0.181670  0.828560  0.898340  1.0  0.7301
  Zn  Zn38  1  0.365660  0.379460  0.715660  1.0  0.7309
  Zn  Zn39  1  0.365890  0.826370  0.083460  1.0  0.7214
  Zn  Zn40  1  0.180870  0.381090  0.531070  1.0  0.7164
  Zn  Zn41  1  0.999020  0.378900  0.714340  1.0  0.7135
  Zn  Zn42  1  0.549340  0.829740  0.897990  1.0  0.7654
  Zn  Zn43  1  0.683120  0.695860  0.582020  1.0  0.7387
  Zn  Zn44  1  0.866420  0.880670  0.215770  1.0  0.7183
  Zn  Zn45  1  0.866720  0.511810  0.582700  1.0  0.7444
  Zn  Zn46  1  0.683340  0.878330  0.398960  1.0  0.7208
  Zn  Zn47  1  0.996760  0.381570  0.898680  1.0  0.7706
  Zn  Zn48  1  0.551070  0.828540  0.713630  1.0  0.723
  H  H49  1  0.441870  0.154520  0.622660  1.0  0.0702
  H  H50  1  0.808070  0.434920  0.492120  1.0  0.0703
  H  H51  1  0.958960  0.553620  0.341180  1.0  0.0731
  H  H52  1  0.723740  0.637530  0.491990  1.0  0.0708
  H  H53  1  0.807830  0.789630  0.255840  1.0  0.0741
  H  H54  1  0.959650  0.638090  0.137420  1.0  0.0728
  H  H55  1  0.354060  0.235830  0.021930  1.0  0.0801
  H  H56  1  0.846290  0.235580  0.020770  1.0  0.0791
  H  H57  1  0.149010  0.502220  0.052980  1.0  0.0604
  H  H58  1  0.405810  0.676500  0.020080  1.0  0.0825
  H  H59  1  0.005220  0.614860  0.052310  1.0  0.0808
  H  H60  1  0.750030  0.501150  0.055190  1.0  0.0669
  H  H61  1  0.669720  0.983530  0.050770  1.0  0.0621
  H  H62  1  0.973470  0.510220  0.997730  1.0  0.0674
  H  H63  1  0.977100  0.805990  0.997490  1.0  0.0685
  H  H64  1  0.678940  0.806910  0.995850  1.0  0.0693
  H  H65  1  0.783830  0.617920  0.050690  1.0  0.0743
  H  H66  1  0.787970  0.834720  0.050210  1.0  0.0759
  H  H67  1  0.163100  0.220340  0.777010  1.0  0.0773
  H  H68  1  0.149850  0.352110  0.284950  1.0  0.0537
  H  H69  1  0.244310  0.127910  0.695140  1.0  0.0735
  H  H70  1  0.354160  0.235540  0.380040  1.0  0.0777
  H  H71  1  0.296830  0.073510  0.924960  1.0  0.0746
  H  H72  1  0.404380  0.322470  0.378290  1.0  0.0875
  H  H73  1  0.162690  0.074540  0.830350  1.0  0.0831
  H  H74  1  0.390530  0.074750  0.695680  1.0  0.077
  H  H75  1  0.488000  0.184780  0.380300  1.0  0.0794
  H  H76  1  0.160970  0.127770  0.924250  1.0  0.0702
  H  H77  1  0.243800  0.223170  0.829680  1.0  0.0798
  H  H78  1  0.089300  0.154000  0.772720  1.0  0.0659
  H  H79  1  0.442150  0.070640  0.856570  1.0  0.0689
  H  H80  1  0.239760  0.272470  0.621710  1.0  0.0673
  H  H81  1  0.376630  0.124720  0.429430  1.0  0.0547
  H  H82  1  0.238370  0.154750  0.975010  1.0  0.0724
  H  H83  1  0.088320  0.272650  0.858680  1.0  0.0714
  H  H84  1  0.324340  0.069550  0.622390  1.0  0.0725
  H  H85  1  0.089480  0.069470  0.974950  1.0  0.0667
  H  H86  1  0.032870  0.215760  0.440880  1.0  0.0994
  H  H87  1  0.165990  0.238360  0.368080  1.0  0.0679
  H  H88  1  0.376830  0.122380  0.062720  1.0  0.0629
  H  H89  1  0.367180  0.061190  0.321570  1.0  0.0663
  H  H90  1  0.037280  0.137900  0.329920  1.0  0.0924
  H  H91  1  0.230780  0.196840  0.239640  1.0  0.0609
  H  H92  1  0.138990  0.108330  0.194910  1.0  0.0952
  H  H93  1  0.212980  0.194240  0.168550  1.0  0.0706
  H  H94  1  0.362270  0.042400  0.414770  1.0  0.0692
  H  H95  1  0.009700  0.081020  0.271830  1.0  0.0968
  H  H96  1  0.406110  0.317920  0.888270  1.0  0.078
  H  H97  1  0.486860  0.184560  0.940330  1.0  0.0818
  H  H98  1  0.094960  0.081400  0.543670  1.0  0.1026
  H  H99  1  0.015580  0.107850  0.671860  1.0  0.0994
  H  H100  1  0.256910  0.169350  0.349280  1.0  0.0595
  H  H101  1  0.339900  0.088630  0.212500  1.0  0.0557
  H  H102  1  0.071190  0.199330  0.604800  1.0  0.0704
  H  H103  1  0.070610  0.200430  0.115460  1.0  0.0695
  H  H104  1  0.117030  0.299760  0.461710  1.0  0.0692
  H  H105  1  0.119590  0.296820  0.112060  1.0  0.0685
  H  H106  1  0.261810  0.094330  0.574360  1.0  0.0788
  H  H107  1  0.261880  0.090700  0.061550  1.0  0.0802
  H  H108  1  0.042570  0.091650  0.795780  1.0  0.0691
  H  H109  1  0.041650  0.093110  0.061550  1.0  0.0648
  H  H110  1  0.005350  0.349740  0.318450  1.0  0.0742
  H  H111  1  0.027940  0.288810  0.680220  1.0  0.0711
  H  H112  1  0.144710  0.292940  0.559620  1.0  0.0701
  H  H113  1  0.460240  0.290410  0.560980  1.0  0.0711
  H  H114  1  0.461750  0.290570  0.679280  1.0  0.0694
  H  H115  1  0.025350  0.293140  0.994090  1.0  0.0703
  H  H116  1  0.146640  0.291420  0.991770  1.0  0.0678
  H  H117  1  0.391210  0.128240  0.777640  1.0  0.0794
  H  H118  1  0.845050  0.320880  0.886630  1.0  0.0851
  H  H119  1  0.846340  0.183920  0.938230  1.0  0.0806
  H  H120  1  0.897110  0.125970  0.058860  1.0  0.0517
  H  H121  1  0.523380  0.207170  0.430960  1.0  0.0627
  H  H122  1  0.896470  0.206720  0.829260  1.0  0.061
  H  H123  1  0.788740  0.197980  0.763870  1.0  0.0612
  H  H124  1  0.558880  0.030850  0.174350  1.0  0.0785
  H  H125  1  0.952470  0.137410  0.570340  1.0  0.0917
  H  H126  1  0.707500  0.061780  0.900460  1.0  0.0631
  H  H127  1  0.694010  0.031000  0.090790  1.0  0.0762
  H  H128  1  0.796690  0.137030  0.486380  1.0  0.0881
  H  H129  1  0.768590  0.217610  0.564240  1.0  0.0996
  H  H130  1  0.683530  0.241080  0.698350  1.0  0.0701
  H  H131  1  0.706650  0.198190  0.321570  1.0  0.0595
  H  H132  1  0.788300  0.062410  0.240030  1.0  0.0679
  H  H133  1  0.529340  0.208440  0.825920  1.0  0.064
  H  H134  1  0.642860  0.031530  0.227080  1.0  0.0788
  H  H135  1  0.909070  0.216370  0.301150  1.0  0.102
  H  H136  1  0.835090  0.239820  0.216530  1.0  0.0682
  H  H137  1  0.681560  0.087070  0.350130  1.0  0.06
  H  H138  1  0.815570  0.169990  0.214060  1.0  0.0614
  H  H139  1  0.816920  0.087270  0.872540  1.0  0.0564
  H  H140  1  0.668960  0.348680  0.287190  1.0  0.0737
  H  H141  1  0.881380  0.041860  0.171860  1.0  0.0689
  H  H142  1  0.739600  0.082360  0.626600  1.0  0.0942
  H  H143  1  0.661150  0.108640  0.548360  1.0  0.0935
  H  H144  1  0.636580  0.193710  0.414610  1.0  0.0723
  H  H145  1  0.680820  0.170890  0.791040  1.0  0.0616
  H  H146  1  0.637000  0.043840  0.896590  1.0  0.0734
  H  H147  1  0.882180  0.192510  0.744980  1.0  0.0717
  H  H148  1  0.754200  0.349380  0.685440  1.0  0.0681
  H  H149  1  0.583280  0.199300  0.603720  1.0  0.0698
  H  H150  1  0.976990  0.295240  0.209790  1.0  0.0697
  H  H151  1  0.678710  0.295060  0.507920  1.0  0.0699
  H  H152  1  0.975740  0.294270  0.509420  1.0  0.069
  H  H153  1  0.579770  0.300290  0.649140  1.0  0.071
  H  H154  1  0.928630  0.299270  0.112650  1.0  0.0682
  H  H155  1  0.579710  0.297390  0.461400  1.0  0.0636
  H  H156  1  0.929600  0.296580  0.652010  1.0  0.0687
  H  H157  1  0.528250  0.094050  0.794260  1.0  0.0714
  H  H158  1  0.527590  0.091840  0.575590  1.0  0.0748
  H  H159  1  0.787760  0.348020  0.317480  1.0  0.075
  H  H160  1  0.784390  0.350480  0.537790  1.0  0.074
  H  H161  1  0.015490  0.491940  0.671760  1.0  0.0928
  H  H162  1  0.257820  0.509830  0.348660  1.0  0.0608
  H  H163  1  0.390890  0.992900  0.830530  1.0  0.0751
  H  H164  1  0.093360  0.570480  0.544380  1.0  0.1001
  H  H165  1  0.339330  0.646090  0.215410  1.0  0.0607
  H  H166  1  0.244540  0.992240  0.923070  1.0  0.0819
  H  H167  1  0.212590  0.710770  0.171220  1.0  0.0657
  H  H168  1  0.362810  0.468360  0.413570  1.0  0.0669
  H  H169  1  0.151680  0.583940  0.202480  1.0  0.0623
  H  H170  1  0.296890  0.992230  0.777650  1.0  0.0783
  H  H171  1  0.280250  0.847490  0.669090  1.0  0.0846
  H  H172  1  0.009940  0.570010  0.783060  1.0  0.098
  H  H173  1  0.136240  0.492370  0.812760  1.0  0.0934
  H  H174  1  0.248890  0.925950  0.542660  1.0  0.0978
  H  H175  1  0.200750  0.390240  0.173480  1.0  0.076
  H  H176  1  0.309000  0.781510  0.570380  1.0  0.0937
  H  H177  1  0.384850  0.860660  0.443470  1.0  0.083
  H  H178  1  0.324700  0.918190  0.975350  1.0  0.0775
  H  H179  1  0.036980  0.628440  0.840990  1.0  0.0968
  H  H180  1  0.231430  0.619580  0.238780  1.0  0.0601
  H  H181  1  0.441470  0.919360  0.772410  1.0  0.0752
  H  H182  1  0.201380  0.522460  0.092020  1.0  0.0884
  H  H183  1  0.365520  0.537390  0.323850  1.0  0.0598
  H  H184  1  0.409420  0.664160  0.217560  1.0  0.0704
  H  H185  1  0.032970  0.599820  0.440740  1.0  0.0921
  H  H186  1  0.165780  0.515000  0.366970  1.0  0.0723
  H  H187  1  0.202030  0.472020  0.226120  1.0  0.0876
  H  H188  1  0.240040  0.919480  0.856610  1.0  0.0645
  H  H189  1  0.292720  0.358690  0.428350  1.0  0.0636
  H  H190  1  0.306360  0.781980  0.331120  1.0  0.0921
  H  H191  1  0.388190  0.860990  0.301610  1.0  0.0906
  H  H192  1  0.411890  0.996040  0.215480  1.0  0.0713
  H  H193  1  0.230570  0.620320  0.898210  1.0  0.0581
  H  H194  1  0.294370  0.726640  0.059930  1.0  0.057
  H  H195  1  0.036490  0.783910  0.840470  1.0  0.0933
  H  H196  1  0.029100  0.741290  0.300500  1.0  0.098
  H  H197  1  0.305110  0.627250  0.570040  1.0  0.1004
  H  H198  1  0.387550  0.598040  0.442990  1.0  0.0957
  H  H199  1  0.366680  0.538570  0.764230  1.0  0.0587
  H  H200  1  0.411150  0.665240  0.699050  1.0  0.0705
  H  H201  1  0.165450  0.514500  0.942280  1.0  0.0674
  H  H202  1  0.378450  0.725980  0.825560  1.0  0.0653
  H  H203  1  0.293560  0.358570  0.910920  1.0  0.0587
  H  H204  1  0.258300  0.511110  0.872860  1.0  0.0608
  H  H205  1  0.488420  0.677220  0.887250  1.0  0.0811
  H  H206  1  0.521040  0.982070  0.285810  1.0  0.0554
  H  H207  1  0.340570  0.646610  0.790990  1.0  0.062
  H  H208  1  0.138930  0.845980  0.810770  1.0  0.0941
  H  H209  1  0.212860  0.711930  0.896210  1.0  0.0719
  H  H210  1  0.354150  0.676950  0.938000  1.0  0.0858
  H  H211  1  0.250690  0.571030  0.540990  1.0  0.0946
  H  H212  1  0.276950  0.491820  0.672990  1.0  0.0956
  H  H213  1  0.364240  0.466310  0.746410  1.0  0.071
  H  H214  1  0.010210  0.925680  0.783840  1.0  0.0954
  H  H215  1  0.015470  0.969300  0.195950  1.0  0.0955
  H  H216  1  0.095890  0.838640  0.273090  1.0  0.0945
  H  H217  1  0.518230  0.500230  0.685350  1.0  0.0638
  H  H218  1  0.520380  0.582720  0.203300  1.0  0.0584
  H  H219  1  0.278680  0.847690  0.194630  1.0  0.0983
  H  H220  1  0.252360  0.922990  0.273760  1.0  0.0924
  H  H221  1  0.072210  0.412900  0.604330  1.0  0.0724
  H  H222  1  0.368410  0.900080  0.116880  1.0  0.0694
  H  H223  1  0.072030  0.901800  0.116410  1.0  0.0691
  H  H224  1  0.369210  0.413150  0.605230  1.0  0.0667
  H  H225  1  0.072110  0.901650  0.901660  1.0  0.0699
  H  H226  1  0.368010  0.902550  0.604030  1.0  0.0674
  H  H227  1  0.069800  0.414350  0.902330  1.0  0.0731
  H  H228  1  0.464870  0.806710  0.508360  1.0  0.0692
  H  H229  1  0.463460  0.509050  0.509310  1.0  0.0726
  H  H230  1  0.464890  0.805480  0.211400  1.0  0.0692
  H  H231  1  0.469220  0.947080  0.112270  1.0  0.0689
  H  H232  1  0.116870  0.760380  0.112160  1.0  0.0677
  H  H233  1  0.468250  0.409490  0.462900  1.0  0.0685
  H  H234  1  0.468490  0.760560  0.650380  1.0  0.0669
  H  H235  1  0.116070  0.410220  0.001320  1.0  0.0722
  H  H236  1  0.466830  0.948390  0.462200  1.0  0.067
  H  H237  1  0.119720  0.759480  0.999200  1.0  0.065
  H  H238  1  0.465830  0.410860  0.651990  1.0  0.069
  H  H239  1  0.466760  0.759090  0.113420  1.0  0.0683
  H  H240  1  0.118540  0.411080  0.461440  1.0  0.0709
  H  H241  1  0.042750  0.358250  0.793810  1.0  0.0699
  H  H242  1  0.261220  0.871730  0.062250  1.0  0.0733
  H  H243  1  0.262420  0.359610  0.575280  1.0  0.0862
  H  H244  1  0.262630  0.873050  0.794220  1.0  0.0778
  H  H245  1  0.260250  0.359780  0.795350  1.0  0.0726
  H  H246  1  0.519740  0.834950  0.317390  1.0  0.0781
  H  H247  1  0.518220  0.617140  0.537720  1.0  0.0844
  H  H248  1  0.518940  0.614400  0.318920  1.0  0.074
  H  H249  1  0.004230  0.617560  0.318070  1.0  0.0756
  H  H250  1  0.460900  0.857320  0.993280  1.0  0.0702
  H  H251  1  0.460020  0.975780  0.994590  1.0  0.07
  H  H252  1  0.145890  0.857880  0.994630  1.0  0.0727
  H  H253  1  0.027940  0.976450  0.994690  1.0  0.0714
  H  H254  1  0.458740  0.976350  0.560910  1.0  0.069
  H  H255  1  0.460650  0.858130  0.678560  1.0  0.0706
  H  H256  1  0.020180  0.416730  0.118270  1.0  0.073
  H  H257  1  0.020610  0.731460  0.118920  1.0  0.0672
  H  H258  1  0.018920  0.418060  0.433120  1.0  0.0724
  H  H259  1  0.881840  0.467990  0.745030  1.0  0.0713
  H  H260  1  0.637220  0.711880  0.896130  1.0  0.0652
  H  H261  1  0.659990  0.967040  0.550550  1.0  0.0848
  H  H262  1  0.681960  0.647920  0.789150  1.0  0.0635
  H  H263  1  0.739520  0.841860  0.626600  1.0  0.0963
  H  H264  1  0.816250  0.509110  0.873830  1.0  0.0623
  H  H265  1  0.894840  0.358600  0.910730  1.0  0.0672
  H  H266  1  0.908540  0.600310  0.917750  1.0  0.0978
  H  H267  1  0.834020  0.515260  0.942440  1.0  0.0695
  H  H268  1  0.796460  0.868780  0.484530  1.0  0.0945
  H  H269  1  0.769760  0.737910  0.566110  1.0  0.0965
  H  H270  1  0.685200  0.664890  0.699160  1.0  0.0694
  H  H271  1  0.952230  0.626890  0.570160  1.0  0.0935
  H  H272  1  0.790650  0.537310  0.764140  1.0  0.0562
  H  H273  1  0.707360  0.620910  0.897900  1.0  0.0586
  H  H274  1  0.657600  0.714090  0.282270  1.0  0.0753
  H  H275  1  0.527330  0.727170  0.909140  1.0  0.0588
  H  H276  1  0.692440  0.473050  0.733100  1.0  0.0783
  H  H277  1  0.797040  0.868150  0.837600  1.0  0.0899
  H  H278  1  0.749460  0.634990  0.188780  1.0  0.079
  H  H279  1  0.766790  0.741360  0.919910  1.0  0.088
  H  H280  1  0.642220  0.523460  0.091240  1.0  0.0769
  H  H281  1  0.908540  0.862850  0.918990  1.0  0.0974
  H  H282  1  0.835430  0.996580  0.942980  1.0  0.0696
  H  H283  1  0.749610  0.487790  0.416470  1.0  0.0775
  H  H284  1  0.641750  0.389320  0.733000  1.0  0.0773
  H  H285  1  0.656190  0.579830  0.337340  1.0  0.0765
  H  H286  1  0.559370  0.472650  0.225500  1.0  0.0869
  H  H287  1  0.953230  0.867060  0.330880  1.0  0.0981
  H  H288  1  0.657180  0.634520  0.416880  1.0  0.0738
  H  H289  1  0.555760  0.524980  0.734860  1.0  0.0847
  H  H290  1  0.883760  0.580210  0.190600  1.0  0.08
  H  H291  1  0.683270  0.996770  0.367770  1.0  0.0659
  H  H292  1  0.804170  0.486510  0.282840  1.0  0.0768
  H  H293  1  0.693510  0.386430  0.175350  1.0  0.0886
  H  H294  1  0.723070  0.790250  0.136350  1.0  0.0728
  H  H295  1  0.605090  0.637260  0.256470  1.0  0.0759
  H  H296  1  0.671220  0.580610  0.683450  1.0  0.0646
  H  H297  1  0.604250  0.789600  0.339790  1.0  0.0716
  H  H298  1  0.753860  0.982830  0.202100  1.0  0.0547
  H  H299  1  0.805970  0.554130  0.139410  1.0  0.0674
  H  H300  1  0.959690  0.435250  0.254950  1.0  0.0738
  H  H301  1  0.661470  0.970850  0.809700  1.0  0.0973
  H  H302  1  0.723750  0.434820  0.340020  1.0  0.0773
  H  H303  1  0.738810  0.839490  0.783500  1.0  0.0967
  H  H304  1  0.603690  0.553560  0.492620  1.0  0.072
  H  H305  1  0.582440  0.902840  0.902660  1.0  0.0661
  H  H306  1  0.582700  0.901720  0.605150  1.0  0.0704
  H  H307  1  0.679230  0.805480  0.509270  1.0  0.0685
  H  H308  1  0.975360  0.807070  0.211520  1.0  0.0695
  H  H309  1  0.976680  0.508230  0.509140  1.0  0.0688
  H  H310  1  0.930750  0.408370  0.651400  1.0  0.0682
  H  H311  1  0.578620  0.760100  0.001730  1.0  0.0678
  H  H312  1  0.929570  0.947530  0.002080  1.0  0.0702
  H  H313  1  0.578440  0.948060  0.462830  1.0  0.0681
  H  H314  1  0.927250  0.411760  0.001330  1.0  0.0679
  H  H315  1  0.580810  0.758640  0.651030  1.0  0.0716
  H  H316  1  0.930260  0.948480  0.113010  1.0  0.0709
  H  H317  1  0.580750  0.949800  0.998600  1.0  0.0686
  H  H318  1  0.527670  0.872860  0.795970  1.0  0.0814
  H  H319  1  0.786410  0.614440  0.538390  1.0  0.072
  H  H320  1  0.784940  0.835590  0.319610  1.0  0.0851
  H  H321  1  0.586410  0.849670  0.434200  1.0  0.0697
  H  H322  1  0.899560  0.419780  0.118720  1.0  0.0698
  H  H323  1  0.588570  0.731620  0.553110  1.0  0.0739
  H  H324  1  0.901800  0.850140  0.121520  1.0  0.0711
  H  H325  1  0.588500  0.415520  0.433960  1.0  0.071
  H  H326  1  0.583770  0.419790  0.552480  1.0  0.07
  H  H327  1  0.585100  0.731490  0.121300  1.0  0.0706
  H  H328  1  0.590100  0.849790  0.116590  1.0  0.0702
  H  H329  1  0.902390  0.414950  0.554240  1.0  0.0688
  H  H330  1  0.297560  0.221370  0.695000  1.0  0.0741
  H  H331  1  0.324290  0.272030  0.772720  1.0  0.0719
  H  H332  1  0.884600  0.486430  0.336730  1.0  0.0814
  H  H333  1  0.803820  0.579840  0.418390  1.0  0.0725
  H  H334  1  0.804180  0.714550  0.188610  1.0  0.0778
  H  H335  1  0.884500  0.634160  0.283400  1.0  0.0786
  H  H336  1  0.749740  0.714650  0.336800  1.0  0.075
  C  C337  1  0.432940  0.077900  0.011760  1.0  -0.0039
  C  C338  1  0.410500  0.118980  0.028960  1.0  0.2506
  C  C339  1  0.113080  0.165740  0.019780  1.0  0.3682
  C  C340  1  0.157130  0.167260  0.018390  1.0  0.0291
  C  C341  1  0.248640  0.263260  0.009770  1.0  0.3531
  C  C342  1  0.322610  0.256410  0.007040  1.0  0.2814
  C  C343  1  0.935120  0.263690  0.010410  1.0  0.3278
  C  C344  1  0.871720  0.256310  0.006440  1.0  0.2677
  C  C345  1  0.936210  0.079560  0.009570  1.0  0.0288
  C  C346  1  0.900350  0.121160  0.025960  1.0  0.2487
  C  C347  1  0.334250  0.988010  0.020860  1.0  0.3556
  C  C348  1  0.159360  0.944430  0.019680  1.0  0.3643
  C  C349  1  0.248460  0.765620  0.010310  1.0  -0.0067
  C  C350  1  0.290030  0.729880  0.026770  1.0  0.2422
  C  C351  1  0.115080  0.988350  0.018590  1.0  -0.0039
  C  C352  1  0.336070  0.943730  0.019360  1.0  -0.0048
  C  C353  1  0.432740  0.766120  0.009710  1.0  0.3493
  C  C354  1  0.426170  0.702290  0.005690  1.0  0.2661
  C  C355  1  0.043760  0.609460  0.025250  1.0  0.3366
  C  C356  1  0.951050  0.521270  0.031580  1.0  0.227
  C  C357  1  0.954470  0.783460  0.030930  1.0  0.2283
  C  C358  1  0.690260  0.784420  0.029540  1.0  0.2558
  C  C359  1  0.778630  0.611580  0.023670  1.0  0.351
  C  C360  1  0.781430  0.873460  0.023690  1.0  0.2918
  C  C361  1  0.114840  0.316660  0.692060  1.0  0.3593
  C  C362  1  0.160560  0.248040  0.739900  1.0  0.2774
  C  C363  1  0.158830  0.165070  0.647420  1.0  0.357
  C  C364  1  0.207110  0.139850  0.692820  1.0  0.2752
  C  C365  1  0.106360  0.190230  0.504650  1.0  0.3673
  C  C366  1  0.256790  0.132440  0.463070  1.0  0.3541
  C  C367  1  0.247760  0.263630  0.469050  1.0  0.3302
  C  C368  1  0.322360  0.256310  0.405470  1.0  0.2714
  C  C369  1  0.090740  0.121580  0.522860  1.0  0.363
  C  C370  1  0.268910  0.146670  0.382820  1.0  0.2609
  C  C371  1  0.309090  0.036280  0.952360  1.0  0.2672
  C  C372  1  0.301110  0.087320  0.137970  1.0  0.3585
  C  C373  1  0.316810  0.100390  0.190140  1.0  0.2762
  C  C374  1  0.334720  0.317330  0.647590  1.0  0.3629
  C  C375  1  0.309660  0.248790  0.692760  1.0  0.2768
  C  C376  1  0.431590  0.309150  0.469160  1.0  0.3351
  C  C377  1  0.424480  0.306820  0.404680  1.0  0.2733
  C  C378  1  0.160290  0.037350  0.842390  1.0  0.2723
  C  C379  1  0.487110  0.165480  0.691770  1.0  0.3702
  C  C380  1  0.418650  0.140270  0.740350  1.0  0.2767
  C  C381  1  0.478220  0.264080  0.781530  1.0  -0.0015
  C  C382  1  0.495400  0.241900  0.822580  1.0  0.2573
  C  C383  1  0.418080  0.037580  0.693210  1.0  0.2733
  C  C384  1  0.476400  0.078910  0.469910  1.0  0.3389
  C  C385  1  0.473250  0.153250  0.405990  1.0  0.2604
  C  C386  1  0.158580  0.140060  0.951610  1.0  0.2735
  C  C387  1  0.158090  0.318780  0.867510  1.0  0.3667
  C  C388  1  0.206510  0.250420  0.842130  1.0  0.298
  C  C389  1  0.248610  0.307840  0.966350  1.0  -0.0089
  C  C390  1  0.289750  0.324810  0.944550  1.0  0.264
  C  C391  1  0.076430  0.219390  0.221470  1.0  0.3528
  C  C392  1  0.116940  0.272590  0.278130  1.0  0.3563
  C  C393  1  0.058020  0.153240  0.289780  1.0  0.3652
  C  C394  1  0.197320  0.219260  0.262810  1.0  0.241
  C  C395  1  0.389970  0.027660  0.309510  1.0  0.2433
  C  C396  1  0.077540  0.220190  0.471370  1.0  0.0445
  C  C397  1  0.055660  0.195990  0.465740  1.0  0.2522
  C  C398  1  0.117200  0.271980  0.322290  1.0  0.0262
  C  C399  1  0.161790  0.242020  0.334610  1.0  0.2071
  C  C400  1  0.113770  0.316810  0.869950  1.0  0.001
  C  C401  1  0.120020  0.277690  0.857660  1.0  0.2308
  C  C402  1  0.109100  0.187580  0.191120  1.0  0.0082
  C  C403  1  0.114450  0.135950  0.214990  1.0  0.2355
  C  C404  1  0.257060  0.131160  0.138010  1.0  0.0324
  C  C405  1  0.245520  0.159320  0.166430  1.0  0.209
  C  C406  1  0.202470  0.154450  0.979630  1.0  0.2347
  C  C407  1  0.300870  0.088490  0.463050  1.0  0.0376
  C  C408  1  0.328030  0.075710  0.418760  1.0  0.2126
  C  C409  1  0.432780  0.079120  0.468880  1.0  0.001
  C  C410  1  0.323670  0.033740  0.654030  1.0  0.2364
  C  C411  1  0.410690  0.120530  0.432930  1.0  0.247
  C  C412  1  0.336400  0.315820  0.691610  1.0  -0.0065
  C  C413  1  0.433450  0.307320  0.782060  1.0  0.3572
  C  C414  1  0.426730  0.303590  0.856430  1.0  0.2818
  C  C415  1  0.323920  0.276790  0.736800  1.0  0.2387
  C  C416  1  0.121110  0.033620  0.979500  1.0  0.2359
  C  C417  1  0.485690  0.166780  0.647710  1.0  -0.0085
  C  C418  1  0.474870  0.264390  0.469220  1.0  0.0333
  C  C419  1  0.446670  0.154230  0.654120  1.0  0.2401
  C  C420  1  0.490910  0.242060  0.433660  1.0  0.2314
  C  C421  1  0.476440  0.078440  0.967250  1.0  0.3494
  C  C422  1  0.472500  0.152770  0.960740  1.0  0.2806
  C  C423  1  0.446680  0.034660  0.856520  1.0  0.2335
  C  C424  1  0.114640  0.166430  0.691470  1.0  0.0269
  C  C425  1  0.120830  0.153770  0.736790  1.0  0.2351
  C  C426  1  0.158650  0.315560  0.647670  1.0  0.0048
  C  C427  1  0.247770  0.308130  0.468100  1.0  -0.0104
  C  C428  1  0.204050  0.276730  0.653540  1.0  0.237
  C  C429  1  0.289060  0.324930  0.432180  1.0  0.2322
  C  C430  1  0.093780  0.187970  0.627240  1.0  0.2687
  C  C431  1  0.093000  0.188950  0.081860  1.0  0.2457
  C  C432  1  0.107800  0.267150  0.471360  1.0  0.3101
  C  C433  1  0.109630  0.264700  0.144560  1.0  0.3472
  C  C434  1  0.267810  0.099460  0.535930  1.0  0.3598
  C  C435  1  0.267390  0.097290  0.088200  1.0  0.3476
  C  C436  1  0.004020  0.097710  0.801190  1.0  0.2721
  C  C437  1  0.003110  0.098440  0.088630  1.0  0.3209
  C  C438  1  0.043890  0.322660  0.312090  1.0  0.2773
  C  C439  1  0.180110  0.290910  0.527660  1.0  0.3465
  C  C440  1  0.458450  0.010890  0.993380  1.0  0.3339
  C  C441  1  0.458060  0.289540  0.528830  1.0  0.3597
  C  C442  1  0.460190  0.289230  0.714430  1.0  0.3513
  C  C443  1  0.457720  0.011550  0.528730  1.0  0.3364
  C  C444  1  0.181580  0.289900  0.990820  1.0  0.3519
  C  C445  1  0.935800  0.307730  0.781790  1.0  0.3454
  C  C446  1  0.871240  0.305440  0.855640  1.0  0.2772
  C  C447  1  0.930900  0.087070  0.834730  1.0  0.3547
  C  C448  1  0.936710  0.078760  0.965670  1.0  0.3315
  C  C449  1  0.872420  0.152800  0.958550  1.0  0.2649
  C  C450  1  0.850460  0.099270  0.849590  1.0  0.234
  C  C451  1  0.657650  0.190790  0.638630  1.0  0.3618
  C  C452  1  0.605380  0.132800  0.790310  1.0  0.3555
  C  C453  1  0.724090  0.122510  0.622590  1.0  0.3804
  C  C454  1  0.658240  0.147930  0.803000  1.0  0.2487
  C  C455  1  0.605390  0.087000  0.464030  1.0  0.3469
  C  C456  1  0.658670  0.099270  0.383560  1.0  0.2412
  C  C457  1  0.971090  0.189670  0.190200  1.0  0.349
  C  C458  1  0.929750  0.132000  0.138590  1.0  0.3474
  C  C459  1  0.989190  0.121240  0.256440  1.0  0.3641
  C  C460  1  0.849220  0.146960  0.191630  1.0  0.2322
  C  C461  1  0.776510  0.028730  0.263170  1.0  0.2454
  C  C462  1  0.688720  0.219160  0.473170  1.0  0.3646
  C  C463  1  0.746230  0.272530  0.322220  1.0  0.3611
  C  C464  1  0.756600  0.152640  0.490090  1.0  0.3585
  C  C465  1  0.730020  0.220340  0.309670  1.0  0.2742
  C  C466  1  0.730830  0.028090  0.922610  1.0  0.2703
  C  C467  1  0.940510  0.218910  0.609320  1.0  0.3511
  C  C468  1  0.789280  0.273430  0.649640  1.0  0.3664
  C  C469  1  0.956620  0.152730  0.591040  1.0  0.3603
  C  C470  1  0.776770  0.220470  0.730300  1.0  0.2776
  C  C471  1  0.573860  0.005360  0.153480  1.0  0.263
  C  C472  1  0.725390  0.005440  0.105760  1.0  0.2734
  C  C473  1  0.689340  0.221250  0.609320  1.0  0.0287
  C  C474  1  0.741060  0.197450  0.587200  1.0  0.2388
  C  C475  1  0.745620  0.273070  0.649440  1.0  0.0291
  C  C476  1  0.718040  0.243820  0.694110  1.0  0.2124
  C  C477  1  0.622370  0.005580  0.258200  1.0  0.2734
  C  C478  1  0.938710  0.220060  0.221970  1.0  0.0125
  C  C479  1  0.933330  0.196200  0.273600  1.0  0.2422
  C  C480  1  0.790570  0.271640  0.278700  1.0  0.0329
  C  C481  1  0.802130  0.242730  0.251040  1.0  0.2189
  C  C482  1  0.934290  0.308110  0.966790  1.0  0.0033
  C  C483  1  0.898550  0.324860  0.944410  1.0  0.2306
  C  C484  1  0.930050  0.087570  0.139170  1.0  0.0275
  C  C485  1  0.885470  0.075200  0.168600  1.0  0.2061
  C  C486  1  0.658040  0.187700  0.502410  1.0  0.0254
  C  C487  1  0.681500  0.136040  0.525160  1.0  0.2505
  C  C488  1  0.604730  0.131500  0.463660  1.0  0.0229
  C  C489  1  0.633980  0.159090  0.418930  1.0  0.2156
  C  C490  1  0.605650  0.088600  0.833990  1.0  0.0334
  C  C491  1  0.634590  0.076580  0.861840  1.0  0.2105
  C  C492  1  0.969960  0.187120  0.642010  1.0  0.024
  C  C493  1  0.992330  0.135460  0.647410  1.0  0.2401
  C  C494  1  0.930890  0.130920  0.790580  1.0  0.0286
  C  C495  1  0.886320  0.158250  0.778220  1.0  0.2196
  C  C496  1  0.935410  0.263400  0.782780  1.0  0.0345
  C  C497  1  0.899560  0.241300  0.824390  1.0  0.2482
  C  C498  1  0.549470  0.188180  0.626400  1.0  0.2354
  C  C499  1  0.954430  0.328730  0.221440  1.0  0.2261
  C  C500  1  0.690130  0.328670  0.485530  1.0  0.2317
  C  C501  1  0.953290  0.328020  0.486900  1.0  0.2307
  C  C502  1  0.612090  0.267730  0.639950  1.0  0.3109
  C  C503  1  0.938320  0.266720  0.144870  1.0  0.3396
  C  C504  1  0.612050  0.265040  0.471020  1.0  0.3176
  C  C505  1  0.939120  0.264320  0.642290  1.0  0.3464
  C  C506  1  0.555220  0.099350  0.800570  1.0  0.3243
  C  C507  1  0.554800  0.097840  0.537090  1.0  0.3392
  C  C508  1  0.780970  0.321570  0.311930  1.0  0.2753
  C  C509  1  0.778840  0.323510  0.576360  1.0  0.2747
  C  C510  1  0.995520  0.288040  0.715220  1.0  0.3542
  C  C511  1  0.995880  0.011760  0.992500  1.0  0.3581
  C  C512  1  0.993530  0.290980  0.992580  1.0  0.36
  C  C513  1  0.486570  0.945300  0.868180  1.0  0.3614
  C  C514  1  0.418320  0.990610  0.842670  1.0  0.2755
  C  C515  1  0.477100  0.765700  0.966030  1.0  -0.0015
  C  C516  1  0.494080  0.730100  0.943380  1.0  0.2516
  C  C517  1  0.360360  0.935590  0.191140  1.0  0.3674
  C  C518  1  0.292490  0.919120  0.258010  1.0  0.3606
  C  C519  1  0.207410  0.989800  0.950840  1.0  0.2799
  C  C520  1  0.107260  0.801200  0.190710  1.0  0.3566
  C  C521  1  0.257930  0.759560  0.138930  1.0  0.034
  C  C522  1  0.245710  0.714940  0.168360  1.0  0.2021
  C  C523  1  0.091190  0.818770  0.257320  1.0  0.3634
  C  C524  1  0.358930  0.488330  0.503790  1.0  0.365
  C  C525  1  0.300820  0.436300  0.463000  1.0  0.0425
  C  C526  1  0.328340  0.465330  0.418070  1.0  0.2191
  C  C527  1  0.290990  0.555160  0.521080  1.0  0.3596
  C  C528  1  0.114800  0.989190  0.867540  1.0  0.36
  C  C529  1  0.486720  0.989600  0.647620  1.0  0.3533
  C  C530  1  0.333910  0.944620  0.692110  1.0  0.3652
  C  C531  1  0.309020  0.989890  0.740390  1.0  0.273
  C  C532  1  0.359300  0.801060  0.639980  1.0  0.0359
  C  C533  1  0.307690  0.823590  0.645240  1.0  0.2476
  C  C534  1  0.301820  0.761050  0.790170  1.0  0.3829
  C  C535  1  0.433990  0.766060  0.781090  1.0  -0.0028
  C  C536  1  0.317410  0.680230  0.802880  1.0  0.2385
  C  C537  1  0.411950  0.729870  0.822070  1.0  0.2363
  C  C538  1  0.106500  0.489080  0.891800  1.0  0.0364
  C  C539  1  0.112110  0.512760  0.840100  1.0  0.247
  C  C540  1  0.256780  0.436490  0.834330  1.0  0.3739
  C  C541  1  0.270140  0.488550  0.849910  1.0  0.2535
  C  C542  1  0.111180  0.400630  0.146460  1.0  0.3395
  C  C543  1  0.174790  0.404810  0.153240  1.0  0.2671
  C  C544  1  0.388220  0.907180  0.472630  1.0  0.0295
  C  C545  1  0.364510  0.884480  0.467410  1.0  0.253
  C  C546  1  0.442770  0.946920  0.322180  1.0  0.3786
  C  C547  1  0.076250  0.771070  0.921810  1.0  0.3537
  C  C548  1  0.116710  0.620390  0.974560  1.0  0.3501
  C  C549  1  0.111720  0.628540  0.102630  1.0  0.3523
  C  C550  1  0.175650  0.554170  0.106490  1.0  0.2572
  C  C551  1  0.057510  0.787680  0.855730  1.0  0.3645
  C  C552  1  0.197070  0.608240  0.921010  1.0  0.2653
  C  C553  1  0.387350  0.519580  0.609310  1.0  0.3551
  C  C554  1  0.441570  0.577130  0.649720  1.0  0.3796
  C  C555  1  0.320780  0.587270  0.591010  1.0  0.339
  C  C556  1  0.389150  0.561600  0.730610  1.0  0.2765
  C  C557  1  0.388560  0.769890  0.222860  1.0  0.3629
  C  C558  1  0.441990  0.618880  0.279370  1.0  0.0277
  C  C559  1  0.412450  0.631110  0.252030  1.0  0.2143
  C  C560  1  0.322060  0.786390  0.290860  1.0  0.3573
  C  C561  1  0.078040  0.520620  0.471240  1.0  0.0132
  C  C562  1  0.055680  0.572280  0.465720  1.0  0.241
  C  C563  1  0.116450  0.577570  0.322400  1.0  0.0272
  C  C564  1  0.161470  0.549530  0.334020  1.0  0.2255
  C  C565  1  0.111160  0.445650  0.331210  1.0  0.3536
  C  C566  1  0.175730  0.452000  0.257340  1.0  0.2692
  C  C567  1  0.111300  0.401760  0.330790  1.0  -0.0106
  C  C568  1  0.147040  0.385020  0.289390  1.0  0.2429
  C  C569  1  0.391210  0.906360  0.222460  1.0  -0.0021
  C  C570  1  0.367790  0.883970  0.274260  1.0  0.2513
  C  C571  1  0.443000  0.946950  0.278120  1.0  0.029
  C  C572  1  0.414110  0.991790  0.250260  1.0  0.2206
  C  C573  1  0.076140  0.770130  0.221730  1.0  0.0291
  C  C574  1  0.053320  0.764840  0.273350  1.0  0.2359
  C  C575  1  0.116620  0.621070  0.278070  1.0  0.3661
  C  C576  1  0.112210  0.628690  0.146360  1.0  -0.0009
  C  C577  1  0.197700  0.607880  0.262030  1.0  0.2429
  C  C578  1  0.148100  0.587580  0.168730  1.0  0.2682
  C  C579  1  0.390170  0.519260  0.472390  1.0  0.0299
  C  C580  1  0.366850  0.570960  0.466800  1.0  0.2282
  C  C581  1  0.441480  0.575390  0.323840  1.0  0.347
  C  C582  1  0.388240  0.560270  0.311730  1.0  0.2321
  C  C583  1  0.390760  0.770330  0.608530  1.0  0.3605
  C  C584  1  0.442040  0.620770  0.649840  1.0  0.0383
  C  C585  1  0.413330  0.632570  0.694690  1.0  0.2202
  C  C586  1  0.324460  0.786170  0.590570  1.0  0.3538
  C  C587  1  0.074600  0.519900  0.923160  1.0  0.3597
  C  C588  1  0.116830  0.576200  0.974830  1.0  0.0626
  C  C589  1  0.161300  0.548880  0.945200  1.0  0.1924
  C  C590  1  0.111080  0.444780  0.102540  1.0  -0.0044
  C  C591  1  0.057090  0.588140  0.856590  1.0  0.3623
  C  C592  1  0.146320  0.467720  0.085910  1.0  0.2296
  C  C593  1  0.485200  0.945200  0.691420  1.0  0.033
  C  C594  1  0.477550  0.766850  0.781250  1.0  0.3487
  C  C595  1  0.473980  0.702810  0.855520  1.0  0.2604
  C  C596  1  0.446140  0.951150  0.736710  1.0  0.2333
  C  C597  1  0.335850  0.988560  0.647880  1.0  0.0337
  C  C598  1  0.357320  0.937900  0.504090  1.0  0.3636
  C  C599  1  0.289130  0.921580  0.522290  1.0  0.3596
  C  C600  1  0.158820  0.944960  0.868830  1.0  0.0323
  C  C601  1  0.109100  0.800360  0.889960  1.0  0.0086
  C  C602  1  0.114350  0.822870  0.838360  1.0  0.2384
  C  C603  1  0.257700  0.761160  0.833900  1.0  0.0227
  C  C604  1  0.245790  0.716290  0.861660  1.0  0.2146
  C  C605  1  0.248280  0.766510  0.965940  1.0  0.3483
  C  C606  1  0.322640  0.702600  0.958670  1.0  0.2769
  C  C607  1  0.204140  0.951050  0.856340  1.0  0.2351
  C  C608  1  0.355960  0.488860  0.642510  1.0  0.0059
  C  C609  1  0.304260  0.512240  0.648130  1.0  0.2421
  C  C610  1  0.300920  0.436020  0.790610  1.0  0.0291
  C  C611  1  0.329270  0.464330  0.778940  1.0  0.2078
  C  C612  1  0.485500  0.989370  0.869330  1.0  -0.0012
  C  C613  1  0.357480  0.800760  0.191760  1.0  0.0313
  C  C614  1  0.305880  0.823730  0.215210  1.0  0.2358
  C  C615  1  0.301320  0.760120  0.139520  1.0  0.3468
  C  C616  1  0.323930  0.949860  0.980210  1.0  0.2327
  C  C617  1  0.316480  0.679560  0.192650  1.0  0.2277
  C  C618  1  0.106650  0.488750  0.504740  1.0  0.3531
  C  C619  1  0.257250  0.435380  0.463180  1.0  0.3729
  C  C620  1  0.089920  0.555020  0.523290  1.0  0.3764
  C  C621  1  0.269680  0.487710  0.382280  1.0  0.2802
  C  C622  1  0.094600  0.379180  0.626930  1.0  0.2286
  C  C623  1  0.357200  0.922690  0.083130  1.0  0.2138
  C  C624  1  0.094360  0.924320  0.082520  1.0  0.2257
  C  C625  1  0.357710  0.379560  0.627680  1.0  0.2363
  C  C626  1  0.094610  0.924160  0.890300  1.0  0.2168
  C  C627  1  0.356780  0.924730  0.626810  1.0  0.2526
  C  C628  1  0.092620  0.380660  0.891050  1.0  0.2215
  C  C629  1  0.498370  0.784310  0.485650  1.0  0.2339
  C  C630  1  0.497110  0.520410  0.486790  1.0  0.2536
  C  C631  1  0.498550  0.782920  0.222780  1.0  0.2575
  C  C632  1  0.437030  0.937460  0.144930  1.0  0.348
  C  C633  1  0.107590  0.769560  0.144690  1.0  0.3254
  C  C634  1  0.435990  0.442070  0.472140  1.0  0.3534
  C  C635  1  0.436220  0.769850  0.640820  1.0  0.3243
  C  C636  1  0.106770  0.442690  0.968890  1.0  0.3495
  C  C637  1  0.434510  0.938760  0.471760  1.0  0.3464
  C  C638  1  0.109700  0.769230  0.967050  1.0  0.3209
  C  C639  1  0.433350  0.443020  0.642410  1.0  0.3499
  C  C640  1  0.434440  0.768850  0.145730  1.0  0.3511
  C  C641  1  0.108820  0.443400  0.471170  1.0  0.3356
  C  C642  1  0.004170  0.385190  0.800230  1.0  0.3313
  C  C643  1  0.267540  0.833100  0.089130  1.0  0.3211
  C  C644  1  0.267970  0.386130  0.536490  1.0  0.3568
  C  C645  1  0.268010  0.834480  0.800400  1.0  0.2776
  C  C646  1  0.266720  0.386620  0.800670  1.0  0.3452
  C  C647  1  0.492820  0.873550  0.311800  1.0  0.2864
  C  C648  1  0.491640  0.610780  0.576460  1.0  0.3211
  C  C649  1  0.491930  0.608950  0.312820  1.0  0.2719
  C  C650  1  0.042920  0.611200  0.312500  1.0  0.2852
  C  C651  1  0.459240  0.825200  0.991810  1.0  0.3491
  C  C652  1  0.181020  0.825600  0.992870  1.0  0.3463
  C  C653  1  0.459310  0.825950  0.713800  1.0  0.3583
  C  C654  1  0.052080  0.418470  0.120090  1.0  0.3498
  C  C655  1  0.052680  0.696160  0.120560  1.0  0.3466
  C  C656  1  0.051310  0.419580  0.398080  1.0  0.3497
  C  C657  1  0.970440  0.487900  0.641500  1.0  0.0119
  C  C658  1  0.992400  0.511970  0.647160  1.0  0.2464
  C  C659  1  0.930910  0.435690  0.790100  1.0  0.0343
  C  C660  1  0.886080  0.464850  0.778220  1.0  0.2279
  C  C661  1  0.656730  0.801580  0.892030  1.0  0.364
  C  C662  1  0.604980  0.760990  0.834240  1.0  0.0395
  C  C663  1  0.634500  0.716310  0.861500  1.0  0.1972
  C  C664  1  0.723200  0.819410  0.823820  1.0  0.3586
  C  C665  1  0.971870  0.937170  0.892460  1.0  0.3621
  C  C666  1  0.989640  0.921460  0.824030  1.0  0.3605
  C  C667  1  0.656970  0.937860  0.503890  1.0  0.0332
  C  C668  1  0.680530  0.943230  0.526590  1.0  0.2382
  C  C669  1  0.933770  0.392040  0.242980  1.0  -0.0018
  C  C670  1  0.927830  0.430810  0.255580  1.0  0.2345
  C  C671  1  0.561510  0.763830  0.421140  1.0  -0.0047
  C  C672  1  0.570990  0.942090  0.331560  1.0  -0.0041
  C  C673  1  0.600130  0.757910  0.375650  1.0  0.2323
  C  C674  1  0.554460  0.978250  0.290110  1.0  0.24
  C  C675  1  0.887070  0.542260  0.095480  1.0  0.0028
  C  C676  1  0.937700  0.520960  0.921920  1.0  0.0094
  C  C677  1  0.932710  0.572530  0.897840  1.0  0.2404
  C  C678  1  0.788750  0.577610  0.974060  1.0  0.039
  C  C679  1  0.800970  0.549760  0.945030  1.0  0.1937
  C  C680  1  0.796790  0.444700  0.104020  1.0  0.0334
  C  C681  1  0.841890  0.554490  0.134660  1.0  0.2428
  C  C682  1  0.755090  0.466550  0.087900  1.0  0.2409
  C  C683  1  0.711750  0.718690  0.466170  1.0  -0.0121
  C  C684  1  0.690250  0.768590  0.610810  1.0  0.0415
  C  C685  1  0.741950  0.762990  0.588680  1.0  0.2395
  C  C686  1  0.746930  0.619470  0.650240  1.0  0.0262
  C  C687  1  0.719510  0.631690  0.694900  1.0  0.2135
  C  C688  1  0.614310  0.628120  0.644760  1.0  0.0273
  C  C689  1  0.724070  0.673330  0.460270  1.0  0.2357
  C  C690  1  0.636380  0.586040  0.680430  1.0  0.2328
  C  C691  1  0.888890  0.763720  0.244150  1.0  -0.0012
  C  C692  1  0.941000  0.906120  0.222480  1.0  0.3499
  C  C693  1  0.789470  0.947790  0.278850  1.0  0.3782
  C  C694  1  0.799260  0.942680  0.146650  1.0  -0.0066
  C  C695  1  0.843530  0.757810  0.256490  1.0  0.2334
  C  C696  1  0.957130  0.887910  0.290780  1.0  0.3664
  C  C697  1  0.757850  0.978860  0.168420  1.0  0.2302
  C  C698  1  0.711470  0.392070  0.421190  1.0  0.0009
  C  C699  1  0.614040  0.399870  0.331590  1.0  -0.0029
  C  C700  1  0.723980  0.430780  0.375710  1.0  0.2394
  C  C701  1  0.635660  0.382780  0.290590  1.0  0.2438
  C  C702  1  0.933770  0.719240  0.094230  1.0  0.0406
  C  C703  1  0.927840  0.673800  0.132970  1.0  0.2285
  C  C704  1  0.560560  0.541640  0.466510  1.0  0.0342
  C  C705  1  0.568560  0.444900  0.645080  1.0  0.0006
  C  C706  1  0.599400  0.553990  0.460780  1.0  0.2347
  C  C707  1  0.551980  0.466650  0.681290  1.0  0.2652
  C  C708  1  0.562060  0.718530  0.244080  1.0  0.0357
  C  C709  1  0.569990  0.628710  0.147040  1.0  -0.0018
  C  C710  1  0.600870  0.673070  0.256600  1.0  0.2401
  C  C711  1  0.553530  0.587190  0.169070  1.0  0.2359
  C  C712  1  0.933310  0.541330  0.422370  1.0  -0.009
  C  C713  1  0.927290  0.553850  0.377020  1.0  0.2308
  C  C714  1  0.711340  0.764120  0.093080  1.0  0.0376
  C  C715  1  0.689430  0.907170  0.920000  1.0  0.3541
  C  C716  1  0.747040  0.947010  0.974500  1.0  0.3705
  C  C717  1  0.614890  0.942700  0.101270  1.0  -0.0002
  C  C718  1  0.723540  0.758430  0.132000  1.0  0.2353
  C  C719  1  0.757050  0.888980  0.853360  1.0  0.3693
  C  C720  1  0.636300  0.979220  0.084620  1.0  0.2412
  C  C721  1  0.889170  0.391650  0.466250  1.0  0.0
  C  C722  1  0.799050  0.400120  0.645460  1.0  0.0029
  C  C723  1  0.843770  0.430470  0.460310  1.0  0.2322
  C  C724  1  0.757760  0.383300  0.681410  1.0  0.2417
  C  C725  1  0.932860  0.390360  0.421780  1.0  0.3574
  C  C726  1  0.887140  0.458840  0.373870  1.0  0.272
  C  C727  1  0.561220  0.762300  0.245570  1.0  0.3578
  C  C728  1  0.629880  0.716590  0.270400  1.0  0.271
  C  C729  1  0.571570  0.941160  0.145920  1.0  0.3451
  C  C730  1  0.889120  0.542460  0.466410  1.0  0.3715
  C  C731  1  0.841010  0.567720  0.420820  1.0  0.2685
  C  C732  1  0.941000  0.518080  0.608800  1.0  0.3585
  C  C733  1  0.790850  0.575400  0.650130  1.0  0.3454
  C  C734  1  0.798990  0.444780  0.644270  1.0  0.3302
  C  C735  1  0.724260  0.452220  0.707740  1.0  0.2643
  C  C736  1  0.956550  0.586680  0.590810  1.0  0.361
  C  C737  1  0.778620  0.560290  0.730620  1.0  0.2311
  C  C738  1  0.713030  0.719620  0.092150  1.0  0.366
  C  C739  1  0.737690  0.672040  0.160940  1.0  0.2602
  C  C740  1  0.687950  0.770260  0.922980  1.0  0.0293
  C  C741  1  0.739560  0.765030  0.899380  1.0  0.2326
  C  C742  1  0.745100  0.621850  0.973510  1.0  0.3428
  C  C743  1  0.614440  0.629000  0.103440  1.0  0.339
  C  C744  1  0.621720  0.554820  0.106220  1.0  0.2726
  C  C745  1  0.730120  0.609000  0.920680  1.0  0.2396
  C  C746  1  0.889310  0.762970  0.092970  1.0  0.3645
  C  C747  1  0.841370  0.717130  0.161220  1.0  0.2744
  C  C748  1  0.939070  0.907830  0.922780  1.0  0.0122
  C  C749  1  0.933270  0.885820  0.898870  1.0  0.238
  C  C750  1  0.791130  0.947050  0.974110  1.0  0.0316
  C  C751  1  0.802640  0.992110  0.945530  1.0  0.2149
  C  C752  1  0.799620  0.941430  0.103100  1.0  0.3393
  C  C753  1  0.712950  0.391290  0.464940  1.0  0.359
  C  C754  1  0.737800  0.459940  0.419080  1.0  0.2748
  C  C755  1  0.613190  0.401550  0.643640  1.0  0.3418
  C  C756  1  0.620770  0.404240  0.707610  1.0  0.2609
  C  C757  1  0.932740  0.719350  0.245840  1.0  0.3629
  C  C758  1  0.887000  0.671370  0.271130  1.0  0.261
  C  C759  1  0.559690  0.543220  0.422030  1.0  0.3614
  C  C760  1  0.628380  0.568030  0.374400  1.0  0.2613
  C  C761  1  0.570800  0.444650  0.331470  1.0  0.329
  C  C762  1  0.573900  0.451830  0.257190  1.0  0.26
  C  C763  1  0.560980  0.719500  0.465080  1.0  0.3656
  C  C764  1  0.629450  0.671650  0.419310  1.0  0.2687
  C  C765  1  0.569570  0.629800  0.644510  1.0  0.3425
  C  C766  1  0.571530  0.555760  0.708770  1.0  0.2597
  C  C767  1  0.931080  0.543630  0.094310  1.0  0.364
  C  C768  1  0.885980  0.568320  0.163030  1.0  0.2757
  C  C769  1  0.713090  0.762600  0.421900  1.0  0.3566
  C  C770  1  0.737860  0.717040  0.373970  1.0  0.2641
  C  C771  1  0.687980  0.906550  0.473030  1.0  0.3617
  C  C772  1  0.745780  0.947710  0.323000  1.0  0.0383
  C  C773  1  0.717900  0.992530  0.334860  1.0  0.2146
  C  C774  1  0.615170  0.941160  0.332180  1.0  0.342
  C  C775  1  0.756140  0.888830  0.489140  1.0  0.359
  C  C776  1  0.889290  0.390830  0.244960  1.0  0.3633
  C  C777  1  0.841340  0.459090  0.270480  1.0  0.2782
  C  C778  1  0.798220  0.400180  0.147500  1.0  0.3425
  C  C779  1  0.724390  0.402050  0.154930  1.0  0.2749
  C  C780  1  0.970390  0.488970  0.891750  1.0  0.3605
  C  C781  1  0.930780  0.434650  0.834600  1.0  0.3669
  C  C782  1  0.989110  0.554890  0.823220  1.0  0.3658
  C  C783  1  0.849920  0.487020  0.850490  1.0  0.3053
  C  C784  1  0.658250  0.801930  0.639560  1.0  0.3587
  C  C785  1  0.605480  0.761630  0.789690  1.0  0.3568
  C  C786  1  0.724350  0.820600  0.623050  1.0  0.3537
  C  C787  1  0.659030  0.681260  0.801480  1.0  0.2513
  C  C788  1  0.970440  0.938820  0.192080  1.0  0.0083
  C  C789  1  0.992540  0.944530  0.215980  1.0  0.2514
  C  C790  1  0.658600  0.940300  0.888710  1.0  0.0087
  C  C791  1  0.681900  0.945980  0.837000  1.0  0.2441
  C  C792  1  0.548850  0.925290  0.891180  1.0  0.2306
  C  C793  1  0.549020  0.924390  0.627500  1.0  0.2267
  C  C794  1  0.690550  0.782980  0.486760  1.0  0.2526
  C  C795  1  0.952990  0.784470  0.222840  1.0  0.2256
  C  C796  1  0.954120  0.519710  0.486620  1.0  0.2208
  C  C797  1  0.940040  0.440980  0.641690  1.0  0.3205
  C  C798  1  0.610980  0.769530  0.969260  1.0  0.3228
  C  C799  1  0.939150  0.938240  0.969520  1.0  0.3115
  C  C800  1  0.610830  0.938600  0.472300  1.0  0.3312
  C  C801  1  0.937090  0.443900  0.968760  1.0  0.3453
  C  C802  1  0.613030  0.768430  0.641460  1.0  0.3183
  C  C803  1  0.939710  0.938920  0.145460  1.0  0.3508
  C  C804  1  0.612870  0.940230  0.966100  1.0  0.3546
  C  C805  1  0.554700  0.834320  0.801230  1.0  0.3467
  C  C806  1  0.780350  0.609060  0.576930  1.0  0.2761
  C  C807  1  0.779280  0.874330  0.313070  1.0  0.347
  C  C808  1  0.588300  0.881940  0.399060  1.0  0.3577
  C  C809  1  0.864560  0.420350  0.120740  1.0  0.3535
  C  C810  1  0.589460  0.696300  0.585150  1.0  0.3575
  C  C811  1  0.866700  0.882450  0.122270  1.0  0.3475
  C  C812  1  0.589430  0.417420  0.398850  1.0  0.3393
  C  C813  1  0.585800  0.420600  0.584770  1.0  0.338
  C  C814  1  0.587140  0.696280  0.122300  1.0  0.3358
  C  C815  1  0.590880  0.882150  0.118560  1.0  0.3106
  C  C816  1  0.866890  0.417140  0.586070  1.0  0.3497
  N  N817  1  0.430720  0.156370  0.002960  1.0  -0.4717
  N  N818  1  0.422350  0.034160  0.027770  1.0  -0.4691
  N  N819  1  0.285000  0.236580  0.031240  1.0  -0.384
  N  N820  1  0.205350  0.252700  0.024830  1.0  -0.4308
  N  N821  1  0.904430  0.236670  0.031180  1.0  -0.3817
  N  N822  1  0.973030  0.253750  0.026340  1.0  -0.4351
  N  N823  1  0.868350  0.157630  0.000110  1.0  -0.4643
  N  N824  1  0.974460  0.036130  0.026070  1.0  -0.4583
  N  N825  1  0.326990  0.698310  0.000580  1.0  -0.4644
  N  N826  1  0.204860  0.803680  0.026910  1.0  -0.4668
  N  N827  1  0.069690  0.640890  0.006700  1.0  -0.4123
  N  N828  1  0.069860  0.570070  0.007620  1.0  -0.4589
  N  N829  1  0.406070  0.735110  0.030450  1.0  -0.3692
  N  N830  1  0.422250  0.804270  0.025630  1.0  -0.4315
  N  N831  1  0.900880  0.527970  0.054780  1.0  -0.4832
  N  N832  1  0.809400  0.572000  0.006340  1.0  -0.4833
  N  N833  1  0.974870  0.733410  0.054030  1.0  -0.474
  N  N834  1  0.696830  0.805030  0.052470  1.0  -0.4643
  N  N835  1  0.741630  0.899800  0.006370  1.0  -0.436
  N  N836  1  0.699000  0.733610  0.051470  1.0  -0.4681
  N  N837  1  0.739860  0.642860  0.005080  1.0  -0.4138
  N  N838  1  0.903560  0.803630  0.052430  1.0  -0.4704
  N  N839  1  0.812420  0.899570  0.005630  1.0  -0.4789
  N  N840  1  0.971480  0.529650  0.053460  1.0  -0.436
  N  N841  1  0.114540  0.283590  0.738970  1.0  -0.388
  N  N842  1  0.113410  0.140720  0.531480  1.0  -0.4164
  N  N843  1  0.239490  0.162310  0.423630  1.0  -0.392
  N  N844  1  0.205820  0.151550  0.646900  1.0  -0.3954
  N  N845  1  0.284610  0.236610  0.438330  1.0  -0.3743
  N  N846  1  0.144410  0.179370  0.606920  1.0  -0.4304
  N  N847  1  0.125050  0.221040  0.504200  1.0  -0.4584
  N  N848  1  0.236450  0.138240  0.509970  1.0  -0.4145
  N  N849  1  0.203960  0.253640  0.507220  1.0  -0.4345
  N  N850  1  0.332020  0.070670  0.163550  1.0  -0.4311
  N  N851  1  0.320420  0.035070  0.988110  1.0  -0.39
  N  N852  1  0.306920  0.066650  0.105870  1.0  -0.4264
  N  N853  1  0.321140  0.284510  0.646930  1.0  -0.3888
  N  N854  1  0.405480  0.331480  0.437300  1.0  -0.38
  N  N855  1  0.421720  0.324510  0.507470  1.0  -0.4377
  N  N856  1  0.114330  0.036150  0.854060  1.0  -0.3934
  N  N857  1  0.469190  0.262110  0.859990  1.0  -0.4801
  N  N858  1  0.454310  0.151960  0.738860  1.0  -0.3959
  N  N859  1  0.494580  0.253440  0.737760  1.0  -0.4554
  N  N860  1  0.453870  0.036590  0.647300  1.0  -0.3919
  N  N861  1  0.497550  0.115560  0.439140  1.0  -0.3807
  N  N862  1  0.491760  0.035210  0.508260  1.0  -0.4377
  N  N863  1  0.112620  0.151870  0.987050  1.0  -0.3892
  N  N864  1  0.072590  0.180150  0.060340  1.0  -0.4411
  N  N865  1  0.326730  0.298600  0.965320  1.0  -0.483
  N  N866  1  0.205220  0.286310  0.853340  1.0  -0.3939
  N  N867  1  0.205150  0.324190  0.955190  1.0  -0.4598
  N  N868  1  0.049840  0.203560  0.271040  1.0  -0.3895
  N  N869  1  0.156240  0.246400  0.247610  1.0  -0.3998
  N  N870  1  0.077240  0.268370  0.190840  1.0  -0.4618
  N  N871  1  0.069820  0.304880  0.272770  1.0  -0.4086
  N  N872  1  0.062740  0.146220  0.491720  1.0  -0.4926
  N  N873  1  0.201900  0.215960  0.304150  1.0  -0.4885
  N  N874  1  0.078800  0.269400  0.450740  1.0  -0.4656
  N  N875  1  0.070070  0.304320  0.343220  1.0  -0.475
  N  N876  1  0.387560  0.031990  0.266540  1.0  -0.492
  N  N877  1  0.166800  0.244490  0.843770  1.0  -0.4727
  N  N878  1  0.202780  0.140870  0.946200  1.0  -0.4772
  N  N879  1  0.088670  0.119010  0.264780  1.0  -0.4855
  N  N880  1  0.275770  0.143320  0.192550  1.0  -0.4753
  N  N881  1  0.143270  0.182100  0.058690  1.0  -0.4998
  N  N882  1  0.129630  0.217600  0.141970  1.0  -0.4625
  N  N883  1  0.236060  0.136450  0.106180  1.0  -0.4802
  N  N884  1  0.310290  0.033970  0.700710  1.0  -0.4841
  N  N885  1  0.431530  0.157450  0.401360  1.0  -0.4688
  N  N886  1  0.311740  0.105450  0.378530  1.0  -0.4902
  N  N887  1  0.307080  0.068260  0.510000  1.0  -0.4539
  N  N888  1  0.421660  0.035510  0.506870  1.0  -0.4573
  N  N889  1  0.310570  0.243270  0.736960  1.0  -0.4827
  N  N890  1  0.406670  0.328180  0.818910  1.0  -0.3809
  N  N891  1  0.422820  0.322870  0.738670  1.0  -0.4322
  N  N892  1  0.167670  0.033900  0.945650  1.0  -0.472
  N  N893  1  0.413150  0.141010  0.700850  1.0  -0.4765
  N  N894  1  0.465280  0.263780  0.401380  1.0  -0.4744
  N  N895  1  0.491210  0.252740  0.507690  1.0  -0.4543
  N  N896  1  0.413080  0.034860  0.843250  1.0  -0.4767
  N  N897  1  0.497390  0.115210  0.940710  1.0  -0.3732
  N  N898  1  0.492220  0.035160  0.956410  1.0  -0.4275
  N  N899  1  0.167490  0.140480  0.737040  1.0  -0.4759
  N  N900  1  0.073470  0.181120  0.677500  1.0  -0.4817
  N  N901  1  0.204600  0.242930  0.700070  1.0  -0.4743
  N  N902  1  0.326310  0.298610  0.400850  1.0  -0.4766
  N  N903  1  0.204060  0.324850  0.505970  1.0  -0.4692
  N  N904  1  0.904190  0.329860  0.817600  1.0  -0.3885
  N  N905  1  0.974400  0.322770  0.738180  1.0  -0.4341
  N  N906  1  0.891430  0.069870  0.864950  1.0  -0.3984
  N  N907  1  0.905440  0.114950  0.939060  1.0  -0.3789
  N  N908  1  0.977890  0.066700  0.840370  1.0  -0.4118
  N  N909  1  0.974990  0.034990  0.955710  1.0  -0.4351
  N  N910  1  0.673680  0.141190  0.645750  1.0  -0.4061
  N  N911  1  0.631180  0.163510  0.773600  1.0  -0.4269
  N  N912  1  0.527830  0.179800  0.677070  1.0  -0.4367
  N  N913  1  0.608520  0.221290  0.657650  1.0  -0.4586
  N  N914  1  0.572920  0.138820  0.769890  1.0  -0.4271
  N  N915  1  0.632240  0.069520  0.424760  1.0  -0.3816
  N  N916  1  0.573620  0.066170  0.511330  1.0  -0.4193
  N  N917  1  0.997390  0.140000  0.206100  1.0  -0.4048
  N  N918  1  0.890140  0.162390  0.164760  1.0  -0.398
  N  N919  1  0.970370  0.220350  0.141200  1.0  -0.4581
  N  N920  1  0.976680  0.137770  0.106340  1.0  -0.4103
  N  N921  1  0.974870  0.351790  0.227970  1.0  -0.4764
  N  N922  1  0.580650  0.009910  0.253440  1.0  -0.4927
  N  N923  1  0.720940  0.010160  0.147550  1.0  -0.4894
  N  N924  1  0.738210  0.202980  0.466470  1.0  -0.4062
  N  N925  1  0.714890  0.247410  0.338920  1.0  -0.418
  N  N926  1  0.696870  0.351520  0.435400  1.0  -0.488
  N  N927  1  0.658500  0.268320  0.453730  1.0  -0.4638
  N  N928  1  0.740900  0.304710  0.342580  1.0  -0.4388
  N  N929  1  0.615400  0.010430  0.111220  1.0  -0.4797
  N  N930  1  0.933280  0.203070  0.582800  1.0  -0.3893
  N  N931  1  0.806040  0.247680  0.689410  1.0  -0.4219
  N  N932  1  0.903290  0.351300  0.507350  1.0  -0.4939
  N  N933  1  0.921500  0.267960  0.609940  1.0  -0.4676
  N  N934  1  0.809700  0.305870  0.602720  1.0  -0.4429
  N  N935  1  0.973450  0.349610  0.436000  1.0  -0.4437
  N  N936  1  0.772080  0.032460  0.919720  1.0  -0.4522
  N  N937  1  0.758180  0.147630  0.594290  1.0  -0.5054
  N  N938  1  0.734220  0.217500  0.734380  1.0  -0.458
  N  N939  1  0.698800  0.350660  0.505660  1.0  -0.4549
  N  N940  1  0.659190  0.270420  0.610490  1.0  -0.4755
  N  N941  1  0.740010  0.305170  0.602160  1.0  -0.4786
  N  N942  1  0.733890  0.032890  0.304540  1.0  -0.4831
  N  N943  1  0.958790  0.146310  0.290610  1.0  -0.5124
  N  N944  1  0.771420  0.217060  0.267150  1.0  -0.4843
  N  N945  1  0.903490  0.350290  0.230630  1.0  -0.4661
  N  N946  1  0.918460  0.269310  0.191960  1.0  -0.4705
  N  N947  1  0.812060  0.303060  0.273230  1.0  -0.4758
  N  N948  1  0.867230  0.298540  0.964720  1.0  -0.4813
  N  N949  1  0.972050  0.324870  0.956170  1.0  -0.4621
  N  N950  1  0.845020  0.105580  0.194550  1.0  -0.4534
  N  N951  1  0.977470  0.066770  0.107000  1.0  -0.4769
  N  N952  1  0.731210  0.118760  0.518530  1.0  -0.5021
  N  N953  1  0.660660  0.142640  0.378850  1.0  -0.4725
  N  N954  1  0.526170  0.181270  0.606370  1.0  -0.4869
  N  N955  1  0.609040  0.218040  0.500660  1.0  -0.4648
  N  N956  1  0.572110  0.137540  0.510810  1.0  -0.4707
  N  N957  1  0.660950  0.106640  0.845710  1.0  -0.4666
  N  N958  1  0.573560  0.067860  0.839430  1.0  -0.4761
  N  N959  1  0.867470  0.262850  0.860720  1.0  -0.4734
  N  N960  1  0.985190  0.118510  0.621690  1.0  -0.5023
  N  N961  1  0.846040  0.142080  0.808370  1.0  -0.4638
  N  N962  1  0.968690  0.217190  0.662400  1.0  -0.4681
  N  N963  1  0.978130  0.136840  0.769830  1.0  -0.4757
  N  N964  1  0.973880  0.251760  0.739610  1.0  -0.4502
  N  N965  1  0.074300  0.357440  0.677750  1.0  -0.4453
  N  N966  1  0.468320  0.698220  0.963860  1.0  -0.4659
  N  N967  1  0.453730  0.944660  0.854610  1.0  -0.3937
  N  N968  1  0.493310  0.803840  0.955470  1.0  -0.4589
  N  N969  1  0.310750  0.942480  0.207600  1.0  -0.4094
  N  N970  1  0.348430  0.973460  0.061610  1.0  -0.435
  N  N971  1  0.390430  0.954860  0.141870  1.0  -0.4572
  N  N972  1  0.115400  0.826580  0.207100  1.0  -0.4032
  N  N973  1  0.206270  0.943900  0.986540  1.0  -0.395
  N  N974  1  0.275690  0.674850  0.194920  1.0  -0.4783
  N  N975  1  0.145030  0.903980  0.060570  1.0  -0.4296
  N  N976  1  0.126980  0.800260  0.141660  1.0  -0.4605
  N  N977  1  0.237330  0.806460  0.106330  1.0  -0.4583
  N  N978  1  0.309080  0.504890  0.529220  1.0  -0.4002
  N  N979  1  0.312190  0.491050  0.377810  1.0  -0.4858
  N  N980  1  0.348820  0.358110  0.607250  1.0  -0.4403
  N  N981  1  0.388970  0.439200  0.503080  1.0  -0.4617
  N  N982  1  0.306560  0.404720  0.510220  1.0  -0.4625
  N  N983  1  0.074290  0.974800  0.881850  1.0  -0.4368
  N  N984  1  0.332720  0.721280  0.773430  1.0  -0.4219
  N  N985  1  0.432410  0.698240  0.859250  1.0  -0.4805
  N  N986  1  0.320220  0.944080  0.739150  1.0  -0.3915
  N  N987  1  0.290500  0.815750  0.620290  1.0  -0.4892
  N  N988  1  0.347880  0.904250  0.677600  1.0  -0.4514
  N  N989  1  0.389400  0.800520  0.659730  1.0  -0.4781
  N  N990  1  0.307530  0.808140  0.769490  1.0  -0.4467
  N  N991  1  0.423150  0.804270  0.737470  1.0  -0.467
  N  N992  1  0.240170  0.462250  0.865030  1.0  -0.4135
  N  N993  1  0.087170  0.562720  0.822720  1.0  -0.496
  N  N994  1  0.143540  0.359600  0.881600  1.0  -0.4629
  N  N995  1  0.126210  0.439850  0.922050  1.0  -0.4761
  N  N996  1  0.235680  0.404830  0.839850  1.0  -0.4392
  N  N997  1  0.142420  0.379690  0.172940  1.0  -0.3749
  N  N998  1  0.073330  0.384450  0.156750  1.0  -0.4309
  N  N999  1  0.416810  0.986630  0.339060  1.0  -0.4162
  N  N1000  1  0.314580  0.892060  0.492510  1.0  -0.5099
  N  N1001  1  0.520900  0.804810  0.435350  1.0  -0.5011
  N  N1002  1  0.437450  0.907990  0.452860  1.0  -0.4748
  N  N1003  1  0.474740  0.899720  0.343020  1.0  -0.4377
  N  N1004  1  0.049400  0.764220  0.906040  1.0  -0.4028
  N  N1005  1  0.156100  0.637750  0.947830  1.0  -0.4003
  N  N1006  1  0.142820  0.591700  0.081780  1.0  -0.3828
  N  N1007  1  0.077120  0.751850  0.970800  1.0  -0.461
  N  N1008  1  0.073600  0.672190  0.086700  1.0  -0.4297
  N  N1009  1  0.371140  0.568990  0.582520  1.0  -0.3961
  N  N1010  1  0.415680  0.546430  0.689480  1.0  -0.4167
  N  N1011  1  0.519970  0.527070  0.507420  1.0  -0.4569
  N  N1012  1  0.436520  0.489400  0.609760  1.0  -0.4663
  N  N1013  1  0.473450  0.571540  0.602590  1.0  -0.4289
  N  N1014  1  0.372260  0.762100  0.272640  1.0  -0.3836
  N  N1015  1  0.385870  0.601120  0.268570  1.0  -0.456
  N  N1016  1  0.521430  0.732770  0.229550  1.0  -0.4722
  N  N1017  1  0.437570  0.749920  0.192630  1.0  -0.4701
  N  N1018  1  0.474660  0.639410  0.273180  1.0  -0.4597
  N  N1019  1  0.062080  0.589270  0.491950  1.0  -0.5055
  N  N1020  1  0.201960  0.565260  0.303370  1.0  -0.497
  N  N1021  1  0.142890  0.471770  0.295080  1.0  -0.3799
  N  N1022  1  0.079790  0.490630  0.450440  1.0  -0.4697
  N  N1023  1  0.068840  0.572380  0.343780  1.0  -0.4749
  N  N1024  1  0.072600  0.456210  0.374610  1.0  -0.4378
  N  N1025  1  0.179280  0.410550  0.252760  1.0  -0.4815
  N  N1026  1  0.072760  0.385720  0.374130  1.0  -0.466
  N  N1027  1  0.317990  0.890760  0.291810  1.0  -0.4878
  N  N1028  1  0.520570  0.803030  0.231460  1.0  -0.4476
  N  N1029  1  0.440260  0.907890  0.191890  1.0  -0.473
  N  N1030  1  0.475080  0.899600  0.272560  1.0  -0.4756
  N  N1031  1  0.156570  0.637500  0.246860  1.0  -0.4127
  N  N1032  1  0.179860  0.550390  0.148270  1.0  -0.4784
  N  N1033  1  0.061230  0.789420  0.290880  1.0  -0.4944
  N  N1034  1  0.076660  0.750780  0.191290  1.0  -0.4787
  N  N1035  1  0.069390  0.641810  0.272630  1.0  -0.4382
  N  N1036  1  0.074030  0.672450  0.156980  1.0  -0.4602
  N  N1037  1  0.414810  0.545290  0.341340  1.0  -0.3873
  N  N1038  1  0.316820  0.588680  0.491380  1.0  -0.5009
  N  N1039  1  0.519080  0.529120  0.436020  1.0  -0.472
  N  N1040  1  0.439330  0.488620  0.453070  1.0  -0.4811
  N  N1041  1  0.473190  0.570280  0.344580  1.0  -0.4204
  N  N1042  1  0.374710  0.762360  0.582740  1.0  -0.4114
  N  N1043  1  0.386850  0.602570  0.734960  1.0  -0.4791
  N  N1044  1  0.520580  0.733670  0.505790  1.0  -0.4343
  N  N1045  1  0.439730  0.750770  0.609640  1.0  -0.4618
  N  N1046  1  0.474220  0.641410  0.602660  1.0  -0.4643
  N  N1047  1  0.048820  0.569680  0.906920  1.0  -0.3879
  N  N1048  1  0.178300  0.447150  0.111590  1.0  -0.4674
  N  N1049  1  0.201480  0.565240  0.918560  1.0  -0.4899
  N  N1050  1  0.075310  0.489480  0.972280  1.0  -0.4617
  N  N1051  1  0.072910  0.455340  0.086350  1.0  -0.4716
  N  N1052  1  0.072410  0.356950  0.884970  1.0  -0.488
  N  N1053  1  0.412530  0.997760  0.737180  1.0  -0.4819
  N  N1054  1  0.498480  0.735820  0.818050  1.0  -0.3753
  N  N1055  1  0.493220  0.805190  0.737710  1.0  -0.4319
  N  N1056  1  0.307560  0.945680  0.529960  1.0  -0.3989
  N  N1057  1  0.350410  0.974770  0.606660  1.0  -0.4646
  N  N1058  1  0.387680  0.957690  0.502940  1.0  -0.4711
  N  N1059  1  0.204440  0.997660  0.843150  1.0  -0.4753
  N  N1060  1  0.088340  0.816060  0.821470  1.0  -0.5028
  N  N1061  1  0.276090  0.676000  0.845550  1.0  -0.4749
  N  N1062  1  0.284760  0.735520  0.939120  1.0  -0.3825
  N  N1063  1  0.144870  0.903860  0.883330  1.0  -0.4898
  N  N1064  1  0.129750  0.798850  0.919910  1.0  -0.4621
  N  N1065  1  0.236740  0.808610  0.839350  1.0  -0.479
  N  N1066  1  0.204760  0.805020  0.955660  1.0  -0.4327
  N  N1067  1  0.286920  0.561870  0.622160  1.0  -0.506
  N  N1068  1  0.313260  0.490630  0.809010  1.0  -0.4993
  N  N1069  1  0.351090  0.356200  0.677870  1.0  -0.5013
  N  N1070  1  0.386390  0.439960  0.662970  1.0  -0.4669
  N  N1071  1  0.306160  0.404110  0.769770  1.0  -0.4793
  N  N1072  1  0.074000  0.974460  0.059340  1.0  -0.4815
  N  N1073  1  0.310490  0.996540  0.946660  1.0  -0.4805
  N  N1074  1  0.331400  0.720820  0.166200  1.0  -0.3885
  N  N1075  1  0.288410  0.816140  0.265170  1.0  -0.5066
  N  N1076  1  0.350650  0.902460  0.059790  1.0  -0.4881
  N  N1077  1  0.387890  0.799810  0.142600  1.0  -0.4739
  N  N1078  1  0.306260  0.807590  0.107880  1.0  -0.4247
  N  N1079  1  0.113100  0.504620  0.531820  1.0  -0.3978
  N  N1080  1  0.240450  0.460610  0.423450  1.0  -0.4161
  N  N1081  1  0.144650  0.356020  0.606610  1.0  -0.4942
  N  N1082  1  0.125660  0.439640  0.504250  1.0  -0.4638
  N  N1083  1  0.237090  0.403040  0.510370  1.0  -0.4344
  N  N1084  1  0.984980  0.561850  0.621570  1.0  -0.5061
  N  N1085  1  0.845700  0.490490  0.808900  1.0  -0.4864
  N  N1086  1  0.969500  0.438630  0.661790  1.0  -0.4697
  N  N1087  1  0.978250  0.404030  0.768830  1.0  -0.4782
  N  N1088  1  0.672950  0.827250  0.842220  1.0  -0.4047
  N  N1089  1  0.661290  0.676370  0.844780  1.0  -0.4717
  N  N1090  1  0.527060  0.904820  0.882730  1.0  -0.4364
  N  N1091  1  0.607730  0.800530  0.922380  1.0  -0.4614
  N  N1092  1  0.572130  0.807780  0.840770  1.0  -0.459
  N  N1093  1  0.998210  0.944520  0.842810  1.0  -0.4156
  N  N1094  1  0.971510  0.955920  0.923170  1.0  -0.4597
  N  N1095  1  0.730540  0.918480  0.518800  1.0  -0.5031
  N  N1096  1  0.527590  0.975240  0.607170  1.0  -0.4526
  N  N1097  1  0.607730  0.957460  0.503210  1.0  -0.481
  N  N1098  1  0.881220  0.464350  0.269310  1.0  -0.4768
  N  N1099  1  0.634090  0.711410  0.375140  1.0  -0.4696
  N  N1100  1  0.554420  0.903870  0.374920  1.0  -0.4648
  N  N1101  1  0.841800  0.567510  0.168390  1.0  -0.4774
  N  N1102  1  0.718990  0.444710  0.113780  1.0  -0.4784
  N  N1103  1  0.958590  0.589250  0.848060  1.0  -0.4907
  N  N1104  1  0.770990  0.565790  0.918650  1.0  -0.4751
  N  N1105  1  0.917060  0.491110  0.971160  1.0  -0.4751
  N  N1106  1  0.839740  0.456690  0.087600  1.0  -0.4492
  N  N1107  1  0.737120  0.672930  0.413730  1.0  -0.4754
  N  N1108  1  0.614480  0.549960  0.712430  1.0  -0.4648
  N  N1109  1  0.758760  0.789260  0.595240  1.0  -0.4911
  N  N1110  1  0.735760  0.601430  0.735120  1.0  -0.4733
  N  N1111  1  0.697370  0.732760  0.507160  1.0  -0.4837
  N  N1112  1  0.660320  0.747870  0.612340  1.0  -0.469
  N  N1113  1  0.741150  0.640310  0.602920  1.0  -0.4691
  N  N1114  1  0.626130  0.671300  0.606450  1.0  -0.4582
  N  N1115  1  0.843000  0.711210  0.269940  1.0  -0.4776
  N  N1116  1  0.933840  0.879580  0.272040  1.0  -0.3973
  N  N1117  1  0.806040  0.987690  0.247800  1.0  -0.4244
  N  N1118  1  0.902890  0.804830  0.229510  1.0  -0.4861
  N  N1119  1  0.921980  0.906710  0.191840  1.0  -0.4678
  N  N1120  1  0.810090  0.900680  0.273280  1.0  -0.4333
  N  N1121  1  0.842690  0.904660  0.158030  1.0  -0.4589
  N  N1122  1  0.737110  0.464750  0.375060  1.0  -0.4663
  N  N1123  1  0.615110  0.409150  0.253420  1.0  -0.4837
  N  N1124  1  0.625230  0.383180  0.375150  1.0  -0.4829
  N  N1125  1  0.881240  0.673150  0.166520  1.0  -0.4725
  N  N1126  1  0.633340  0.567170  0.414300  1.0  -0.4706
  N  N1127  1  0.578570  0.445890  0.712480  1.0  -0.4847
  N  N1128  1  0.551670  0.456200  0.607140  1.0  -0.4648
  N  N1129  1  0.634810  0.672550  0.269670  1.0  -0.4798
  N  N1130  1  0.579680  0.550430  0.148030  1.0  -0.4689
  N  N1131  1  0.553200  0.672280  0.158240  1.0  -0.4583
  N  N1132  1  0.880700  0.567020  0.376660  1.0  -0.4806
  N  N1133  1  0.974400  0.526860  0.436320  1.0  -0.4849
  N  N1134  1  0.736650  0.711970  0.165980  1.0  -0.4831
  N  N1135  1  0.738870  0.880450  0.903720  1.0  -0.4088
  N  N1136  1  0.715790  0.986870  0.949310  1.0  -0.4258
  N  N1137  1  0.659330  0.907620  0.969160  1.0  -0.4654
  N  N1138  1  0.626370  0.904640  0.084420  1.0  -0.4653
  N  N1139  1  0.843160  0.464090  0.413740  1.0  -0.4699
  N  N1140  1  0.720390  0.409780  0.712570  1.0  -0.4955
  N  N1141  1  0.842950  0.383150  0.607810  1.0  -0.4851
  N  N1142  1  0.933120  0.423230  0.374840  1.0  -0.3952
  N  N1143  1  0.594370  0.762610  0.258960  1.0  -0.3896
  N  N1144  1  0.549870  0.972000  0.173010  1.0  -0.3783
  N  N1145  1  0.556810  0.902340  0.156060  1.0  -0.4421
  N  N1146  1  0.933550  0.567720  0.582360  1.0  -0.4124
  N  N1147  1  0.808050  0.545050  0.689580  1.0  -0.3988
  N  N1148  1  0.842170  0.555970  0.466830  1.0  -0.3878
  N  N1149  1  0.761980  0.471960  0.674810  1.0  -0.3815
  N  N1150  1  0.903500  0.528060  0.506950  1.0  -0.4378
  N  N1151  1  0.922240  0.487250  0.609370  1.0  -0.4566
  N  N1152  1  0.811350  0.569940  0.603040  1.0  -0.4065
  N  N1153  1  0.842920  0.454640  0.606240  1.0  -0.4365
  N  N1154  1  0.715030  0.638940  0.946960  1.0  -0.3868
  N  N1155  1  0.726510  0.672790  0.125340  1.0  -0.3934
  N  N1156  1  0.756960  0.789820  0.849370  1.0  -0.4986
  N  N1157  1  0.641480  0.592480  0.082130  1.0  -0.3768
  N  N1158  1  0.657660  0.750670  0.972240  1.0  -0.477
  N  N1159  1  0.624480  0.672640  0.088230  1.0  -0.4378
  N  N1160  1  0.842360  0.763160  0.125740  1.0  -0.3887
  N  N1161  1  0.958830  0.893050  0.849020  1.0  -0.4896
  N  N1162  1  0.763310  0.972330  0.081520  1.0  -0.382
  N  N1163  1  0.918850  0.908860  0.972020  1.0  -0.4733
  N  N1164  1  0.843190  0.902830  0.088080  1.0  -0.4401
  N  N1165  1  0.726320  0.424520  0.465150  1.0  -0.387
  N  N1166  1  0.640270  0.380050  0.674430  1.0  -0.3745
  N  N1167  1  0.623300  0.386590  0.604960  1.0  -0.4408
  N  N1168  1  0.933010  0.672420  0.259620  1.0  -0.3898
  N  N1169  1  0.973350  0.733640  0.231580  1.0  -0.4652
  N  N1170  1  0.592900  0.556670  0.375200  1.0  -0.3856
  N  N1171  1  0.549830  0.471810  0.294670  1.0  -0.3798
  N  N1172  1  0.555550  0.454830  0.375040  1.0  -0.4376
  N  N1173  1  0.594260  0.672680  0.465420  1.0  -0.3948
  N  N1174  1  0.547080  0.594260  0.676070  1.0  -0.3755
  N  N1175  1  0.554410  0.673720  0.606210  1.0  -0.4378
  N  N1176  1  0.931820  0.556870  0.127310  1.0  -0.3898
  N  N1177  1  0.737810  0.880930  0.465140  1.0  -0.4169
  N  N1178  1  0.726360  0.763010  0.375030  1.0  -0.3883
  N  N1179  1  0.641780  0.972470  0.296120  1.0  -0.3777
  N  N1180  1  0.699020  0.803150  0.436130  1.0  -0.4326
  N  N1181  1  0.657740  0.907540  0.453230  1.0  -0.4593
  N  N1182  1  0.740380  0.900410  0.343990  1.0  -0.4607
  N  N1183  1  0.625330  0.902570  0.375730  1.0  -0.4397
  N  N1184  1  0.842330  0.423640  0.258900  1.0  -0.3941
  N  N1185  1  0.762640  0.377770  0.173950  1.0  -0.3827
  N  N1186  1  0.841970  0.385270  0.157270  1.0  -0.4392
  N  N1187  1  0.997130  0.504580  0.842210  1.0  -0.4043
  N  N1188  1  0.890950  0.459840  0.865860  1.0  -0.4148
  N  N1189  1  0.969580  0.439980  0.922500  1.0  -0.4634
  N  N1190  1  0.977810  0.402190  0.840280  1.0  -0.4366
  N  N1191  1  0.673980  0.828990  0.646180  1.0  -0.4036
  N  N1192  1  0.632340  0.722470  0.771980  1.0  -0.418
  N  N1193  1  0.525590  0.904080  0.677470  1.0  -0.4883
  N  N1194  1  0.609180  0.801360  0.658520  1.0  -0.4615
  N  N1195  1  0.573420  0.808830  0.769310  1.0  -0.4172
  N  N1196  1  0.985450  0.918810  0.265780  1.0  -0.4848
  N  N1197  1  0.969300  0.959020  0.142880  1.0  -0.4733
  N  N1198  1  0.731550  0.920080  0.819590  1.0  -0.4913
  N  N1199  1  0.525910  0.975580  0.884000  1.0  -0.4876
  N  N1200  1  0.609720  0.960710  0.919210  1.0  -0.4658
