# generated using pymatgen
data_CoH6(C5N4)2
_symmetry_space_group_name_H-M   'P 1'
_cell_length_a   32.15390000
_cell_length_b   32.15390000
_cell_length_c   32.15390000
_cell_angle_alpha   60.00000000
_cell_angle_beta   60.00000000
_cell_angle_gamma   60.00000000
_symmetry_Int_Tables_number   1
_chemical_formula_structural   CoH6(C5N4)2
_chemical_formula_sum   'Co48 H288 C480 N384'
_cell_volume   23506.39189850
_cell_formula_units_Z   48
loop_
 _symmetry_equiv_pos_site_id
 _symmetry_equiv_pos_as_xyz
  1  'x, y, z'
loop_
 _atom_site_type_symbol
 _atom_site_label
 _atom_site_symmetry_multiplicity
 _atom_site_fract_x
 _atom_site_fract_y
 _atom_site_fract_z
 _atom_site_occupancy
 _atom_site_charge
  Co  Co1  1  0.343320  0.525400  0.157860  1.0  0.8298
  Co  Co2  1  0.525400  0.343320  0.973420  1.0  0.831
  Co  Co3  1  0.157860  0.973420  0.343320  1.0  0.8301
  Co  Co4  1  0.973420  0.157860  0.525400  1.0  0.8301
  Co  Co5  1  0.343320  0.157860  0.973420  1.0  0.8299
  Co  Co6  1  0.525400  0.973420  0.157860  1.0  0.8299
  Co  Co7  1  0.157860  0.343320  0.525400  1.0  0.83
  Co  Co8  1  0.973420  0.525400  0.343320  1.0  0.8303
  Co  Co9  1  0.343320  0.973420  0.525400  1.0  0.8303
  Co  Co10  1  0.525400  0.157860  0.343320  1.0  0.8312
  Co  Co11  1  0.157860  0.525400  0.973420  1.0  0.8299
  Co  Co12  1  0.973420  0.343320  0.157860  1.0  0.8298
  Co  Co13  1  0.474600  0.656680  0.842140  1.0  0.8299
  Co  Co14  1  0.656680  0.474600  0.026580  1.0  0.8296
  Co  Co15  1  0.026580  0.842140  0.656680  1.0  0.8314
  Co  Co16  1  0.842140  0.026580  0.474600  1.0  0.8301
  Co  Co17  1  0.842140  0.656680  0.026580  1.0  0.8303
  Co  Co18  1  0.026580  0.474600  0.842140  1.0  0.8303
  Co  Co19  1  0.656680  0.842140  0.474600  1.0  0.8297
  Co  Co20  1  0.474600  0.026580  0.656680  1.0  0.8301
  Co  Co21  1  0.026580  0.656680  0.474600  1.0  0.8309
  Co  Co22  1  0.842140  0.474600  0.656680  1.0  0.8301
  Co  Co23  1  0.474600  0.842140  0.026580  1.0  0.8305
  Co  Co24  1  0.656680  0.026580  0.842140  1.0  0.8301
  Co  Co25  1  0.656680  0.474600  0.842140  1.0  0.8297
  Co  Co26  1  0.474600  0.656680  0.026580  1.0  0.8298
  Co  Co27  1  0.842140  0.026580  0.656680  1.0  0.83
  Co  Co28  1  0.026580  0.842140  0.474600  1.0  0.8315
  Co  Co29  1  0.656680  0.842140  0.026580  1.0  0.8302
  Co  Co30  1  0.474600  0.026580  0.842140  1.0  0.8303
  Co  Co31  1  0.842140  0.656680  0.474600  1.0  0.8299
  Co  Co32  1  0.026580  0.474600  0.656680  1.0  0.8301
  Co  Co33  1  0.656680  0.026580  0.474600  1.0  0.8298
  Co  Co34  1  0.474600  0.842140  0.656680  1.0  0.8301
  Co  Co35  1  0.842140  0.474600  0.026580  1.0  0.8304
  Co  Co36  1  0.026580  0.656680  0.842140  1.0  0.8312
  Co  Co37  1  0.525400  0.343320  0.157860  1.0  0.8307
  Co  Co38  1  0.343320  0.525400  0.973420  1.0  0.8299
  Co  Co39  1  0.973420  0.157860  0.343320  1.0  0.8302
  Co  Co40  1  0.157860  0.973420  0.525400  1.0  0.83
  Co  Co41  1  0.157860  0.343320  0.973420  1.0  0.8297
  Co  Co42  1  0.973420  0.525400  0.157860  1.0  0.83
  Co  Co43  1  0.343320  0.157860  0.525400  1.0  0.8303
  Co  Co44  1  0.525400  0.973420  0.343320  1.0  0.8302
  Co  Co45  1  0.973420  0.343320  0.525400  1.0  0.8301
  Co  Co46  1  0.157860  0.525400  0.343320  1.0  0.8302
  Co  Co47  1  0.525400  0.157860  0.973420  1.0  0.8309
  Co  Co48  1  0.343320  0.973420  0.157860  1.0  0.83
  H  H49  1  0.290800  0.437000  0.203800  1.0  0.0586
  H  H50  1  0.389500  0.506700  0.237100  1.0  0.0661
  H  H51  1  0.257100  0.706300  0.189100  1.0  0.1898
  H  H52  1  0.237000  0.618200  0.147000  1.0  0.0632
  H  H53  1  0.437000  0.290800  0.068400  1.0  0.0602
  H  H54  1  0.506700  0.389500  0.866700  1.0  0.0645
  H  H55  1  0.706300  0.257100  0.847500  1.0  0.1912
  H  H56  1  0.618200  0.237000  0.997800  1.0  0.0632
  H  H57  1  0.203800  0.068400  0.290800  1.0  0.0602
  H  H58  1  0.237100  0.866700  0.389500  1.0  0.0656
  H  H59  1  0.189100  0.847500  0.257100  1.0  0.1899
  H  H60  1  0.147000  0.997800  0.237000  1.0  0.0641
  H  H61  1  0.068400  0.203800  0.437000  1.0  0.0592
  H  H62  1  0.866700  0.237100  0.506700  1.0  0.0667
  H  H63  1  0.847500  0.189100  0.706300  1.0  0.1907
  H  H64  1  0.997800  0.147000  0.618200  1.0  0.0631
  H  H65  1  0.290800  0.203800  0.068400  1.0  0.0588
  H  H66  1  0.389500  0.237100  0.866700  1.0  0.0677
  H  H67  1  0.257100  0.189100  0.847500  1.0  0.1902
  H  H68  1  0.237000  0.147000  0.997800  1.0  0.0625
  H  H69  1  0.437000  0.068400  0.203800  1.0  0.0593
  H  H70  1  0.506700  0.866700  0.237100  1.0  0.0658
  H  H71  1  0.706300  0.847500  0.189100  1.0  0.1903
  H  H72  1  0.618200  0.997800  0.147000  1.0  0.0616
  H  H73  1  0.203800  0.290800  0.437000  1.0  0.0605
  H  H74  1  0.237100  0.389500  0.506700  1.0  0.0644
  H  H75  1  0.189100  0.257100  0.706300  1.0  0.1899
  H  H76  1  0.147000  0.237000  0.618200  1.0  0.0623
  H  H77  1  0.068400  0.437000  0.290800  1.0  0.0581
  H  H78  1  0.866700  0.506700  0.389500  1.0  0.0641
  H  H79  1  0.847500  0.706300  0.257100  1.0  0.1877
  H  H80  1  0.997800  0.618200  0.237000  1.0  0.0634
  H  H81  1  0.290800  0.068400  0.437000  1.0  0.0583
  H  H82  1  0.389500  0.866700  0.506700  1.0  0.0656
  H  H83  1  0.257100  0.847500  0.706300  1.0  0.1891
  H  H84  1  0.237000  0.997800  0.618200  1.0  0.065
  H  H85  1  0.437000  0.203800  0.290800  1.0  0.0587
  H  H86  1  0.506700  0.237100  0.389500  1.0  0.0685
  H  H87  1  0.706300  0.189100  0.257100  1.0  0.1909
  H  H88  1  0.618200  0.147000  0.237000  1.0  0.0622
  H  H89  1  0.203800  0.437000  0.068400  1.0  0.059
  H  H90  1  0.237100  0.506700  0.866700  1.0  0.0643
  H  H91  1  0.189100  0.706300  0.847500  1.0  0.1887
  H  H92  1  0.147000  0.618200  0.997800  1.0  0.0638
  H  H93  1  0.068400  0.290800  0.203800  1.0  0.06
  H  H94  1  0.866700  0.389500  0.237100  1.0  0.0657
  H  H95  1  0.847500  0.257100  0.189100  1.0  0.1906
  H  H96  1  0.997800  0.237000  0.147000  1.0  0.0638
  H  H97  1  0.563000  0.709200  0.796200  1.0  0.0607
  H  H98  1  0.493300  0.610500  0.762900  1.0  0.0647
  H  H99  1  0.293700  0.742900  0.810900  1.0  0.1911
  H  H100  1  0.381800  0.763000  0.853000  1.0  0.0636
  H  H101  1  0.709200  0.563000  0.931600  1.0  0.0589
  H  H102  1  0.610500  0.493300  0.133300  1.0  0.0647
  H  H103  1  0.742900  0.293700  0.152500  1.0  0.1881
  H  H104  1  0.763000  0.381800  0.002200  1.0  0.0635
  H  H105  1  0.931600  0.796200  0.709200  1.0  0.0595
  H  H106  1  0.133300  0.762900  0.610500  1.0  0.0656
  H  H107  1  0.152500  0.810900  0.742900  1.0  0.1905
  H  H108  1  0.002200  0.853000  0.763000  1.0  0.063
  H  H109  1  0.796200  0.931600  0.563000  1.0  0.0606
  H  H110  1  0.762900  0.133300  0.493300  1.0  0.0651
  H  H111  1  0.810900  0.152500  0.293700  1.0  0.1917
  H  H112  1  0.853000  0.002200  0.381800  1.0  0.0643
  H  H113  1  0.796200  0.709200  0.931600  1.0  0.0604
  H  H114  1  0.762900  0.610500  0.133300  1.0  0.0659
  H  H115  1  0.810900  0.742900  0.152500  1.0  0.1904
  H  H116  1  0.853000  0.763000  0.002200  1.0  0.0624
  H  H117  1  0.931600  0.563000  0.796200  1.0  0.0587
  H  H118  1  0.133300  0.493300  0.762900  1.0  0.0641
  H  H119  1  0.152500  0.293700  0.810900  1.0  0.1881
  H  H120  1  0.002200  0.381800  0.853000  1.0  0.0625
  H  H121  1  0.709200  0.796200  0.563000  1.0  0.0584
  H  H122  1  0.610500  0.762900  0.493300  1.0  0.067
  H  H123  1  0.742900  0.810900  0.293700  1.0  0.1886
  H  H124  1  0.763000  0.853000  0.381800  1.0  0.0627
  H  H125  1  0.563000  0.931600  0.709200  1.0  0.0597
  H  H126  1  0.493300  0.133300  0.610500  1.0  0.064
  H  H127  1  0.293700  0.152500  0.742900  1.0  0.19
  H  H128  1  0.381800  0.002200  0.763000  1.0  0.0624
  H  H129  1  0.931600  0.709200  0.563000  1.0  0.0602
  H  H130  1  0.133300  0.610500  0.493300  1.0  0.0653
  H  H131  1  0.152500  0.742900  0.293700  1.0  0.1912
  H  H132  1  0.002200  0.763000  0.381800  1.0  0.0633
  H  H133  1  0.796200  0.563000  0.709200  1.0  0.0603
  H  H134  1  0.762900  0.493300  0.610500  1.0  0.0652
  H  H135  1  0.810900  0.293700  0.742900  1.0  0.1889
  H  H136  1  0.853000  0.381800  0.763000  1.0  0.0635
  H  H137  1  0.563000  0.796200  0.931600  1.0  0.0588
  H  H138  1  0.493300  0.762900  0.133300  1.0  0.0658
  H  H139  1  0.293700  0.810900  0.152500  1.0  0.1895
  H  H140  1  0.381800  0.853000  0.002200  1.0  0.0631
  H  H141  1  0.709200  0.931600  0.796200  1.0  0.0582
  H  H142  1  0.610500  0.133300  0.762900  1.0  0.0642
  H  H143  1  0.742900  0.152500  0.810900  1.0  0.1876
  H  H144  1  0.763000  0.002200  0.853000  1.0  0.0639
  H  H145  1  0.709200  0.563000  0.796200  1.0  0.0583
  H  H146  1  0.610500  0.493300  0.762900  1.0  0.0641
  H  H147  1  0.742900  0.293700  0.810900  1.0  0.1881
  H  H148  1  0.763000  0.381800  0.853000  1.0  0.0642
  H  H149  1  0.563000  0.709200  0.931600  1.0  0.0613
  H  H150  1  0.493300  0.610500  0.133300  1.0  0.0649
  H  H151  1  0.293700  0.742900  0.152500  1.0  0.1912
  H  H152  1  0.381800  0.763000  0.002200  1.0  0.0623
  H  H153  1  0.796200  0.931600  0.709200  1.0  0.0601
  H  H154  1  0.762900  0.133300  0.610500  1.0  0.0652
  H  H155  1  0.810900  0.152500  0.742900  1.0  0.192
  H  H156  1  0.853000  0.002200  0.763000  1.0  0.0639
  H  H157  1  0.931600  0.796200  0.563000  1.0  0.0598
  H  H158  1  0.133300  0.762900  0.493300  1.0  0.0657
  H  H159  1  0.152500  0.810900  0.293700  1.0  0.1905
  H  H160  1  0.002200  0.853000  0.381800  1.0  0.0638
  H  H161  1  0.709200  0.796200  0.931600  1.0  0.0583
  H  H162  1  0.610500  0.762900  0.133300  1.0  0.0668
  H  H163  1  0.742900  0.810900  0.152500  1.0  0.1874
  H  H164  1  0.763000  0.853000  0.002200  1.0  0.0628
  H  H165  1  0.563000  0.931600  0.796200  1.0  0.0586
  H  H166  1  0.493300  0.133300  0.762900  1.0  0.0632
  H  H167  1  0.293700  0.152500  0.810900  1.0  0.1897
  H  H168  1  0.381800  0.002200  0.853000  1.0  0.0623
  H  H169  1  0.796200  0.709200  0.563000  1.0  0.0606
  H  H170  1  0.762900  0.610500  0.493300  1.0  0.0658
  H  H171  1  0.810900  0.742900  0.293700  1.0  0.1912
  H  H172  1  0.853000  0.763000  0.381800  1.0  0.0628
  H  H173  1  0.931600  0.563000  0.709200  1.0  0.0598
  H  H174  1  0.133300  0.493300  0.610500  1.0  0.0648
  H  H175  1  0.152500  0.293700  0.742900  1.0  0.1887
  H  H176  1  0.002200  0.381800  0.763000  1.0  0.063
  H  H177  1  0.709200  0.931600  0.563000  1.0  0.0578
  H  H178  1  0.610500  0.133300  0.493300  1.0  0.0649
  H  H179  1  0.742900  0.152500  0.293700  1.0  0.1895
  H  H180  1  0.763000  0.002200  0.381800  1.0  0.0639
  H  H181  1  0.563000  0.796200  0.709200  1.0  0.059
  H  H182  1  0.493300  0.762900  0.610500  1.0  0.066
  H  H183  1  0.293700  0.810900  0.742900  1.0  0.1895
  H  H184  1  0.381800  0.853000  0.763000  1.0  0.063
  H  H185  1  0.796200  0.563000  0.931600  1.0  0.0596
  H  H186  1  0.762900  0.493300  0.133300  1.0  0.0657
  H  H187  1  0.810900  0.293700  0.152500  1.0  0.1889
  H  H188  1  0.853000  0.381800  0.002200  1.0  0.0631
  H  H189  1  0.931600  0.709200  0.796200  1.0  0.0603
  H  H190  1  0.133300  0.610500  0.762900  1.0  0.0649
  H  H191  1  0.152500  0.742900  0.810900  1.0  0.1895
  H  H192  1  0.002200  0.763000  0.853000  1.0  0.0636
  H  H193  1  0.437000  0.290800  0.203800  1.0  0.0608
  H  H194  1  0.506700  0.389500  0.237100  1.0  0.0661
  H  H195  1  0.706300  0.257100  0.189100  1.0  0.191
  H  H196  1  0.618200  0.237000  0.147000  1.0  0.0622
  H  H197  1  0.290800  0.437000  0.068400  1.0  0.0582
  H  H198  1  0.389500  0.506700  0.866700  1.0  0.0645
  H  H199  1  0.257100  0.706300  0.847500  1.0  0.1898
  H  H200  1  0.237000  0.618200  0.997800  1.0  0.0648
  H  H201  1  0.068400  0.203800  0.290800  1.0  0.0601
  H  H202  1  0.866700  0.237100  0.389500  1.0  0.0669
  H  H203  1  0.847500  0.189100  0.257100  1.0  0.1896
  H  H204  1  0.997800  0.147000  0.237000  1.0  0.0634
  H  H205  1  0.203800  0.068400  0.437000  1.0  0.0598
  H  H206  1  0.237100  0.866700  0.506700  1.0  0.0658
  H  H207  1  0.189100  0.847500  0.706300  1.0  0.1908
  H  H208  1  0.147000  0.997800  0.618200  1.0  0.0636
  H  H209  1  0.203800  0.290800  0.068400  1.0  0.0605
  H  H210  1  0.237100  0.389500  0.866700  1.0  0.0645
  H  H211  1  0.189100  0.257100  0.847500  1.0  0.1904
  H  H212  1  0.147000  0.237000  0.997800  1.0  0.0617
  H  H213  1  0.068400  0.437000  0.203800  1.0  0.0587
  H  H214  1  0.866700  0.506700  0.237100  1.0  0.0656
  H  H215  1  0.847500  0.706300  0.189100  1.0  0.1882
  H  H216  1  0.997800  0.618200  0.147000  1.0  0.0631
  H  H217  1  0.290800  0.203800  0.437000  1.0  0.0586
  H  H218  1  0.389500  0.237100  0.506700  1.0  0.0686
  H  H219  1  0.257100  0.189100  0.706300  1.0  0.1894
  H  H220  1  0.237000  0.147000  0.618200  1.0  0.0628
  H  H221  1  0.437000  0.068400  0.290800  1.0  0.0583
  H  H222  1  0.506700  0.866700  0.389500  1.0  0.0644
  H  H223  1  0.706300  0.847500  0.257100  1.0  0.1903
  H  H224  1  0.618200  0.997800  0.237000  1.0  0.0616
  H  H225  1  0.068400  0.290800  0.437000  1.0  0.0604
  H  H226  1  0.866700  0.389500  0.506700  1.0  0.0647
  H  H227  1  0.847500  0.257100  0.706300  1.0  0.1891
  H  H228  1  0.997800  0.237000  0.618200  1.0  0.0644
  H  H229  1  0.203800  0.437000  0.290800  1.0  0.0589
  H  H230  1  0.237100  0.506700  0.389500  1.0  0.0641
  H  H231  1  0.189100  0.706300  0.257100  1.0  0.1885
  H  H232  1  0.147000  0.618200  0.237000  1.0  0.0635
  H  H233  1  0.437000  0.203800  0.068400  1.0  0.0594
  H  H234  1  0.506700  0.237100  0.866700  1.0  0.067
  H  H235  1  0.706300  0.189100  0.847500  1.0  0.1907
  H  H236  1  0.618200  0.147000  0.997800  1.0  0.0625
  H  H237  1  0.290800  0.068400  0.203800  1.0  0.0582
  H  H238  1  0.389500  0.866700  0.237100  1.0  0.0664
  H  H239  1  0.257100  0.847500  0.189100  1.0  0.1908
  H  H240  1  0.237000  0.997800  0.147000  1.0  0.0644
  H  H241  1  0.451100  0.451100  0.154300  1.0  0.0507
  H  H242  1  0.451100  0.451100  0.943500  1.0  0.051
  H  H243  1  0.154300  0.943500  0.451100  1.0  0.0506
  H  H244  1  0.943500  0.154300  0.451100  1.0  0.0495
  H  H245  1  0.451100  0.154300  0.943500  1.0  0.0494
  H  H246  1  0.451100  0.943500  0.154300  1.0  0.0506
  H  H247  1  0.154300  0.451100  0.451100  1.0  0.0502
  H  H248  1  0.943500  0.451100  0.451100  1.0  0.0502
  H  H249  1  0.451100  0.943500  0.451100  1.0  0.0504
  H  H250  1  0.451100  0.154300  0.451100  1.0  0.0503
  H  H251  1  0.154300  0.451100  0.943500  1.0  0.0495
  H  H252  1  0.943500  0.451100  0.154300  1.0  0.0503
  H  H253  1  0.548900  0.548900  0.845700  1.0  0.0504
  H  H254  1  0.548900  0.548900  0.056500  1.0  0.0501
  H  H255  1  0.056500  0.845700  0.548900  1.0  0.0498
  H  H256  1  0.845700  0.056500  0.548900  1.0  0.0501
  H  H257  1  0.845700  0.548900  0.056500  1.0  0.0503
  H  H258  1  0.056500  0.548900  0.845700  1.0  0.0506
  H  H259  1  0.548900  0.845700  0.548900  1.0  0.0493
  H  H260  1  0.548900  0.056500  0.548900  1.0  0.0498
  H  H261  1  0.056500  0.548900  0.548900  1.0  0.0506
  H  H262  1  0.845700  0.548900  0.548900  1.0  0.0496
  H  H263  1  0.548900  0.845700  0.056500  1.0  0.05
  H  H264  1  0.548900  0.056500  0.845700  1.0  0.0496
  H  H265  1  0.406400  0.593600  0.060200  1.0  0.069
  H  H266  1  0.593600  0.406400  0.939800  1.0  0.067
  H  H267  1  0.060200  0.939800  0.406400  1.0  0.0678
  H  H268  1  0.939800  0.060200  0.593600  1.0  0.0685
  H  H269  1  0.406400  0.060200  0.939800  1.0  0.0682
  H  H270  1  0.593600  0.939800  0.060200  1.0  0.068
  H  H271  1  0.060200  0.406400  0.593600  1.0  0.0658
  H  H272  1  0.939800  0.593600  0.406400  1.0  0.0656
  H  H273  1  0.406400  0.939800  0.593600  1.0  0.0685
  H  H274  1  0.593600  0.060200  0.406400  1.0  0.0685
  H  H275  1  0.060200  0.593600  0.939800  1.0  0.0664
  H  H276  1  0.939800  0.406400  0.060200  1.0  0.0659
  H  H277  1  0.406400  0.593600  0.939800  1.0  0.0666
  H  H278  1  0.593600  0.406400  0.060200  1.0  0.0693
  H  H279  1  0.060200  0.939800  0.593600  1.0  0.0679
  H  H280  1  0.939800  0.060200  0.406400  1.0  0.068
  H  H281  1  0.939800  0.593600  0.060200  1.0  0.0662
  H  H282  1  0.060200  0.406400  0.939800  1.0  0.0659
  H  H283  1  0.593600  0.939800  0.406400  1.0  0.0675
  H  H284  1  0.406400  0.060200  0.593600  1.0  0.0679
  H  H285  1  0.060200  0.593600  0.406400  1.0  0.0657
  H  H286  1  0.939800  0.406400  0.593600  1.0  0.0664
  H  H287  1  0.406400  0.939800  0.060200  1.0  0.0678
  H  H288  1  0.593600  0.060200  0.939800  1.0  0.0694
  H  H289  1  0.260100  0.487300  0.260100  1.0  0.0615
  H  H290  1  0.487300  0.260100  0.992500  1.0  0.0611
  H  H291  1  0.260100  0.992500  0.260100  1.0  0.0625
  H  H292  1  0.992500  0.260100  0.487300  1.0  0.0631
  H  H293  1  0.260100  0.260100  0.992500  1.0  0.0629
  H  H294  1  0.487300  0.992500  0.260100  1.0  0.0612
  H  H295  1  0.260100  0.260100  0.487300  1.0  0.0635
  H  H296  1  0.992500  0.487300  0.260100  1.0  0.0619
  H  H297  1  0.260100  0.992500  0.487300  1.0  0.0631
  H  H298  1  0.487300  0.260100  0.260100  1.0  0.061
  H  H299  1  0.260100  0.487300  0.992500  1.0  0.0617
  H  H300  1  0.992500  0.260100  0.260100  1.0  0.0625
  H  H301  1  0.512700  0.739900  0.739900  1.0  0.0609
  H  H302  1  0.739900  0.512700  0.007500  1.0  0.0617
  H  H303  1  0.007500  0.739900  0.739900  1.0  0.0621
  H  H304  1  0.739900  0.007500  0.512700  1.0  0.0628
  H  H305  1  0.739900  0.739900  0.007500  1.0  0.0636
  H  H306  1  0.007500  0.512700  0.739900  1.0  0.0619
  H  H307  1  0.739900  0.739900  0.512700  1.0  0.0635
  H  H308  1  0.512700  0.007500  0.739900  1.0  0.0611
  H  H309  1  0.007500  0.739900  0.512700  1.0  0.0623
  H  H310  1  0.739900  0.512700  0.739900  1.0  0.0621
  H  H311  1  0.512700  0.739900  0.007500  1.0  0.0607
  H  H312  1  0.739900  0.007500  0.739900  1.0  0.0627
  H  H313  1  0.376700  0.504700  0.059300  1.0  0.0504
  H  H314  1  0.504700  0.376700  0.059300  1.0  0.0524
  H  H315  1  0.059300  0.059300  0.376700  1.0  0.0491
  H  H316  1  0.059300  0.059300  0.504700  1.0  0.0503
  H  H317  1  0.376700  0.059300  0.059300  1.0  0.0509
  H  H318  1  0.504700  0.059300  0.059300  1.0  0.0506
  H  H319  1  0.059300  0.376700  0.504700  1.0  0.0522
  H  H320  1  0.059300  0.504700  0.376700  1.0  0.0519
  H  H321  1  0.376700  0.059300  0.504700  1.0  0.0506
  H  H322  1  0.504700  0.059300  0.376700  1.0  0.0513
  H  H323  1  0.059300  0.504700  0.059300  1.0  0.0513
  H  H324  1  0.059300  0.376700  0.059300  1.0  0.0525
  H  H325  1  0.495300  0.623300  0.940700  1.0  0.0521
  H  H326  1  0.623300  0.495300  0.940700  1.0  0.0505
  H  H327  1  0.940700  0.940700  0.623300  1.0  0.0505
  H  H328  1  0.940700  0.940700  0.495300  1.0  0.0487
  H  H329  1  0.940700  0.623300  0.940700  1.0  0.0523
  H  H330  1  0.940700  0.495300  0.940700  1.0  0.0517
  H  H331  1  0.623300  0.940700  0.495300  1.0  0.0503
  H  H332  1  0.495300  0.940700  0.623300  1.0  0.0509
  H  H333  1  0.940700  0.623300  0.495300  1.0  0.0524
  H  H334  1  0.940700  0.495300  0.623300  1.0  0.0518
  H  H335  1  0.495300  0.940700  0.940700  1.0  0.0511
  H  H336  1  0.623300  0.940700  0.940700  1.0  0.0504
  C  C337  1  0.367770  0.410570  0.186830  1.0  0.1487
  C  C338  1  0.321100  0.408500  0.201100  1.0  0.1647
  C  C339  1  0.414790  0.554670  0.166290  1.0  0.156
  C  C340  1  0.408400  0.529400  0.216200  1.0  0.1979
  C  C341  1  0.264780  0.591580  0.222940  1.0  0.3757
  C  C342  1  0.247750  0.676410  0.208090  1.0  0.0914
  C  C343  1  0.275200  0.585260  0.090820  1.0  0.1521
  C  C344  1  0.237140  0.617560  0.117660  1.0  0.0938
  C  C345  1  0.410570  0.367770  0.034830  1.0  0.1485
  C  C346  1  0.408500  0.321100  0.069300  1.0  0.1637
  C  C347  1  0.554670  0.414790  0.864250  1.0  0.1566
  C  C348  1  0.529400  0.408400  0.846000  1.0  0.1989
  C  C349  1  0.591580  0.264780  0.920700  1.0  0.3764
  C  C350  1  0.676410  0.247750  0.867750  1.0  0.0918
  C  C351  1  0.585260  0.275200  0.048720  1.0  0.1512
  C  C352  1  0.617560  0.237140  0.027640  1.0  0.0964
  C  C353  1  0.186830  0.034830  0.367770  1.0  0.1484
  C  C354  1  0.201100  0.069300  0.321100  1.0  0.1639
  C  C355  1  0.166290  0.864250  0.414790  1.0  0.1553
  C  C356  1  0.216200  0.846000  0.408400  1.0  0.1975
  C  C357  1  0.222940  0.920700  0.264780  1.0  0.3772
  C  C358  1  0.208090  0.867750  0.247750  1.0  0.0902
  C  C359  1  0.090820  0.048720  0.275200  1.0  0.1535
  C  C360  1  0.117660  0.027640  0.237140  1.0  0.0924
  C  C361  1  0.034830  0.186830  0.410570  1.0  0.1467
  C  C362  1  0.069300  0.201100  0.408500  1.0  0.1649
  C  C363  1  0.864250  0.166290  0.554670  1.0  0.1574
  C  C364  1  0.846000  0.216200  0.529400  1.0  0.1983
  C  C365  1  0.920700  0.222940  0.591580  1.0  0.3757
  C  C366  1  0.867750  0.208090  0.676410  1.0  0.0888
  C  C367  1  0.048720  0.090820  0.585260  1.0  0.1538
  C  C368  1  0.027640  0.117660  0.617560  1.0  0.0922
  C  C369  1  0.367770  0.186830  0.034830  1.0  0.1472
  C  C370  1  0.321100  0.201100  0.069300  1.0  0.1655
  C  C371  1  0.414790  0.166290  0.864250  1.0  0.1562
  C  C372  1  0.408400  0.216200  0.846000  1.0  0.1981
  C  C373  1  0.264780  0.222940  0.920700  1.0  0.3747
  C  C374  1  0.247750  0.208090  0.867750  1.0  0.0886
  C  C375  1  0.275200  0.090820  0.048720  1.0  0.1528
  C  C376  1  0.237140  0.117660  0.027640  1.0  0.0948
  C  C377  1  0.410570  0.034830  0.186830  1.0  0.1495
  C  C378  1  0.408500  0.069300  0.201100  1.0  0.1653
  C  C379  1  0.554670  0.864250  0.166290  1.0  0.1572
  C  C380  1  0.529400  0.846000  0.216200  1.0  0.1996
  C  C381  1  0.591580  0.920700  0.222940  1.0  0.3785
  C  C382  1  0.676410  0.867750  0.208090  1.0  0.0945
  C  C383  1  0.585260  0.048720  0.090820  1.0  0.1515
  C  C384  1  0.617560  0.027640  0.117660  1.0  0.0976
  C  C385  1  0.186830  0.367770  0.410570  1.0  0.1476
  C  C386  1  0.201100  0.321100  0.408500  1.0  0.1635
  C  C387  1  0.166290  0.414790  0.554670  1.0  0.1579
  C  C388  1  0.216200  0.408400  0.529400  1.0  0.1972
  C  C389  1  0.222940  0.264780  0.591580  1.0  0.3754
  C  C390  1  0.208090  0.247750  0.676410  1.0  0.0878
  C  C391  1  0.090820  0.275200  0.585260  1.0  0.1551
  C  C392  1  0.117660  0.237140  0.617560  1.0  0.0951
  C  C393  1  0.034830  0.410570  0.367770  1.0  0.1496
  C  C394  1  0.069300  0.408500  0.321100  1.0  0.1635
  C  C395  1  0.864250  0.554670  0.414790  1.0  0.1575
  C  C396  1  0.846000  0.529400  0.408400  1.0  0.2013
  C  C397  1  0.920700  0.591580  0.264780  1.0  0.3757
  C  C398  1  0.867750  0.676410  0.247750  1.0  0.0896
  C  C399  1  0.048720  0.585260  0.275200  1.0  0.1503
  C  C400  1  0.027640  0.617560  0.237140  1.0  0.0949
  C  C401  1  0.367770  0.034830  0.410570  1.0  0.1476
  C  C402  1  0.321100  0.069300  0.408500  1.0  0.1655
  C  C403  1  0.414790  0.864250  0.554670  1.0  0.1556
  C  C404  1  0.408400  0.846000  0.529400  1.0  0.1991
  C  C405  1  0.264780  0.920700  0.591580  1.0  0.3793
  C  C406  1  0.247750  0.867750  0.676410  1.0  0.0901
  C  C407  1  0.275200  0.048720  0.585260  1.0  0.1527
  C  C408  1  0.237140  0.027640  0.617560  1.0  0.0958
  C  C409  1  0.410570  0.186830  0.367770  1.0  0.1485
  C  C410  1  0.408500  0.201100  0.321100  1.0  0.166
  C  C411  1  0.554670  0.166290  0.414790  1.0  0.1581
  C  C412  1  0.529400  0.216200  0.408400  1.0  0.1974
  C  C413  1  0.591580  0.222940  0.264780  1.0  0.3773
  C  C414  1  0.676410  0.208090  0.247750  1.0  0.0911
  C  C415  1  0.585260  0.090820  0.275200  1.0  0.1513
  C  C416  1  0.617560  0.117660  0.237140  1.0  0.0961
  C  C417  1  0.186830  0.410570  0.034830  1.0  0.1474
  C  C418  1  0.201100  0.408500  0.069300  1.0  0.166
  C  C419  1  0.166290  0.554670  0.864250  1.0  0.1561
  C  C420  1  0.216200  0.529400  0.846000  1.0  0.1976
  C  C421  1  0.222940  0.591580  0.920700  1.0  0.3779
  C  C422  1  0.208090  0.676410  0.867750  1.0  0.0898
  C  C423  1  0.090820  0.585260  0.048720  1.0  0.1521
  C  C424  1  0.117660  0.617560  0.027640  1.0  0.0955
  C  C425  1  0.034830  0.367770  0.186830  1.0  0.1481
  C  C426  1  0.069300  0.321100  0.201100  1.0  0.1646
  C  C427  1  0.864250  0.414790  0.166290  1.0  0.1573
  C  C428  1  0.846000  0.408400  0.216200  1.0  0.2023
  C  C429  1  0.920700  0.264780  0.222940  1.0  0.3765
  C  C430  1  0.867750  0.247750  0.208090  1.0  0.0895
  C  C431  1  0.048720  0.275200  0.090820  1.0  0.1522
  C  C432  1  0.027640  0.237140  0.117660  1.0  0.0962
  C  C433  1  0.589430  0.632230  0.813170  1.0  0.1467
  C  C434  1  0.591500  0.678900  0.798900  1.0  0.1655
  C  C435  1  0.445330  0.585210  0.833710  1.0  0.1559
  C  C436  1  0.470600  0.591600  0.783800  1.0  0.198
  C  C437  1  0.408420  0.735220  0.777060  1.0  0.3751
  C  C438  1  0.323590  0.752250  0.791910  1.0  0.0927
  C  C439  1  0.414740  0.724800  0.909180  1.0  0.152
  C  C440  1  0.382440  0.762860  0.882340  1.0  0.0972
  C  C441  1  0.632230  0.589430  0.965170  1.0  0.1471
  C  C442  1  0.678900  0.591500  0.930700  1.0  0.1635
  C  C443  1  0.585210  0.445330  0.135750  1.0  0.1563
  C  C444  1  0.591600  0.470600  0.154000  1.0  0.1979
  C  C445  1  0.735220  0.408420  0.079300  1.0  0.3751
  C  C446  1  0.752250  0.323590  0.132250  1.0  0.0912
  C  C447  1  0.724800  0.414740  0.951280  1.0  0.1512
  C  C448  1  0.762860  0.382440  0.972360  1.0  0.0942
  C  C449  1  0.965170  0.813170  0.632230  1.0  0.147
  C  C450  1  0.930700  0.798900  0.678900  1.0  0.1664
  C  C451  1  0.135750  0.833710  0.585210  1.0  0.1571
  C  C452  1  0.154000  0.783800  0.591600  1.0  0.1986
  C  C453  1  0.079300  0.777060  0.735220  1.0  0.3782
  C  C454  1  0.132250  0.791910  0.752250  1.0  0.0868
  C  C455  1  0.951280  0.909180  0.724800  1.0  0.1539
  C  C456  1  0.972360  0.882340  0.762860  1.0  0.0929
  C  C457  1  0.813170  0.965170  0.589430  1.0  0.1496
  C  C458  1  0.798900  0.930700  0.591500  1.0  0.1646
  C  C459  1  0.833710  0.135750  0.445330  1.0  0.1561
  C  C460  1  0.783800  0.154000  0.470600  1.0  0.1969
  C  C461  1  0.777060  0.079300  0.408420  1.0  0.3798
  C  C462  1  0.791910  0.132250  0.323590  1.0  0.0907
  C  C463  1  0.909180  0.951280  0.414740  1.0  0.1523
  C  C464  1  0.882340  0.972360  0.382440  1.0  0.0927
  C  C465  1  0.813170  0.632230  0.965170  1.0  0.1483
  C  C466  1  0.798900  0.678900  0.930700  1.0  0.1652
  C  C467  1  0.833710  0.585210  0.135750  1.0  0.158
  C  C468  1  0.783800  0.591600  0.154000  1.0  0.196
  C  C469  1  0.777060  0.735220  0.079300  1.0  0.3774
  C  C470  1  0.791910  0.752250  0.132250  1.0  0.0888
  C  C471  1  0.909180  0.724800  0.951280  1.0  0.1501
  C  C472  1  0.882340  0.762860  0.972360  1.0  0.0945
  C  C473  1  0.965170  0.589430  0.813170  1.0  0.1492
  C  C474  1  0.930700  0.591500  0.798900  1.0  0.1641
  C  C475  1  0.135750  0.445330  0.833710  1.0  0.1577
  C  C476  1  0.154000  0.470600  0.783800  1.0  0.2021
  C  C477  1  0.079300  0.408420  0.777060  1.0  0.3778
  C  C478  1  0.132250  0.323590  0.791910  1.0  0.0914
  C  C479  1  0.951280  0.414740  0.909180  1.0  0.1547
  C  C480  1  0.972360  0.382440  0.882340  1.0  0.0944
  C  C481  1  0.632230  0.813170  0.589430  1.0  0.1479
  C  C482  1  0.678900  0.798900  0.591500  1.0  0.1646
  C  C483  1  0.585210  0.833710  0.445330  1.0  0.1558
  C  C484  1  0.591600  0.783800  0.470600  1.0  0.1996
  C  C485  1  0.735220  0.777060  0.408420  1.0  0.374
  C  C486  1  0.752250  0.791910  0.323590  1.0  0.0868
  C  C487  1  0.724800  0.909180  0.414740  1.0  0.1518
  C  C488  1  0.762860  0.882340  0.382440  1.0  0.095
  C  C489  1  0.589430  0.965170  0.632230  1.0  0.1476
  C  C490  1  0.591500  0.930700  0.678900  1.0  0.1653
  C  C491  1  0.445330  0.135750  0.585210  1.0  0.1578
  C  C492  1  0.470600  0.154000  0.591600  1.0  0.2
  C  C493  1  0.408420  0.079300  0.735220  1.0  0.3778
  C  C494  1  0.323590  0.132250  0.752250  1.0  0.0932
  C  C495  1  0.414740  0.951280  0.724800  1.0  0.1526
  C  C496  1  0.382440  0.972360  0.762860  1.0  0.0988
  C  C497  1  0.965170  0.632230  0.589430  1.0  0.1477
  C  C498  1  0.930700  0.678900  0.591500  1.0  0.1658
  C  C499  1  0.135750  0.585210  0.445330  1.0  0.1577
  C  C500  1  0.154000  0.591600  0.470600  1.0  0.201
  C  C501  1  0.079300  0.735220  0.408420  1.0  0.3773
  C  C502  1  0.132250  0.752250  0.323590  1.0  0.0897
  C  C503  1  0.951280  0.724800  0.414740  1.0  0.1522
  C  C504  1  0.972360  0.762860  0.382440  1.0  0.0959
  C  C505  1  0.813170  0.589430  0.632230  1.0  0.1489
  C  C506  1  0.798900  0.591500  0.678900  1.0  0.1651
  C  C507  1  0.833710  0.445330  0.585210  1.0  0.1564
  C  C508  1  0.783800  0.470600  0.591600  1.0  0.1972
  C  C509  1  0.777060  0.408420  0.735220  1.0  0.3803
  C  C510  1  0.791910  0.323590  0.752250  1.0  0.0915
  C  C511  1  0.909180  0.414740  0.724800  1.0  0.1524
  C  C512  1  0.882340  0.382440  0.762860  1.0  0.0964
  C  C513  1  0.589430  0.813170  0.965170  1.0  0.1482
  C  C514  1  0.591500  0.798900  0.930700  1.0  0.1669
  C  C515  1  0.445330  0.833710  0.135750  1.0  0.1579
  C  C516  1  0.470600  0.783800  0.154000  1.0  0.1976
  C  C517  1  0.408420  0.777060  0.079300  1.0  0.3767
  C  C518  1  0.323590  0.791910  0.132250  1.0  0.0873
  C  C519  1  0.414740  0.909180  0.951280  1.0  0.1532
  C  C520  1  0.382440  0.882340  0.972360  1.0  0.0958
  C  C521  1  0.632230  0.965170  0.813170  1.0  0.1461
  C  C522  1  0.678900  0.930700  0.798900  1.0  0.1653
  C  C523  1  0.585210  0.135750  0.833710  1.0  0.1557
  C  C524  1  0.591600  0.154000  0.783800  1.0  0.1988
  C  C525  1  0.735220  0.079300  0.777060  1.0  0.3769
  C  C526  1  0.752250  0.132250  0.791910  1.0  0.0897
  C  C527  1  0.724800  0.951280  0.909180  1.0  0.1513
  C  C528  1  0.762860  0.972360  0.882340  1.0  0.0953
  C  C529  1  0.632230  0.589430  0.813170  1.0  0.1482
  C  C530  1  0.678900  0.591500  0.798900  1.0  0.1631
  C  C531  1  0.585210  0.445330  0.833710  1.0  0.1553
  C  C532  1  0.591600  0.470600  0.783800  1.0  0.1993
  C  C533  1  0.735220  0.408420  0.777060  1.0  0.3744
  C  C534  1  0.752250  0.323590  0.791910  1.0  0.0904
  C  C535  1  0.724800  0.414740  0.909180  1.0  0.1518
  C  C536  1  0.762860  0.382440  0.882340  1.0  0.0945
  C  C537  1  0.589430  0.632230  0.965170  1.0  0.1472
  C  C538  1  0.591500  0.678900  0.930700  1.0  0.1657
  C  C539  1  0.445330  0.585210  0.135750  1.0  0.1566
  C  C540  1  0.470600  0.591600  0.154000  1.0  0.1976
  C  C541  1  0.408420  0.735220  0.079300  1.0  0.3759
  C  C542  1  0.323590  0.752250  0.132250  1.0  0.0927
  C  C543  1  0.414740  0.724800  0.951280  1.0  0.1525
  C  C544  1  0.382440  0.762860  0.972360  1.0  0.096
  C  C545  1  0.813170  0.965170  0.632230  1.0  0.1491
  C  C546  1  0.798900  0.930700  0.678900  1.0  0.166
  C  C547  1  0.833710  0.135750  0.585210  1.0  0.1564
  C  C548  1  0.783800  0.154000  0.591600  1.0  0.1972
  C  C549  1  0.777060  0.079300  0.735220  1.0  0.3808
  C  C550  1  0.791910  0.132250  0.752250  1.0  0.0885
  C  C551  1  0.909180  0.951280  0.724800  1.0  0.1528
  C  C552  1  0.882340  0.972360  0.762860  1.0  0.092
  C  C553  1  0.965170  0.813170  0.589430  1.0  0.1494
  C  C554  1  0.930700  0.798900  0.591500  1.0  0.1654
  C  C555  1  0.135750  0.833710  0.445330  1.0  0.1566
  C  C556  1  0.154000  0.783800  0.470600  1.0  0.1995
  C  C557  1  0.079300  0.777060  0.408420  1.0  0.3773
  C  C558  1  0.132250  0.791910  0.323590  1.0  0.0886
  C  C559  1  0.951280  0.909180  0.414740  1.0  0.1546
  C  C560  1  0.972360  0.882340  0.382440  1.0  0.0928
  C  C561  1  0.632230  0.813170  0.965170  1.0  0.1488
  C  C562  1  0.678900  0.798900  0.930700  1.0  0.1653
  C  C563  1  0.585210  0.833710  0.135750  1.0  0.1561
  C  C564  1  0.591600  0.783800  0.154000  1.0  0.1992
  C  C565  1  0.735220  0.777060  0.079300  1.0  0.3734
  C  C566  1  0.752250  0.791910  0.132250  1.0  0.0862
  C  C567  1  0.724800  0.909180  0.951280  1.0  0.1519
  C  C568  1  0.762860  0.882340  0.972360  1.0  0.0947
  C  C569  1  0.589430  0.965170  0.813170  1.0  0.1488
  C  C570  1  0.591500  0.930700  0.798900  1.0  0.1644
  C  C571  1  0.445330  0.135750  0.833710  1.0  0.1579
  C  C572  1  0.470600  0.154000  0.783800  1.0  0.1994
  C  C573  1  0.408420  0.079300  0.777060  1.0  0.3772
  C  C574  1  0.323590  0.132250  0.791910  1.0  0.0905
  C  C575  1  0.414740  0.951280  0.909180  1.0  0.1533
  C  C576  1  0.382440  0.972360  0.882340  1.0  0.0992
  C  C577  1  0.813170  0.632230  0.589430  1.0  0.1489
  C  C578  1  0.798900  0.678900  0.591500  1.0  0.1646
  C  C579  1  0.833710  0.585210  0.445330  1.0  0.1578
  C  C580  1  0.783800  0.591600  0.470600  1.0  0.1975
  C  C581  1  0.777060  0.735220  0.408420  1.0  0.3775
  C  C582  1  0.791910  0.752250  0.323590  1.0  0.0884
  C  C583  1  0.909180  0.724800  0.414740  1.0  0.1511
  C  C584  1  0.882340  0.762860  0.382440  1.0  0.0948
  C  C585  1  0.965170  0.589430  0.632230  1.0  0.1499
  C  C586  1  0.930700  0.591500  0.678900  1.0  0.164
  C  C587  1  0.135750  0.445330  0.585210  1.0  0.1572
  C  C588  1  0.154000  0.470600  0.591600  1.0  0.2035
  C  C589  1  0.079300  0.408420  0.735220  1.0  0.378
  C  C590  1  0.132250  0.323590  0.752250  1.0  0.0931
  C  C591  1  0.951280  0.414740  0.724800  1.0  0.1552
  C  C592  1  0.972360  0.382440  0.762860  1.0  0.0941
  C  C593  1  0.632230  0.965170  0.589430  1.0  0.1467
  C  C594  1  0.678900  0.930700  0.591500  1.0  0.1652
  C  C595  1  0.585210  0.135750  0.445330  1.0  0.1559
  C  C596  1  0.591600  0.154000  0.470600  1.0  0.2007
  C  C597  1  0.735220  0.079300  0.408420  1.0  0.3775
  C  C598  1  0.752250  0.132250  0.323590  1.0  0.0904
  C  C599  1  0.724800  0.951280  0.414740  1.0  0.151
  C  C600  1  0.762860  0.972360  0.382440  1.0  0.0959
  C  C601  1  0.589430  0.813170  0.632230  1.0  0.1491
  C  C602  1  0.591500  0.798900  0.678900  1.0  0.1667
  C  C603  1  0.445330  0.833710  0.585210  1.0  0.1559
  C  C604  1  0.470600  0.783800  0.591600  1.0  0.2003
  C  C605  1  0.408420  0.777060  0.735220  1.0  0.3774
  C  C606  1  0.323590  0.791910  0.752250  1.0  0.0882
  C  C607  1  0.414740  0.909180  0.724800  1.0  0.1537
  C  C608  1  0.382440  0.882340  0.762860  1.0  0.0955
  C  C609  1  0.813170  0.589430  0.965170  1.0  0.1499
  C  C610  1  0.798900  0.591500  0.930700  1.0  0.1657
  C  C611  1  0.833710  0.445330  0.135750  1.0  0.1584
  C  C612  1  0.783800  0.470600  0.154000  1.0  0.1966
  C  C613  1  0.777060  0.408420  0.079300  1.0  0.3806
  C  C614  1  0.791910  0.323590  0.132250  1.0  0.0914
  C  C615  1  0.909180  0.414740  0.951280  1.0  0.1531
  C  C616  1  0.882340  0.382440  0.972360  1.0  0.0967
  C  C617  1  0.965170  0.632230  0.813170  1.0  0.1487
  C  C618  1  0.930700  0.678900  0.798900  1.0  0.166
  C  C619  1  0.135750  0.585210  0.833710  1.0  0.1573
  C  C620  1  0.154000  0.591600  0.783800  1.0  0.2022
  C  C621  1  0.079300  0.735220  0.777060  1.0  0.3764
  C  C622  1  0.132250  0.752250  0.791910  1.0  0.0901
  C  C623  1  0.951280  0.724800  0.909180  1.0  0.1533
  C  C624  1  0.972360  0.762860  0.882340  1.0  0.096
  C  C625  1  0.410570  0.367770  0.186830  1.0  0.149
  C  C626  1  0.408500  0.321100  0.201100  1.0  0.1635
  C  C627  1  0.554670  0.414790  0.166290  1.0  0.1571
  C  C628  1  0.529400  0.408400  0.216200  1.0  0.1992
  C  C629  1  0.591580  0.264780  0.222940  1.0  0.3769
  C  C630  1  0.676410  0.247750  0.208090  1.0  0.092
  C  C631  1  0.585260  0.275200  0.090820  1.0  0.1515
  C  C632  1  0.617560  0.237140  0.117660  1.0  0.0959
  C  C633  1  0.367770  0.410570  0.034830  1.0  0.1498
  C  C634  1  0.321100  0.408500  0.069300  1.0  0.1645
  C  C635  1  0.414790  0.554670  0.864250  1.0  0.155
  C  C636  1  0.408400  0.529400  0.846000  1.0  0.1994
  C  C637  1  0.264780  0.591580  0.920700  1.0  0.3756
  C  C638  1  0.247750  0.676410  0.867750  1.0  0.0912
  C  C639  1  0.275200  0.585260  0.048720  1.0  0.1528
  C  C640  1  0.237140  0.617560  0.027640  1.0  0.0956
  C  C641  1  0.034830  0.186830  0.367770  1.0  0.149
  C  C642  1  0.069300  0.201100  0.321100  1.0  0.1654
  C  C643  1  0.864250  0.166290  0.414790  1.0  0.1569
  C  C644  1  0.846000  0.216200  0.408400  1.0  0.1993
  C  C645  1  0.920700  0.222940  0.264780  1.0  0.3756
  C  C646  1  0.867750  0.208090  0.247750  1.0  0.0902
  C  C647  1  0.048720  0.090820  0.275200  1.0  0.1545
  C  C648  1  0.027640  0.117660  0.237140  1.0  0.0928
  C  C649  1  0.186830  0.034830  0.410570  1.0  0.148
  C  C650  1  0.201100  0.069300  0.408500  1.0  0.1642
  C  C651  1  0.166290  0.864250  0.554670  1.0  0.1555
  C  C652  1  0.216200  0.846000  0.529400  1.0  0.1978
  C  C653  1  0.222940  0.920700  0.591580  1.0  0.377
  C  C654  1  0.208090  0.867750  0.676410  1.0  0.0887
  C  C655  1  0.090820  0.048720  0.585260  1.0  0.1539
  C  C656  1  0.117660  0.027640  0.617560  1.0  0.0918
  C  C657  1  0.186830  0.367770  0.034830  1.0  0.1483
  C  C658  1  0.201100  0.321100  0.069300  1.0  0.1631
  C  C659  1  0.166290  0.414790  0.864250  1.0  0.1575
  C  C660  1  0.216200  0.408400  0.846000  1.0  0.1988
  C  C661  1  0.222940  0.264780  0.920700  1.0  0.3763
  C  C662  1  0.208090  0.247750  0.867750  1.0  0.0883
  C  C663  1  0.090820  0.275200  0.048720  1.0  0.1557
  C  C664  1  0.117660  0.237140  0.027640  1.0  0.0943
  C  C665  1  0.034830  0.410570  0.186830  1.0  0.1501
  C  C666  1  0.069300  0.408500  0.201100  1.0  0.1648
  C  C667  1  0.864250  0.554670  0.166290  1.0  0.1571
  C  C668  1  0.846000  0.529400  0.216200  1.0  0.2044
  C  C669  1  0.920700  0.591580  0.222940  1.0  0.3761
  C  C670  1  0.867750  0.676410  0.208090  1.0  0.0927
  C  C671  1  0.048720  0.585260  0.090820  1.0  0.1506
  C  C672  1  0.027640  0.617560  0.117660  1.0  0.0938
  C  C673  1  0.367770  0.186830  0.410570  1.0  0.1487
  C  C674  1  0.321100  0.201100  0.408500  1.0  0.1666
  C  C675  1  0.414790  0.166290  0.554670  1.0  0.1564
  C  C676  1  0.408400  0.216200  0.529400  1.0  0.1988
  C  C677  1  0.264780  0.222940  0.591580  1.0  0.3742
  C  C678  1  0.247750  0.208090  0.676410  1.0  0.0891
  C  C679  1  0.275200  0.090820  0.585260  1.0  0.1531
  C  C680  1  0.237140  0.117660  0.617560  1.0  0.0956
  C  C681  1  0.410570  0.034830  0.367770  1.0  0.1512
  C  C682  1  0.408500  0.069300  0.321100  1.0  0.1649
  C  C683  1  0.554670  0.864250  0.414790  1.0  0.157
  C  C684  1  0.529400  0.846000  0.408400  1.0  0.1999
  C  C685  1  0.591580  0.920700  0.264780  1.0  0.3788
  C  C686  1  0.676410  0.867750  0.247750  1.0  0.0932
  C  C687  1  0.585260  0.048720  0.275200  1.0  0.1523
  C  C688  1  0.617560  0.027640  0.237140  1.0  0.0981
  C  C689  1  0.034830  0.367770  0.410570  1.0  0.1491
  C  C690  1  0.069300  0.321100  0.408500  1.0  0.1645
  C  C691  1  0.864250  0.414790  0.554670  1.0  0.1571
  C  C692  1  0.846000  0.408400  0.529400  1.0  0.2006
  C  C693  1  0.920700  0.264780  0.591580  1.0  0.3756
  C  C694  1  0.867750  0.247750  0.676410  1.0  0.0884
  C  C695  1  0.048720  0.275200  0.585260  1.0  0.1533
  C  C696  1  0.027640  0.237140  0.617560  1.0  0.0953
  C  C697  1  0.186830  0.410570  0.367770  1.0  0.1485
  C  C698  1  0.201100  0.408500  0.321100  1.0  0.1652
  C  C699  1  0.166290  0.554670  0.414790  1.0  0.158
  C  C700  1  0.216200  0.529400  0.408400  1.0  0.1968
  C  C701  1  0.222940  0.591580  0.264780  1.0  0.3775
  C  C702  1  0.208090  0.676410  0.247750  1.0  0.0897
  C  C703  1  0.090820  0.585260  0.275200  1.0  0.1528
  C  C704  1  0.117660  0.617560  0.237140  1.0  0.0955
  C  C705  1  0.410570  0.186830  0.034830  1.0  0.1491
  C  C706  1  0.408500  0.201100  0.069300  1.0  0.166
  C  C707  1  0.554670  0.166290  0.864250  1.0  0.1559
  C  C708  1  0.529400  0.216200  0.846000  1.0  0.198
  C  C709  1  0.591580  0.222940  0.920700  1.0  0.3774
  C  C710  1  0.676410  0.208090  0.867750  1.0  0.0906
  C  C711  1  0.585260  0.090820  0.048720  1.0  0.1521
  C  C712  1  0.617560  0.117660  0.027640  1.0  0.0959
  C  C713  1  0.367770  0.034830  0.186830  1.0  0.1484
  C  C714  1  0.321100  0.069300  0.201100  1.0  0.1651
  C  C715  1  0.414790  0.864250  0.166290  1.0  0.1559
  C  C716  1  0.408400  0.846000  0.216200  1.0  0.2009
  C  C717  1  0.264780  0.920700  0.222940  1.0  0.3798
  C  C718  1  0.247750  0.867750  0.208090  1.0  0.091
  C  C719  1  0.275200  0.048720  0.090820  1.0  0.1531
  C  C720  1  0.237140  0.027640  0.117660  1.0  0.0965
  C  C721  1  0.431300  0.431300  0.164780  1.0  0.2203
  C  C722  1  0.431300  0.431300  0.972620  1.0  0.2205
  C  C723  1  0.164780  0.972620  0.431300  1.0  0.2207
  C  C724  1  0.972620  0.164780  0.431300  1.0  0.2218
  C  C725  1  0.431300  0.164780  0.972620  1.0  0.2216
  C  C726  1  0.431300  0.972620  0.164780  1.0  0.2203
  C  C727  1  0.164780  0.431300  0.431300  1.0  0.2213
  C  C728  1  0.972620  0.431300  0.431300  1.0  0.2215
  C  C729  1  0.431300  0.972620  0.431300  1.0  0.2208
  C  C730  1  0.431300  0.164780  0.431300  1.0  0.2221
  C  C731  1  0.164780  0.431300  0.972620  1.0  0.2212
  C  C732  1  0.972620  0.431300  0.164780  1.0  0.2212
  C  C733  1  0.568700  0.568700  0.835220  1.0  0.2217
  C  C734  1  0.568700  0.568700  0.027380  1.0  0.2215
  C  C735  1  0.027380  0.835220  0.568700  1.0  0.221
  C  C736  1  0.835220  0.027380  0.568700  1.0  0.2197
  C  C737  1  0.835220  0.568700  0.027380  1.0  0.2215
  C  C738  1  0.027380  0.568700  0.835220  1.0  0.2223
  C  C739  1  0.568700  0.835220  0.568700  1.0  0.222
  C  C740  1  0.568700  0.027380  0.568700  1.0  0.2211
  C  C741  1  0.027380  0.568700  0.568700  1.0  0.2216
  C  C742  1  0.835220  0.568700  0.568700  1.0  0.2211
  C  C743  1  0.568700  0.835220  0.027380  1.0  0.2219
  C  C744  1  0.568700  0.027380  0.835220  1.0  0.2214
  C  C745  1  0.413700  0.586300  0.088900  1.0  0.2693
  C  C746  1  0.586300  0.413700  0.911100  1.0  0.2686
  C  C747  1  0.088900  0.911100  0.413700  1.0  0.2691
  C  C748  1  0.911100  0.088900  0.586300  1.0  0.2714
  C  C749  1  0.413700  0.088900  0.911100  1.0  0.2695
  C  C750  1  0.586300  0.911100  0.088900  1.0  0.2703
  C  C751  1  0.088900  0.413700  0.586300  1.0  0.2699
  C  C752  1  0.911100  0.586300  0.413700  1.0  0.2702
  C  C753  1  0.413700  0.911100  0.586300  1.0  0.2682
  C  C754  1  0.586300  0.088900  0.413700  1.0  0.2695
  C  C755  1  0.088900  0.586300  0.911100  1.0  0.27
  C  C756  1  0.911100  0.413700  0.088900  1.0  0.2722
  C  C757  1  0.413700  0.586300  0.911100  1.0  0.2675
  C  C758  1  0.586300  0.413700  0.088900  1.0  0.2696
  C  C759  1  0.088900  0.911100  0.586300  1.0  0.2691
  C  C760  1  0.911100  0.088900  0.413700  1.0  0.2709
  C  C761  1  0.911100  0.586300  0.088900  1.0  0.2705
  C  C762  1  0.088900  0.413700  0.911100  1.0  0.2701
  C  C763  1  0.586300  0.911100  0.413700  1.0  0.2698
  C  C764  1  0.413700  0.088900  0.586300  1.0  0.2695
  C  C765  1  0.088900  0.586300  0.413700  1.0  0.2699
  C  C766  1  0.911100  0.413700  0.586300  1.0  0.2726
  C  C767  1  0.413700  0.911100  0.088900  1.0  0.269
  C  C768  1  0.586300  0.088900  0.911100  1.0  0.27
  C  C769  1  0.254700  0.521300  0.254700  1.0  0.2218
  C  C770  1  0.521300  0.254700  0.969300  1.0  0.2242
  C  C771  1  0.254700  0.969300  0.254700  1.0  0.2246
  C  C772  1  0.969300  0.254700  0.521300  1.0  0.2243
  C  C773  1  0.254700  0.254700  0.969300  1.0  0.2257
  C  C774  1  0.521300  0.969300  0.254700  1.0  0.2245
  C  C775  1  0.254700  0.254700  0.521300  1.0  0.2265
  C  C776  1  0.969300  0.521300  0.254700  1.0  0.222
  C  C777  1  0.254700  0.969300  0.521300  1.0  0.225
  C  C778  1  0.521300  0.254700  0.254700  1.0  0.2243
  C  C779  1  0.254700  0.521300  0.969300  1.0  0.2219
  C  C780  1  0.969300  0.254700  0.254700  1.0  0.2236
  C  C781  1  0.478700  0.745300  0.745300  1.0  0.2253
  C  C782  1  0.745300  0.478700  0.030700  1.0  0.2226
  C  C783  1  0.030700  0.745300  0.745300  1.0  0.2244
  C  C784  1  0.745300  0.030700  0.478700  1.0  0.2244
  C  C785  1  0.745300  0.745300  0.030700  1.0  0.2266
  C  C786  1  0.030700  0.478700  0.745300  1.0  0.2249
  C  C787  1  0.745300  0.745300  0.478700  1.0  0.2257
  C  C788  1  0.478700  0.030700  0.745300  1.0  0.2252
  C  C789  1  0.030700  0.745300  0.478700  1.0  0.2229
  C  C790  1  0.745300  0.478700  0.745300  1.0  0.2226
  C  C791  1  0.478700  0.745300  0.030700  1.0  0.2251
  C  C792  1  0.745300  0.030700  0.745300  1.0  0.2257
  C  C793  1  0.343700  0.529780  0.063260  1.0  0.2271
  C  C794  1  0.529780  0.343700  0.063260  1.0  0.2258
  C  C795  1  0.063260  0.063260  0.343700  1.0  0.2265
  C  C796  1  0.063260  0.063260  0.529780  1.0  0.2263
  C  C797  1  0.343700  0.063260  0.063260  1.0  0.2276
  C  C798  1  0.529780  0.063260  0.063260  1.0  0.2259
  C  C799  1  0.063260  0.343700  0.529780  1.0  0.2242
  C  C800  1  0.063260  0.529780  0.343700  1.0  0.2261
  C  C801  1  0.343700  0.063260  0.529780  1.0  0.2273
  C  C802  1  0.529780  0.063260  0.343700  1.0  0.226
  C  C803  1  0.063260  0.529780  0.063260  1.0  0.2257
  C  C804  1  0.063260  0.343700  0.063260  1.0  0.2245
  C  C805  1  0.470220  0.656300  0.936740  1.0  0.2256
  C  C806  1  0.656300  0.470220  0.936740  1.0  0.2261
  C  C807  1  0.936740  0.936740  0.656300  1.0  0.2267
  C  C808  1  0.936740  0.936740  0.470220  1.0  0.2276
  C  C809  1  0.936740  0.656300  0.936740  1.0  0.2251
  C  C810  1  0.936740  0.470220  0.936740  1.0  0.2254
  C  C811  1  0.656300  0.936740  0.470220  1.0  0.2263
  C  C812  1  0.470220  0.936740  0.656300  1.0  0.2258
  C  C813  1  0.936740  0.656300  0.470220  1.0  0.2257
  C  C814  1  0.936740  0.470220  0.656300  1.0  0.225
  C  C815  1  0.470220  0.936740  0.936740  1.0  0.2263
  C  C816  1  0.656300  0.936740  0.936740  1.0  0.226
  N  N817  1  0.321620  0.361980  0.211300  1.0  -0.2511
  N  N818  1  0.431400  0.540000  0.233000  1.0  -0.2721
  N  N819  1  0.278330  0.634250  0.191190  1.0  -0.4154
  N  N820  1  0.199310  0.648770  0.096170  1.0  -0.2837
  N  N821  1  0.381080  0.451840  0.172600  1.0  -0.5265
  N  N822  1  0.394040  0.555440  0.136180  1.0  -0.4816
  N  N823  1  0.286020  0.546600  0.215400  1.0  -0.4746
  N  N824  1  0.319870  0.547930  0.101430  1.0  -0.4733
  N  N825  1  0.361980  0.321620  0.105100  1.0  -0.2521
  N  N826  1  0.540000  0.431400  0.795600  1.0  -0.2696
  N  N827  1  0.634250  0.278330  0.896230  1.0  -0.4089
  N  N828  1  0.648770  0.199310  0.055750  1.0  -0.2867
  N  N829  1  0.451840  0.381080  0.994480  1.0  -0.5274
  N  N830  1  0.555440  0.394040  0.914340  1.0  -0.4809
  N  N831  1  0.546600  0.286020  0.951980  1.0  -0.4747
  N  N832  1  0.547930  0.319870  0.030770  1.0  -0.4752
  N  N833  1  0.211300  0.105100  0.321620  1.0  -0.253
  N  N834  1  0.233000  0.795600  0.431400  1.0  -0.2681
  N  N835  1  0.191190  0.896230  0.278330  1.0  -0.412
  N  N836  1  0.096170  0.055750  0.199310  1.0  -0.2912
  N  N837  1  0.172600  0.994480  0.381080  1.0  -0.5275
  N  N838  1  0.136180  0.914340  0.394040  1.0  -0.4821
  N  N839  1  0.215400  0.951980  0.286020  1.0  -0.4732
  N  N840  1  0.101430  0.030770  0.319870  1.0  -0.4772
  N  N841  1  0.105100  0.211300  0.361980  1.0  -0.2507
  N  N842  1  0.795600  0.233000  0.540000  1.0  -0.2677
  N  N843  1  0.896230  0.191190  0.634250  1.0  -0.4088
  N  N844  1  0.055750  0.096170  0.648770  1.0  -0.2887
  N  N845  1  0.994480  0.172600  0.451840  1.0  -0.526
  N  N846  1  0.914340  0.136180  0.555440  1.0  -0.4818
  N  N847  1  0.951980  0.215400  0.546600  1.0  -0.4744
  N  N848  1  0.030770  0.101430  0.547930  1.0  -0.4771
  N  N849  1  0.321620  0.211300  0.105100  1.0  -0.2529
  N  N850  1  0.431400  0.233000  0.795600  1.0  -0.2668
  N  N851  1  0.278330  0.191190  0.896230  1.0  -0.4074
  N  N852  1  0.199310  0.096170  0.055750  1.0  -0.2855
  N  N853  1  0.381080  0.172600  0.994480  1.0  -0.5275
  N  N854  1  0.394040  0.136180  0.914340  1.0  -0.4797
  N  N855  1  0.286020  0.215400  0.951980  1.0  -0.4742
  N  N856  1  0.319870  0.101430  0.030770  1.0  -0.4757
  N  N857  1  0.361980  0.105100  0.211300  1.0  -0.2537
  N  N858  1  0.540000  0.795600  0.233000  1.0  -0.28
  N  N859  1  0.634250  0.896230  0.191190  1.0  -0.4092
  N  N860  1  0.648770  0.055750  0.096170  1.0  -0.2875
  N  N861  1  0.451840  0.994480  0.172600  1.0  -0.528
  N  N862  1  0.555440  0.914340  0.136180  1.0  -0.4814
  N  N863  1  0.546600  0.951980  0.215400  1.0  -0.4741
  N  N864  1  0.547930  0.030770  0.101430  1.0  -0.4759
  N  N865  1  0.211300  0.321620  0.361980  1.0  -0.2561
  N  N866  1  0.233000  0.431400  0.540000  1.0  -0.2693
  N  N867  1  0.191190  0.278330  0.634250  1.0  -0.4091
  N  N868  1  0.096170  0.199310  0.648770  1.0  -0.2935
  N  N869  1  0.172600  0.381080  0.451840  1.0  -0.5266
  N  N870  1  0.136180  0.394040  0.555440  1.0  -0.4806
  N  N871  1  0.215400  0.286020  0.546600  1.0  -0.4753
  N  N872  1  0.101430  0.319870  0.547930  1.0  -0.4773
  N  N873  1  0.105100  0.361980  0.321620  1.0  -0.2548
  N  N874  1  0.795600  0.540000  0.431400  1.0  -0.2693
  N  N875  1  0.896230  0.634250  0.278330  1.0  -0.4084
  N  N876  1  0.055750  0.648770  0.199310  1.0  -0.2911
  N  N877  1  0.994480  0.451840  0.381080  1.0  -0.5282
  N  N878  1  0.914340  0.555440  0.394040  1.0  -0.4792
  N  N879  1  0.951980  0.546600  0.286020  1.0  -0.4747
  N  N880  1  0.030770  0.547930  0.319870  1.0  -0.4765
  N  N881  1  0.321620  0.105100  0.361980  1.0  -0.2521
  N  N882  1  0.431400  0.795600  0.540000  1.0  -0.2719
  N  N883  1  0.278330  0.896230  0.634250  1.0  -0.4121
  N  N884  1  0.199310  0.055750  0.648770  1.0  -0.2863
  N  N885  1  0.381080  0.994480  0.451840  1.0  -0.5274
  N  N886  1  0.394040  0.914340  0.555440  1.0  -0.481
  N  N887  1  0.286020  0.951980  0.546600  1.0  -0.4761
  N  N888  1  0.319870  0.030770  0.547930  1.0  -0.4762
  N  N889  1  0.361980  0.211300  0.321620  1.0  -0.2533
  N  N890  1  0.540000  0.233000  0.431400  1.0  -0.2666
  N  N891  1  0.634250  0.191190  0.278330  1.0  -0.4087
  N  N892  1  0.648770  0.096170  0.199310  1.0  -0.2872
  N  N893  1  0.451840  0.172600  0.381080  1.0  -0.5266
  N  N894  1  0.555440  0.136180  0.394040  1.0  -0.4802
  N  N895  1  0.546600  0.215400  0.286020  1.0  -0.4752
  N  N896  1  0.547930  0.101430  0.319870  1.0  -0.4764
  N  N897  1  0.211300  0.361980  0.105100  1.0  -0.2529
  N  N898  1  0.233000  0.540000  0.795600  1.0  -0.2677
  N  N899  1  0.191190  0.634250  0.896230  1.0  -0.4108
  N  N900  1  0.096170  0.648770  0.055750  1.0  -0.2873
  N  N901  1  0.172600  0.451840  0.994480  1.0  -0.5254
  N  N902  1  0.136180  0.555440  0.914340  1.0  -0.4791
  N  N903  1  0.215400  0.546600  0.951980  1.0  -0.4747
  N  N904  1  0.101430  0.547930  0.030770  1.0  -0.4759
  N  N905  1  0.105100  0.321620  0.211300  1.0  -0.2521
  N  N906  1  0.795600  0.431400  0.233000  1.0  -0.2683
  N  N907  1  0.896230  0.278330  0.191190  1.0  -0.4108
  N  N908  1  0.055750  0.199310  0.096170  1.0  -0.2874
  N  N909  1  0.994480  0.381080  0.172600  1.0  -0.5272
  N  N910  1  0.914340  0.394040  0.136180  1.0  -0.4795
  N  N911  1  0.951980  0.286020  0.215400  1.0  -0.4736
  N  N912  1  0.030770  0.319870  0.101430  1.0  -0.4769
  N  N913  1  0.638020  0.678380  0.788700  1.0  -0.2526
  N  N914  1  0.460000  0.568600  0.767000  1.0  -0.2696
  N  N915  1  0.365750  0.721670  0.808810  1.0  -0.4084
  N  N916  1  0.351230  0.800690  0.903830  1.0  -0.285
  N  N917  1  0.548160  0.618920  0.827400  1.0  -0.5265
  N  N918  1  0.444560  0.605960  0.863820  1.0  -0.481
  N  N919  1  0.453400  0.713980  0.784600  1.0  -0.4766
  N  N920  1  0.452070  0.680130  0.898570  1.0  -0.4755
  N  N921  1  0.678380  0.638020  0.894900  1.0  -0.2489
  N  N922  1  0.568600  0.460000  0.204400  1.0  -0.2705
  N  N923  1  0.721670  0.365750  0.103770  1.0  -0.4122
  N  N924  1  0.800690  0.351230  0.944250  1.0  -0.2863
  N  N925  1  0.618920  0.548160  0.005520  1.0  -0.5253
  N  N926  1  0.605960  0.444560  0.085660  1.0  -0.4812
  N  N927  1  0.713980  0.453400  0.048020  1.0  -0.4752
  N  N928  1  0.680130  0.452070  0.969230  1.0  -0.4736
  N  N929  1  0.894900  0.788700  0.678380  1.0  -0.2503
  N  N930  1  0.204400  0.767000  0.568600  1.0  -0.2707
  N  N931  1  0.103770  0.808810  0.721670  1.0  -0.41
  N  N932  1  0.944250  0.903830  0.800690  1.0  -0.2877
  N  N933  1  0.005520  0.827400  0.618920  1.0  -0.5252
  N  N934  1  0.085660  0.863820  0.605960  1.0  -0.4827
  N  N935  1  0.048020  0.784600  0.713980  1.0  -0.4733
  N  N936  1  0.969230  0.898570  0.680130  1.0  -0.4767
  N  N937  1  0.788700  0.894900  0.638020  1.0  -0.2539
  N  N938  1  0.767000  0.204400  0.460000  1.0  -0.2642
  N  N939  1  0.808810  0.103770  0.365750  1.0  -0.4146
  N  N940  1  0.903830  0.944250  0.351230  1.0  -0.2907
  N  N941  1  0.827400  0.005520  0.548160  1.0  -0.5278
  N  N942  1  0.863820  0.085660  0.444560  1.0  -0.4821
  N  N943  1  0.784600  0.048020  0.453400  1.0  -0.4725
  N  N944  1  0.898570  0.969230  0.452070  1.0  -0.477
  N  N945  1  0.788700  0.678380  0.894900  1.0  -0.2551
  N  N946  1  0.767000  0.568600  0.204400  1.0  -0.2654
  N  N947  1  0.808810  0.721670  0.103770  1.0  -0.4077
  N  N948  1  0.903830  0.800690  0.944250  1.0  -0.2884
  N  N949  1  0.827400  0.618920  0.005520  1.0  -0.5257
  N  N950  1  0.863820  0.605960  0.085660  1.0  -0.4801
  N  N951  1  0.784600  0.713980  0.048020  1.0  -0.4761
  N  N952  1  0.898570  0.680130  0.969230  1.0  -0.4764
  N  N953  1  0.894900  0.638020  0.788700  1.0  -0.2525
  N  N954  1  0.204400  0.460000  0.767000  1.0  -0.2687
  N  N955  1  0.103770  0.365750  0.808810  1.0  -0.409
  N  N956  1  0.944250  0.351230  0.903830  1.0  -0.2884
  N  N957  1  0.005520  0.548160  0.827400  1.0  -0.528
  N  N958  1  0.085660  0.444560  0.863820  1.0  -0.4811
  N  N959  1  0.048020  0.453400  0.784600  1.0  -0.4756
  N  N960  1  0.969230  0.452070  0.898570  1.0  -0.4772
  N  N961  1  0.678380  0.788700  0.638020  1.0  -0.2532
  N  N962  1  0.568600  0.767000  0.460000  1.0  -0.2725
  N  N963  1  0.721670  0.808810  0.365750  1.0  -0.4076
  N  N964  1  0.800690  0.903830  0.351230  1.0  -0.2885
  N  N965  1  0.618920  0.827400  0.548160  1.0  -0.5274
  N  N966  1  0.605960  0.863820  0.444560  1.0  -0.4782
  N  N967  1  0.713980  0.784600  0.453400  1.0  -0.4743
  N  N968  1  0.680130  0.898570  0.452070  1.0  -0.4758
  N  N969  1  0.638020  0.894900  0.678380  1.0  -0.2557
  N  N970  1  0.460000  0.204400  0.568600  1.0  -0.2708
  N  N971  1  0.365750  0.103770  0.721670  1.0  -0.4085
  N  N972  1  0.351230  0.944250  0.800690  1.0  -0.2864
  N  N973  1  0.548160  0.005520  0.618920  1.0  -0.5265
  N  N974  1  0.444560  0.085660  0.605960  1.0  -0.4808
  N  N975  1  0.453400  0.048020  0.713980  1.0  -0.474
  N  N976  1  0.452070  0.969230  0.680130  1.0  -0.4757
  N  N977  1  0.894900  0.678380  0.638020  1.0  -0.2512
  N  N978  1  0.204400  0.568600  0.460000  1.0  -0.2697
  N  N979  1  0.103770  0.721670  0.365750  1.0  -0.4105
  N  N980  1  0.944250  0.800690  0.351230  1.0  -0.2892
  N  N981  1  0.005520  0.618920  0.548160  1.0  -0.5243
  N  N982  1  0.085660  0.605960  0.444560  1.0  -0.4807
  N  N983  1  0.048020  0.713980  0.453400  1.0  -0.4751
  N  N984  1  0.969230  0.680130  0.452070  1.0  -0.4763
  N  N985  1  0.788700  0.638020  0.678380  1.0  -0.2543
  N  N986  1  0.767000  0.460000  0.568600  1.0  -0.2643
  N  N987  1  0.808810  0.365750  0.721670  1.0  -0.4145
  N  N988  1  0.903830  0.351230  0.800690  1.0  -0.2862
  N  N989  1  0.827400  0.548160  0.618920  1.0  -0.5262
  N  N990  1  0.863820  0.444560  0.605960  1.0  -0.4799
  N  N991  1  0.784600  0.453400  0.713980  1.0  -0.4739
  N  N992  1  0.898570  0.452070  0.680130  1.0  -0.4762
  N  N993  1  0.638020  0.788700  0.894900  1.0  -0.2545
  N  N994  1  0.460000  0.767000  0.204400  1.0  -0.272
  N  N995  1  0.365750  0.808810  0.103770  1.0  -0.4089
  N  N996  1  0.351230  0.903830  0.944250  1.0  -0.2836
  N  N997  1  0.548160  0.827400  0.005520  1.0  -0.5258
  N  N998  1  0.444560  0.863820  0.085660  1.0  -0.4802
  N  N999  1  0.453400  0.784600  0.048020  1.0  -0.4741
  N  N1000  1  0.452070  0.898570  0.969230  1.0  -0.4757
  N  N1001  1  0.678380  0.894900  0.788700  1.0  -0.2542
  N  N1002  1  0.568600  0.204400  0.767000  1.0  -0.2756
  N  N1003  1  0.721670  0.103770  0.808810  1.0  -0.4086
  N  N1004  1  0.800690  0.944250  0.903830  1.0  -0.2874
  N  N1005  1  0.618920  0.005520  0.827400  1.0  -0.526
  N  N1006  1  0.605960  0.085660  0.863820  1.0  -0.4803
  N  N1007  1  0.713980  0.048020  0.784600  1.0  -0.4762
  N  N1008  1  0.680130  0.969230  0.898570  1.0  -0.4759
  N  N1009  1  0.678380  0.638020  0.788700  1.0  -0.2498
  N  N1010  1  0.568600  0.460000  0.767000  1.0  -0.2715
  N  N1011  1  0.721670  0.365750  0.808810  1.0  -0.412
  N  N1012  1  0.800690  0.351230  0.903830  1.0  -0.2861
  N  N1013  1  0.618920  0.548160  0.827400  1.0  -0.5256
  N  N1014  1  0.605960  0.444560  0.863820  1.0  -0.4812
  N  N1015  1  0.713980  0.453400  0.784600  1.0  -0.4758
  N  N1016  1  0.680130  0.452070  0.898570  1.0  -0.4749
  N  N1017  1  0.638020  0.678380  0.894900  1.0  -0.2518
  N  N1018  1  0.460000  0.568600  0.204400  1.0  -0.2695
  N  N1019  1  0.365750  0.721670  0.103770  1.0  -0.4086
  N  N1020  1  0.351230  0.800690  0.944250  1.0  -0.2835
  N  N1021  1  0.548160  0.618920  0.005520  1.0  -0.5261
  N  N1022  1  0.444560  0.605960  0.085660  1.0  -0.481
  N  N1023  1  0.453400  0.713980  0.048020  1.0  -0.4758
  N  N1024  1  0.452070  0.680130  0.969230  1.0  -0.474
  N  N1025  1  0.788700  0.894900  0.678380  1.0  -0.2533
  N  N1026  1  0.767000  0.204400  0.568600  1.0  -0.2644
  N  N1027  1  0.808810  0.103770  0.721670  1.0  -0.4146
  N  N1028  1  0.903830  0.944250  0.800690  1.0  -0.2874
  N  N1029  1  0.827400  0.005520  0.618920  1.0  -0.526
  N  N1030  1  0.863820  0.085660  0.605960  1.0  -0.4817
  N  N1031  1  0.784600  0.048020  0.713980  1.0  -0.4734
  N  N1032  1  0.898570  0.969230  0.680130  1.0  -0.4769
  N  N1033  1  0.894900  0.788700  0.638020  1.0  -0.2514
  N  N1034  1  0.204400  0.767000  0.460000  1.0  -0.2718
  N  N1035  1  0.103770  0.808810  0.365750  1.0  -0.4103
  N  N1036  1  0.944250  0.903830  0.351230  1.0  -0.2914
  N  N1037  1  0.005520  0.827400  0.548160  1.0  -0.5272
  N  N1038  1  0.085660  0.863820  0.444560  1.0  -0.4829
  N  N1039  1  0.048020  0.784600  0.453400  1.0  -0.4728
  N  N1040  1  0.969230  0.898570  0.452070  1.0  -0.477
  N  N1041  1  0.678380  0.788700  0.894900  1.0  -0.2541
  N  N1042  1  0.568600  0.767000  0.204400  1.0  -0.2766
  N  N1043  1  0.721670  0.808810  0.103770  1.0  -0.4068
  N  N1044  1  0.800690  0.903830  0.944250  1.0  -0.2873
  N  N1045  1  0.618920  0.827400  0.005520  1.0  -0.5267
  N  N1046  1  0.605960  0.863820  0.085660  1.0  -0.4788
  N  N1047  1  0.713980  0.784600  0.048020  1.0  -0.4749
  N  N1048  1  0.680130  0.898570  0.969230  1.0  -0.4754
  N  N1049  1  0.638020  0.894900  0.788700  1.0  -0.2559
  N  N1050  1  0.460000  0.204400  0.767000  1.0  -0.2775
  N  N1051  1  0.365750  0.103770  0.808810  1.0  -0.4085
  N  N1052  1  0.351230  0.944250  0.903830  1.0  -0.2852
  N  N1053  1  0.548160  0.005520  0.827400  1.0  -0.5279
  N  N1054  1  0.444560  0.085660  0.863820  1.0  -0.4808
  N  N1055  1  0.453400  0.048020  0.784600  1.0  -0.4746
  N  N1056  1  0.452070  0.969230  0.898570  1.0  -0.4755
  N  N1057  1  0.788700  0.678380  0.638020  1.0  -0.2552
  N  N1058  1  0.767000  0.568600  0.460000  1.0  -0.2645
  N  N1059  1  0.808810  0.721670  0.365750  1.0  -0.4091
  N  N1060  1  0.903830  0.800690  0.351230  1.0  -0.2907
  N  N1061  1  0.827400  0.618920  0.548160  1.0  -0.5258
  N  N1062  1  0.863820  0.605960  0.444560  1.0  -0.4798
  N  N1063  1  0.784600  0.713980  0.453400  1.0  -0.4754
  N  N1064  1  0.898570  0.680130  0.452070  1.0  -0.4767
  N  N1065  1  0.894900  0.638020  0.678380  1.0  -0.2523
  N  N1066  1  0.204400  0.460000  0.568600  1.0  -0.2699
  N  N1067  1  0.103770  0.365750  0.721670  1.0  -0.4108
  N  N1068  1  0.944250  0.351230  0.800690  1.0  -0.2917
  N  N1069  1  0.005520  0.548160  0.618920  1.0  -0.527
  N  N1070  1  0.085660  0.444560  0.605960  1.0  -0.4811
  N  N1071  1  0.048020  0.453400  0.713980  1.0  -0.4745
  N  N1072  1  0.969230  0.452070  0.680130  1.0  -0.4774
  N  N1073  1  0.678380  0.894900  0.638020  1.0  -0.2533
  N  N1074  1  0.568600  0.204400  0.460000  1.0  -0.2696
  N  N1075  1  0.721670  0.103770  0.365750  1.0  -0.41
  N  N1076  1  0.800690  0.944250  0.351230  1.0  -0.2879
  N  N1077  1  0.618920  0.005520  0.548160  1.0  -0.5273
  N  N1078  1  0.605960  0.085660  0.444560  1.0  -0.48
  N  N1079  1  0.713980  0.048020  0.453400  1.0  -0.4754
  N  N1080  1  0.680130  0.969230  0.452070  1.0  -0.4761
  N  N1081  1  0.638020  0.788700  0.678380  1.0  -0.2526
  N  N1082  1  0.460000  0.767000  0.568600  1.0  -0.272
  N  N1083  1  0.365750  0.808810  0.721670  1.0  -0.4092
  N  N1084  1  0.351230  0.903830  0.800690  1.0  -0.2836
  N  N1085  1  0.548160  0.827400  0.618920  1.0  -0.5256
  N  N1086  1  0.444560  0.863820  0.605960  1.0  -0.4787
  N  N1087  1  0.453400  0.784600  0.713980  1.0  -0.4738
  N  N1088  1  0.452070  0.898570  0.680130  1.0  -0.4758
  N  N1089  1  0.788700  0.638020  0.894900  1.0  -0.2548
  N  N1090  1  0.767000  0.460000  0.204400  1.0  -0.2635
  N  N1091  1  0.808810  0.365750  0.103770  1.0  -0.4134
  N  N1092  1  0.903830  0.351230  0.944250  1.0  -0.2858
  N  N1093  1  0.827400  0.548160  0.005520  1.0  -0.5263
  N  N1094  1  0.863820  0.444560  0.085660  1.0  -0.4808
  N  N1095  1  0.784600  0.453400  0.048020  1.0  -0.4746
  N  N1096  1  0.898570  0.452070  0.969230  1.0  -0.4765
  N  N1097  1  0.894900  0.678380  0.788700  1.0  -0.2511
  N  N1098  1  0.204400  0.568600  0.767000  1.0  -0.2684
  N  N1099  1  0.103770  0.721670  0.808810  1.0  -0.4084
  N  N1100  1  0.944250  0.800690  0.903830  1.0  -0.2871
  N  N1101  1  0.005520  0.618920  0.827400  1.0  -0.5237
  N  N1102  1  0.085660  0.605960  0.863820  1.0  -0.4805
  N  N1103  1  0.048020  0.713980  0.784600  1.0  -0.4759
  N  N1104  1  0.969230  0.680130  0.898570  1.0  -0.4762
  N  N1105  1  0.361980  0.321620  0.211300  1.0  -0.2521
  N  N1106  1  0.540000  0.431400  0.233000  1.0  -0.2696
  N  N1107  1  0.634250  0.278330  0.191190  1.0  -0.4091
  N  N1108  1  0.648770  0.199310  0.096170  1.0  -0.2866
  N  N1109  1  0.451840  0.381080  0.172600  1.0  -0.527
  N  N1110  1  0.555440  0.394040  0.136180  1.0  -0.4817
  N  N1111  1  0.546600  0.286020  0.215400  1.0  -0.4747
  N  N1112  1  0.547930  0.319870  0.101430  1.0  -0.4738
  N  N1113  1  0.321620  0.361980  0.105100  1.0  -0.25
  N  N1114  1  0.431400  0.540000  0.795600  1.0  -0.2712
  N  N1115  1  0.278330  0.634250  0.896230  1.0  -0.4149
  N  N1116  1  0.199310  0.648770  0.055750  1.0  -0.2852
  N  N1117  1  0.381080  0.451840  0.994480  1.0  -0.5268
  N  N1118  1  0.394040  0.555440  0.914340  1.0  -0.4809
  N  N1119  1  0.286020  0.546600  0.951980  1.0  -0.4749
  N  N1120  1  0.319870  0.547930  0.030770  1.0  -0.4746
  N  N1121  1  0.105100  0.211300  0.321620  1.0  -0.2505
  N  N1122  1  0.795600  0.233000  0.431400  1.0  -0.2678
  N  N1123  1  0.896230  0.191190  0.278330  1.0  -0.4092
  N  N1124  1  0.055750  0.096170  0.199310  1.0  -0.2893
  N  N1125  1  0.994480  0.172600  0.381080  1.0  -0.5275
  N  N1126  1  0.914340  0.136180  0.394040  1.0  -0.4822
  N  N1127  1  0.951980  0.215400  0.286020  1.0  -0.4733
  N  N1128  1  0.030770  0.101430  0.319870  1.0  -0.4771
  N  N1129  1  0.211300  0.105100  0.361980  1.0  -0.2526
  N  N1130  1  0.233000  0.795600  0.540000  1.0  -0.2672
  N  N1131  1  0.191190  0.896230  0.634250  1.0  -0.4116
  N  N1132  1  0.096170  0.055750  0.648770  1.0  -0.2901
  N  N1133  1  0.172600  0.994480  0.451840  1.0  -0.5257
  N  N1134  1  0.136180  0.914340  0.555440  1.0  -0.4821
  N  N1135  1  0.215400  0.951980  0.546600  1.0  -0.4737
  N  N1136  1  0.101430  0.030770  0.547930  1.0  -0.4771
  N  N1137  1  0.211300  0.321620  0.105100  1.0  -0.2557
  N  N1138  1  0.233000  0.431400  0.795600  1.0  -0.2675
  N  N1139  1  0.191190  0.278330  0.896230  1.0  -0.4103
  N  N1140  1  0.096170  0.199310  0.055750  1.0  -0.2905
  N  N1141  1  0.172600  0.381080  0.994480  1.0  -0.5273
  N  N1142  1  0.136180  0.394040  0.914340  1.0  -0.4802
  N  N1143  1  0.215400  0.286020  0.951980  1.0  -0.475
  N  N1144  1  0.101430  0.319870  0.030770  1.0  -0.4773
  N  N1145  1  0.105100  0.361980  0.211300  1.0  -0.2533
  N  N1146  1  0.795600  0.540000  0.233000  1.0  -0.2699
  N  N1147  1  0.896230  0.634250  0.191190  1.0  -0.4082
  N  N1148  1  0.055750  0.648770  0.096170  1.0  -0.2897
  N  N1149  1  0.994480  0.451840  0.172600  1.0  -0.527
  N  N1150  1  0.914340  0.555440  0.136180  1.0  -0.4792
  N  N1151  1  0.951980  0.546600  0.215400  1.0  -0.4749
  N  N1152  1  0.030770  0.547930  0.101430  1.0  -0.4769
  N  N1153  1  0.321620  0.211300  0.361980  1.0  -0.2531
  N  N1154  1  0.431400  0.233000  0.540000  1.0  -0.2684
  N  N1155  1  0.278330  0.191190  0.634250  1.0  -0.406
  N  N1156  1  0.199310  0.096170  0.648770  1.0  -0.2874
  N  N1157  1  0.381080  0.172600  0.451840  1.0  -0.527
  N  N1158  1  0.394040  0.136180  0.555440  1.0  -0.48
  N  N1159  1  0.286020  0.215400  0.546600  1.0  -0.4743
  N  N1160  1  0.319870  0.101430  0.547930  1.0  -0.4758
  N  N1161  1  0.361980  0.105100  0.321620  1.0  -0.2548
  N  N1162  1  0.540000  0.795600  0.431400  1.0  -0.2699
  N  N1163  1  0.634250  0.896230  0.278330  1.0  -0.4076
  N  N1164  1  0.648770  0.055750  0.199310  1.0  -0.2865
  N  N1165  1  0.451840  0.994480  0.381080  1.0  -0.529
  N  N1166  1  0.555440  0.914340  0.394040  1.0  -0.4815
  N  N1167  1  0.546600  0.951980  0.286020  1.0  -0.4744
  N  N1168  1  0.547930  0.030770  0.319870  1.0  -0.4757
  N  N1169  1  0.105100  0.321620  0.361980  1.0  -0.2529
  N  N1170  1  0.795600  0.431400  0.540000  1.0  -0.2686
  N  N1171  1  0.896230  0.278330  0.634250  1.0  -0.4086
  N  N1172  1  0.055750  0.199310  0.648770  1.0  -0.29
  N  N1173  1  0.994480  0.381080  0.451840  1.0  -0.5268
  N  N1174  1  0.914340  0.394040  0.555440  1.0  -0.4796
  N  N1175  1  0.951980  0.286020  0.546600  1.0  -0.4743
  N  N1176  1  0.030770  0.319870  0.547930  1.0  -0.4766
  N  N1177  1  0.211300  0.361980  0.321620  1.0  -0.2546
  N  N1178  1  0.233000  0.540000  0.431400  1.0  -0.2669
  N  N1179  1  0.191190  0.634250  0.278330  1.0  -0.4113
  N  N1180  1  0.096170  0.648770  0.199310  1.0  -0.2866
  N  N1181  1  0.172600  0.451840  0.381080  1.0  -0.5253
  N  N1182  1  0.136180  0.555440  0.394040  1.0  -0.4807
  N  N1183  1  0.215400  0.546600  0.286020  1.0  -0.4744
  N  N1184  1  0.101430  0.547930  0.319870  1.0  -0.4762
  N  N1185  1  0.361980  0.211300  0.105100  1.0  -0.2531
  N  N1186  1  0.540000  0.233000  0.795600  1.0  -0.2667
  N  N1187  1  0.634250  0.191190  0.896230  1.0  -0.4094
  N  N1188  1  0.648770  0.096170  0.055750  1.0  -0.2875
  N  N1189  1  0.451840  0.172600  0.994480  1.0  -0.5266
  N  N1190  1  0.555440  0.136180  0.914340  1.0  -0.4791
  N  N1191  1  0.546600  0.215400  0.951980  1.0  -0.475
  N  N1192  1  0.547930  0.101430  0.030770  1.0  -0.4761
  N  N1193  1  0.321620  0.105100  0.211300  1.0  -0.251
  N  N1194  1  0.431400  0.795600  0.233000  1.0  -0.28
  N  N1195  1  0.278330  0.896230  0.191190  1.0  -0.4142
  N  N1196  1  0.199310  0.055750  0.096170  1.0  -0.2851
  N  N1197  1  0.381080  0.994480  0.172600  1.0  -0.5283
  N  N1198  1  0.394040  0.914340  0.136180  1.0  -0.481
  N  N1199  1  0.286020  0.951980  0.215400  1.0  -0.4755
  N  N1200  1  0.319870  0.030770  0.101430  1.0  -0.476
