# generated using pymatgen
data_CuH28(C13N2)2
_symmetry_space_group_name_H-M   'P 1'
_cell_length_a   17.22100000
_cell_length_b   17.22100000
_cell_length_c   40.96490000
_cell_angle_alpha   90.00000000
_cell_angle_beta   90.00000000
_cell_angle_gamma   90.00000000
_symmetry_Int_Tables_number   1
_chemical_formula_structural   CuH28(C13N2)2
_chemical_formula_sum   'Cu16 H448 C416 N64'
_cell_volume   12148.66712528
_cell_formula_units_Z   16
loop_
 _symmetry_equiv_pos_site_id
 _symmetry_equiv_pos_as_xyz
  1  'x, y, z'
loop_
 _atom_site_type_symbol
 _atom_site_label
 _atom_site_symmetry_multiplicity
 _atom_site_fract_x
 _atom_site_fract_y
 _atom_site_fract_z
 _atom_site_occupancy
 _atom_site_charge
  Cu  Cu1  1  0.000000  0.750000  0.164120  1.0  0.3912
  Cu  Cu2  1  0.500000  0.250000  0.664120  1.0  0.3912
  Cu  Cu3  1  0.000000  0.250000  0.414120  1.0  0.3912
  Cu  Cu4  1  0.500000  0.750000  0.914120  1.0  0.3912
  Cu  Cu5  1  0.000000  0.250000  0.221140  1.0  0.3673
  Cu  Cu6  1  0.500000  0.750000  0.721140  1.0  0.3673
  Cu  Cu7  1  0.500000  0.250000  0.471140  1.0  0.3673
  Cu  Cu8  1  0.000000  0.750000  0.971140  1.0  0.3673
  Cu  Cu9  1  0.000000  0.250000  0.835880  1.0  0.3909
  Cu  Cu10  1  0.500000  0.750000  0.335880  1.0  0.3909
  Cu  Cu11  1  0.000000  0.750000  0.585880  1.0  0.3909
  Cu  Cu12  1  0.500000  0.250000  0.085880  1.0  0.3909
  Cu  Cu13  1  0.000000  0.750000  0.778860  1.0  0.3677
  Cu  Cu14  1  0.500000  0.250000  0.278860  1.0  0.3677
  Cu  Cu15  1  0.500000  0.750000  0.528860  1.0  0.3677
  Cu  Cu16  1  0.000000  0.250000  0.028860  1.0  0.3677
  H  H17  1  0.835200  0.791600  0.147700  1.0  0.0675
  H  H18  1  0.765000  0.858500  0.110400  1.0  0.1159
  H  H19  1  0.962500  0.916900  0.065600  1.0  0.0788
  H  H20  1  0.029700  0.845700  0.103500  1.0  0.0724
  H  H21  1  0.780600  0.980600  0.068800  1.0  0.0714
  H  H22  1  0.843700  0.963600  0.042200  1.0  0.0822
  H  H23  1  0.714800  0.866600  0.053700  1.0  0.0648
  H  H24  1  0.777400  0.851100  0.026700  1.0  0.0623
  H  H25  1  0.671200  0.975900  0.026900  1.0  0.0731
  H  H26  1  0.739700  0.971400  0.001800  1.0  0.0776
  H  H27  1  0.664600  0.772700  0.932100  1.0  0.0646
  H  H28  1  0.741100  0.843000  0.967400  1.0  0.0928
  H  H29  1  0.548500  0.926600  0.008500  1.0  0.0986
  H  H30  1  0.476600  0.849300  0.973900  1.0  0.0663
  H  H31  1  0.335200  0.291600  0.647700  1.0  0.0675
  H  H32  1  0.265000  0.358500  0.610400  1.0  0.1159
  H  H33  1  0.462500  0.416900  0.565600  1.0  0.0788
  H  H34  1  0.529700  0.345700  0.603500  1.0  0.0724
  H  H35  1  0.280600  0.480600  0.568800  1.0  0.0714
  H  H36  1  0.343700  0.463600  0.542200  1.0  0.0822
  H  H37  1  0.214800  0.366600  0.553700  1.0  0.0648
  H  H38  1  0.277400  0.351100  0.526700  1.0  0.0623
  H  H39  1  0.171200  0.475900  0.526900  1.0  0.0731
  H  H40  1  0.239700  0.471400  0.501800  1.0  0.0776
  H  H41  1  0.164600  0.272700  0.432100  1.0  0.0646
  H  H42  1  0.241100  0.343000  0.467400  1.0  0.0928
  H  H43  1  0.048500  0.426600  0.508500  1.0  0.0986
  H  H44  1  0.976600  0.349300  0.473900  1.0  0.0663
  H  H45  1  0.664800  0.208400  0.647700  1.0  0.0672
  H  H46  1  0.735000  0.141500  0.610400  1.0  0.1151
  H  H47  1  0.537500  0.083100  0.565600  1.0  0.0782
  H  H48  1  0.470300  0.154300  0.603500  1.0  0.072
  H  H49  1  0.719400  0.019400  0.568800  1.0  0.0712
  H  H50  1  0.656300  0.036400  0.542200  1.0  0.0839
  H  H51  1  0.785200  0.133400  0.553700  1.0  0.0642
  H  H52  1  0.722600  0.148900  0.526700  1.0  0.063
  H  H53  1  0.828800  0.024100  0.526900  1.0  0.0745
  H  H54  1  0.760300  0.028600  0.501800  1.0  0.0773
  H  H55  1  0.835400  0.227300  0.432100  1.0  0.0647
  H  H56  1  0.758900  0.157000  0.467400  1.0  0.0942
  H  H57  1  0.951500  0.073400  0.508500  1.0  0.0986
  H  H58  1  0.023400  0.150700  0.473900  1.0  0.0654
  H  H59  1  0.164800  0.708400  0.147700  1.0  0.0672
  H  H60  1  0.235000  0.641500  0.110400  1.0  0.1151
  H  H61  1  0.037500  0.583100  0.065600  1.0  0.0782
  H  H62  1  0.970300  0.654300  0.103500  1.0  0.072
  H  H63  1  0.219400  0.519400  0.068800  1.0  0.0712
  H  H64  1  0.156300  0.536400  0.042200  1.0  0.0839
  H  H65  1  0.285200  0.633400  0.053700  1.0  0.0642
  H  H66  1  0.222600  0.648900  0.026700  1.0  0.063
  H  H67  1  0.328800  0.524100  0.026900  1.0  0.0745
  H  H68  1  0.260300  0.528600  0.001800  1.0  0.0773
  H  H69  1  0.335400  0.727300  0.932100  1.0  0.0647
  H  H70  1  0.258900  0.657000  0.967400  1.0  0.0942
  H  H71  1  0.451500  0.573400  0.008500  1.0  0.0986
  H  H72  1  0.523400  0.650700  0.973900  1.0  0.0654
  H  H73  1  0.958400  0.085200  0.397700  1.0  0.0656
  H  H74  1  0.891500  0.015000  0.360400  1.0  0.1137
  H  H75  1  0.833100  0.212500  0.315600  1.0  0.0786
  H  H76  1  0.904300  0.279700  0.353500  1.0  0.0697
  H  H77  1  0.769400  0.030600  0.318800  1.0  0.0705
  H  H78  1  0.786400  0.093700  0.292200  1.0  0.0808
  H  H79  1  0.883400  0.964800  0.303700  1.0  0.0638
  H  H80  1  0.898900  0.027400  0.276700  1.0  0.0611
  H  H81  1  0.774100  0.921200  0.276900  1.0  0.0741
  H  H82  1  0.778600  0.989700  0.251800  1.0  0.0775
  H  H83  1  0.977300  0.914600  0.182100  1.0  0.0638
  H  H84  1  0.907000  0.991100  0.217400  1.0  0.0927
  H  H85  1  0.823400  0.798500  0.258500  1.0  0.0992
  H  H86  1  0.900700  0.726600  0.223900  1.0  0.0657
  H  H87  1  0.458400  0.585200  0.897700  1.0  0.0656
  H  H88  1  0.391500  0.515000  0.860400  1.0  0.1137
  H  H89  1  0.333100  0.712500  0.815600  1.0  0.0786
  H  H90  1  0.404300  0.779700  0.853500  1.0  0.0697
  H  H91  1  0.269400  0.530600  0.818800  1.0  0.0705
  H  H92  1  0.286400  0.593700  0.792200  1.0  0.0808
  H  H93  1  0.383400  0.464800  0.803700  1.0  0.0638
  H  H94  1  0.398900  0.527400  0.776700  1.0  0.0611
  H  H95  1  0.274100  0.421200  0.776900  1.0  0.0741
  H  H96  1  0.278600  0.489700  0.751800  1.0  0.0775
  H  H97  1  0.477300  0.414600  0.682100  1.0  0.0638
  H  H98  1  0.407000  0.491100  0.717400  1.0  0.0927
  H  H99  1  0.323400  0.298500  0.758500  1.0  0.0992
  H  H100  1  0.400700  0.226600  0.723900  1.0  0.0657
  H  H101  1  0.541600  0.914800  0.897700  1.0  0.0658
  H  H102  1  0.608500  0.985000  0.860400  1.0  0.113
  H  H103  1  0.666900  0.787500  0.815600  1.0  0.0784
  H  H104  1  0.595700  0.720300  0.853500  1.0  0.0698
  H  H105  1  0.730600  0.969400  0.818800  1.0  0.0699
  H  H106  1  0.713600  0.906300  0.792200  1.0  0.0808
  H  H107  1  0.616600  0.035200  0.803700  1.0  0.0621
  H  H108  1  0.601100  0.972600  0.776700  1.0  0.0621
  H  H109  1  0.725900  0.078800  0.776900  1.0  0.0731
  H  H110  1  0.721400  0.010300  0.751800  1.0  0.0777
  H  H111  1  0.522700  0.085400  0.682100  1.0  0.0644
  H  H112  1  0.593000  0.008900  0.717400  1.0  0.0915
  H  H113  1  0.676600  0.201500  0.758500  1.0  0.0991
  H  H114  1  0.599300  0.273400  0.723900  1.0  0.0652
  H  H115  1  0.041600  0.414800  0.397700  1.0  0.0658
  H  H116  1  0.108500  0.485000  0.360400  1.0  0.113
  H  H117  1  0.166900  0.287500  0.315600  1.0  0.0784
  H  H118  1  0.095700  0.220300  0.353500  1.0  0.0698
  H  H119  1  0.230600  0.469400  0.318800  1.0  0.0699
  H  H120  1  0.213600  0.406300  0.292200  1.0  0.0808
  H  H121  1  0.116600  0.535200  0.303700  1.0  0.0621
  H  H122  1  0.101100  0.472600  0.276700  1.0  0.0621
  H  H123  1  0.225900  0.578800  0.276900  1.0  0.0731
  H  H124  1  0.221400  0.510300  0.251800  1.0  0.0777
  H  H125  1  0.022700  0.585400  0.182100  1.0  0.0644
  H  H126  1  0.093000  0.508900  0.217400  1.0  0.0915
  H  H127  1  0.176600  0.701500  0.258500  1.0  0.0991
  H  H128  1  0.099300  0.773400  0.223900  1.0  0.0652
  H  H129  1  0.834700  0.283600  0.237400  1.0  0.0529
  H  H130  1  0.760500  0.355000  0.272400  1.0  0.1055
  H  H131  1  0.954100  0.419000  0.318900  1.0  0.104
  H  H132  1  0.024200  0.347900  0.281600  1.0  0.0569
  H  H133  1  0.765100  0.477000  0.310500  1.0  0.0793
  H  H134  1  0.832300  0.475500  0.336300  1.0  0.0738
  H  H135  1  0.719800  0.355000  0.332300  1.0  0.0605
  H  H136  1  0.782500  0.362400  0.360000  1.0  0.0603
  H  H137  1  0.723400  0.481400  0.376200  1.0  0.0648
  H  H138  1  0.657800  0.466600  0.350500  1.0  0.0775
  H  H139  1  0.665400  0.287100  0.454200  1.0  0.0649
  H  H140  1  0.737400  0.357800  0.417600  1.0  0.0895
  H  H141  1  0.540200  0.416500  0.372200  1.0  0.0896
  H  H142  1  0.473300  0.346600  0.410800  1.0  0.0489
  H  H143  1  0.334700  0.783600  0.737400  1.0  0.0529
  H  H144  1  0.260500  0.855000  0.772400  1.0  0.1055
  H  H145  1  0.454100  0.919000  0.818900  1.0  0.104
  H  H146  1  0.524200  0.847900  0.781600  1.0  0.0569
  H  H147  1  0.265100  0.977000  0.810500  1.0  0.0793
  H  H148  1  0.332300  0.975500  0.836300  1.0  0.0738
  H  H149  1  0.219800  0.855000  0.832300  1.0  0.0605
  H  H150  1  0.282500  0.862400  0.860000  1.0  0.0603
  H  H151  1  0.223400  0.981400  0.876200  1.0  0.0648
  H  H152  1  0.157800  0.966600  0.850500  1.0  0.0775
  H  H153  1  0.165400  0.787100  0.954200  1.0  0.0649
  H  H154  1  0.237400  0.857800  0.917600  1.0  0.0895
  H  H155  1  0.040200  0.916500  0.872200  1.0  0.0896
  H  H156  1  0.973300  0.846600  0.910800  1.0  0.0489
  H  H157  1  0.665300  0.716400  0.737400  1.0  0.053
  H  H158  1  0.739500  0.645000  0.772400  1.0  0.1046
  H  H159  1  0.545900  0.581000  0.818900  1.0  0.1038
  H  H160  1  0.475800  0.652100  0.781600  1.0  0.0552
  H  H161  1  0.734900  0.523000  0.810500  1.0  0.0781
  H  H162  1  0.667700  0.524500  0.836300  1.0  0.0741
  H  H163  1  0.780200  0.645000  0.832300  1.0  0.0602
  H  H164  1  0.717500  0.637600  0.860000  1.0  0.0604
  H  H165  1  0.776600  0.518600  0.876200  1.0  0.0654
  H  H166  1  0.842200  0.533400  0.850500  1.0  0.0768
  H  H167  1  0.834600  0.712900  0.954200  1.0  0.0648
  H  H168  1  0.762600  0.642200  0.917600  1.0  0.0895
  H  H169  1  0.959800  0.583500  0.872200  1.0  0.0893
  H  H170  1  0.026700  0.653400  0.910800  1.0  0.0499
  H  H171  1  0.165300  0.216400  0.237400  1.0  0.053
  H  H172  1  0.239500  0.145000  0.272400  1.0  0.1046
  H  H173  1  0.045900  0.081000  0.318900  1.0  0.1038
  H  H174  1  0.975800  0.152100  0.281600  1.0  0.0552
  H  H175  1  0.234900  0.023000  0.310500  1.0  0.0781
  H  H176  1  0.167700  0.024500  0.336300  1.0  0.0741
  H  H177  1  0.280200  0.145000  0.332300  1.0  0.0602
  H  H178  1  0.217500  0.137600  0.360000  1.0  0.0604
  H  H179  1  0.276600  0.018600  0.376200  1.0  0.0654
  H  H180  1  0.342200  0.033400  0.350500  1.0  0.0768
  H  H181  1  0.334600  0.212900  0.454200  1.0  0.0648
  H  H182  1  0.262600  0.142200  0.417600  1.0  0.0895
  H  H183  1  0.459800  0.083500  0.372200  1.0  0.0893
  H  H184  1  0.526700  0.153400  0.410800  1.0  0.0499
  H  H185  1  0.466400  0.084700  0.487400  1.0  0.0529
  H  H186  1  0.395000  0.010500  0.522400  1.0  0.1023
  H  H187  1  0.331000  0.204100  0.568900  1.0  0.104
  H  H188  1  0.402100  0.274200  0.531600  1.0  0.054
  H  H189  1  0.273000  0.015100  0.560500  1.0  0.0793
  H  H190  1  0.274500  0.082300  0.586300  1.0  0.0737
  H  H191  1  0.395000  0.969800  0.582300  1.0  0.0596
  H  H192  1  0.387600  0.032500  0.610000  1.0  0.0609
  H  H193  1  0.268600  0.973400  0.626200  1.0  0.0644
  H  H194  1  0.283400  0.907800  0.600500  1.0  0.0758
  H  H195  1  0.462900  0.915400  0.704200  1.0  0.0646
  H  H196  1  0.392200  0.987400  0.667600  1.0  0.0894
  H  H197  1  0.333500  0.790200  0.622200  1.0  0.0889
  H  H198  1  0.403400  0.723300  0.660800  1.0  0.046
  H  H199  1  0.966400  0.584700  0.987400  1.0  0.0529
  H  H200  1  0.895000  0.510500  0.022400  1.0  0.1023
  H  H201  1  0.831000  0.704100  0.068900  1.0  0.104
  H  H202  1  0.902100  0.774200  0.031600  1.0  0.054
  H  H203  1  0.773000  0.515100  0.060500  1.0  0.0793
  H  H204  1  0.774500  0.582300  0.086300  1.0  0.0737
  H  H205  1  0.895000  0.469800  0.082300  1.0  0.0596
  H  H206  1  0.887600  0.532500  0.110000  1.0  0.0609
  H  H207  1  0.768600  0.473400  0.126200  1.0  0.0644
  H  H208  1  0.783400  0.407800  0.100500  1.0  0.0758
  H  H209  1  0.962900  0.415400  0.204200  1.0  0.0646
  H  H210  1  0.892200  0.487400  0.167600  1.0  0.0894
  H  H211  1  0.833500  0.290200  0.122200  1.0  0.0889
  H  H212  1  0.903400  0.223300  0.160800  1.0  0.046
  H  H213  1  0.033600  0.915300  0.987400  1.0  0.0531
  H  H214  1  0.105000  0.989500  0.022400  1.0  0.1043
  H  H215  1  0.169000  0.795900  0.068900  1.0  0.1042
  H  H216  1  0.097900  0.725800  0.031600  1.0  0.0539
  H  H217  1  0.227000  0.984900  0.060500  1.0  0.0783
  H  H218  1  0.225500  0.917700  0.086300  1.0  0.0741
  H  H219  1  0.105000  0.030200  0.082300  1.0  0.0611
  H  H220  1  0.112400  0.967500  0.110000  1.0  0.0619
  H  H221  1  0.231400  0.026600  0.126200  1.0  0.0636
  H  H222  1  0.216600  0.092200  0.100500  1.0  0.0766
  H  H223  1  0.037100  0.084600  0.204200  1.0  0.0648
  H  H224  1  0.107800  0.012600  0.167600  1.0  0.0891
  H  H225  1  0.166500  0.209800  0.122200  1.0  0.0895
  H  H226  1  0.096600  0.276700  0.160800  1.0  0.0454
  H  H227  1  0.533600  0.415300  0.487400  1.0  0.0531
  H  H228  1  0.605000  0.489500  0.522400  1.0  0.1043
  H  H229  1  0.669000  0.295900  0.568900  1.0  0.1042
  H  H230  1  0.597900  0.225800  0.531600  1.0  0.0539
  H  H231  1  0.727000  0.484900  0.560500  1.0  0.0783
  H  H232  1  0.725500  0.417700  0.586300  1.0  0.0741
  H  H233  1  0.605000  0.530200  0.582300  1.0  0.0611
  H  H234  1  0.612400  0.467500  0.610000  1.0  0.0619
  H  H235  1  0.731400  0.526600  0.626200  1.0  0.0636
  H  H236  1  0.716600  0.592200  0.600500  1.0  0.0766
  H  H237  1  0.537100  0.584600  0.704200  1.0  0.0648
  H  H238  1  0.607800  0.512600  0.667600  1.0  0.0891
  H  H239  1  0.666500  0.709800  0.622200  1.0  0.0895
  H  H240  1  0.596600  0.776700  0.660800  1.0  0.0454
  H  H241  1  0.164800  0.208400  0.852300  1.0  0.0669
  H  H242  1  0.235000  0.141500  0.889600  1.0  0.1152
  H  H243  1  0.037500  0.083100  0.934400  1.0  0.0777
  H  H244  1  0.970300  0.154300  0.896500  1.0  0.072
  H  H245  1  0.219400  0.019400  0.931200  1.0  0.0711
  H  H246  1  0.156300  0.036400  0.957800  1.0  0.0832
  H  H247  1  0.285200  0.133400  0.946300  1.0  0.0654
  H  H248  1  0.222600  0.148900  0.973300  1.0  0.0624
  H  H249  1  0.328800  0.024100  0.973100  1.0  0.0742
  H  H250  1  0.260300  0.028600  0.998200  1.0  0.0775
  H  H251  1  0.335400  0.227300  0.067900  1.0  0.0645
  H  H252  1  0.258900  0.157000  0.032600  1.0  0.0936
  H  H253  1  0.451500  0.073400  0.991500  1.0  0.0982
  H  H254  1  0.523400  0.150700  0.026100  1.0  0.0654
  H  H255  1  0.664800  0.708400  0.352300  1.0  0.0669
  H  H256  1  0.735000  0.641500  0.389600  1.0  0.1152
  H  H257  1  0.537500  0.583100  0.434400  1.0  0.0777
  H  H258  1  0.470300  0.654300  0.396500  1.0  0.072
  H  H259  1  0.719400  0.519400  0.431200  1.0  0.0711
  H  H260  1  0.656300  0.536400  0.457800  1.0  0.0832
  H  H261  1  0.785200  0.633400  0.446300  1.0  0.0654
  H  H262  1  0.722600  0.648900  0.473300  1.0  0.0624
  H  H263  1  0.828800  0.524100  0.473100  1.0  0.0742
  H  H264  1  0.760300  0.528600  0.498200  1.0  0.0775
  H  H265  1  0.835400  0.727300  0.567900  1.0  0.0645
  H  H266  1  0.758900  0.657000  0.532600  1.0  0.0936
  H  H267  1  0.951500  0.573400  0.491500  1.0  0.0982
  H  H268  1  0.023400  0.650700  0.526100  1.0  0.0654
  H  H269  1  0.335200  0.791600  0.352300  1.0  0.0668
  H  H270  1  0.265000  0.858500  0.389600  1.0  0.1157
  H  H271  1  0.462500  0.916900  0.434400  1.0  0.0779
  H  H272  1  0.529700  0.845700  0.396500  1.0  0.0724
  H  H273  1  0.280600  0.980600  0.431200  1.0  0.0718
  H  H274  1  0.343700  0.963600  0.457800  1.0  0.0815
  H  H275  1  0.214800  0.866600  0.446300  1.0  0.064
  H  H276  1  0.277400  0.851100  0.473300  1.0  0.0627
  H  H277  1  0.171200  0.975900  0.473100  1.0  0.0734
  H  H278  1  0.239700  0.971400  0.498200  1.0  0.0774
  H  H279  1  0.164600  0.772700  0.567900  1.0  0.0648
  H  H280  1  0.241100  0.843000  0.532600  1.0  0.093
  H  H281  1  0.048500  0.926600  0.491500  1.0  0.0982
  H  H282  1  0.976600  0.849300  0.526100  1.0  0.0664
  H  H283  1  0.835200  0.291600  0.852300  1.0  0.0668
  H  H284  1  0.765000  0.358500  0.889600  1.0  0.1157
  H  H285  1  0.962500  0.416900  0.934400  1.0  0.0779
  H  H286  1  0.029700  0.345700  0.896500  1.0  0.0724
  H  H287  1  0.780600  0.480600  0.931200  1.0  0.0718
  H  H288  1  0.843700  0.463600  0.957800  1.0  0.0815
  H  H289  1  0.714800  0.366600  0.946300  1.0  0.064
  H  H290  1  0.777400  0.351100  0.973300  1.0  0.0627
  H  H291  1  0.671200  0.475900  0.973100  1.0  0.0734
  H  H292  1  0.739700  0.471400  0.998200  1.0  0.0774
  H  H293  1  0.664600  0.272700  0.067900  1.0  0.0648
  H  H294  1  0.741100  0.343000  0.032600  1.0  0.093
  H  H295  1  0.548500  0.426600  0.991500  1.0  0.0982
  H  H296  1  0.476600  0.349300  0.026100  1.0  0.0664
  H  H297  1  0.041600  0.914800  0.602300  1.0  0.0648
  H  H298  1  0.108500  0.985000  0.639600  1.0  0.1136
  H  H299  1  0.166900  0.787500  0.684400  1.0  0.078
  H  H300  1  0.095700  0.720300  0.646500  1.0  0.0696
  H  H301  1  0.230600  0.969400  0.681200  1.0  0.0704
  H  H302  1  0.213600  0.906300  0.707800  1.0  0.0807
  H  H303  1  0.116600  0.035200  0.696300  1.0  0.0637
  H  H304  1  0.101100  0.972600  0.723300  1.0  0.0612
  H  H305  1  0.225900  0.078800  0.723100  1.0  0.0739
  H  H306  1  0.221400  0.010300  0.748200  1.0  0.0773
  H  H307  1  0.022700  0.085400  0.817900  1.0  0.0645
  H  H308  1  0.093000  0.008900  0.782600  1.0  0.0917
  H  H309  1  0.176600  0.201500  0.741500  1.0  0.0989
  H  H310  1  0.099300  0.273400  0.776100  1.0  0.0655
  H  H311  1  0.541600  0.414800  0.102300  1.0  0.0648
  H  H312  1  0.608500  0.485000  0.139600  1.0  0.1136
  H  H313  1  0.666900  0.287500  0.184400  1.0  0.078
  H  H314  1  0.595700  0.220300  0.146500  1.0  0.0696
  H  H315  1  0.730600  0.469400  0.181200  1.0  0.0704
  H  H316  1  0.713600  0.406300  0.207800  1.0  0.0807
  H  H317  1  0.616600  0.535200  0.196300  1.0  0.0637
  H  H318  1  0.601100  0.472600  0.223300  1.0  0.0612
  H  H319  1  0.725900  0.578800  0.223100  1.0  0.0739
  H  H320  1  0.721400  0.510300  0.248200  1.0  0.0773
  H  H321  1  0.522700  0.585400  0.317900  1.0  0.0645
  H  H322  1  0.593000  0.508900  0.282600  1.0  0.0917
  H  H323  1  0.676600  0.701500  0.241500  1.0  0.0989
  H  H324  1  0.599300  0.773400  0.276100  1.0  0.0655
  H  H325  1  0.458400  0.085200  0.102300  1.0  0.0649
  H  H326  1  0.391500  0.015000  0.139600  1.0  0.1134
  H  H327  1  0.333100  0.212500  0.184400  1.0  0.0775
  H  H328  1  0.404300  0.279700  0.146500  1.0  0.0698
  H  H329  1  0.269400  0.030600  0.181200  1.0  0.0703
  H  H330  1  0.286400  0.093700  0.207800  1.0  0.0795
  H  H331  1  0.383400  0.964800  0.196300  1.0  0.0629
  H  H332  1  0.398900  0.027400  0.223300  1.0  0.0608
  H  H333  1  0.274100  0.921200  0.223100  1.0  0.0735
  H  H334  1  0.278600  0.989700  0.248200  1.0  0.0773
  H  H335  1  0.477300  0.914600  0.317900  1.0  0.064
  H  H336  1  0.407000  0.991100  0.282600  1.0  0.0925
  H  H337  1  0.323400  0.798500  0.241500  1.0  0.0986
  H  H338  1  0.400700  0.726600  0.276100  1.0  0.0659
  H  H339  1  0.958400  0.585200  0.602300  1.0  0.0649
  H  H340  1  0.891500  0.515000  0.639600  1.0  0.1134
  H  H341  1  0.833100  0.712500  0.684400  1.0  0.0775
  H  H342  1  0.904300  0.779700  0.646500  1.0  0.0698
  H  H343  1  0.769400  0.530600  0.681200  1.0  0.0703
  H  H344  1  0.786400  0.593700  0.707800  1.0  0.0795
  H  H345  1  0.883400  0.464800  0.696300  1.0  0.0629
  H  H346  1  0.898900  0.527400  0.723300  1.0  0.0608
  H  H347  1  0.774100  0.421200  0.723100  1.0  0.0735
  H  H348  1  0.778600  0.489700  0.748200  1.0  0.0773
  H  H349  1  0.977300  0.414600  0.817900  1.0  0.064
  H  H350  1  0.907000  0.491100  0.782600  1.0  0.0925
  H  H351  1  0.823400  0.298500  0.741500  1.0  0.0986
  H  H352  1  0.900700  0.226600  0.776100  1.0  0.0659
  H  H353  1  0.165300  0.716400  0.762600  1.0  0.0528
  H  H354  1  0.239500  0.645000  0.727600  1.0  0.1044
  H  H355  1  0.045900  0.581000  0.681100  1.0  0.1037
  H  H356  1  0.975800  0.652100  0.718400  1.0  0.0557
  H  H357  1  0.234900  0.523000  0.689500  1.0  0.0793
  H  H358  1  0.167700  0.524500  0.663700  1.0  0.0726
  H  H359  1  0.280200  0.645000  0.667700  1.0  0.0584
  H  H360  1  0.217500  0.637600  0.640000  1.0  0.0612
  H  H361  1  0.276600  0.518600  0.623800  1.0  0.0648
  H  H362  1  0.342200  0.533400  0.649500  1.0  0.0774
  H  H363  1  0.334600  0.712900  0.545800  1.0  0.0646
  H  H364  1  0.262600  0.642200  0.582400  1.0  0.0895
  H  H365  1  0.459800  0.583500  0.627800  1.0  0.0892
  H  H366  1  0.526700  0.653400  0.589200  1.0  0.0501
  H  H367  1  0.665300  0.216400  0.262600  1.0  0.0528
  H  H368  1  0.739500  0.145000  0.227600  1.0  0.1044
  H  H369  1  0.545900  0.081000  0.181100  1.0  0.1037
  H  H370  1  0.475800  0.152100  0.218400  1.0  0.0557
  H  H371  1  0.734900  0.023000  0.189500  1.0  0.0793
  H  H372  1  0.667700  0.024500  0.163700  1.0  0.0726
  H  H373  1  0.780200  0.145000  0.167700  1.0  0.0584
  H  H374  1  0.717500  0.137600  0.140000  1.0  0.0612
  H  H375  1  0.776600  0.018600  0.123800  1.0  0.0648
  H  H376  1  0.842200  0.033400  0.149500  1.0  0.0774
  H  H377  1  0.834600  0.212900  0.045800  1.0  0.0646
  H  H378  1  0.762600  0.142200  0.082400  1.0  0.0895
  H  H379  1  0.959800  0.083500  0.127800  1.0  0.0892
  H  H380  1  0.026700  0.153400  0.089200  1.0  0.0501
  H  H381  1  0.334700  0.283600  0.262600  1.0  0.0531
  H  H382  1  0.260500  0.355000  0.227600  1.0  0.1051
  H  H383  1  0.454100  0.419000  0.181100  1.0  0.104
  H  H384  1  0.524200  0.347900  0.218400  1.0  0.0571
  H  H385  1  0.265100  0.477000  0.189500  1.0  0.0788
  H  H386  1  0.332300  0.475500  0.163700  1.0  0.0746
  H  H387  1  0.219800  0.355000  0.167700  1.0  0.0596
  H  H388  1  0.282500  0.362400  0.140000  1.0  0.0604
  H  H389  1  0.223400  0.481400  0.123800  1.0  0.065
  H  H390  1  0.157800  0.466600  0.149500  1.0  0.077
  H  H391  1  0.165400  0.287100  0.045800  1.0  0.0648
  H  H392  1  0.237400  0.357800  0.082400  1.0  0.0892
  H  H393  1  0.040200  0.416500  0.127800  1.0  0.0888
  H  H394  1  0.973300  0.346600  0.089200  1.0  0.049
  H  H395  1  0.834700  0.783600  0.762600  1.0  0.0531
  H  H396  1  0.760500  0.855000  0.727600  1.0  0.1051
  H  H397  1  0.954100  0.919000  0.681100  1.0  0.104
  H  H398  1  0.024200  0.847900  0.718400  1.0  0.0571
  H  H399  1  0.765100  0.977000  0.689500  1.0  0.0788
  H  H400  1  0.832300  0.975500  0.663700  1.0  0.0746
  H  H401  1  0.719800  0.855000  0.667700  1.0  0.0596
  H  H402  1  0.782500  0.862400  0.640000  1.0  0.0604
  H  H403  1  0.723400  0.981400  0.623800  1.0  0.065
  H  H404  1  0.657800  0.966600  0.649500  1.0  0.077
  H  H405  1  0.665400  0.787100  0.545800  1.0  0.0648
  H  H406  1  0.737400  0.857800  0.582400  1.0  0.0892
  H  H407  1  0.540200  0.916500  0.627800  1.0  0.0888
  H  H408  1  0.473300  0.846600  0.589200  1.0  0.049
  H  H409  1  0.533600  0.915300  0.512600  1.0  0.053
  H  H410  1  0.605000  0.989500  0.477600  1.0  0.104
  H  H411  1  0.669000  0.795900  0.431100  1.0  0.1043
  H  H412  1  0.597900  0.725800  0.468400  1.0  0.0542
  H  H413  1  0.727000  0.984900  0.439500  1.0  0.0781
  H  H414  1  0.725500  0.917700  0.413700  1.0  0.0737
  H  H415  1  0.605000  0.030200  0.417700  1.0  0.059
  H  H416  1  0.612400  0.967500  0.390000  1.0  0.0616
  H  H417  1  0.731400  0.026600  0.373800  1.0  0.063
  H  H418  1  0.716600  0.092200  0.399500  1.0  0.076
  H  H419  1  0.537100  0.084600  0.295800  1.0  0.0644
  H  H420  1  0.607800  0.012600  0.332400  1.0  0.0887
  H  H421  1  0.666500  0.209800  0.377800  1.0  0.0889
  H  H422  1  0.596600  0.276700  0.339200  1.0  0.0457
  H  H423  1  0.033600  0.415300  0.012600  1.0  0.053
  H  H424  1  0.105000  0.489500  0.977600  1.0  0.104
  H  H425  1  0.169000  0.295900  0.931100  1.0  0.1043
  H  H426  1  0.097900  0.225800  0.968400  1.0  0.0542
  H  H427  1  0.227000  0.484900  0.939500  1.0  0.0781
  H  H428  1  0.225500  0.417700  0.913700  1.0  0.0737
  H  H429  1  0.105000  0.530200  0.917700  1.0  0.059
  H  H430  1  0.112400  0.467500  0.890000  1.0  0.0616
  H  H431  1  0.231400  0.526600  0.873800  1.0  0.063
  H  H432  1  0.216600  0.592200  0.899500  1.0  0.076
  H  H433  1  0.037100  0.584600  0.795800  1.0  0.0644
  H  H434  1  0.107800  0.512600  0.832400  1.0  0.0887
  H  H435  1  0.166500  0.709800  0.877800  1.0  0.0889
  H  H436  1  0.096600  0.776700  0.839200  1.0  0.0457
  H  H437  1  0.966400  0.084700  0.012600  1.0  0.0531
  H  H438  1  0.895000  0.010500  0.977600  1.0  0.102
  H  H439  1  0.831000  0.204100  0.931100  1.0  0.104
  H  H440  1  0.902100  0.274200  0.968400  1.0  0.0544
  H  H441  1  0.773000  0.015100  0.939500  1.0  0.0791
  H  H442  1  0.774500  0.082300  0.913700  1.0  0.074
  H  H443  1  0.895000  0.969800  0.917700  1.0  0.059
  H  H444  1  0.887600  0.032500  0.890000  1.0  0.0618
  H  H445  1  0.768600  0.973400  0.873800  1.0  0.0647
  H  H446  1  0.783400  0.907800  0.899500  1.0  0.0764
  H  H447  1  0.962900  0.915400  0.795800  1.0  0.0647
  H  H448  1  0.892200  0.987400  0.832400  1.0  0.0895
  H  H449  1  0.833500  0.790200  0.877800  1.0  0.0888
  H  H450  1  0.903400  0.723300  0.839200  1.0  0.0462
  H  H451  1  0.466400  0.584700  0.512600  1.0  0.0531
  H  H452  1  0.395000  0.510500  0.477600  1.0  0.102
  H  H453  1  0.331000  0.704100  0.431100  1.0  0.104
  H  H454  1  0.402100  0.774200  0.468400  1.0  0.0544
  H  H455  1  0.273000  0.515100  0.439500  1.0  0.0791
  H  H456  1  0.274500  0.582300  0.413700  1.0  0.074
  H  H457  1  0.395000  0.469800  0.417700  1.0  0.059
  H  H458  1  0.387600  0.532500  0.390000  1.0  0.0618
  H  H459  1  0.268600  0.473400  0.373800  1.0  0.0647
  H  H460  1  0.283400  0.407800  0.399500  1.0  0.0764
  H  H461  1  0.462900  0.415400  0.295800  1.0  0.0647
  H  H462  1  0.392200  0.487400  0.332400  1.0  0.0895
  H  H463  1  0.333500  0.290200  0.377800  1.0  0.0888
  H  H464  1  0.403400  0.223300  0.339200  1.0  0.0462
  C  C465  1  0.861400  0.816200  0.130700  1.0  0.1506
  C  C466  1  0.818700  0.856200  0.108400  1.0  -0.21
  C  C467  1  0.855600  0.893500  0.082610  1.0  0.1162
  C  C468  1  0.935500  0.890300  0.081800  1.0  -0.1763
  C  C469  1  0.975900  0.848300  0.104860  1.0  0.1223
  C  C470  1  0.808200  0.939500  0.057500  1.0  -0.218
  C  C471  1  0.750200  0.891500  0.038600  1.0  -0.0972
  C  C472  1  0.703900  0.940500  0.014700  1.0  -0.2397
  C  C473  1  0.640900  0.804000  0.947700  1.0  0.1422
  C  C474  1  0.687300  0.846500  0.968900  1.0  -0.1948
  C  C475  1  0.654000  0.893700  0.992100  1.0  0.1191
  C  C476  1  0.573600  0.895100  0.993300  1.0  -0.2006
  C  C477  1  0.530400  0.849600  0.972000  1.0  0.1258
  C  C478  1  0.361400  0.316200  0.630700  1.0  0.1506
  C  C479  1  0.318700  0.356200  0.608400  1.0  -0.21
  C  C480  1  0.355600  0.393500  0.582610  1.0  0.1162
  C  C481  1  0.435500  0.390300  0.581800  1.0  -0.1763
  C  C482  1  0.475900  0.348300  0.604860  1.0  0.1223
  C  C483  1  0.308200  0.439500  0.557500  1.0  -0.218
  C  C484  1  0.250200  0.391500  0.538600  1.0  -0.0972
  C  C485  1  0.203900  0.440500  0.514700  1.0  -0.2397
  C  C486  1  0.140900  0.304000  0.447700  1.0  0.1422
  C  C487  1  0.187300  0.346500  0.468900  1.0  -0.1948
  C  C488  1  0.154000  0.393700  0.492100  1.0  0.1191
  C  C489  1  0.073600  0.395100  0.493300  1.0  -0.2006
  C  C490  1  0.030400  0.349600  0.472000  1.0  0.1258
  C  C491  1  0.638600  0.183800  0.630700  1.0  0.1494
  C  C492  1  0.681300  0.143800  0.608400  1.0  -0.2106
  C  C493  1  0.644400  0.106500  0.582610  1.0  0.1165
  C  C494  1  0.564500  0.109700  0.581800  1.0  -0.1764
  C  C495  1  0.524100  0.151700  0.604860  1.0  0.1221
  C  C496  1  0.691800  0.060500  0.557500  1.0  -0.2165
  C  C497  1  0.749800  0.108500  0.538600  1.0  -0.0993
  C  C498  1  0.796100  0.059500  0.514700  1.0  -0.2391
  C  C499  1  0.859100  0.196000  0.447700  1.0  0.1431
  C  C500  1  0.812700  0.153500  0.468900  1.0  -0.1919
  C  C501  1  0.846000  0.106300  0.492100  1.0  0.1185
  C  C502  1  0.926400  0.104900  0.493300  1.0  -0.1992
  C  C503  1  0.969600  0.150400  0.472000  1.0  0.1264
  C  C504  1  0.138600  0.683800  0.130700  1.0  0.1494
  C  C505  1  0.181300  0.643800  0.108400  1.0  -0.2106
  C  C506  1  0.144400  0.606500  0.082610  1.0  0.1165
  C  C507  1  0.064500  0.609700  0.081800  1.0  -0.1764
  C  C508  1  0.024100  0.651700  0.104860  1.0  0.1221
  C  C509  1  0.191800  0.560500  0.057500  1.0  -0.2165
  C  C510  1  0.249800  0.608500  0.038600  1.0  -0.0993
  C  C511  1  0.296100  0.559500  0.014700  1.0  -0.2391
  C  C512  1  0.359100  0.696000  0.947700  1.0  0.1431
  C  C513  1  0.312700  0.653500  0.968900  1.0  -0.1919
  C  C514  1  0.346000  0.606300  0.992100  1.0  0.1185
  C  C515  1  0.426400  0.604900  0.993300  1.0  -0.1992
  C  C516  1  0.469600  0.650400  0.972000  1.0  0.1264
  C  C517  1  0.933800  0.111400  0.380700  1.0  0.149
  C  C518  1  0.893800  0.068700  0.358400  1.0  -0.2097
  C  C519  1  0.856500  0.105600  0.332610  1.0  0.1157
  C  C520  1  0.859700  0.185500  0.331800  1.0  -0.1772
  C  C521  1  0.901700  0.225900  0.354860  1.0  0.1252
  C  C522  1  0.810500  0.058200  0.307500  1.0  -0.2159
  C  C523  1  0.858500  0.000200  0.288600  1.0  -0.0933
  C  C524  1  0.809500  0.953900  0.264700  1.0  -0.24
  C  C525  1  0.946000  0.890900  0.197700  1.0  0.142
  C  C526  1  0.903500  0.937300  0.218900  1.0  -0.1923
  C  C527  1  0.856300  0.904000  0.242100  1.0  0.1201
  C  C528  1  0.854900  0.823600  0.243300  1.0  -0.1985
  C  C529  1  0.900400  0.780400  0.222000  1.0  0.127
  C  C530  1  0.433800  0.611400  0.880700  1.0  0.149
  C  C531  1  0.393800  0.568700  0.858400  1.0  -0.2097
  C  C532  1  0.356500  0.605600  0.832610  1.0  0.1157
  C  C533  1  0.359700  0.685500  0.831800  1.0  -0.1772
  C  C534  1  0.401700  0.725900  0.854860  1.0  0.1252
  C  C535  1  0.310500  0.558200  0.807500  1.0  -0.2159
  C  C536  1  0.358500  0.500200  0.788600  1.0  -0.0933
  C  C537  1  0.309500  0.453900  0.764700  1.0  -0.24
  C  C538  1  0.446000  0.390900  0.697700  1.0  0.142
  C  C539  1  0.403500  0.437300  0.718900  1.0  -0.1923
  C  C540  1  0.356300  0.404000  0.742100  1.0  0.1201
  C  C541  1  0.354900  0.323600  0.743300  1.0  -0.1985
  C  C542  1  0.400400  0.280400  0.722000  1.0  0.127
  C  C543  1  0.566200  0.888600  0.880700  1.0  0.1482
  C  C544  1  0.606200  0.931300  0.858400  1.0  -0.2096
  C  C545  1  0.643500  0.894400  0.832610  1.0  0.1156
  C  C546  1  0.640300  0.814500  0.831800  1.0  -0.1765
  C  C547  1  0.598300  0.774100  0.854860  1.0  0.1254
  C  C548  1  0.689500  0.941800  0.807500  1.0  -0.2134
  C  C549  1  0.641500  0.999800  0.788600  1.0  -0.0927
  C  C550  1  0.690500  0.046100  0.764700  1.0  -0.2358
  C  C551  1  0.554000  0.109100  0.697700  1.0  0.1423
  C  C552  1  0.596500  0.062700  0.718900  1.0  -0.1914
  C  C553  1  0.643700  0.096000  0.742100  1.0  0.1199
  C  C554  1  0.645100  0.176400  0.743300  1.0  -0.1991
  C  C555  1  0.599600  0.219600  0.722000  1.0  0.1274
  C  C556  1  0.066200  0.388600  0.380700  1.0  0.1482
  C  C557  1  0.106200  0.431300  0.358400  1.0  -0.2096
  C  C558  1  0.143500  0.394400  0.332610  1.0  0.1156
  C  C559  1  0.140300  0.314500  0.331800  1.0  -0.1765
  C  C560  1  0.098300  0.274100  0.354860  1.0  0.1254
  C  C561  1  0.189500  0.441800  0.307500  1.0  -0.2134
  C  C562  1  0.141500  0.499800  0.288600  1.0  -0.0927
  C  C563  1  0.190500  0.546100  0.264700  1.0  -0.2358
  C  C564  1  0.054000  0.609100  0.197700  1.0  0.1423
  C  C565  1  0.096500  0.562700  0.218900  1.0  -0.1914
  C  C566  1  0.143700  0.596000  0.242100  1.0  0.1199
  C  C567  1  0.145100  0.676400  0.243300  1.0  -0.1991
  C  C568  1  0.099600  0.719600  0.222000  1.0  0.1274
  C  C569  1  0.859400  0.311600  0.253790  1.0  0.1563
  C  C570  1  0.814200  0.354400  0.274860  1.0  -0.2293
  C  C571  1  0.848600  0.396200  0.299580  1.0  0.1168
  C  C572  1  0.928600  0.392500  0.302220  1.0  -0.2312
  C  C573  1  0.970400  0.348900  0.279780  1.0  0.1521
  C  C574  1  0.798900  0.443100  0.323000  1.0  -0.2354
  C  C575  1  0.749100  0.391700  0.345400  1.0  -0.108
  C  C576  1  0.693800  0.441200  0.365230  1.0  -0.223
  C  C577  1  0.640000  0.313500  0.437570  1.0  0.1365
  C  C578  1  0.683600  0.356200  0.415430  1.0  -0.1839
  C  C579  1  0.648300  0.396400  0.390240  1.0  0.1247
  C  C580  1  0.567300  0.391200  0.388750  1.0  -0.2261
  C  C581  1  0.527200  0.348200  0.411970  1.0  0.1534
  C  C582  1  0.359400  0.811600  0.753790  1.0  0.1563
  C  C583  1  0.314200  0.854400  0.774860  1.0  -0.2293
  C  C584  1  0.348600  0.896200  0.799580  1.0  0.1168
  C  C585  1  0.428600  0.892500  0.802220  1.0  -0.2312
  C  C586  1  0.470400  0.848900  0.779780  1.0  0.1521
  C  C587  1  0.298900  0.943100  0.823000  1.0  -0.2354
  C  C588  1  0.249100  0.891700  0.845400  1.0  -0.108
  C  C589  1  0.193800  0.941200  0.865230  1.0  -0.223
  C  C590  1  0.140000  0.813500  0.937570  1.0  0.1365
  C  C591  1  0.183600  0.856200  0.915430  1.0  -0.1839
  C  C592  1  0.148300  0.896400  0.890240  1.0  0.1247
  C  C593  1  0.067300  0.891200  0.888750  1.0  -0.2261
  C  C594  1  0.027200  0.848200  0.911970  1.0  0.1534
  C  C595  1  0.640600  0.688400  0.753790  1.0  0.1552
  C  C596  1  0.685800  0.645600  0.774860  1.0  -0.229
  C  C597  1  0.651400  0.603800  0.799580  1.0  0.1165
  C  C598  1  0.571400  0.607500  0.802220  1.0  -0.2298
  C  C599  1  0.529600  0.651100  0.779780  1.0  0.1518
  C  C600  1  0.701100  0.556900  0.823000  1.0  -0.2364
  C  C601  1  0.750900  0.608300  0.845400  1.0  -0.1076
  C  C602  1  0.806200  0.558800  0.865230  1.0  -0.2233
  C  C603  1  0.860000  0.686500  0.937570  1.0  0.1366
  C  C604  1  0.816400  0.643800  0.915430  1.0  -0.1825
  C  C605  1  0.851700  0.603600  0.890240  1.0  0.1244
  C  C606  1  0.932700  0.608800  0.888750  1.0  -0.2264
  C  C607  1  0.972800  0.651800  0.911970  1.0  0.1532
  C  C608  1  0.140600  0.188400  0.253790  1.0  0.1552
  C  C609  1  0.185800  0.145600  0.274860  1.0  -0.229
  C  C610  1  0.151400  0.103800  0.299580  1.0  0.1165
  C  C611  1  0.071400  0.107500  0.302220  1.0  -0.2298
  C  C612  1  0.029600  0.151100  0.279780  1.0  0.1518
  C  C613  1  0.201100  0.056900  0.323000  1.0  -0.2364
  C  C614  1  0.250900  0.108300  0.345400  1.0  -0.1076
  C  C615  1  0.306200  0.058800  0.365230  1.0  -0.2233
  C  C616  1  0.360000  0.186500  0.437570  1.0  0.1366
  C  C617  1  0.316400  0.143800  0.415430  1.0  -0.1825
  C  C618  1  0.351700  0.103600  0.390240  1.0  0.1244
  C  C619  1  0.432700  0.108800  0.388750  1.0  -0.2264
  C  C620  1  0.472800  0.151800  0.411970  1.0  0.1532
  C  C621  1  0.438400  0.109400  0.503790  1.0  0.1539
  C  C622  1  0.395600  0.064200  0.524860  1.0  -0.2262
  C  C623  1  0.353800  0.098600  0.549580  1.0  0.1188
  C  C624  1  0.357500  0.178600  0.552220  1.0  -0.2316
  C  C625  1  0.401100  0.220400  0.529780  1.0  0.1546
  C  C626  1  0.306900  0.048900  0.573000  1.0  -0.2386
  C  C627  1  0.358300  0.999100  0.595400  1.0  -0.105
  C  C628  1  0.308800  0.943800  0.615230  1.0  -0.2212
  C  C629  1  0.436500  0.890000  0.687570  1.0  0.1347
  C  C630  1  0.393800  0.933600  0.665430  1.0  -0.1806
  C  C631  1  0.353600  0.898300  0.640240  1.0  0.1252
  C  C632  1  0.358800  0.817300  0.638750  1.0  -0.2269
  C  C633  1  0.401800  0.777200  0.661970  1.0  0.1583
  C  C634  1  0.938400  0.609400  0.003790  1.0  0.1539
  C  C635  1  0.895600  0.564200  0.024860  1.0  -0.2262
  C  C636  1  0.853800  0.598600  0.049580  1.0  0.1188
  C  C637  1  0.857500  0.678600  0.052220  1.0  -0.2316
  C  C638  1  0.901100  0.720400  0.029780  1.0  0.1546
  C  C639  1  0.806900  0.548900  0.073000  1.0  -0.2386
  C  C640  1  0.858300  0.499100  0.095400  1.0  -0.105
  C  C641  1  0.808800  0.443800  0.115230  1.0  -0.2212
  C  C642  1  0.936500  0.390000  0.187570  1.0  0.1347
  C  C643  1  0.893800  0.433600  0.165430  1.0  -0.1806
  C  C644  1  0.853600  0.398300  0.140240  1.0  0.1252
  C  C645  1  0.858800  0.317300  0.138750  1.0  -0.2269
  C  C646  1  0.901800  0.277200  0.161970  1.0  0.1583
  C  C647  1  0.061600  0.890600  0.003790  1.0  0.1532
  C  C648  1  0.104400  0.935800  0.024860  1.0  -0.227
  C  C649  1  0.146200  0.901400  0.049580  1.0  0.1193
  C  C650  1  0.142500  0.821400  0.052220  1.0  -0.2325
  C  C651  1  0.098900  0.779600  0.029780  1.0  0.1541
  C  C652  1  0.193100  0.951100  0.073000  1.0  -0.237
  C  C653  1  0.141700  0.000900  0.095400  1.0  -0.1067
  C  C654  1  0.191200  0.056200  0.115230  1.0  -0.2191
  C  C655  1  0.063500  0.110000  0.187570  1.0  0.1359
  C  C656  1  0.106200  0.066400  0.165430  1.0  -0.1786
  C  C657  1  0.146400  0.101700  0.140240  1.0  0.1255
  C  C658  1  0.141200  0.182700  0.138750  1.0  -0.2274
  C  C659  1  0.098200  0.222800  0.161970  1.0  0.1576
  C  C660  1  0.561600  0.390600  0.503790  1.0  0.1532
  C  C661  1  0.604400  0.435800  0.524860  1.0  -0.227
  C  C662  1  0.646200  0.401400  0.549580  1.0  0.1193
  C  C663  1  0.642500  0.321400  0.552220  1.0  -0.2325
  C  C664  1  0.598900  0.279600  0.529780  1.0  0.1541
  C  C665  1  0.693100  0.451100  0.573000  1.0  -0.237
  C  C666  1  0.641700  0.500900  0.595400  1.0  -0.1067
  C  C667  1  0.691200  0.556200  0.615230  1.0  -0.2191
  C  C668  1  0.563500  0.610000  0.687570  1.0  0.1359
  C  C669  1  0.606200  0.566400  0.665430  1.0  -0.1786
  C  C670  1  0.646400  0.601700  0.640240  1.0  0.1255
  C  C671  1  0.641200  0.682700  0.638750  1.0  -0.2274
  C  C672  1  0.598200  0.722800  0.661970  1.0  0.1576
  C  C673  1  0.138600  0.183800  0.869300  1.0  0.15
  C  C674  1  0.181300  0.143800  0.891600  1.0  -0.2113
  C  C675  1  0.144400  0.106500  0.917390  1.0  0.1166
  C  C676  1  0.064500  0.109700  0.918200  1.0  -0.1758
  C  C677  1  0.024100  0.151700  0.895140  1.0  0.121
  C  C678  1  0.191800  0.060500  0.942500  1.0  -0.2162
  C  C679  1  0.249800  0.108500  0.961400  1.0  -0.099
  C  C680  1  0.296100  0.059500  0.985300  1.0  -0.2398
  C  C681  1  0.359100  0.196000  0.052300  1.0  0.1438
  C  C682  1  0.312700  0.153500  0.031100  1.0  -0.1918
  C  C683  1  0.346000  0.106300  0.007900  1.0  0.1191
  C  C684  1  0.426400  0.104900  0.006700  1.0  -0.1992
  C  C685  1  0.469600  0.150400  0.028000  1.0  0.1265
  C  C686  1  0.638600  0.683800  0.369300  1.0  0.15
  C  C687  1  0.681300  0.643800  0.391600  1.0  -0.2113
  C  C688  1  0.644400  0.606500  0.417390  1.0  0.1166
  C  C689  1  0.564500  0.609700  0.418200  1.0  -0.1758
  C  C690  1  0.524100  0.651700  0.395140  1.0  0.121
  C  C691  1  0.691800  0.560500  0.442500  1.0  -0.2162
  C  C692  1  0.749800  0.608500  0.461400  1.0  -0.099
  C  C693  1  0.796100  0.559500  0.485300  1.0  -0.2398
  C  C694  1  0.859100  0.696000  0.552300  1.0  0.1438
  C  C695  1  0.812700  0.653500  0.531100  1.0  -0.1918
  C  C696  1  0.846000  0.606300  0.507900  1.0  0.1191
  C  C697  1  0.926400  0.604900  0.506700  1.0  -0.1992
  C  C698  1  0.969600  0.650400  0.528000  1.0  0.1265
  C  C699  1  0.361400  0.816200  0.369300  1.0  0.1503
  C  C700  1  0.318700  0.856200  0.391600  1.0  -0.2121
  C  C701  1  0.355600  0.893500  0.417390  1.0  0.1161
  C  C702  1  0.435500  0.890300  0.418200  1.0  -0.1762
  C  C703  1  0.475900  0.848300  0.395140  1.0  0.1212
  C  C704  1  0.308200  0.939500  0.442500  1.0  -0.2176
  C  C705  1  0.250200  0.891500  0.461400  1.0  -0.0974
  C  C706  1  0.203900  0.940500  0.485300  1.0  -0.2398
  C  C707  1  0.140900  0.804000  0.552300  1.0  0.1435
  C  C708  1  0.187300  0.846500  0.531100  1.0  -0.1941
  C  C709  1  0.154000  0.893700  0.507900  1.0  0.1193
  C  C710  1  0.073600  0.895100  0.506700  1.0  -0.2004
  C  C711  1  0.030400  0.849600  0.528000  1.0  0.1252
  C  C712  1  0.861400  0.316200  0.869300  1.0  0.1503
  C  C713  1  0.818700  0.356200  0.891600  1.0  -0.2121
  C  C714  1  0.855600  0.393500  0.917390  1.0  0.1161
  C  C715  1  0.935500  0.390300  0.918200  1.0  -0.1762
  C  C716  1  0.975900  0.348300  0.895140  1.0  0.1212
  C  C717  1  0.808200  0.439500  0.942500  1.0  -0.2176
  C  C718  1  0.750200  0.391500  0.961400  1.0  -0.0974
  C  C719  1  0.703900  0.440500  0.985300  1.0  -0.2398
  C  C720  1  0.640900  0.304000  0.052300  1.0  0.1435
  C  C721  1  0.687300  0.346500  0.031100  1.0  -0.1941
  C  C722  1  0.654000  0.393700  0.007900  1.0  0.1193
  C  C723  1  0.573600  0.395100  0.006700  1.0  -0.2004
  C  C724  1  0.530400  0.349600  0.028000  1.0  0.1252
  C  C725  1  0.066200  0.888600  0.619300  1.0  0.149
  C  C726  1  0.106200  0.931300  0.641600  1.0  -0.2104
  C  C727  1  0.143500  0.894400  0.667390  1.0  0.1155
  C  C728  1  0.140300  0.814500  0.668200  1.0  -0.1764
  C  C729  1  0.098300  0.774100  0.645140  1.0  0.1239
  C  C730  1  0.189500  0.941800  0.692500  1.0  -0.2132
  C  C731  1  0.141500  0.999800  0.711400  1.0  -0.0923
  C  C732  1  0.190500  0.046100  0.735300  1.0  -0.2363
  C  C733  1  0.054000  0.109100  0.802300  1.0  0.144
  C  C734  1  0.096500  0.062700  0.781100  1.0  -0.1909
  C  C735  1  0.143700  0.096000  0.757900  1.0  0.1201
  C  C736  1  0.145100  0.176400  0.756700  1.0  -0.1992
  C  C737  1  0.099600  0.219600  0.778000  1.0  0.1276
  C  C738  1  0.566200  0.388600  0.119300  1.0  0.149
  C  C739  1  0.606200  0.431300  0.141600  1.0  -0.2104
  C  C740  1  0.643500  0.394400  0.167390  1.0  0.1155
  C  C741  1  0.640300  0.314500  0.168200  1.0  -0.1764
  C  C742  1  0.598300  0.274100  0.145140  1.0  0.1239
  C  C743  1  0.689500  0.441800  0.192500  1.0  -0.2132
  C  C744  1  0.641500  0.499800  0.211400  1.0  -0.0923
  C  C745  1  0.690500  0.546100  0.235300  1.0  -0.2363
  C  C746  1  0.554000  0.609100  0.302300  1.0  0.144
  C  C747  1  0.596500  0.562700  0.281100  1.0  -0.1909
  C  C748  1  0.643700  0.596000  0.257900  1.0  0.1201
  C  C749  1  0.645100  0.676400  0.256700  1.0  -0.1992
  C  C750  1  0.599600  0.719600  0.278000  1.0  0.1276
  C  C751  1  0.433800  0.111400  0.119300  1.0  0.1493
  C  C752  1  0.393800  0.068700  0.141600  1.0  -0.2116
  C  C753  1  0.356500  0.105600  0.167390  1.0  0.1158
  C  C754  1  0.359700  0.185500  0.168200  1.0  -0.1769
  C  C755  1  0.401700  0.225900  0.145140  1.0  0.1245
  C  C756  1  0.310500  0.058200  0.192500  1.0  -0.2156
  C  C757  1  0.358500  0.000200  0.211400  1.0  -0.0928
  C  C758  1  0.309500  0.953900  0.235300  1.0  -0.2406
  C  C759  1  0.446000  0.890900  0.302300  1.0  0.143
  C  C760  1  0.403500  0.937300  0.281100  1.0  -0.1924
  C  C761  1  0.356300  0.904000  0.257900  1.0  0.12
  C  C762  1  0.354900  0.823600  0.256700  1.0  -0.1995
  C  C763  1  0.400400  0.780400  0.278000  1.0  0.1258
  C  C764  1  0.933800  0.611400  0.619300  1.0  0.1493
  C  C765  1  0.893800  0.568700  0.641600  1.0  -0.2116
  C  C766  1  0.856500  0.605600  0.667390  1.0  0.1158
  C  C767  1  0.859700  0.685500  0.668200  1.0  -0.1769
  C  C768  1  0.901700  0.725900  0.645140  1.0  0.1245
  C  C769  1  0.810500  0.558200  0.692500  1.0  -0.2156
  C  C770  1  0.858500  0.500200  0.711400  1.0  -0.0928
  C  C771  1  0.809500  0.453900  0.735300  1.0  -0.2406
  C  C772  1  0.946000  0.390900  0.802300  1.0  0.143
  C  C773  1  0.903500  0.437300  0.781100  1.0  -0.1924
  C  C774  1  0.856300  0.404000  0.757900  1.0  0.12
  C  C775  1  0.854900  0.323600  0.756700  1.0  -0.1995
  C  C776  1  0.900400  0.280400  0.778000  1.0  0.1258
  C  C777  1  0.140600  0.688400  0.746210  1.0  0.1554
  C  C778  1  0.185800  0.645600  0.725140  1.0  -0.2285
  C  C779  1  0.151400  0.603800  0.700420  1.0  0.1177
  C  C780  1  0.071400  0.607500  0.697780  1.0  -0.2306
  C  C781  1  0.029600  0.651100  0.720220  1.0  0.1527
  C  C782  1  0.201100  0.556900  0.677000  1.0  -0.2361
  C  C783  1  0.250900  0.608300  0.654600  1.0  -0.1076
  C  C784  1  0.306200  0.558800  0.634770  1.0  -0.2227
  C  C785  1  0.360000  0.686500  0.562430  1.0  0.1378
  C  C786  1  0.316400  0.643800  0.584570  1.0  -0.1834
  C  C787  1  0.351700  0.603600  0.609760  1.0  0.1244
  C  C788  1  0.432700  0.608800  0.611250  1.0  -0.2264
  C  C789  1  0.472800  0.651800  0.588030  1.0  0.1525
  C  C790  1  0.640600  0.188400  0.246210  1.0  0.1554
  C  C791  1  0.685800  0.145600  0.225140  1.0  -0.2285
  C  C792  1  0.651400  0.103800  0.200420  1.0  0.1177
  C  C793  1  0.571400  0.107500  0.197780  1.0  -0.2306
  C  C794  1  0.529600  0.151100  0.220220  1.0  0.1527
  C  C795  1  0.701100  0.056900  0.177000  1.0  -0.2361
  C  C796  1  0.750900  0.108300  0.154600  1.0  -0.1076
  C  C797  1  0.806200  0.058800  0.134770  1.0  -0.2227
  C  C798  1  0.860000  0.186500  0.062430  1.0  0.1378
  C  C799  1  0.816400  0.143800  0.084570  1.0  -0.1834
  C  C800  1  0.851700  0.103600  0.109760  1.0  0.1244
  C  C801  1  0.932700  0.108800  0.111250  1.0  -0.2264
  C  C802  1  0.972800  0.151800  0.088030  1.0  0.1525
  C  C803  1  0.359400  0.311600  0.246210  1.0  0.1564
  C  C804  1  0.314200  0.354400  0.225140  1.0  -0.2291
  C  C805  1  0.348600  0.396200  0.200420  1.0  0.1174
  C  C806  1  0.428600  0.392500  0.197780  1.0  -0.2311
  C  C807  1  0.470400  0.348900  0.220220  1.0  0.1528
  C  C808  1  0.298900  0.443100  0.177000  1.0  -0.2355
  C  C809  1  0.249100  0.391700  0.154600  1.0  -0.1079
  C  C810  1  0.193800  0.441200  0.134770  1.0  -0.2226
  C  C811  1  0.140000  0.313500  0.062430  1.0  0.137
  C  C812  1  0.183600  0.356200  0.084570  1.0  -0.184
  C  C813  1  0.148300  0.396400  0.109760  1.0  0.1247
  C  C814  1  0.067300  0.391200  0.111250  1.0  -0.2255
  C  C815  1  0.027200  0.348200  0.088030  1.0  0.1521
  C  C816  1  0.859400  0.811600  0.746210  1.0  0.1564
  C  C817  1  0.814200  0.854400  0.725140  1.0  -0.2291
  C  C818  1  0.848600  0.896200  0.700420  1.0  0.1174
  C  C819  1  0.928600  0.892500  0.697780  1.0  -0.2311
  C  C820  1  0.970400  0.848900  0.720220  1.0  0.1528
  C  C821  1  0.798900  0.943100  0.677000  1.0  -0.2355
  C  C822  1  0.749100  0.891700  0.654600  1.0  -0.1079
  C  C823  1  0.693800  0.941200  0.634770  1.0  -0.2226
  C  C824  1  0.640000  0.813500  0.562430  1.0  0.137
  C  C825  1  0.683600  0.856200  0.584570  1.0  -0.184
  C  C826  1  0.648300  0.896400  0.609760  1.0  0.1247
  C  C827  1  0.567300  0.891200  0.611250  1.0  -0.2255
  C  C828  1  0.527200  0.848200  0.588030  1.0  0.1521
  C  C829  1  0.561600  0.890600  0.496210  1.0  0.153
  C  C830  1  0.604400  0.935800  0.475140  1.0  -0.2263
  C  C831  1  0.646200  0.901400  0.450420  1.0  0.1205
  C  C832  1  0.642500  0.821400  0.447780  1.0  -0.2332
  C  C833  1  0.598900  0.779600  0.470220  1.0  0.1551
  C  C834  1  0.693100  0.951100  0.427000  1.0  -0.2372
  C  C835  1  0.641700  0.000900  0.404600  1.0  -0.1064
  C  C836  1  0.691200  0.056200  0.384770  1.0  -0.2186
  C  C837  1  0.563500  0.110000  0.312430  1.0  0.1371
  C  C838  1  0.606200  0.066400  0.334570  1.0  -0.1795
  C  C839  1  0.646400  0.101700  0.359760  1.0  0.1255
  C  C840  1  0.641200  0.182700  0.361250  1.0  -0.2276
  C  C841  1  0.598200  0.222800  0.338030  1.0  0.1567
  C  C842  1  0.061600  0.390600  0.996210  1.0  0.153
  C  C843  1  0.104400  0.435800  0.975140  1.0  -0.2263
  C  C844  1  0.146200  0.401400  0.950420  1.0  0.1205
  C  C845  1  0.142500  0.321400  0.947780  1.0  -0.2332
  C  C846  1  0.098900  0.279600  0.970220  1.0  0.1551
  C  C847  1  0.193100  0.451100  0.927000  1.0  -0.2372
  C  C848  1  0.141700  0.500900  0.904600  1.0  -0.1064
  C  C849  1  0.191200  0.556200  0.884770  1.0  -0.2186
  C  C850  1  0.063500  0.610000  0.812430  1.0  0.1371
  C  C851  1  0.106200  0.566400  0.834570  1.0  -0.1795
  C  C852  1  0.146400  0.601700  0.859760  1.0  0.1255
  C  C853  1  0.141200  0.682700  0.861250  1.0  -0.2276
  C  C854  1  0.098200  0.722800  0.838030  1.0  0.1567
  C  C855  1  0.938400  0.109400  0.996210  1.0  0.1535
  C  C856  1  0.895600  0.064200  0.975140  1.0  -0.2259
  C  C857  1  0.853800  0.098600  0.950420  1.0  0.1195
  C  C858  1  0.857500  0.178600  0.947780  1.0  -0.2321
  C  C859  1  0.901100  0.220400  0.970220  1.0  0.1552
  C  C860  1  0.806900  0.048900  0.927000  1.0  -0.2386
  C  C861  1  0.858300  0.999100  0.904600  1.0  -0.105
  C  C862  1  0.808800  0.943800  0.884770  1.0  -0.221
  C  C863  1  0.936500  0.890000  0.812430  1.0  0.1355
  C  C864  1  0.893800  0.933600  0.834570  1.0  -0.1803
  C  C865  1  0.853600  0.898300  0.859760  1.0  0.1252
  C  C866  1  0.858800  0.817300  0.861250  1.0  -0.2264
  C  C867  1  0.901800  0.777200  0.838030  1.0  0.1573
  C  C868  1  0.438400  0.609400  0.496210  1.0  0.1535
  C  C869  1  0.395600  0.564200  0.475140  1.0  -0.2259
  C  C870  1  0.353800  0.598600  0.450420  1.0  0.1195
  C  C871  1  0.357500  0.678600  0.447780  1.0  -0.2321
  C  C872  1  0.401100  0.720400  0.470220  1.0  0.1552
  C  C873  1  0.306900  0.548900  0.427000  1.0  -0.2386
  C  C874  1  0.358300  0.499100  0.404600  1.0  -0.105
  C  C875  1  0.308800  0.443800  0.384770  1.0  -0.221
  C  C876  1  0.436500  0.390000  0.312430  1.0  0.1355
  C  C877  1  0.393800  0.433600  0.334570  1.0  -0.1803
  C  C878  1  0.353600  0.398300  0.359760  1.0  0.1252
  C  C879  1  0.358800  0.317300  0.361250  1.0  -0.2264
  C  C880  1  0.401800  0.277200  0.338030  1.0  0.1573
  N  N881  1  0.939100  0.810200  0.129710  1.0  -0.332
  N  N882  1  0.563000  0.806400  0.948870  1.0  -0.3254
  N  N883  1  0.439100  0.310200  0.629710  1.0  -0.332
  N  N884  1  0.063000  0.306400  0.448870  1.0  -0.3254
  N  N885  1  0.560900  0.189800  0.629710  1.0  -0.334
  N  N886  1  0.937000  0.193600  0.448870  1.0  -0.3232
  N  N887  1  0.060900  0.689800  0.129710  1.0  -0.334
  N  N888  1  0.437000  0.693600  0.948870  1.0  -0.3232
  N  N889  1  0.939800  0.189100  0.379710  1.0  -0.3311
  N  N890  1  0.943600  0.813000  0.198870  1.0  -0.3227
  N  N891  1  0.439800  0.689100  0.879710  1.0  -0.3311
  N  N892  1  0.443600  0.313000  0.698870  1.0  -0.3227
  N  N893  1  0.560200  0.810900  0.879710  1.0  -0.3332
  N  N894  1  0.556400  0.187000  0.698870  1.0  -0.3244
  N  N895  1  0.060200  0.310900  0.379710  1.0  -0.3332
  N  N896  1  0.056400  0.687000  0.198870  1.0  -0.3244
  N  N897  1  0.936900  0.308000  0.255610  1.0  -0.3402
  N  N898  1  0.562000  0.309100  0.435740  1.0  -0.3416
  N  N899  1  0.436900  0.808000  0.755610  1.0  -0.3402
  N  N900  1  0.062000  0.809100  0.935740  1.0  -0.3416
  N  N901  1  0.563100  0.692000  0.755610  1.0  -0.3415
  N  N902  1  0.938000  0.690900  0.935740  1.0  -0.3416
  N  N903  1  0.063100  0.192000  0.255610  1.0  -0.3415
  N  N904  1  0.438000  0.190900  0.435740  1.0  -0.3416
  N  N905  1  0.442000  0.186900  0.505610  1.0  -0.341
  N  N906  1  0.440900  0.812000  0.685740  1.0  -0.343
  N  N907  1  0.942000  0.686900  0.005610  1.0  -0.341
  N  N908  1  0.940900  0.312000  0.185740  1.0  -0.343
  N  N909  1  0.058000  0.813100  0.005610  1.0  -0.3422
  N  N910  1  0.059100  0.188000  0.185740  1.0  -0.3435
  N  N911  1  0.558000  0.313100  0.505610  1.0  -0.3422
  N  N912  1  0.559100  0.688000  0.685740  1.0  -0.3435
  N  N913  1  0.060900  0.189800  0.870290  1.0  -0.334
  N  N914  1  0.437000  0.193600  0.051130  1.0  -0.3233
  N  N915  1  0.560900  0.689800  0.370290  1.0  -0.334
  N  N916  1  0.937000  0.693600  0.551130  1.0  -0.3233
  N  N917  1  0.439100  0.810200  0.370290  1.0  -0.3337
  N  N918  1  0.063000  0.806400  0.551130  1.0  -0.3254
  N  N919  1  0.939100  0.310200  0.870290  1.0  -0.3337
  N  N920  1  0.563000  0.306400  0.051130  1.0  -0.3254
  N  N921  1  0.060200  0.810900  0.620290  1.0  -0.3345
  N  N922  1  0.056400  0.187000  0.801130  1.0  -0.3248
  N  N923  1  0.560200  0.310900  0.120290  1.0  -0.3345
  N  N924  1  0.556400  0.687000  0.301130  1.0  -0.3248
  N  N925  1  0.439800  0.189100  0.120290  1.0  -0.3323
  N  N926  1  0.443600  0.813000  0.301130  1.0  -0.3226
  N  N927  1  0.939800  0.689100  0.620290  1.0  -0.3323
  N  N928  1  0.943600  0.313000  0.801130  1.0  -0.3226
  N  N929  1  0.063100  0.692000  0.744390  1.0  -0.3414
  N  N930  1  0.438000  0.690900  0.564260  1.0  -0.3412
  N  N931  1  0.563100  0.192000  0.244390  1.0  -0.3414
  N  N932  1  0.938000  0.190900  0.064260  1.0  -0.3412
  N  N933  1  0.436900  0.308000  0.244390  1.0  -0.3391
  N  N934  1  0.062000  0.309100  0.064260  1.0  -0.342
  N  N935  1  0.936900  0.808000  0.744390  1.0  -0.3391
  N  N936  1  0.562000  0.809100  0.564260  1.0  -0.342
  N  N937  1  0.558000  0.813100  0.494390  1.0  -0.3416
  N  N938  1  0.559100  0.188000  0.314260  1.0  -0.3431
  N  N939  1  0.058000  0.313100  0.994390  1.0  -0.3416
  N  N940  1  0.059100  0.688000  0.814260  1.0  -0.3431
  N  N941  1  0.942000  0.186900  0.994390  1.0  -0.3406
  N  N942  1  0.940900  0.812000  0.814260  1.0  -0.3436
  N  N943  1  0.442000  0.686900  0.494390  1.0  -0.3406
  N  N944  1  0.440900  0.312000  0.314260  1.0  -0.3436
