# generated using pymatgen
data_Cu9H65C77N13O12
_symmetry_space_group_name_H-M   'P 1'
_cell_length_a   27.20100000
_cell_length_b   39.70500000
_cell_length_c   39.70500000
_cell_angle_alpha   90.00000000
_cell_angle_beta   90.00000000
_cell_angle_gamma   90.00000000
_symmetry_Int_Tables_number   1
_chemical_formula_structural   Cu9H65C77N13O12
_chemical_formula_sum   'Cu72 H520 C616 N104 O96'
_cell_volume   42882.02356702
_cell_formula_units_Z   8
loop_
 _symmetry_equiv_pos_site_id
 _symmetry_equiv_pos_as_xyz
  1  'x, y, z'
loop_
 _atom_site_type_symbol
 _atom_site_label
 _atom_site_symmetry_multiplicity
 _atom_site_fract_x
 _atom_site_fract_y
 _atom_site_fract_z
 _atom_site_occupancy
 _atom_site_charge
  Cu  Cu1  1  0.031440  0.440710  0.015730  1.0  0.4482
  Cu  Cu2  1  0.574170  0.988290  0.509630  1.0  0.4435
  Cu  Cu3  1  0.822700  0.079820  0.750000  1.0  0.8841
  Cu  Cu4  1  0.605110  0.439200  0.012890  1.0  0.3169
  Cu  Cu5  1  0.031440  0.440710  0.484270  1.0  0.4486
  Cu  Cu6  1  0.531440  0.484270  0.059290  1.0  0.4477
  Cu  Cu7  1  0.531440  0.015730  0.440710  1.0  0.4491
  Cu  Cu8  1  0.574170  0.511710  0.990370  1.0  0.4426
  Cu  Cu9  1  0.574170  0.988290  0.990370  1.0  0.4428
  Cu  Cu10  1  0.605110  0.439200  0.487110  1.0  0.3183
  Cu  Cu11  1  0.827660  0.012770  0.750000  1.0  0.8575
  Cu  Cu12  1  0.822700  0.420180  0.750000  1.0  0.8854
  Cu  Cu13  1  0.105110  0.012890  0.439200  1.0  0.3181
  Cu  Cu14  1  0.105110  0.012890  0.060800  1.0  0.3202
  Cu  Cu15  1  0.327660  0.750000  0.012770  1.0  0.8584
  Cu  Cu16  1  0.605110  0.060800  0.012890  1.0  0.319
  Cu  Cu17  1  0.105110  0.487110  0.060800  1.0  0.3218
  Cu  Cu18  1  0.120830  0.250000  0.250000  1.0  0.8788
  Cu  Cu19  1  0.531440  0.484270  0.440710  1.0  0.449
  Cu  Cu20  1  0.605110  0.060800  0.487110  1.0  0.3204
  Cu  Cu21  1  0.523580  0.250000  0.250000  1.0  0.8869
  Cu  Cu22  1  0.074170  0.509630  0.511710  1.0  0.4454
  Cu  Cu23  1  0.023580  0.250000  0.250000  1.0  0.8703
  Cu  Cu24  1  0.074170  0.990370  0.988290  1.0  0.444
  Cu  Cu25  1  0.620830  0.250000  0.250000  1.0  0.8788
  Cu  Cu26  1  0.531440  0.015730  0.059290  1.0  0.4477
  Cu  Cu27  1  0.031440  0.059290  0.015730  1.0  0.4478
  Cu  Cu28  1  0.322700  0.750000  0.079820  1.0  0.8789
  Cu  Cu29  1  0.574170  0.511710  0.509630  1.0  0.4434
  Cu  Cu30  1  0.827660  0.487230  0.750000  1.0  0.8579
  Cu  Cu31  1  0.074170  0.990370  0.511710  1.0  0.4427
  Cu  Cu32  1  0.105110  0.487110  0.439200  1.0  0.3195
  Cu  Cu33  1  0.322700  0.750000  0.420180  1.0  0.8803
  Cu  Cu34  1  0.074170  0.509630  0.988290  1.0  0.446
  Cu  Cu35  1  0.327660  0.750000  0.487230  1.0  0.8586
  Cu  Cu36  1  0.031440  0.059290  0.484270  1.0  0.448
  Cu  Cu37  1  0.476420  0.750000  0.750000  1.0  0.8877
  Cu  Cu38  1  0.976420  0.750000  0.750000  1.0  0.8705
  Cu  Cu39  1  0.468560  0.515730  0.940710  1.0  0.4509
  Cu  Cu40  1  0.894890  0.987110  0.939200  1.0  0.3204
  Cu  Cu41  1  0.425830  0.488290  0.490370  1.0  0.443
  Cu  Cu42  1  0.894890  0.987110  0.560800  1.0  0.3225
  Cu  Cu43  1  0.425830  0.488290  0.009630  1.0  0.4438
  Cu  Cu44  1  0.394890  0.939200  0.987110  1.0  0.3186
  Cu  Cu45  1  0.172340  0.512770  0.250000  1.0  0.8566
  Cu  Cu46  1  0.177300  0.920180  0.250000  1.0  0.8865
  Cu  Cu47  1  0.672340  0.250000  0.512770  1.0  0.8575
  Cu  Cu48  1  0.968560  0.940710  0.515730  1.0  0.4498
  Cu  Cu49  1  0.394890  0.560800  0.512890  1.0  0.3202
  Cu  Cu50  1  0.894890  0.512890  0.560800  1.0  0.321
  Cu  Cu51  1  0.425830  0.011710  0.009630  1.0  0.4436
  Cu  Cu52  1  0.672340  0.250000  0.987230  1.0  0.8579
  Cu  Cu53  1  0.177300  0.579820  0.250000  1.0  0.8836
  Cu  Cu54  1  0.925830  0.009630  0.488290  1.0  0.4467
  Cu  Cu55  1  0.968560  0.559290  0.515730  1.0  0.4496
  Cu  Cu56  1  0.394890  0.939200  0.512890  1.0  0.3178
  Cu  Cu57  1  0.925830  0.490370  0.011710  1.0  0.4438
  Cu  Cu58  1  0.925830  0.490370  0.488290  1.0  0.4447
  Cu  Cu59  1  0.925830  0.009630  0.011710  1.0  0.4461
  Cu  Cu60  1  0.468560  0.984270  0.559290  1.0  0.4501
  Cu  Cu61  1  0.677300  0.250000  0.579820  1.0  0.8801
  Cu  Cu62  1  0.879170  0.750000  0.750000  1.0  0.8775
  Cu  Cu63  1  0.968560  0.559290  0.984270  1.0  0.4503
  Cu  Cu64  1  0.968560  0.940710  0.984270  1.0  0.4511
  Cu  Cu65  1  0.677300  0.250000  0.920180  1.0  0.8801
  Cu  Cu66  1  0.379170  0.750000  0.750000  1.0  0.8775
  Cu  Cu67  1  0.394890  0.560800  0.987110  1.0  0.3214
  Cu  Cu68  1  0.468560  0.984270  0.940710  1.0  0.4509
  Cu  Cu69  1  0.894890  0.512890  0.939200  1.0  0.3191
  Cu  Cu70  1  0.468560  0.515730  0.559290  1.0  0.45
  Cu  Cu71  1  0.425830  0.011710  0.490370  1.0  0.4432
  Cu  Cu72  1  0.172340  0.987230  0.250000  1.0  0.8569
  H  H73  1  0.666300  0.377900  0.432800  1.0  0.122
  H  H74  1  0.702700  0.404300  0.565600  1.0  0.1159
  H  H75  1  0.467500  0.881800  0.405900  1.0  0.1065
  H  H76  1  0.508100  0.038700  0.129400  1.0  0.1249
  H  H77  1  0.751300  0.509900  0.661500  1.0  0.1071
  H  H78  1  0.655100  0.540700  0.920300  1.0  0.1156
  H  H79  1  0.427600  0.669500  0.099700  1.0  0.1151
  H  H80  1  0.119300  0.606900  0.523900  1.0  0.12
  H  H81  1  0.425800  0.671600  0.501800  1.0  0.0867
  H  H82  1  0.166300  0.432800  0.377900  1.0  0.1201
  H  H83  1  0.751300  0.990100  0.838500  1.0  0.1078
  H  H84  1  0.951100  0.092600  0.527200  1.0  0.1319
  H  H85  1  0.458900  0.881800  0.993000  1.0  0.1185
  H  H86  1  0.993900  0.111200  0.952400  1.0  0.1201
  H  H87  1  0.469000  0.065900  0.116500  1.0  0.1291
  H  H88  1  0.702700  0.095700  0.934400  1.0  0.1176
  H  H89  1  0.845000  0.893600  0.801000  1.0  0.0935
  H  H90  1  0.845000  0.893600  0.699000  1.0  0.093
  H  H91  1  0.684100  0.098500  0.527500  1.0  0.1332
  H  H92  1  0.634900  0.374600  0.466800  1.0  0.1233
  H  H93  1  0.496100  0.366500  0.365700  1.0  0.1068
  H  H94  1  0.644500  0.363200  0.128600  1.0  0.0967
  H  H95  1  0.925800  0.501800  0.828400  1.0  0.0855
  H  H96  1  0.562900  0.889100  0.987900  1.0  0.1252
  H  H97  1  0.996100  0.134300  0.133500  1.0  0.1082
  H  H98  1  0.498100  0.175800  0.324700  1.0  0.0958
  H  H99  1  0.702700  0.095700  0.565600  1.0  0.1158
  H  H100  1  0.458900  0.618200  0.993000  1.0  0.1186
  H  H101  1  0.710400  0.411100  0.831700  1.0  0.1076
  H  H102  1  0.504700  0.074800  0.352700  1.0  0.1181
  H  H103  1  0.625400  0.349100  0.436300  1.0  0.119
  H  H104  1  0.166300  0.067200  0.377900  1.0  0.1211
  H  H105  1  0.951100  0.092600  0.972800  1.0  0.1326
  H  H106  1  0.451100  0.527200  0.407400  1.0  0.1344
  H  H107  1  0.446100  0.933000  0.098000  1.0  0.12
  H  H108  1  0.662200  0.082900  0.881000  1.0  0.1159
  H  H109  1  0.562900  0.610900  0.987900  1.0  0.1248
  H  H110  1  0.145800  0.327000  0.176000  1.0  0.0966
  H  H111  1  0.425800  0.828400  0.501800  1.0  0.0862
  H  H112  1  0.946100  0.402000  0.933000  1.0  0.12
  H  H113  1  0.064300  0.534100  0.922900  1.0  0.1362
  H  H114  1  0.645800  0.176000  0.327000  1.0  0.0972
  H  H115  1  0.184100  0.527500  0.098500  1.0  0.1354
  H  H116  1  0.834200  0.952100  0.801000  1.0  0.1014
  H  H117  1  0.958900  0.993000  0.881800  1.0  0.1185
  H  H118  1  0.446100  0.567000  0.402000  1.0  0.1203
  H  H119  1  0.710400  0.411100  0.668300  1.0  0.1082
  H  H120  1  0.119300  0.893100  0.976100  1.0  0.1188
  H  H121  1  0.969000  0.383500  0.434100  1.0  0.1292
  H  H122  1  0.597400  0.961700  0.927700  1.0  0.1223
  H  H123  1  0.251300  0.661500  0.509900  1.0  0.1089
  H  H124  1  0.925800  0.998200  0.828400  1.0  0.0851
  H  H125  1  0.144500  0.371400  0.363200  1.0  0.0975
  H  H126  1  0.145800  0.173000  0.324000  1.0  0.0972
  H  H127  1  0.345000  0.699000  0.893600  1.0  0.0917
  H  H128  1  0.202700  0.565600  0.404300  1.0  0.1173
  H  H129  1  0.097400  0.927700  0.961700  1.0  0.1223
  H  H130  1  0.004700  0.147300  0.074800  1.0  0.1131
  H  H131  1  0.498100  0.175800  0.175300  1.0  0.0953
  H  H132  1  0.202700  0.565600  0.095700  1.0  0.1173
  H  H133  1  0.927600  0.099700  0.669500  1.0  0.1173
  H  H134  1  0.467500  0.881800  0.094100  1.0  0.1022
  H  H135  1  0.597400  0.538300  0.572300  1.0  0.1222
  H  H136  1  0.251300  0.838500  0.990100  1.0  0.1068
  H  H137  1  0.967500  0.094100  0.618200  1.0  0.1042
  H  H138  1  0.648800  0.390200  0.557700  1.0  0.1281
  H  H139  1  0.119300  0.606900  0.976100  1.0  0.1204
  H  H140  1  0.451100  0.527200  0.092600  1.0  0.1347
  H  H141  1  0.125400  0.436300  0.150900  1.0  0.1191
  H  H142  1  0.134900  0.033200  0.125400  1.0  0.1227
  H  H143  1  0.427600  0.669500  0.400300  1.0  0.1161
  H  H144  1  0.062900  0.512100  0.610900  1.0  0.1256
  H  H145  1  0.184100  0.972500  0.401500  1.0  0.1355
  H  H146  1  0.004700  0.352700  0.425200  1.0  0.1121
  H  H147  1  0.712000  0.986400  0.608600  1.0  0.1141
  H  H148  1  0.125400  0.063700  0.349100  1.0  0.1201
  H  H149  1  0.625400  0.349100  0.063700  1.0  0.1195
  H  H150  1  0.993900  0.388800  0.952400  1.0  0.1204
  H  H151  1  0.148800  0.942300  0.390200  1.0  0.1255
  H  H152  1  0.597400  0.961700  0.572300  1.0  0.1228
  H  H153  1  0.508100  0.038700  0.370600  1.0  0.1239
  H  H154  1  0.251300  0.661500  0.990100  1.0  0.108
  H  H155  1  0.993900  0.388800  0.547600  1.0  0.1216
  H  H156  1  0.564300  0.922900  0.965900  1.0  0.1355
  H  H157  1  0.210400  0.831700  0.411100  1.0  0.1082
  H  H158  1  0.251300  0.838500  0.509900  1.0  0.1083
  H  H159  1  0.625400  0.150900  0.436300  1.0  0.1172
  H  H160  1  0.751300  0.509900  0.838500  1.0  0.1076
  H  H161  1  0.644500  0.363200  0.371400  1.0  0.0994
  H  H162  1  0.751300  0.990100  0.661500  1.0  0.108
  H  H163  1  0.845000  0.606400  0.801000  1.0  0.0936
  H  H164  1  0.493900  0.952400  0.111200  1.0  0.1222
  H  H165  1  0.998100  0.175300  0.324200  1.0  0.0958
  H  H166  1  0.958900  0.507000  0.881800  1.0  0.1195
  H  H167  1  0.425800  0.828400  0.998200  1.0  0.0866
  H  H168  1  0.666300  0.377900  0.067200  1.0  0.1213
  H  H169  1  0.619300  0.523900  0.893100  1.0  0.1195
  H  H170  1  0.202700  0.934400  0.095700  1.0  0.1174
  H  H171  1  0.162200  0.619000  0.082900  1.0  0.1168
  H  H172  1  0.446100  0.567000  0.098000  1.0  0.12
  H  H173  1  0.062900  0.987900  0.889100  1.0  0.1266
  H  H174  1  0.334200  0.801000  0.547900  1.0  0.1009
  H  H175  1  0.850500  0.635700  0.750000  1.0  0.1108
  H  H176  1  0.212000  0.608600  0.513600  1.0  0.1154
  H  H177  1  0.662200  0.417100  0.881000  1.0  0.1176
  H  H178  1  0.345000  0.699000  0.606400  1.0  0.0919
  H  H179  1  0.562900  0.610900  0.512100  1.0  0.1242
  H  H180  1  0.334200  0.801000  0.952100  1.0  0.1002
  H  H181  1  0.508100  0.461300  0.370600  1.0  0.1253
  H  H182  1  0.451100  0.972800  0.092600  1.0  0.1346
  H  H183  1  0.148800  0.557700  0.109800  1.0  0.1263
  H  H184  1  0.996100  0.134300  0.366500  1.0  0.1078
  H  H185  1  0.202700  0.934400  0.404300  1.0  0.1178
  H  H186  1  0.498100  0.324200  0.324700  1.0  0.0956
  H  H187  1  0.015000  0.967800  0.598900  1.0  0.1081
  H  H188  1  0.951100  0.407400  0.972800  1.0  0.1331
  H  H189  1  0.496100  0.133500  0.365700  1.0  0.1068
  H  H190  1  0.458900  0.618200  0.507000  1.0  0.1184
  H  H191  1  0.155100  0.920300  0.540700  1.0  0.1162
  H  H192  1  0.008100  0.129400  0.038700  1.0  0.1247
  H  H193  1  0.645800  0.176000  0.173000  1.0  0.0969
  H  H194  1  0.712000  0.986400  0.891400  1.0  0.114
  H  H195  1  0.619300  0.976100  0.893100  1.0  0.1198
  H  H196  1  0.097400  0.572300  0.961700  1.0  0.1222
  H  H197  1  0.634900  0.125400  0.466800  1.0  0.1231
  H  H198  1  0.467500  0.618200  0.405900  1.0  0.1067
  H  H199  1  0.451100  0.972800  0.407400  1.0  0.1346
  H  H200  1  0.946100  0.402000  0.567000  1.0  0.1204
  H  H201  1  0.625400  0.150900  0.063700  1.0  0.1194
  H  H202  1  0.144500  0.128600  0.363200  1.0  0.0965
  H  H203  1  0.655100  0.959300  0.579700  1.0  0.1157
  H  H204  1  0.125400  0.063700  0.150900  1.0  0.1187
  H  H205  1  0.648800  0.390200  0.942300  1.0  0.1275
  H  H206  1  0.148800  0.557700  0.390200  1.0  0.1258
  H  H207  1  0.684100  0.098500  0.972500  1.0  0.1336
  H  H208  1  0.666300  0.122100  0.432800  1.0  0.1208
  H  H209  1  0.996100  0.365700  0.133500  1.0  0.108
  H  H210  1  0.515000  0.901100  0.532200  1.0  0.1094
  H  H211  1  0.619300  0.976100  0.606900  1.0  0.1206
  H  H212  1  0.064300  0.534100  0.577100  1.0  0.1345
  H  H213  1  0.015000  0.532200  0.901100  1.0  0.1086
  H  H214  1  0.162200  0.881000  0.417100  1.0  0.1146
  H  H215  1  0.008100  0.370600  0.038700  1.0  0.1261
  H  H216  1  0.350500  0.750000  0.635700  1.0  0.1114
  H  H217  1  0.210400  0.831700  0.088900  1.0  0.1081
  H  H218  1  0.634900  0.125400  0.033200  1.0  0.124
  H  H219  1  0.155100  0.579700  0.540700  1.0  0.1162
  H  H220  1  0.927600  0.400300  0.669500  1.0  0.1172
  H  H221  1  0.712000  0.513600  0.891400  1.0  0.1155
  H  H222  1  0.469000  0.065900  0.383500  1.0  0.1271
  H  H223  1  0.350500  0.750000  0.864300  1.0  0.1108
  H  H224  1  0.684100  0.401500  0.527500  1.0  0.1332
  H  H225  1  0.644500  0.136800  0.371400  1.0  0.0964
  H  H226  1  0.597400  0.538300  0.927700  1.0  0.1212
  H  H227  1  0.004700  0.147300  0.425200  1.0  0.1136
  H  H228  1  0.345000  0.801000  0.606400  1.0  0.0918
  H  H229  1  0.958900  0.993000  0.618200  1.0  0.1195
  H  H230  1  0.925800  0.501800  0.671600  1.0  0.0851
  H  H231  1  0.648800  0.109800  0.942300  1.0  0.128
  H  H232  1  0.967500  0.405900  0.881800  1.0  0.1027
  H  H233  1  0.998100  0.324700  0.175800  1.0  0.0957
  H  H234  1  0.662200  0.417100  0.619000  1.0  0.1146
  H  H235  1  0.008100  0.370600  0.461300  1.0  0.1252
  H  H236  1  0.969000  0.383500  0.065900  1.0  0.13
  H  H237  1  0.210400  0.668300  0.411100  1.0  0.1082
  H  H238  1  0.064300  0.965900  0.922900  1.0  0.1364
  H  H239  1  0.845000  0.606400  0.699000  1.0  0.093
  H  H240  1  0.162200  0.881000  0.082900  1.0  0.1148
  H  H241  1  0.969000  0.116500  0.434100  1.0  0.1282
  H  H242  1  0.064300  0.965900  0.577100  1.0  0.1346
  H  H243  1  0.645800  0.324000  0.173000  1.0  0.0967
  H  H244  1  0.834200  0.547900  0.699000  1.0  0.1011
  H  H245  1  0.655100  0.540700  0.579700  1.0  0.1159
  H  H246  1  0.134900  0.466800  0.125400  1.0  0.1227
  H  H247  1  0.145800  0.173000  0.176000  1.0  0.0969
  H  H248  1  0.927600  0.400300  0.830500  1.0  0.1164
  H  H249  1  0.515000  0.598900  0.532200  1.0  0.1097
  H  H250  1  0.425800  0.671600  0.998200  1.0  0.087
  H  H251  1  0.927600  0.099700  0.830500  1.0  0.1175
  H  H252  1  0.504700  0.425200  0.147300  1.0  0.1201
  H  H253  1  0.119300  0.893100  0.523900  1.0  0.119
  H  H254  1  0.097400  0.927700  0.538300  1.0  0.1211
  H  H255  1  0.166300  0.067200  0.122100  1.0  0.122
  H  H256  1  0.996100  0.365700  0.366500  1.0  0.1076
  H  H257  1  0.334200  0.699000  0.547900  1.0  0.1005
  H  H258  1  0.998100  0.175300  0.175800  1.0  0.0953
  H  H259  1  0.008100  0.129400  0.461300  1.0  0.1241
  H  H260  1  0.967500  0.094100  0.881800  1.0  0.1033
  H  H261  1  0.504700  0.074800  0.147300  1.0  0.1192
  H  H262  1  0.702700  0.404300  0.934400  1.0  0.1174
  H  H263  1  0.148800  0.942300  0.109800  1.0  0.1263
  H  H264  1  0.834200  0.952100  0.699000  1.0  0.1007
  H  H265  1  0.850500  0.864300  0.750000  1.0  0.1111
  H  H266  1  0.469000  0.434100  0.116500  1.0  0.1289
  H  H267  1  0.515000  0.598900  0.967800  1.0  0.1095
  H  H268  1  0.648800  0.109800  0.557700  1.0  0.1283
  H  H269  1  0.062900  0.512100  0.889100  1.0  0.1263
  H  H270  1  0.666300  0.122100  0.067200  1.0  0.1202
  H  H271  1  0.134900  0.033200  0.374600  1.0  0.1228
  H  H272  1  0.015000  0.967800  0.901100  1.0  0.1075
  H  H273  1  0.145800  0.327000  0.324000  1.0  0.097
  H  H274  1  0.515000  0.901100  0.967800  1.0  0.1084
  H  H275  1  0.097400  0.572300  0.538300  1.0  0.1211
  H  H276  1  0.210400  0.668300  0.088900  1.0  0.1079
  H  H277  1  0.710400  0.088900  0.668300  1.0  0.1083
  H  H278  1  0.662200  0.082900  0.619000  1.0  0.1149
  H  H279  1  0.493900  0.952400  0.388800  1.0  0.1218
  H  H280  1  0.508100  0.461300  0.129400  1.0  0.1258
  H  H281  1  0.958900  0.507000  0.618200  1.0  0.1202
  H  H282  1  0.998100  0.324700  0.324200  1.0  0.0958
  H  H283  1  0.458900  0.881800  0.507000  1.0  0.1186
  H  H284  1  0.004700  0.352700  0.074800  1.0  0.1129
  H  H285  1  0.564300  0.577100  0.534100  1.0  0.1345
  H  H286  1  0.951100  0.407400  0.527200  1.0  0.1326
  H  H287  1  0.184100  0.972500  0.098500  1.0  0.1351
  H  H288  1  0.493900  0.547600  0.111200  1.0  0.1219
  H  H289  1  0.467500  0.618200  0.094100  1.0  0.1017
  H  H290  1  0.684100  0.401500  0.972500  1.0  0.1334
  H  H291  1  0.619300  0.523900  0.606900  1.0  0.1203
  H  H292  1  0.644500  0.136800  0.128600  1.0  0.0977
  H  H293  1  0.493900  0.547600  0.388800  1.0  0.1217
  H  H294  1  0.564300  0.922900  0.534100  1.0  0.1344
  H  H295  1  0.166300  0.432800  0.122100  1.0  0.1207
  H  H296  1  0.969000  0.116500  0.065900  1.0  0.1285
  H  H297  1  0.562900  0.889100  0.512100  1.0  0.1246
  H  H298  1  0.496100  0.133500  0.134300  1.0  0.1064
  H  H299  1  0.469000  0.434100  0.383500  1.0  0.127
  H  H300  1  0.212000  0.891400  0.513600  1.0  0.115
  H  H301  1  0.427600  0.830500  0.099700  1.0  0.1155
  H  H302  1  0.710400  0.088900  0.831700  1.0  0.1081
  H  H303  1  0.946100  0.098000  0.933000  1.0  0.1201
  H  H304  1  0.184100  0.527500  0.401500  1.0  0.1356
  H  H305  1  0.834200  0.547900  0.801000  1.0  0.1013
  H  H306  1  0.062900  0.987900  0.610900  1.0  0.1257
  H  H307  1  0.155100  0.579700  0.959300  1.0  0.1168
  H  H308  1  0.134900  0.466800  0.374600  1.0  0.1226
  H  H309  1  0.162200  0.619000  0.417100  1.0  0.115
  H  H310  1  0.212000  0.608600  0.986400  1.0  0.1164
  H  H311  1  0.345000  0.801000  0.893600  1.0  0.0919
  H  H312  1  0.496100  0.366500  0.134300  1.0  0.1064
  H  H313  1  0.655100  0.959300  0.920300  1.0  0.1158
  H  H314  1  0.634900  0.374600  0.033200  1.0  0.1238
  H  H315  1  0.446100  0.933000  0.402000  1.0  0.1201
  H  H316  1  0.155100  0.920300  0.959300  1.0  0.1173
  H  H317  1  0.993900  0.111200  0.547600  1.0  0.1217
  H  H318  1  0.144500  0.128600  0.136800  1.0  0.0955
  H  H319  1  0.498100  0.324200  0.175300  1.0  0.0954
  H  H320  1  0.645800  0.324000  0.327000  1.0  0.0972
  H  H321  1  0.967500  0.405900  0.618200  1.0  0.1038
  H  H322  1  0.334200  0.699000  0.952100  1.0  0.1001
  H  H323  1  0.427600  0.830500  0.400300  1.0  0.1157
  H  H324  1  0.564300  0.577100  0.965900  1.0  0.1359
  H  H325  1  0.144500  0.371400  0.136800  1.0  0.0974
  H  H326  1  0.212000  0.891400  0.986400  1.0  0.1153
  H  H327  1  0.946100  0.098000  0.567000  1.0  0.1198
  H  H328  1  0.015000  0.532200  0.598900  1.0  0.1093
  H  H329  1  0.504700  0.425200  0.352700  1.0  0.1181
  H  H330  1  0.712000  0.513600  0.608600  1.0  0.1147
  H  H331  1  0.125400  0.436300  0.349100  1.0  0.1199
  H  H332  1  0.925800  0.998200  0.671600  1.0  0.085
  H  H333  1  0.854200  0.673000  0.676000  1.0  0.0968
  H  H334  1  0.402600  0.461700  0.072300  1.0  0.1214
  H  H335  1  0.074200  0.001800  0.171600  1.0  0.0855
  H  H336  1  0.532500  0.381800  0.905900  1.0  0.1074
  H  H337  1  0.155000  0.106400  0.199000  1.0  0.0928
  H  H338  1  0.548900  0.472800  0.592600  1.0  0.1351
  H  H339  1  0.501900  0.675800  0.824700  1.0  0.0955
  H  H340  1  0.380700  0.476100  0.393100  1.0  0.1198
  H  H341  1  0.991900  0.870600  0.961300  1.0  0.1252
  H  H342  1  0.072400  0.599700  0.330500  1.0  0.1173
  H  H343  1  0.491900  0.538700  0.629400  1.0  0.1247
  H  H344  1  0.491900  0.538700  0.870600  1.0  0.1233
  H  H345  1  0.031000  0.616500  0.934100  1.0  0.1296
  H  H346  1  0.485000  0.401100  0.032200  1.0  0.1071
  H  H347  1  0.355500  0.863200  0.628600  1.0  0.0987
  H  H348  1  0.072400  0.900300  0.330500  1.0  0.1162
  H  H349  1  0.374600  0.849100  0.936300  1.0  0.1166
  H  H350  1  0.491900  0.961300  0.629400  1.0  0.1258
  H  H351  1  0.995300  0.647300  0.574800  1.0  0.113
  H  H352  1  0.485000  0.098900  0.467800  1.0  0.1079
  H  H353  1  0.531000  0.934100  0.616500  1.0  0.1283
  H  H354  1  0.365100  0.625400  0.966800  1.0  0.1226
  H  H355  1  0.541100  0.118200  0.493000  1.0  0.1192
  H  H356  1  0.031000  0.616500  0.565900  1.0  0.1293
  H  H357  1  0.248700  0.009900  0.338500  1.0  0.1088
  H  H358  1  0.854200  0.673000  0.824000  1.0  0.0968
  H  H359  1  0.655000  0.301000  0.393600  1.0  0.0914
  H  H360  1  0.365100  0.625400  0.533200  1.0  0.1237
  H  H361  1  0.541100  0.381800  0.007000  1.0  0.1188
  H  H362  1  0.991900  0.629400  0.538700  1.0  0.1241
  H  H363  1  0.155000  0.393600  0.301000  1.0  0.0923
  H  H364  1  0.495300  0.925200  0.852700  1.0  0.118
  H  H365  1  0.541100  0.118200  0.007000  1.0  0.1188
  H  H366  1  0.865100  0.966800  0.625400  1.0  0.1228
  H  H367  1  0.837800  0.381000  0.917100  1.0  0.1148
  H  H368  1  0.048900  0.907400  0.472800  1.0  0.1334
  H  H369  1  0.351200  0.609800  0.057700  1.0  0.1277
  H  H370  1  0.553900  0.067000  0.598000  1.0  0.1194
  H  H371  1  0.165800  0.452100  0.199000  1.0  0.1011
  H  H372  1  0.315900  0.901500  0.027500  1.0  0.133
  H  H373  1  0.991900  0.629400  0.961300  1.0  0.124
  H  H374  1  0.402600  0.461700  0.427700  1.0  0.1213
  H  H375  1  0.748700  0.161500  0.009900  1.0  0.1088
  H  H376  1  0.337800  0.582900  0.381000  1.0  0.116
  H  H377  1  0.435700  0.077100  0.034100  1.0  0.1327
  H  H378  1  0.995300  0.647300  0.925200  1.0  0.1144
  H  H379  1  0.365100  0.874600  0.533200  1.0  0.1235
  H  H380  1  0.874600  0.563700  0.650900  1.0  0.1186
  H  H381  1  0.797300  0.065600  0.595700  1.0  0.114
  H  H382  1  0.355500  0.636800  0.871400  1.0  0.0981
  H  H383  1  0.574200  0.328400  0.001800  1.0  0.0869
  H  H384  1  0.572400  0.169500  0.900300  1.0  0.1157
  H  H385  1  0.844900  0.079700  0.459300  1.0  0.1163
  H  H386  1  0.435700  0.077100  0.465900  1.0  0.1334
  H  H387  1  0.248700  0.490100  0.338500  1.0  0.1082
  H  H388  1  0.041100  0.493000  0.118200  1.0  0.1197
  H  H389  1  0.789600  0.331700  0.588900  1.0  0.1079
  H  H390  1  0.355500  0.863200  0.871400  1.0  0.0991
  H  H391  1  0.374600  0.650900  0.936300  1.0  0.1184
  H  H392  1  0.344900  0.040700  0.079700  1.0  0.1159
  H  H393  1  0.748700  0.338500  0.009900  1.0  0.1086
  H  H394  1  0.532500  0.118200  0.594100  1.0  0.1028
  H  H395  1  0.865100  0.966800  0.874600  1.0  0.1227
  H  H396  1  0.351200  0.890200  0.442300  1.0  0.127
  H  H397  1  0.548900  0.027200  0.907400  1.0  0.1342
  H  H398  1  0.854200  0.827000  0.824000  1.0  0.097
  H  H399  1  0.649500  0.250000  0.364300  1.0  0.111
  H  H400  1  0.788000  0.391400  0.486400  1.0  0.1149
  H  H401  1  0.288000  0.486400  0.391400  1.0  0.1133
  H  H402  1  0.003900  0.634300  0.866500  1.0  0.1084
  H  H403  1  0.985000  0.467800  0.401100  1.0  0.1075
  H  H404  1  0.655000  0.199000  0.106400  1.0  0.0913
  H  H405  1  0.074200  0.498200  0.328400  1.0  0.085
  H  H406  1  0.041100  0.007000  0.381800  1.0  0.1197
  H  H407  1  0.937100  0.487900  0.110900  1.0  0.1265
  H  H408  1  0.506100  0.047600  0.888800  1.0  0.1209
  H  H409  1  0.789600  0.168300  0.588900  1.0  0.1081
  H  H410  1  0.574200  0.171600  0.001800  1.0  0.087
  H  H411  1  0.935700  0.465900  0.077100  1.0  0.1325
  H  H412  1  0.337800  0.917100  0.119000  1.0  0.1148
  H  H413  1  0.855500  0.871400  0.863200  1.0  0.0975
  H  H414  1  0.380700  0.023900  0.106900  1.0  0.1198
  H  H415  1  0.053900  0.902000  0.433000  1.0  0.119
  H  H416  1  0.053900  0.598000  0.067000  1.0  0.1198
  H  H417  1  0.855500  0.628600  0.863200  1.0  0.0959
  H  H418  1  0.003900  0.865700  0.866500  1.0  0.1082
  H  H419  1  0.788000  0.108600  0.486400  1.0  0.1145
  H  H420  1  0.649500  0.250000  0.135700  1.0  0.1114
  H  H421  1  0.844900  0.420300  0.040700  1.0  0.1169
  H  H422  1  0.501900  0.675800  0.675300  1.0  0.0949
  H  H423  1  0.001900  0.675300  0.675800  1.0  0.095
  H  H424  1  0.149500  0.364300  0.250000  1.0  0.1111
  H  H425  1  0.851200  0.057700  0.890200  1.0  0.1251
  H  H426  1  0.815900  0.472500  0.598500  1.0  0.1354
  H  H427  1  0.532500  0.118200  0.905900  1.0  0.107
  H  H428  1  0.506100  0.452400  0.888800  1.0  0.1209
  H  H429  1  0.833700  0.932800  0.877900  1.0  0.1214
  H  H430  1  0.344900  0.040700  0.420300  1.0  0.1159
  H  H431  1  0.541100  0.381800  0.493000  1.0  0.1188
  H  H432  1  0.495300  0.574800  0.852700  1.0  0.1184
  H  H433  1  0.665800  0.301000  0.452100  1.0  0.1002
  H  H434  1  0.437100  0.389100  0.012100  1.0  0.1237
  H  H435  1  0.149500  0.135700  0.250000  1.0  0.111
  H  H436  1  0.865100  0.533200  0.874600  1.0  0.1207
  H  H437  1  0.288000  0.486400  0.108600  1.0  0.1131
  H  H438  1  0.665800  0.199000  0.452100  1.0  0.0999
  H  H439  1  0.985000  0.032200  0.401100  1.0  0.1079
  H  H440  1  0.006100  0.611200  0.047600  1.0  0.1208
  H  H441  1  0.072400  0.599700  0.169500  1.0  0.1171
  H  H442  1  0.815900  0.027500  0.901500  1.0  0.1353
  H  H443  1  0.165800  0.047900  0.199000  1.0  0.1011
  H  H444  1  0.006100  0.888800  0.047600  1.0  0.1197
  H  H445  1  0.874600  0.563700  0.849100  1.0  0.1196
  H  H446  1  0.665800  0.301000  0.047900  1.0  0.101
  H  H447  1  0.297300  0.904300  0.434400  1.0  0.1148
  H  H448  1  0.874600  0.936300  0.650900  1.0  0.1192
  H  H449  1  0.354200  0.824000  0.827000  1.0  0.0969
  H  H450  1  0.837800  0.381000  0.582900  1.0  0.1133
  H  H451  1  0.333700  0.877900  0.567200  1.0  0.122
  H  H452  1  0.354200  0.676000  0.827000  1.0  0.097
  H  H453  1  0.315900  0.598500  0.027500  1.0  0.1328
  H  H454  1  0.351200  0.890200  0.057700  1.0  0.1277
  H  H455  1  0.354200  0.824000  0.673000  1.0  0.0968
  H  H456  1  0.333700  0.622100  0.932800  1.0  0.1211
  H  H457  1  0.380700  0.023900  0.393100  1.0  0.1191
  H  H458  1  0.553900  0.067000  0.902000  1.0  0.1182
  H  H459  1  0.789600  0.168300  0.911100  1.0  0.1088
  H  H460  1  0.289600  0.911100  0.168300  1.0  0.1085
  H  H461  1  0.655000  0.199000  0.393600  1.0  0.0913
  H  H462  1  0.865100  0.533200  0.625400  1.0  0.1203
  H  H463  1  0.032500  0.905900  0.381800  1.0  0.1039
  H  H464  1  0.995300  0.852700  0.925200  1.0  0.1133
  H  H465  1  0.532500  0.381800  0.594100  1.0  0.1037
  H  H466  1  0.935700  0.034100  0.422900  1.0  0.1338
  H  H467  1  0.297300  0.595700  0.434400  1.0  0.1153
  H  H468  1  0.031000  0.883500  0.565900  1.0  0.1296
  H  H469  1  0.531000  0.934100  0.883500  1.0  0.1284
  H  H470  1  0.495300  0.925200  0.647300  1.0  0.1189
  H  H471  1  0.851200  0.057700  0.609800  1.0  0.1258
  H  H472  1  0.495300  0.574800  0.647300  1.0  0.1188
  H  H473  1  0.288000  0.013600  0.391400  1.0  0.1149
  H  H474  1  0.902600  0.427700  0.461700  1.0  0.1205
  H  H475  1  0.333700  0.877900  0.932800  1.0  0.1214
  H  H476  1  0.001900  0.675300  0.824200  1.0  0.0956
  H  H477  1  0.880700  0.393100  0.476100  1.0  0.1194
  H  H478  1  0.789600  0.331700  0.911100  1.0  0.1084
  H  H479  1  0.437100  0.389100  0.487900  1.0  0.1245
  H  H480  1  0.506100  0.047600  0.611200  1.0  0.1223
  H  H481  1  0.574200  0.171600  0.498200  1.0  0.0868
  H  H482  1  0.833700  0.567200  0.622100  1.0  0.1219
  H  H483  1  0.995300  0.852700  0.574800  1.0  0.1135
  H  H484  1  0.854200  0.827000  0.676000  1.0  0.0968
  H  H485  1  0.991900  0.870600  0.538700  1.0  0.1254
  H  H486  1  0.003900  0.865700  0.633500  1.0  0.1084
  H  H487  1  0.485000  0.098900  0.032200  1.0  0.1081
  H  H488  1  0.074200  0.498200  0.171600  1.0  0.0856
  H  H489  1  0.048900  0.592600  0.027200  1.0  0.1318
  H  H490  1  0.815900  0.472500  0.901500  1.0  0.1358
  H  H491  1  0.833700  0.567200  0.877900  1.0  0.1215
  H  H492  1  0.503900  0.633500  0.865700  1.0  0.1071
  H  H493  1  0.503900  0.866500  0.634300  1.0  0.107
  H  H494  1  0.333700  0.622100  0.567200  1.0  0.1218
  H  H495  1  0.031000  0.883500  0.934100  1.0  0.1296
  H  H496  1  0.155000  0.106400  0.301000  1.0  0.0924
  H  H497  1  0.797300  0.434400  0.595700  1.0  0.1151
  H  H498  1  0.797300  0.434400  0.904300  1.0  0.1151
  H  H499  1  0.437100  0.110900  0.487900  1.0  0.1251
  H  H500  1  0.003900  0.634300  0.633500  1.0  0.1084
  H  H501  1  0.833700  0.932800  0.622100  1.0  0.1215
  H  H502  1  0.355500  0.636800  0.628600  1.0  0.0995
  H  H503  1  0.248700  0.490100  0.161500  1.0  0.1081
  H  H504  1  0.985000  0.032200  0.098900  1.0  0.1079
  H  H505  1  0.655000  0.301000  0.106400  1.0  0.0914
  H  H506  1  0.155000  0.393600  0.199000  1.0  0.0925
  H  H507  1  0.902600  0.072300  0.461700  1.0  0.1204
  H  H508  1  0.553900  0.433000  0.598000  1.0  0.1208
  H  H509  1  0.572400  0.169500  0.599700  1.0  0.1155
  H  H510  1  0.501900  0.824200  0.824700  1.0  0.0952
  H  H511  1  0.902600  0.427700  0.038300  1.0  0.1203
  H  H512  1  0.548900  0.027200  0.592600  1.0  0.1352
  H  H513  1  0.935700  0.034100  0.077100  1.0  0.1333
  H  H514  1  0.315900  0.598500  0.472500  1.0  0.1332
  H  H515  1  0.351200  0.609800  0.442300  1.0  0.1273
  H  H516  1  0.365100  0.874600  0.966800  1.0  0.1226
  H  H517  1  0.402600  0.038300  0.072300  1.0  0.1208
  H  H518  1  0.748700  0.338500  0.490100  1.0  0.108
  H  H519  1  0.985000  0.467800  0.098900  1.0  0.1081
  H  H520  1  0.506100  0.452400  0.611200  1.0  0.1221
  H  H521  1  0.937100  0.487900  0.389100  1.0  0.1254
  H  H522  1  0.001900  0.824700  0.824200  1.0  0.0953
  H  H523  1  0.665800  0.199000  0.047900  1.0  0.1005
  H  H524  1  0.902600  0.072300  0.038300  1.0  0.1205
  H  H525  1  0.837800  0.119000  0.582900  1.0  0.1159
  H  H526  1  0.572400  0.330500  0.900300  1.0  0.1156
  H  H527  1  0.006100  0.888800  0.452400  1.0  0.1202
  H  H528  1  0.851200  0.442300  0.609800  1.0  0.1261
  H  H529  1  0.315900  0.901500  0.472500  1.0  0.1331
  H  H530  1  0.855500  0.871400  0.636800  1.0  0.0969
  H  H531  1  0.006100  0.611200  0.452400  1.0  0.121
  H  H532  1  0.935700  0.465900  0.422900  1.0  0.1337
  H  H533  1  0.788000  0.391400  0.013600  1.0  0.1159
  H  H534  1  0.248700  0.009900  0.161500  1.0  0.1074
  H  H535  1  0.297300  0.595700  0.065600  1.0  0.1132
  H  H536  1  0.437100  0.110900  0.012100  1.0  0.1245
  H  H537  1  0.855500  0.628600  0.636800  1.0  0.0974
  H  H538  1  0.380700  0.476100  0.106900  1.0  0.1206
  H  H539  1  0.374600  0.650900  0.563700  1.0  0.1191
  H  H540  1  0.337800  0.917100  0.381000  1.0  0.1176
  H  H541  1  0.501900  0.824200  0.675300  1.0  0.0951
  H  H542  1  0.402600  0.038300  0.427700  1.0  0.1201
  H  H543  1  0.344900  0.459300  0.079700  1.0  0.1146
  H  H544  1  0.032500  0.594100  0.118200  1.0  0.1047
  H  H545  1  0.354200  0.676000  0.673000  1.0  0.0969
  H  H546  1  0.165800  0.047900  0.301000  1.0  0.1011
  H  H547  1  0.748700  0.161500  0.490100  1.0  0.1088
  H  H548  1  0.837800  0.119000  0.917100  1.0  0.1165
  H  H549  1  0.374600  0.849100  0.563700  1.0  0.1193
  H  H550  1  0.053900  0.598000  0.433000  1.0  0.1199
  H  H551  1  0.053900  0.902000  0.067000  1.0  0.12
  H  H552  1  0.503900  0.633500  0.634300  1.0  0.1072
  H  H553  1  0.032500  0.594100  0.381800  1.0  0.1046
  H  H554  1  0.041100  0.493000  0.381800  1.0  0.1188
  H  H555  1  0.289600  0.588900  0.168300  1.0  0.1087
  H  H556  1  0.503900  0.866500  0.865700  1.0  0.1072
  H  H557  1  0.531000  0.565900  0.883500  1.0  0.1287
  H  H558  1  0.531000  0.565900  0.616500  1.0  0.1285
  H  H559  1  0.880700  0.393100  0.023900  1.0  0.1193
  H  H560  1  0.874600  0.936300  0.849100  1.0  0.1191
  H  H561  1  0.048900  0.907400  0.027200  1.0  0.1324
  H  H562  1  0.041100  0.007000  0.118200  1.0  0.1204
  H  H563  1  0.072400  0.900300  0.169500  1.0  0.1169
  H  H564  1  0.289600  0.911100  0.331700  1.0  0.108
  H  H565  1  0.880700  0.106900  0.023900  1.0  0.1198
  H  H566  1  0.001900  0.824700  0.675800  1.0  0.0951
  H  H567  1  0.844900  0.420300  0.459300  1.0  0.1166
  H  H568  1  0.344900  0.459300  0.420300  1.0  0.1149
  H  H569  1  0.851200  0.442300  0.890200  1.0  0.1251
  H  H570  1  0.937100  0.012100  0.110900  1.0  0.1266
  H  H571  1  0.880700  0.106900  0.476100  1.0  0.1202
  H  H572  1  0.797300  0.065600  0.904300  1.0  0.1144
  H  H573  1  0.032500  0.905900  0.118200  1.0  0.104
  H  H574  1  0.572400  0.330500  0.599700  1.0  0.1162
  H  H575  1  0.844900  0.079700  0.040700  1.0  0.1167
  H  H576  1  0.937100  0.012100  0.389100  1.0  0.1253
  H  H577  1  0.074200  0.001800  0.328400  1.0  0.0853
  H  H578  1  0.435700  0.422900  0.465900  1.0  0.1335
  H  H579  1  0.485000  0.401100  0.467800  1.0  0.1071
  H  H580  1  0.553900  0.433000  0.902000  1.0  0.1182
  H  H581  1  0.297300  0.904300  0.065600  1.0  0.1141
  H  H582  1  0.435700  0.422900  0.034100  1.0  0.1329
  H  H583  1  0.288000  0.013600  0.108600  1.0  0.1152
  H  H584  1  0.548900  0.472800  0.907400  1.0  0.1343
  H  H585  1  0.337800  0.582900  0.119000  1.0  0.1164
  H  H586  1  0.491900  0.961300  0.870600  1.0  0.1251
  H  H587  1  0.165800  0.452100  0.301000  1.0  0.1014
  H  H588  1  0.815900  0.027500  0.598500  1.0  0.1351
  H  H589  1  0.048900  0.592600  0.472800  1.0  0.1328
  H  H590  1  0.574200  0.328400  0.498200  1.0  0.0866
  H  H591  1  0.289600  0.588900  0.331700  1.0  0.1085
  H  H592  1  0.788000  0.108600  0.013600  1.0  0.1149
  C  C593  1  0.494000  0.554600  0.059800  1.0  0.129
  C  C594  1  0.595800  0.103800  0.427900  1.0  0.1835
  C  C595  1  0.114500  0.361700  0.144300  1.0  -0.1178
  C  C596  1  0.189000  0.609400  0.035500  1.0  -0.0183
  C  C597  1  0.969000  0.093300  0.951400  1.0  -0.3677
  C  C598  1  0.068500  0.100900  0.395700  1.0  -0.0065
  C  C599  1  0.734600  0.460000  0.831000  1.0  -0.1249
  C  C600  1  0.174100  0.949300  0.093700  1.0  -0.3921
  C  C601  1  0.174100  0.949300  0.406300  1.0  -0.3921
  C  C602  1  0.386600  0.795900  0.450400  1.0  0.7176
  C  C603  1  0.234600  0.831000  0.040000  1.0  -0.125
  C  C604  1  0.235200  0.848000  0.009100  1.0  -0.0242
  C  C605  1  0.043900  0.519600  0.591300  1.0  -0.3988
  C  C606  1  0.919100  0.451600  0.824900  1.0  -0.1636
  C  C607  1  0.342800  0.780220  0.594400  1.0  -0.1243
  C  C608  1  0.125600  0.917200  0.527000  1.0  -0.3833
  C  C609  1  0.002100  0.125800  0.437200  1.0  -0.3876
  C  C610  1  0.528200  0.332400  0.333800  1.0  -0.0356
  C  C611  1  0.836400  0.940200  0.780190  1.0  0.1078
  C  C612  1  0.919100  0.048400  0.675100  1.0  -0.1609
  C  C613  1  0.028200  0.333800  0.167600  1.0  -0.0358
  C  C614  1  0.027300  0.011200  0.570900  1.0  0.0992
  C  C615  1  0.336400  0.719810  0.559800  1.0  0.112
  C  C616  1  0.614500  0.355700  0.361700  1.0  -0.1201
  C  C617  1  0.266000  0.796900  0.459500  1.0  0.6884
  C  C618  1  0.836400  0.559800  0.780190  1.0  0.1071
  C  C619  1  0.766000  0.459500  0.796900  1.0  0.6916
  C  C620  1  0.919100  0.451600  0.675100  1.0  -0.1607
  C  C621  1  0.528200  0.332400  0.166200  1.0  -0.0352
  C  C622  1  0.502100  0.437200  0.374200  1.0  -0.3847
  C  C623  1  0.568500  0.395700  0.100900  1.0  -0.0052
  C  C624  1  0.576700  0.206100  0.295700  1.0  0.6512
  C  C625  1  0.027300  0.488800  0.929100  1.0  0.0971
  C  C626  1  0.471700  0.887000  0.044200  1.0  0.0215
  C  C627  1  0.000100  0.038100  0.918300  1.0  -0.0906
  C  C628  1  0.133000  0.933500  0.493200  1.0  0.2146
  C  C629  1  0.572100  0.319500  0.178200  1.0  -0.1236
  C  C630  1  0.842800  0.905600  0.780220  1.0  -0.1231
  C  C631  1  0.494000  0.554600  0.440200  1.0  0.1304
  C  C632  1  0.709400  0.068100  0.656500  1.0  -0.032
  C  C633  1  0.469000  0.951400  0.093300  1.0  -0.3642
  C  C634  1  0.235200  0.848000  0.490900  1.0  -0.0225
  C  C635  1  0.526700  0.142700  0.141300  1.0  -0.142
  C  C636  1  0.342800  0.719780  0.594400  1.0  -0.1255
  C  C637  1  0.958400  0.426100  0.870600  1.0  -0.0732
  C  C638  1  0.028200  0.166200  0.167600  1.0  -0.0367
  C  C639  1  0.994000  0.440200  0.945400  1.0  0.1319
  C  C640  1  0.432700  0.840400  0.481700  1.0  -0.0743
  C  C641  1  0.174100  0.550700  0.093700  1.0  -0.3925
  C  C642  1  0.572100  0.180500  0.178200  1.0  -0.1237
  C  C643  1  0.543900  0.591300  0.519600  1.0  -0.3991
  C  C644  1  0.659000  0.466100  0.577400  1.0  -0.1457
  C  C645  1  0.432700  0.659600  0.481700  1.0  -0.0759
  C  C646  1  0.095800  0.427900  0.396200  1.0  0.1822
  C  C647  1  0.709400  0.068100  0.843500  1.0  -0.0293
  C  C648  1  0.683000  0.434600  0.873100  1.0  -0.1781
  C  C649  1  0.133000  0.566500  0.006800  1.0  0.2133
  C  C650  1  0.125600  0.582800  0.973000  1.0  -0.3834
  C  C651  1  0.502100  0.062800  0.125800  1.0  -0.3855
  C  C652  1  0.002100  0.374200  0.437200  1.0  -0.3852
  C  C653  1  0.526700  0.357300  0.358700  1.0  -0.1411
  C  C654  1  0.842800  0.594400  0.780220  1.0  -0.1238
  C  C655  1  0.653700  0.058200  0.552800  1.0  0.1729
  C  C656  1  0.659000  0.033900  0.577400  1.0  -0.1455
  C  C657  1  0.689000  0.464500  0.890600  1.0  -0.0176
  C  C658  1  0.095800  0.072100  0.103800  1.0  0.181
  C  C659  1  0.419100  0.675100  0.451600  1.0  -0.1587
  C  C660  1  0.994000  0.440200  0.554600  1.0  0.1324
  C  C661  1  0.712100  0.493200  0.878800  1.0  -0.1683
  C  C662  1  0.433800  0.840100  0.078200  1.0  -0.13
  C  C663  1  0.526700  0.142700  0.358700  1.0  -0.1418
  C  C664  1  0.735200  0.490900  0.652000  1.0  -0.023
  C  C665  1  0.526700  0.357300  0.141300  1.0  -0.1414
  C  C666  1  0.153700  0.947200  0.058200  1.0  0.1749
  C  C667  1  0.846200  0.611900  0.750000  1.0  -0.0817
  C  C668  1  0.712100  0.006800  0.878800  1.0  -0.1668
  C  C669  1  0.183000  0.626900  0.434600  1.0  -0.1739
  C  C670  1  0.919100  0.048400  0.824900  1.0  -0.1748
  C  C671  1  0.209400  0.843500  0.068100  1.0  -0.0369
  C  C672  1  0.153700  0.947200  0.441800  1.0  0.1727
  C  C673  1  0.494000  0.945400  0.440200  1.0  0.1302
  C  C674  1  0.346200  0.750000  0.888100  1.0  -0.082
  C  C675  1  0.068500  0.100900  0.104300  1.0  -0.0062
  C  C676  1  0.070200  0.373300  0.131600  1.0  -0.0081
  C  C677  1  0.653700  0.441800  0.552800  1.0  0.1725
  C  C678  1  0.625600  0.527000  0.917200  1.0  -0.3824
  C  C679  1  0.115100  0.164500  0.331800  1.0  -0.1048
  C  C680  1  0.527300  0.929100  0.011200  1.0  0.0965
  C  C681  1  0.572100  0.180500  0.321800  1.0  -0.1236
  C  C682  1  0.543900  0.908700  0.519600  1.0  -0.3977
  C  C683  1  0.734600  0.460000  0.669000  1.0  -0.1246
  C  C684  1  0.209400  0.843500  0.431900  1.0  -0.0347
  C  C685  1  0.955000  0.485500  0.871600  1.0  -0.2024
  C  C686  1  0.568500  0.104300  0.100900  1.0  -0.0049
  C  C687  1  0.234600  0.669000  0.040000  1.0  -0.1256
  C  C688  1  0.994000  0.059800  0.945400  1.0  0.1319
  C  C689  1  0.266000  0.796900  0.040500  1.0  0.6923
  C  C690  1  0.971700  0.455800  0.613000  1.0  0.0225
  C  C691  1  0.683000  0.065400  0.626900  1.0  -0.1778
  C  C692  1  0.766000  0.040500  0.703100  1.0  0.6906
  C  C693  1  0.674100  0.406300  0.949300  1.0  -0.3929
  C  C694  1  0.633000  0.006800  0.933500  1.0  0.2149
  C  C695  1  0.576700  0.293900  0.295700  1.0  0.6506
  C  C696  1  0.153700  0.552800  0.058200  1.0  0.1727
  C  C697  1  0.689000  0.464500  0.609400  1.0  -0.0173
  C  C698  1  0.633000  0.493200  0.933500  1.0  0.2126
  C  C699  1  0.955000  0.014500  0.628400  1.0  -0.2031
  C  C700  1  0.955000  0.014500  0.871600  1.0  -0.2025
  C  C701  1  0.469000  0.951400  0.406700  1.0  -0.3687
  C  C702  1  0.500100  0.918300  0.038100  1.0  -0.0913
  C  C703  1  0.735200  0.009100  0.848000  1.0  -0.0231
  C  C704  1  0.027300  0.488800  0.570900  1.0  0.0973
  C  C705  1  0.076700  0.295700  0.206100  1.0  0.6495
  C  C706  1  0.674100  0.093700  0.949300  1.0  -0.3917
  C  C707  1  0.576700  0.206100  0.204300  1.0  0.6495
  C  C708  1  0.159000  0.922600  0.466100  1.0  -0.1447
  C  C709  1  0.209400  0.656500  0.068100  1.0  -0.0369
  C  C710  1  0.539900  0.423400  0.398700  1.0  0.1829
  C  C711  1  0.212100  0.878800  0.493200  1.0  -0.1638
  C  C712  1  0.528200  0.167600  0.166200  1.0  -0.0352
  C  C713  1  0.039900  0.101300  0.076600  1.0  0.1856
  C  C714  1  0.342800  0.719780  0.905600  1.0  -0.1233
  C  C715  1  0.615100  0.168200  0.335500  1.0  -0.1053
  C  C716  1  0.159000  0.577400  0.466100  1.0  -0.1446
  C  C717  1  0.432700  0.659600  0.018300  1.0  -0.0764
  C  C718  1  0.683000  0.065400  0.873100  1.0  -0.1789
  C  C719  1  0.634000  0.372400  0.442200  1.0  -0.3823
  C  C720  1  0.455000  0.871600  0.485500  1.0  -0.2003
  C  C721  1  0.432700  0.840400  0.018300  1.0  -0.0748
  C  C722  1  0.633000  0.006800  0.566500  1.0  0.2156
  C  C723  1  0.500100  0.581700  0.038100  1.0  -0.0919
  C  C724  1  0.625600  0.527000  0.582800  1.0  -0.3825
  C  C725  1  0.159000  0.577400  0.033900  1.0  -0.145
  C  C726  1  0.712100  0.006800  0.621200  1.0  -0.1662
  C  C727  1  0.527300  0.570900  0.488800  1.0  0.0972
  C  C728  1  0.955000  0.485500  0.628400  1.0  -0.2028
  C  C729  1  0.212100  0.621200  0.493200  1.0  -0.1639
  C  C730  1  0.634000  0.127600  0.057800  1.0  -0.3822
  C  C731  1  0.234600  0.831000  0.460000  1.0  -0.1246
  C  C732  1  0.543900  0.591300  0.980400  1.0  -0.3974
  C  C733  1  0.568500  0.104300  0.399100  1.0  -0.0053
  C  C734  1  0.842800  0.905600  0.719780  1.0  -0.1251
  C  C735  1  0.433800  0.659900  0.421800  1.0  -0.1314
  C  C736  1  0.153700  0.552800  0.441800  1.0  0.177
  C  C737  1  0.002100  0.125800  0.062800  1.0  -0.3871
  C  C738  1  0.336400  0.780190  0.559800  1.0  0.1099
  C  C739  1  0.471700  0.613000  0.455800  1.0  0.0218
  C  C740  1  0.886600  0.450400  0.704100  1.0  0.7183
  C  C741  1  0.183000  0.873100  0.434600  1.0  -0.1724
  C  C742  1  0.043900  0.519600  0.908700  1.0  -0.3989
  C  C743  1  0.527300  0.929100  0.488800  1.0  0.0982
  C  C744  1  0.933800  0.421800  0.659900  1.0  -0.1301
  C  C745  1  0.026700  0.358700  0.142700  1.0  -0.1435
  C  C746  1  0.419100  0.824900  0.048400  1.0  -0.1605
  C  C747  1  0.336400  0.719810  0.940200  1.0  0.1137
  C  C748  1  0.070200  0.373300  0.368400  1.0  -0.009
  C  C749  1  0.027300  0.011200  0.929100  1.0  0.0961
  C  C750  1  0.595800  0.396200  0.072100  1.0  0.1815
  C  C751  1  0.969000  0.093300  0.548600  1.0  -0.3684
  C  C752  1  0.734600  0.040000  0.831000  1.0  -0.1249
  C  C753  1  0.183000  0.873100  0.065400  1.0  -0.1747
  C  C754  1  0.836400  0.559800  0.719810  1.0  0.1078
  C  C755  1  0.528200  0.167600  0.333800  1.0  -0.036
  C  C756  1  0.076700  0.204300  0.206100  1.0  0.65
  C  C757  1  0.572100  0.319500  0.321800  1.0  -0.1243
  C  C758  1  0.114500  0.138300  0.355700  1.0  -0.1182
  C  C759  1  0.735200  0.490900  0.848000  1.0  -0.022
  C  C760  1  0.614500  0.144300  0.361700  1.0  -0.1203
  C  C761  1  0.458400  0.629400  0.426100  1.0  -0.0714
  C  C762  1  0.932700  0.481700  0.840400  1.0  -0.0694
  C  C763  1  0.028200  0.166200  0.332400  1.0  -0.0369
  C  C764  1  0.002100  0.374200  0.062800  1.0  -0.3856
  C  C765  1  0.766000  0.040500  0.796900  1.0  0.6918
  C  C766  1  0.674100  0.406300  0.550700  1.0  -0.3935
  C  C767  1  0.458400  0.629400  0.073900  1.0  -0.0697
  C  C768  1  0.689000  0.035500  0.609400  1.0  -0.0165
  C  C769  1  0.125600  0.917200  0.973000  1.0  -0.383
  C  C770  1  0.133000  0.566500  0.493200  1.0  0.2153
  C  C771  1  0.209400  0.656500  0.431900  1.0  -0.0355
  C  C772  1  0.471700  0.613000  0.044200  1.0  0.0221
  C  C773  1  0.615100  0.331800  0.164500  1.0  -0.1046
  C  C774  1  0.932700  0.018300  0.840400  1.0  -0.0695
  C  C775  1  0.266000  0.703100  0.040500  1.0  0.6917
  C  C776  1  0.133000  0.933500  0.006800  1.0  0.2089
  C  C777  1  0.659000  0.033900  0.922600  1.0  -0.1461
  C  C778  1  0.026700  0.141300  0.142700  1.0  -0.144
  C  C779  1  0.114500  0.361700  0.355700  1.0  -0.1179
  C  C780  1  0.039900  0.398700  0.076600  1.0  0.1854
  C  C781  1  0.043900  0.980400  0.908700  1.0  -0.3981
  C  C782  1  0.115100  0.164500  0.168200  1.0  -0.1054
  C  C783  1  0.958400  0.426100  0.629400  1.0  -0.0741
  C  C784  1  0.836400  0.940200  0.719810  1.0  0.1073
  C  C785  1  0.072100  0.321800  0.319500  1.0  -0.1255
  C  C786  1  0.469000  0.548600  0.093300  1.0  -0.3675
  C  C787  1  0.634000  0.127600  0.442200  1.0  -0.3827
  C  C788  1  0.539900  0.423400  0.101300  1.0  0.1871
  C  C789  1  0.494000  0.945400  0.059800  1.0  0.129
  C  C790  1  0.072100  0.321800  0.180500  1.0  -0.1246
  C  C791  1  0.615100  0.331800  0.335500  1.0  -0.1048
  C  C792  1  0.000100  0.461900  0.918300  1.0  -0.0917
  C  C793  1  0.028200  0.333800  0.332400  1.0  -0.036
  C  C794  1  0.342800  0.780220  0.905600  1.0  -0.1243
  C  C795  1  0.189000  0.609400  0.464500  1.0  -0.0179
  C  C796  1  0.933800  0.421800  0.840100  1.0  -0.1297
  C  C797  1  0.039900  0.398700  0.423400  1.0  0.1842
  C  C798  1  0.570200  0.368400  0.373300  1.0  -0.0109
  C  C799  1  0.386600  0.704100  0.049600  1.0  0.7155
  C  C800  1  0.634000  0.372400  0.057800  1.0  -0.3817
  C  C801  1  0.070200  0.126700  0.368400  1.0  -0.0096
  C  C802  1  0.386600  0.704100  0.450400  1.0  0.7162
  C  C803  1  0.000100  0.038100  0.581700  1.0  -0.0922
  C  C804  1  0.068500  0.399100  0.104300  1.0  -0.0069
  C  C805  1  0.134000  0.057800  0.127600  1.0  -0.3827
  C  C806  1  0.419100  0.824900  0.451600  1.0  -0.1613
  C  C807  1  0.189000  0.890600  0.464500  1.0  -0.0168
  C  C808  1  0.633000  0.493200  0.566500  1.0  0.2165
  C  C809  1  0.458400  0.870600  0.426100  1.0  -0.072
  C  C810  1  0.026700  0.358700  0.357300  1.0  -0.1434
  C  C811  1  0.189000  0.890600  0.035500  1.0  -0.0172
  C  C812  1  0.527300  0.570900  0.011200  1.0  0.0958
  C  C813  1  0.932700  0.481700  0.659600  1.0  -0.0688
  C  C814  1  0.994000  0.059800  0.554600  1.0  0.1329
  C  C815  1  0.958400  0.073900  0.629400  1.0  -0.0732
  C  C816  1  0.471700  0.887000  0.455800  1.0  0.0211
  C  C817  1  0.570200  0.368400  0.126700  1.0  -0.0095
  C  C818  1  0.070200  0.126700  0.131600  1.0  -0.009
  C  C819  1  0.595800  0.396200  0.427900  1.0  0.1818
  C  C820  1  0.653700  0.058200  0.947200  1.0  0.1742
  C  C821  1  0.134000  0.442200  0.127600  1.0  -0.3827
  C  C822  1  0.971700  0.044200  0.887000  1.0  0.0224
  C  C823  1  0.455000  0.871600  0.014500  1.0  -0.1987
  C  C824  1  0.709400  0.431900  0.656500  1.0  -0.033
  C  C825  1  0.455000  0.628400  0.014500  1.0  -0.1988
  C  C826  1  0.614500  0.355700  0.138300  1.0  -0.1197
  C  C827  1  0.234600  0.669000  0.460000  1.0  -0.1255
  C  C828  1  0.095800  0.072100  0.396200  1.0  0.1814
  C  C829  1  0.502100  0.062800  0.374200  1.0  -0.3844
  C  C830  1  0.235200  0.652000  0.490900  1.0  -0.0226
  C  C831  1  0.971700  0.455800  0.887000  1.0  0.0202
  C  C832  1  0.212100  0.621200  0.006800  1.0  -0.1632
  C  C833  1  0.886600  0.049600  0.795900  1.0  0.718
  C  C834  1  0.846200  0.888100  0.750000  1.0  -0.0835
  C  C835  1  0.072100  0.178200  0.319500  1.0  -0.1246
  C  C836  1  0.183000  0.626900  0.065400  1.0  -0.1713
  C  C837  1  0.235200  0.652000  0.009100  1.0  -0.0232
  C  C838  1  0.614500  0.144300  0.138300  1.0  -0.1192
  C  C839  1  0.072100  0.178200  0.180500  1.0  -0.1241
  C  C840  1  0.346200  0.750000  0.611900  1.0  -0.0828
  C  C841  1  0.615100  0.168200  0.164500  1.0  -0.1049
  C  C842  1  0.076700  0.204300  0.293900  1.0  0.6507
  C  C843  1  0.174100  0.550700  0.406300  1.0  -0.3926
  C  C844  1  0.212100  0.878800  0.006800  1.0  -0.1626
  C  C845  1  0.766000  0.459500  0.703100  1.0  0.6908
  C  C846  1  0.735200  0.009100  0.652000  1.0  -0.0237
  C  C847  1  0.709400  0.431900  0.843500  1.0  -0.0299
  C  C848  1  0.266000  0.703100  0.459500  1.0  0.6905
  C  C849  1  0.683000  0.434600  0.626900  1.0  -0.1785
  C  C850  1  0.114500  0.138300  0.144300  1.0  -0.1171
  C  C851  1  0.712100  0.493200  0.621200  1.0  -0.1675
  C  C852  1  0.932700  0.018300  0.659600  1.0  -0.0695
  C  C853  1  0.625600  0.973000  0.917200  1.0  -0.3836
  C  C854  1  0.595800  0.103800  0.072100  1.0  0.1834
  C  C855  1  0.068500  0.399100  0.395700  1.0  -0.0068
  C  C856  1  0.455000  0.628400  0.485500  1.0  -0.1997
  C  C857  1  0.933800  0.078200  0.659900  1.0  -0.132
  C  C858  1  0.969000  0.406700  0.548600  1.0  -0.3664
  C  C859  1  0.842800  0.594400  0.719780  1.0  -0.1216
  C  C860  1  0.000100  0.461900  0.581700  1.0  -0.0923
  C  C861  1  0.026700  0.141300  0.357300  1.0  -0.1436
  C  C862  1  0.543900  0.908700  0.980400  1.0  -0.3975
  C  C863  1  0.502100  0.437200  0.125800  1.0  -0.3857
  C  C864  1  0.039900  0.101300  0.423400  1.0  0.1891
  C  C865  1  0.419100  0.675100  0.048400  1.0  -0.1688
  C  C866  1  0.539900  0.076600  0.101300  1.0  0.183
  C  C867  1  0.689000  0.035500  0.890600  1.0  -0.0169
  C  C868  1  0.674100  0.093700  0.550700  1.0  -0.3922
  C  C869  1  0.043900  0.980400  0.591300  1.0  -0.3981
  C  C870  1  0.469000  0.548600  0.406700  1.0  -0.3652
  C  C871  1  0.734600  0.040000  0.669000  1.0  -0.1249
  C  C872  1  0.500100  0.918300  0.461900  1.0  -0.0913
  C  C873  1  0.159000  0.922600  0.033900  1.0  -0.1451
  C  C874  1  0.653700  0.441800  0.947200  1.0  0.1738
  C  C875  1  0.969000  0.406700  0.951400  1.0  -0.3664
  C  C876  1  0.971700  0.044200  0.613000  1.0  0.0218
  C  C877  1  0.125600  0.582800  0.527000  1.0  -0.3831
  C  C878  1  0.570200  0.131600  0.373300  1.0  -0.0111
  C  C879  1  0.568500  0.395700  0.399100  1.0  -0.0055
  C  C880  1  0.076700  0.295700  0.293900  1.0  0.6488
  C  C881  1  0.386600  0.795900  0.049600  1.0  0.7174
  C  C882  1  0.134000  0.442200  0.372400  1.0  -0.3829
  C  C883  1  0.134000  0.057800  0.372400  1.0  -0.3829
  C  C884  1  0.115100  0.335500  0.331800  1.0  -0.1058
  C  C885  1  0.659000  0.466100  0.922600  1.0  -0.1463
  C  C886  1  0.886600  0.450400  0.795900  1.0  0.7183
  C  C887  1  0.500100  0.581700  0.461900  1.0  -0.0909
  C  C888  1  0.458400  0.870600  0.073900  1.0  -0.0706
  C  C889  1  0.336400  0.780190  0.940200  1.0  0.1114
  C  C890  1  0.115100  0.335500  0.168200  1.0  -0.1064
  C  C891  1  0.539900  0.076600  0.398700  1.0  0.1823
  C  C892  1  0.570200  0.131600  0.126700  1.0  -0.0096
  C  C893  1  0.625600  0.973000  0.582800  1.0  -0.3832
  C  C894  1  0.576700  0.293900  0.204300  1.0  0.6503
  C  C895  1  0.433800  0.659900  0.078200  1.0  -0.1316
  C  C896  1  0.886600  0.049600  0.704100  1.0  0.7172
  C  C897  1  0.433800  0.840100  0.421800  1.0  -0.1313
  C  C898  1  0.095800  0.427900  0.103800  1.0  0.1816
  C  C899  1  0.958400  0.073900  0.870600  1.0  -0.0722
  C  C900  1  0.933800  0.078200  0.840100  1.0  -0.1323
  C  C901  1  0.499900  0.081700  0.961900  1.0  -0.0926
  C  C902  1  0.385500  0.855700  0.861700  1.0  -0.1217
  C  C903  1  0.787900  0.121200  0.993200  1.0  -0.1642
  C  C904  1  0.366000  0.627600  0.557800  1.0  -0.3808
  C  C905  1  0.367000  0.506800  0.433500  1.0  0.2159
  C  C906  1  0.904200  0.572100  0.603800  1.0  0.182
  C  C907  1  0.841000  0.077400  0.533900  1.0  -0.1465
  C  C908  1  0.497900  0.937200  0.625800  1.0  -0.3875
  C  C909  1  0.264800  0.509100  0.152000  1.0  -0.0223
  C  C910  1  0.531000  0.451400  0.593300  1.0  -0.3675
  C  C911  1  0.067300  0.981700  0.340400  1.0  -0.0718
  C  C912  1  0.287900  0.993200  0.378800  1.0  -0.1684
  C  C913  1  0.567300  0.340400  0.518300  1.0  -0.0768
  C  C914  1  0.006000  0.940200  0.054600  1.0  0.1329
  C  C915  1  0.972700  0.988800  0.070900  1.0  0.098
  C  C916  1  0.499900  0.418300  0.961900  1.0  -0.0938
  C  C917  1  0.423300  0.793900  0.704300  1.0  0.6483
  C  C918  1  0.067300  0.518300  0.159600  1.0  -0.0715
  C  C919  1  0.234000  0.959500  0.296900  1.0  0.6907
  C  C920  1  0.971800  0.666200  0.832400  1.0  -0.0354
  C  C921  1  0.066200  0.578200  0.159900  1.0  -0.1329
  C  C922  1  0.790600  0.343500  0.568100  1.0  -0.0374
  C  C923  1  0.884900  0.835500  0.668200  1.0  -0.1068
  C  C924  1  0.113400  0.549600  0.204100  1.0  0.7155
  C  C925  1  0.153800  0.388100  0.250000  1.0  -0.0815
  C  C926  1  0.031000  0.906700  0.048600  1.0  -0.3654
  C  C927  1  0.841000  0.422600  0.533900  1.0  -0.1462
  C  C928  1  0.580900  0.175100  0.951600  1.0  -0.1683
  C  C929  1  0.545000  0.371600  0.985500  1.0  -0.2029
  C  C930  1  0.427900  0.680500  0.678200  1.0  -0.1249
  C  C931  1  0.041600  0.573900  0.129400  1.0  -0.0724
  C  C932  1  0.317000  0.934600  0.126900  1.0  -0.1795
  C  C933  1  0.473300  0.642700  0.641300  1.0  -0.1399
  C  C934  1  0.929800  0.626700  0.631600  1.0  -0.0094
  C  C935  1  0.653800  0.250000  0.388100  1.0  -0.0784
  C  C936  1  0.290600  0.568100  0.343500  1.0  -0.0304
  C  C937  1  0.528300  0.113000  0.544200  1.0  0.022
  C  C938  1  0.846300  0.052800  0.558200  1.0  0.1765
  C  C939  1  0.045000  0.985500  0.128400  1.0  -0.2046
  C  C940  1  0.471800  0.667600  0.833800  1.0  -0.0345
  C  C941  1  0.374400  0.027000  0.082800  1.0  -0.3809
  C  C942  1  0.431500  0.604300  0.899100  1.0  -0.0052
  C  C943  1  0.765400  0.331000  0.540000  1.0  -0.125
  C  C944  1  0.384900  0.668200  0.664500  1.0  -0.1063
  C  C945  1  0.960100  0.898700  0.923400  1.0  0.1835
  C  C946  1  0.657200  0.219780  0.094400  1.0  -0.1248
  C  C947  1  0.404200  0.896200  0.927900  1.0  0.182
  C  C948  1  0.999900  0.538100  0.418300  1.0  -0.0923
  C  C949  1  0.528300  0.387000  0.955800  1.0  0.0204
  C  C950  1  0.734000  0.203100  0.959500  1.0  0.6915
  C  C951  1  0.153800  0.111900  0.250000  1.0  -0.0786
  C  C952  1  0.163600  0.059800  0.280190  1.0  0.1067
  C  C953  1  0.157200  0.405600  0.219780  1.0  -0.1227
  C  C954  1  0.499900  0.081700  0.538100  1.0  -0.0931
  C  C955  1  0.867000  0.066500  0.993200  1.0  0.2078
  C  C956  1  0.429800  0.868400  0.873300  1.0  -0.0112
  C  C957  1  0.506000  0.445400  0.940200  1.0  0.1292
  C  C958  1  0.566200  0.340100  0.578200  1.0  -0.1309
  C  C959  1  0.846300  0.447200  0.941800  1.0  0.1722
  C  C960  1  0.384900  0.831800  0.664500  1.0  -0.1066
  C  C961  1  0.927900  0.821800  0.819500  1.0  -0.1261
  C  C962  1  0.790600  0.343500  0.931900  1.0  -0.0357
  C  C963  1  0.971800  0.833800  0.667600  1.0  -0.0346
  C  C964  1  0.960100  0.601300  0.923400  1.0  0.1878
  C  C965  1  0.431500  0.895700  0.600900  1.0  -0.0049
  C  C966  1  0.997900  0.874200  0.937200  1.0  -0.3878
  C  C967  1  0.825900  0.449300  0.906300  1.0  -0.3911
  C  C968  1  0.923300  0.704300  0.706100  1.0  0.6465
  C  C969  1  0.817000  0.126900  0.934600  1.0  -0.1749
  C  C970  1  0.825900  0.449300  0.593700  1.0  -0.3919
  C  C971  1  0.580900  0.324900  0.548400  1.0  -0.1601
  C  C972  1  0.456100  0.091300  0.480400  1.0  -0.3969
  C  C973  1  0.290600  0.931900  0.343500  1.0  -0.0308
  C  C974  1  0.163600  0.440200  0.280190  1.0  0.1063
  C  C975  1  0.531000  0.451400  0.906700  1.0  -0.3638
  C  C976  1  0.956100  0.480400  0.408700  1.0  -0.398
  C  C977  1  0.456100  0.091300  0.019600  1.0  -0.398
  C  C978  1  0.264800  0.509100  0.348000  1.0  -0.0224
  C  C979  1  0.341000  0.533900  0.422600  1.0  -0.1475
  C  C980  1  0.787900  0.121200  0.506800  1.0  -0.1632
  C  C981  1  0.471800  0.832400  0.666200  1.0  -0.0336
  C  C982  1  0.404200  0.896200  0.572100  1.0  0.1811
  C  C983  1  0.423300  0.706100  0.704300  1.0  0.6488
  C  C984  1  0.734000  0.203100  0.540500  1.0  0.6912
  C  C985  1  0.472700  0.070900  0.988800  1.0  0.0981
  C  C986  1  0.341000  0.966100  0.077400  1.0  -0.1467
  C  C987  1  0.566200  0.159900  0.578200  1.0  -0.1315
  C  C988  1  0.346300  0.558200  0.052800  1.0  0.1759
  C  C989  1  0.531000  0.048600  0.593300  1.0  -0.3642
  C  C990  1  0.031000  0.593300  0.048600  1.0  -0.3664
  C  C991  1  0.885500  0.861700  0.855700  1.0  -0.1194
  C  C992  1  0.473300  0.642700  0.858700  1.0  -0.1387
  C  C993  1  0.290600  0.568100  0.156500  1.0  -0.0319
  C  C994  1  0.927900  0.678200  0.680500  1.0  -0.1258
  C  C995  1  0.657200  0.280220  0.094400  1.0  -0.1226
  C  C996  1  0.423300  0.706100  0.795700  1.0  0.6488
  C  C997  1  0.904200  0.927900  0.896200  1.0  0.1816
  C  C998  1  0.885500  0.861700  0.644300  1.0  -0.1194
  C  C999  1  0.163600  0.059800  0.219810  1.0  0.1067
  C  C1000  1  0.811000  0.390600  0.535500  1.0  -0.0171
  C  C1001  1  0.931500  0.899100  0.604300  1.0  -0.0066
  C  C1002  1  0.613400  0.204100  0.549600  1.0  0.7144
  C  C1003  1  0.427900  0.819500  0.678200  1.0  -0.1248
  C  C1004  1  0.972700  0.988800  0.429100  1.0  0.098
  C  C1005  1  0.028300  0.544200  0.387000  1.0  0.0219
  C  C1006  1  0.972700  0.511200  0.070900  1.0  0.0972
  C  C1007  1  0.613400  0.295900  0.950400  1.0  0.7155
  C  C1008  1  0.287900  0.506800  0.378800  1.0  -0.1672
  C  C1009  1  0.545000  0.371600  0.514500  1.0  -0.2003
  C  C1010  1  0.541600  0.129400  0.573900  1.0  -0.0696
  C  C1011  1  0.041600  0.926100  0.129400  1.0  -0.0735
  C  C1012  1  0.265400  0.540000  0.331000  1.0  -0.1245
  C  C1013  1  0.499900  0.418300  0.538100  1.0  -0.0931
  C  C1014  1  0.506000  0.445400  0.559800  1.0  0.1304
  C  C1015  1  0.580900  0.324900  0.951600  1.0  -0.16
  C  C1016  1  0.265400  0.960000  0.169000  1.0  -0.1241
  C  C1017  1  0.931500  0.600900  0.895700  1.0  -0.0064
  C  C1018  1  0.999900  0.961900  0.081700  1.0  -0.0942
  C  C1019  1  0.956100  0.019600  0.408700  1.0  -0.3972
  C  C1020  1  0.385500  0.644300  0.861700  1.0  -0.1221
  C  C1021  1  0.325900  0.906300  0.050700  1.0  -0.3925
  C  C1022  1  0.404200  0.603800  0.927900  1.0  0.181
  C  C1023  1  0.264800  0.990900  0.348000  1.0  -0.0222
  C  C1024  1  0.066200  0.578200  0.340100  1.0  -0.1317
  C  C1025  1  0.866000  0.557800  0.627600  1.0  -0.3814
  C  C1026  1  0.567300  0.340400  0.981700  1.0  -0.0756
  C  C1027  1  0.290600  0.931900  0.156500  1.0  -0.0335
  C  C1028  1  0.765400  0.169000  0.540000  1.0  -0.1247
  C  C1029  1  0.884900  0.664500  0.831800  1.0  -0.106
  C  C1030  1  0.374400  0.473000  0.417200  1.0  -0.3823
  C  C1031  1  0.811000  0.390600  0.964500  1.0  -0.0168
  C  C1032  1  0.113400  0.950400  0.204100  1.0  0.7157
  C  C1033  1  0.311000  0.964500  0.109400  1.0  -0.0174
  C  C1034  1  0.367000  0.993200  0.066500  1.0  0.2154
  C  C1035  1  0.157200  0.094400  0.280220  1.0  -0.1229
  C  C1036  1  0.311000  0.535500  0.109400  1.0  -0.0165
  C  C1037  1  0.734000  0.296900  0.959500  1.0  0.6918
  C  C1038  1  0.031000  0.906700  0.451400  1.0  -0.3629
  C  C1039  1  0.456100  0.408700  0.480400  1.0  -0.3977
  C  C1040  1  0.045000  0.514500  0.371600  1.0  -0.2046
  C  C1041  1  0.427900  0.680500  0.821800  1.0  -0.1247
  C  C1042  1  0.866000  0.942200  0.627600  1.0  -0.3811
  C  C1043  1  0.960100  0.898700  0.576600  1.0  0.1885
  C  C1044  1  0.580900  0.175100  0.548400  1.0  -0.1581
  C  C1045  1  0.874400  0.417200  0.027000  1.0  -0.3825
  C  C1046  1  0.384900  0.668200  0.835500  1.0  -0.1059
  C  C1047  1  0.006000  0.559800  0.445400  1.0  0.1321
  C  C1048  1  0.653800  0.250000  0.111900  1.0  -0.083
  C  C1049  1  0.765400  0.169000  0.960000  1.0  -0.1245
  C  C1050  1  0.472700  0.429100  0.988800  1.0  0.0987
  C  C1051  1  0.874400  0.082800  0.473000  1.0  -0.3817
  C  C1052  1  0.567300  0.159600  0.981700  1.0  -0.0764
  C  C1053  1  0.931500  0.899100  0.895700  1.0  -0.0069
  C  C1054  1  0.385500  0.644300  0.638300  1.0  -0.1211
  C  C1055  1  0.613400  0.295900  0.549600  1.0  0.7154
  C  C1056  1  0.113400  0.950400  0.295900  1.0  0.7162
  C  C1057  1  0.460100  0.923400  0.898700  1.0  0.1826
  C  C1058  1  0.999900  0.961900  0.418300  1.0  -0.0939
  C  C1059  1  0.066200  0.921800  0.159900  1.0  -0.1306
  C  C1060  1  0.006000  0.940200  0.445400  1.0  0.1329
  C  C1061  1  0.163600  0.440200  0.219810  1.0  0.107
  C  C1062  1  0.067300  0.981700  0.159600  1.0  -0.0707
  C  C1063  1  0.080900  0.951600  0.324900  1.0  -0.1736
  C  C1064  1  0.346300  0.558200  0.447200  1.0  0.1729
  C  C1065  1  0.234000  0.959500  0.203100  1.0  0.6921
  C  C1066  1  0.346300  0.941800  0.052800  1.0  0.1724
  C  C1067  1  0.866000  0.557800  0.872400  1.0  -0.3804
  C  C1068  1  0.460100  0.923400  0.601300  1.0  0.186
  C  C1069  1  0.311000  0.535500  0.390600  1.0  -0.0166
  C  C1070  1  0.817000  0.126900  0.565400  1.0  -0.1735
  C  C1071  1  0.866000  0.942200  0.872400  1.0  -0.3805
  C  C1072  1  0.541600  0.129400  0.926100  1.0  -0.0709
  C  C1073  1  0.080900  0.548400  0.175100  1.0  -0.1601
  C  C1074  1  0.384900  0.831800  0.835500  1.0  -0.1055
  C  C1075  1  0.999900  0.538100  0.081700  1.0  -0.0933
  C  C1076  1  0.825900  0.050700  0.906300  1.0  -0.3915
  C  C1077  1  0.287900  0.506800  0.121200  1.0  -0.1666
  C  C1078  1  0.867000  0.066500  0.506800  1.0  0.2144
  C  C1079  1  0.566200  0.159900  0.921800  1.0  -0.1325
  C  C1080  1  0.846300  0.052800  0.941800  1.0  0.1735
  C  C1081  1  0.811000  0.109400  0.964500  1.0  -0.0179
  C  C1082  1  0.904200  0.572100  0.896200  1.0  0.1786
  C  C1083  1  0.931500  0.600900  0.604300  1.0  -0.0057
  C  C1084  1  0.790600  0.156500  0.568100  1.0  -0.0365
  C  C1085  1  0.929800  0.873300  0.631600  1.0  -0.0085
  C  C1086  1  0.884900  0.664500  0.668200  1.0  -0.1066
  C  C1087  1  0.234000  0.540500  0.296900  1.0  0.6907
  C  C1088  1  0.374400  0.027000  0.417200  1.0  -0.3807
  C  C1089  1  0.790600  0.156500  0.931900  1.0  -0.0363
  C  C1090  1  0.080900  0.548400  0.324900  1.0  -0.1739
  C  C1091  1  0.528300  0.113000  0.955800  1.0  0.0211
  C  C1092  1  0.041600  0.926100  0.370600  1.0  -0.0725
  C  C1093  1  0.545000  0.128400  0.514500  1.0  -0.2
  C  C1094  1  0.460100  0.576600  0.601300  1.0  0.1821
  C  C1095  1  0.374400  0.473000  0.082800  1.0  -0.3819
  C  C1096  1  0.341000  0.533900  0.077400  1.0  -0.1469
  C  C1097  1  0.311000  0.964500  0.390600  1.0  -0.0172
  C  C1098  1  0.663600  0.280190  0.440200  1.0  0.1113
  C  C1099  1  0.867000  0.433500  0.993200  1.0  0.2122
  C  C1100  1  0.265400  0.960000  0.331000  1.0  -0.1246
  C  C1101  1  0.429800  0.631600  0.626700  1.0  -0.01
  C  C1102  1  0.956100  0.019600  0.091300  1.0  -0.3995
  C  C1103  1  0.997900  0.625800  0.562800  1.0  -0.3891
  C  C1104  1  0.427900  0.819500  0.821800  1.0  -0.1254
  C  C1105  1  0.787900  0.378800  0.993200  1.0  -0.1642
  C  C1106  1  0.904200  0.927900  0.603800  1.0  0.1811
  C  C1107  1  0.028300  0.955800  0.387000  1.0  0.0214
  C  C1108  1  0.663600  0.280190  0.059800  1.0  0.1101
  C  C1109  1  0.006000  0.559800  0.054600  1.0  0.1328
  C  C1110  1  0.497900  0.562800  0.625800  1.0  -0.3875
  C  C1111  1  0.045000  0.514500  0.128400  1.0  -0.2054
  C  C1112  1  0.429800  0.868400  0.626700  1.0  -0.0098
  C  C1113  1  0.929800  0.626700  0.868400  1.0  -0.01
  C  C1114  1  0.825900  0.050700  0.593700  1.0  -0.3917
  C  C1115  1  0.663600  0.219810  0.059800  1.0  0.1113
  C  C1116  1  0.884900  0.835500  0.831800  1.0  -0.1062
  C  C1117  1  0.764800  0.152000  0.509100  1.0  -0.0226
  C  C1118  1  0.613400  0.204100  0.950400  1.0  0.7151
  C  C1119  1  0.385500  0.855700  0.638300  1.0  -0.1214
  C  C1120  1  0.923300  0.704300  0.793900  1.0  0.6478
  C  C1121  1  0.765400  0.331000  0.960000  1.0  -0.1245
  C  C1122  1  0.787900  0.378800  0.506800  1.0  -0.1626
  C  C1123  1  0.973300  0.641300  0.857300  1.0  -0.1411
  C  C1124  1  0.429800  0.631600  0.873300  1.0  -0.0115
  C  C1125  1  0.067300  0.518300  0.340400  1.0  -0.0724
  C  C1126  1  0.045000  0.985500  0.371600  1.0  -0.2038
  C  C1127  1  0.923300  0.795700  0.793900  1.0  0.6471
  C  C1128  1  0.923300  0.795700  0.706100  1.0  0.6486
  C  C1129  1  0.885500  0.638300  0.644300  1.0  -0.1193
  C  C1130  1  0.846300  0.447200  0.558200  1.0  0.1745
  C  C1131  1  0.472700  0.429100  0.511200  1.0  0.0995
  C  C1132  1  0.317000  0.565400  0.126900  1.0  -0.1779
  C  C1133  1  0.028300  0.955800  0.113000  1.0  0.0192
  C  C1134  1  0.028300  0.544200  0.113000  1.0  0.0217
  C  C1135  1  0.874400  0.082800  0.027000  1.0  -0.3823
  C  C1136  1  0.473300  0.857300  0.858700  1.0  -0.1387
  C  C1137  1  0.506000  0.054600  0.559800  1.0  0.1302
  C  C1138  1  0.471800  0.832400  0.833800  1.0  -0.0348
  C  C1139  1  0.545000  0.128400  0.985500  1.0  -0.2012
  C  C1140  1  0.764800  0.348000  0.509100  1.0  -0.0233
  C  C1141  1  0.541600  0.370600  0.573900  1.0  -0.07
  C  C1142  1  0.971800  0.833800  0.832400  1.0  -0.0356
  C  C1143  1  0.528300  0.387000  0.544200  1.0  0.0215
  C  C1144  1  0.867000  0.433500  0.506800  1.0  0.2139
  C  C1145  1  0.506000  0.054600  0.940200  1.0  0.129
  C  C1146  1  0.366000  0.872400  0.557800  1.0  -0.3798
  C  C1147  1  0.325900  0.906300  0.449300  1.0  -0.3926
  C  C1148  1  0.929800  0.873300  0.868400  1.0  -0.0093
  C  C1149  1  0.997900  0.625800  0.937200  1.0  -0.3897
  C  C1150  1  0.265400  0.540000  0.169000  1.0  -0.124
  C  C1151  1  0.157200  0.405600  0.280220  1.0  -0.1211
  C  C1152  1  0.874400  0.417200  0.473000  1.0  -0.381
  C  C1153  1  0.973300  0.641300  0.642700  1.0  -0.1426
  C  C1154  1  0.325900  0.593700  0.050700  1.0  -0.391
  C  C1155  1  0.367000  0.506800  0.066500  1.0  0.2093
  C  C1156  1  0.366000  0.627600  0.942200  1.0  -0.3798
  C  C1157  1  0.456100  0.408700  0.019600  1.0  -0.3985
  C  C1158  1  0.460100  0.576600  0.898700  1.0  0.1876
  C  C1159  1  0.811000  0.109400  0.535500  1.0  -0.0182
  C  C1160  1  0.817000  0.373100  0.934600  1.0  -0.174
  C  C1161  1  0.066200  0.921800  0.340100  1.0  -0.1301
  C  C1162  1  0.341000  0.966100  0.422600  1.0  -0.1473
  C  C1163  1  0.431500  0.895700  0.899100  1.0  -0.0054
  C  C1164  1  0.960100  0.601300  0.576600  1.0  0.1834
  C  C1165  1  0.657200  0.219780  0.405600  1.0  -0.1229
  C  C1166  1  0.567300  0.159600  0.518300  1.0  -0.0785
  C  C1167  1  0.497900  0.562800  0.874200  1.0  -0.3871
  C  C1168  1  0.080900  0.951600  0.175100  1.0  -0.1593
  C  C1169  1  0.317000  0.934600  0.373100  1.0  -0.1799
  C  C1170  1  0.366000  0.872400  0.942200  1.0  -0.3806
  C  C1171  1  0.113400  0.549600  0.295900  1.0  0.7171
  C  C1172  1  0.973300  0.858700  0.642700  1.0  -0.1425
  C  C1173  1  0.817000  0.373100  0.565400  1.0  -0.1735
  C  C1174  1  0.234000  0.540500  0.203100  1.0  0.6891
  C  C1175  1  0.287900  0.993200  0.121200  1.0  -0.1675
  C  C1176  1  0.404200  0.603800  0.572100  1.0  0.1774
  C  C1177  1  0.472700  0.070900  0.511200  1.0  0.0959
  C  C1178  1  0.473300  0.857300  0.641300  1.0  -0.1399
  C  C1179  1  0.972700  0.511200  0.429100  1.0  0.1008
  C  C1180  1  0.346300  0.941800  0.447200  1.0  0.1765
  C  C1181  1  0.566200  0.340100  0.921800  1.0  -0.1319
  C  C1182  1  0.841000  0.077400  0.966100  1.0  -0.1457
  C  C1183  1  0.041600  0.573900  0.370600  1.0  -0.0712
  C  C1184  1  0.531000  0.048600  0.906700  1.0  -0.364
  C  C1185  1  0.885500  0.638300  0.855700  1.0  -0.1204
  C  C1186  1  0.031000  0.593300  0.451400  1.0  -0.3627
  C  C1187  1  0.734000  0.296900  0.540500  1.0  0.6912
  C  C1188  1  0.927900  0.678200  0.819500  1.0  -0.1258
  C  C1189  1  0.956100  0.480400  0.091300  1.0  -0.4001
  C  C1190  1  0.325900  0.593700  0.449300  1.0  -0.3907
  C  C1191  1  0.841000  0.422600  0.966100  1.0  -0.1453
  C  C1192  1  0.497900  0.937200  0.874200  1.0  -0.3874
  C  C1193  1  0.423300  0.793900  0.795700  1.0  0.6479
  C  C1194  1  0.663600  0.219810  0.440200  1.0  0.1127
  C  C1195  1  0.657200  0.280220  0.405600  1.0  -0.1228
  C  C1196  1  0.973300  0.858700  0.857300  1.0  -0.1411
  C  C1197  1  0.927900  0.821800  0.680500  1.0  -0.126
  C  C1198  1  0.317000  0.565400  0.373100  1.0  -0.178
  C  C1199  1  0.541600  0.370600  0.926100  1.0  -0.0705
  C  C1200  1  0.764800  0.152000  0.990900  1.0  -0.0217
  C  C1201  1  0.367000  0.993200  0.433500  1.0  0.2135
  C  C1202  1  0.471800  0.667600  0.666200  1.0  -0.0334
  C  C1203  1  0.431500  0.604300  0.600900  1.0  -0.0046
  C  C1204  1  0.264800  0.990900  0.152000  1.0  -0.0226
  C  C1205  1  0.764800  0.348000  0.990900  1.0  -0.0213
  C  C1206  1  0.997900  0.874200  0.562800  1.0  -0.3882
  C  C1207  1  0.157200  0.094400  0.219780  1.0  -0.122
  C  C1208  1  0.971800  0.666200  0.667600  1.0  -0.0345
  N  N1209  1  0.125500  0.528200  0.454900  1.0  -0.1758
  N  N1210  1  0.583700  0.076000  0.445000  1.0  -0.1609
  N  N1211  1  0.517400  0.972900  0.453500  1.0  -0.3065
  N  N1212  1  0.833100  0.957700  0.750000  1.0  -0.3655
  N  N1213  1  0.036700  0.482400  0.962400  1.0  -0.1662
  N  N1214  1  0.017400  0.453500  0.527100  1.0  -0.3092
  N  N1215  1  0.036700  0.482400  0.537600  1.0  -0.1675
  N  N1216  1  0.583700  0.424000  0.445000  1.0  -0.1602
  N  N1217  1  0.625500  0.045100  0.971800  1.0  -0.1786
  N  N1218  1  0.112000  0.963800  0.486100  1.0  -0.2544
  N  N1219  1  0.083700  0.445000  0.424000  1.0  -0.1607
  N  N1220  1  0.536700  0.962400  0.482400  1.0  -0.1683
  N  N1221  1  0.112000  0.536200  0.486100  1.0  -0.2502
  N  N1222  1  0.125500  0.971800  0.045100  1.0  -0.1755
  N  N1223  1  0.549900  0.440800  0.072500  1.0  -0.1863
  N  N1224  1  0.612000  0.013900  0.536200  1.0  -0.253
  N  N1225  1  0.517400  0.527100  0.046500  1.0  -0.3073
  N  N1226  1  0.612000  0.486100  0.536200  1.0  -0.2502
  N  N1227  1  0.049900  0.427500  0.440800  1.0  -0.1851
  N  N1228  1  0.049900  0.072500  0.440800  1.0  -0.185
  N  N1229  1  0.017400  0.046500  0.972900  1.0  -0.3082
  N  N1230  1  0.625500  0.454900  0.971800  1.0  -0.1791
  N  N1231  1  0.583700  0.076000  0.055000  1.0  -0.1615
  N  N1232  1  0.049900  0.072500  0.059200  1.0  -0.1893
  N  N1233  1  0.833100  0.542300  0.750000  1.0  -0.3655
  N  N1234  1  0.612000  0.486100  0.963800  1.0  -0.253
  N  N1235  1  0.549900  0.440800  0.427500  1.0  -0.1867
  N  N1236  1  0.125500  0.971800  0.454900  1.0  -0.176
  N  N1237  1  0.625500  0.045100  0.528200  1.0  -0.1777
  N  N1238  1  0.112000  0.536200  0.013900  1.0  -0.2531
  N  N1239  1  0.536700  0.537600  0.017600  1.0  -0.1656
  N  N1240  1  0.612000  0.013900  0.963800  1.0  -0.2514
  N  N1241  1  0.333100  0.750000  0.957700  1.0  -0.3654
  N  N1242  1  0.517400  0.972900  0.046500  1.0  -0.3064
  N  N1243  1  0.125500  0.528200  0.045100  1.0  -0.1771
  N  N1244  1  0.549900  0.059200  0.072500  1.0  -0.1861
  N  N1245  1  0.536700  0.962400  0.017600  1.0  -0.1663
  N  N1246  1  0.036700  0.017600  0.962400  1.0  -0.167
  N  N1247  1  0.083700  0.445000  0.076000  1.0  -0.1588
  N  N1248  1  0.517400  0.527100  0.453500  1.0  -0.3076
  N  N1249  1  0.536700  0.537600  0.482400  1.0  -0.1668
  N  N1250  1  0.625500  0.454900  0.528200  1.0  -0.1784
  N  N1251  1  0.017400  0.453500  0.972900  1.0  -0.3087
  N  N1252  1  0.583700  0.424000  0.055000  1.0  -0.1621
  N  N1253  1  0.049900  0.427500  0.059200  1.0  -0.1883
  N  N1254  1  0.083700  0.055000  0.076000  1.0  -0.1598
  N  N1255  1  0.549900  0.059200  0.427500  1.0  -0.1865
  N  N1256  1  0.333100  0.750000  0.542300  1.0  -0.3672
  N  N1257  1  0.036700  0.017600  0.537600  1.0  -0.1659
  N  N1258  1  0.083700  0.055000  0.424000  1.0  -0.161
  N  N1259  1  0.017400  0.046500  0.527100  1.0  -0.3078
  N  N1260  1  0.112000  0.963800  0.013900  1.0  -0.2527
  N  N1261  1  0.874500  0.028200  0.545100  1.0  -0.1739
  N  N1262  1  0.482600  0.472900  0.953500  1.0  -0.3067
  N  N1263  1  0.666900  0.250000  0.457700  1.0  -0.365
  N  N1264  1  0.950100  0.572500  0.940800  1.0  -0.1856
  N  N1265  1  0.450100  0.940800  0.572500  1.0  -0.187
  N  N1266  1  0.166900  0.042300  0.250000  1.0  -0.365
  N  N1267  1  0.450100  0.559200  0.927500  1.0  -0.1861
  N  N1268  1  0.388000  0.513900  0.463800  1.0  -0.2545
  N  N1269  1  0.982600  0.546500  0.027100  1.0  -0.3072
  N  N1270  1  0.916300  0.555000  0.576000  1.0  -0.1609
  N  N1271  1  0.482600  0.027100  0.546500  1.0  -0.3071
  N  N1272  1  0.982600  0.953500  0.027100  1.0  -0.3085
  N  N1273  1  0.388000  0.986100  0.036200  1.0  -0.2511
  N  N1274  1  0.374500  0.954900  0.471800  1.0  -0.1776
  N  N1275  1  0.666900  0.250000  0.042300  1.0  -0.3671
  N  N1276  1  0.374500  0.545100  0.471800  1.0  -0.1781
  N  N1277  1  0.374500  0.954900  0.028200  1.0  -0.178
  N  N1278  1  0.888000  0.463800  0.986100  1.0  -0.2567
  N  N1279  1  0.950100  0.927500  0.559200  1.0  -0.1876
  N  N1280  1  0.963300  0.517600  0.037600  1.0  -0.1645
  N  N1281  1  0.963300  0.517600  0.462400  1.0  -0.1672
  N  N1282  1  0.416300  0.924000  0.945000  1.0  -0.1607
  N  N1283  1  0.916300  0.945000  0.924000  1.0  -0.1602
  N  N1284  1  0.374500  0.545100  0.028200  1.0  -0.1776
  N  N1285  1  0.916300  0.555000  0.924000  1.0  -0.1609
  N  N1286  1  0.463300  0.462400  0.517600  1.0  -0.1638
  N  N1287  1  0.950100  0.927500  0.940800  1.0  -0.1853
  N  N1288  1  0.450100  0.940800  0.927500  1.0  -0.187
  N  N1289  1  0.388000  0.986100  0.463800  1.0  -0.254
  N  N1290  1  0.416300  0.924000  0.555000  1.0  -0.1622
  N  N1291  1  0.888000  0.463800  0.513900  1.0  -0.2521
  N  N1292  1  0.950100  0.572500  0.559200  1.0  -0.1889
  N  N1293  1  0.463300  0.037600  0.517600  1.0  -0.1669
  N  N1294  1  0.874500  0.028200  0.954900  1.0  -0.1747
  N  N1295  1  0.874500  0.471800  0.545100  1.0  -0.174
  N  N1296  1  0.982600  0.546500  0.472900  1.0  -0.3072
  N  N1297  1  0.463300  0.037600  0.982400  1.0  -0.1642
  N  N1298  1  0.416300  0.576000  0.945000  1.0  -0.162
  N  N1299  1  0.482600  0.472900  0.546500  1.0  -0.3055
  N  N1300  1  0.963300  0.982400  0.037600  1.0  -0.1662
  N  N1301  1  0.888000  0.036200  0.986100  1.0  -0.2508
  N  N1302  1  0.166900  0.457700  0.250000  1.0  -0.3658
  N  N1303  1  0.463300  0.462400  0.982400  1.0  -0.164
  N  N1304  1  0.963300  0.982400  0.462400  1.0  -0.1669
  N  N1305  1  0.388000  0.513900  0.036200  1.0  -0.2536
  N  N1306  1  0.916300  0.945000  0.576000  1.0  -0.1589
  N  N1307  1  0.874500  0.471800  0.954900  1.0  -0.1755
  N  N1308  1  0.982600  0.953500  0.472900  1.0  -0.3071
  N  N1309  1  0.888000  0.036200  0.513900  1.0  -0.2499
  N  N1310  1  0.482600  0.027100  0.953500  1.0  -0.3079
  N  N1311  1  0.450100  0.559200  0.572500  1.0  -0.1855
  N  N1312  1  0.416300  0.576000  0.555000  1.0  -0.1628
  O  O1313  1  0.033300  0.214930  0.284750  1.0  -0.621
  O  O1314  1  0.113900  0.284950  0.215370  1.0  -0.5583
  O  O1315  1  0.279700  0.785160  0.014280  1.0  -0.5719
  O  O1316  1  0.273600  0.713870  0.070430  1.0  -0.5953
  O  O1317  1  0.372500  0.714950  0.077290  1.0  -0.585
  O  O1318  1  0.613900  0.215370  0.215050  1.0  -0.5585
  O  O1319  1  0.113900  0.284950  0.284630  1.0  -0.5584
  O  O1320  1  0.613900  0.284630  0.284950  1.0  -0.5578
  O  O1321  1  0.533300  0.284750  0.214930  1.0  -0.6207
  O  O1322  1  0.113900  0.215050  0.284630  1.0  -0.5582
  O  O1323  1  0.273600  0.786130  0.429570  1.0  -0.5957
  O  O1324  1  0.874900  0.477870  0.715620  1.0  -0.6196
  O  O1325  1  0.273600  0.786130  0.070430  1.0  -0.5956
  O  O1326  1  0.374900  0.784380  0.022130  1.0  -0.6182
  O  O1327  1  0.773600  0.429570  0.786130  1.0  -0.5966
  O  O1328  1  0.872500  0.422710  0.785050  1.0  -0.588
  O  O1329  1  0.533300  0.215250  0.285070  1.0  -0.6204
  O  O1330  1  0.372500  0.785050  0.422710  1.0  -0.5848
  O  O1331  1  0.613900  0.284630  0.215050  1.0  -0.5587
  O  O1332  1  0.372500  0.785050  0.077290  1.0  -0.585
  O  O1333  1  0.874900  0.022130  0.715620  1.0  -0.6199
  O  O1334  1  0.374900  0.715620  0.022130  1.0  -0.6182
  O  O1335  1  0.779700  0.485720  0.785160  1.0  -0.5733
  O  O1336  1  0.279700  0.714840  0.014280  1.0  -0.5714
  O  O1337  1  0.872500  0.077290  0.714950  1.0  -0.585
  O  O1338  1  0.874900  0.477870  0.784380  1.0  -0.6204
  O  O1339  1  0.779700  0.014280  0.785160  1.0  -0.5735
  O  O1340  1  0.779700  0.485720  0.714840  1.0  -0.5731
  O  O1341  1  0.773600  0.070430  0.713870  1.0  -0.5968
  O  O1342  1  0.872500  0.077290  0.785050  1.0  -0.5846
  O  O1343  1  0.033300  0.285070  0.215250  1.0  -0.6209
  O  O1344  1  0.279700  0.785160  0.485720  1.0  -0.5702
  O  O1345  1  0.372500  0.714950  0.422710  1.0  -0.5845
  O  O1346  1  0.872500  0.422710  0.714950  1.0  -0.5877
  O  O1347  1  0.773600  0.070430  0.786130  1.0  -0.5972
  O  O1348  1  0.033300  0.285070  0.284750  1.0  -0.6212
  O  O1349  1  0.033300  0.214930  0.215250  1.0  -0.621
  O  O1350  1  0.279700  0.714840  0.485720  1.0  -0.5705
  O  O1351  1  0.374900  0.784380  0.477870  1.0  -0.619
  O  O1352  1  0.874900  0.022130  0.784380  1.0  -0.6204
  O  O1353  1  0.113900  0.215050  0.215370  1.0  -0.5582
  O  O1354  1  0.773600  0.429570  0.713870  1.0  -0.5961
  O  O1355  1  0.533300  0.284750  0.285070  1.0  -0.6208
  O  O1356  1  0.273600  0.713870  0.429570  1.0  -0.5963
  O  O1357  1  0.533300  0.215250  0.214930  1.0  -0.6209
  O  O1358  1  0.613900  0.215370  0.284950  1.0  -0.5575
  O  O1359  1  0.374900  0.715620  0.477870  1.0  -0.6192
  O  O1360  1  0.779700  0.014280  0.714840  1.0  -0.5727
  O  O1361  1  0.125100  0.977870  0.215620  1.0  -0.6213
  O  O1362  1  0.966700  0.785070  0.784750  1.0  -0.6186
  O  O1363  1  0.720300  0.285160  0.514280  1.0  -0.571
  O  O1364  1  0.226400  0.929570  0.213870  1.0  -0.5974
  O  O1365  1  0.886100  0.715050  0.784630  1.0  -0.5587
  O  O1366  1  0.466700  0.784750  0.714930  1.0  -0.6187
  O  O1367  1  0.625100  0.215620  0.522130  1.0  -0.6208
  O  O1368  1  0.220300  0.985720  0.214840  1.0  -0.5736
  O  O1369  1  0.226400  0.929570  0.286130  1.0  -0.5973
  O  O1370  1  0.966700  0.785070  0.715250  1.0  -0.6187
  O  O1371  1  0.386100  0.715370  0.784950  1.0  -0.5581
  O  O1372  1  0.886100  0.784950  0.715370  1.0  -0.5591
  O  O1373  1  0.627500  0.214950  0.577290  1.0  -0.5851
  O  O1374  1  0.220300  0.985720  0.285160  1.0  -0.573
  O  O1375  1  0.627500  0.285050  0.922710  1.0  -0.5851
  O  O1376  1  0.625100  0.284380  0.977870  1.0  -0.6198
  O  O1377  1  0.625100  0.215620  0.977870  1.0  -0.6196
  O  O1378  1  0.720300  0.214840  0.514280  1.0  -0.5714
  O  O1379  1  0.386100  0.784630  0.715050  1.0  -0.5594
  O  O1380  1  0.127500  0.922710  0.285050  1.0  -0.5876
  O  O1381  1  0.966700  0.714930  0.784750  1.0  -0.6185
  O  O1382  1  0.720300  0.285160  0.985720  1.0  -0.5706
  O  O1383  1  0.625100  0.284380  0.522130  1.0  -0.6194
  O  O1384  1  0.127500  0.577290  0.285050  1.0  -0.5845
  O  O1385  1  0.627500  0.214950  0.922710  1.0  -0.5846
  O  O1386  1  0.220300  0.514280  0.214840  1.0  -0.5736
  O  O1387  1  0.125100  0.522130  0.215620  1.0  -0.6202
  O  O1388  1  0.726400  0.213870  0.570430  1.0  -0.5961
  O  O1389  1  0.966700  0.714930  0.715250  1.0  -0.6184
  O  O1390  1  0.127500  0.922710  0.214950  1.0  -0.5873
  O  O1391  1  0.726400  0.286130  0.570430  1.0  -0.597
  O  O1392  1  0.226400  0.570430  0.286130  1.0  -0.5967
  O  O1393  1  0.386100  0.715370  0.715050  1.0  -0.5588
  O  O1394  1  0.220300  0.514280  0.285160  1.0  -0.5738
  O  O1395  1  0.125100  0.977870  0.284380  1.0  -0.6227
  O  O1396  1  0.466700  0.715250  0.714930  1.0  -0.6185
  O  O1397  1  0.226400  0.570430  0.213870  1.0  -0.5968
  O  O1398  1  0.726400  0.286130  0.929570  1.0  -0.5958
  O  O1399  1  0.726400  0.213870  0.929570  1.0  -0.5963
  O  O1400  1  0.720300  0.214840  0.985720  1.0  -0.5713
  O  O1401  1  0.886100  0.715050  0.715370  1.0  -0.5585
  O  O1402  1  0.466700  0.784750  0.785070  1.0  -0.6187
  O  O1403  1  0.466700  0.715250  0.785070  1.0  -0.6182
  O  O1404  1  0.886100  0.784950  0.784630  1.0  -0.559
  O  O1405  1  0.125100  0.522130  0.284380  1.0  -0.6212
  O  O1406  1  0.386100  0.784630  0.784950  1.0  -0.5585
  O  O1407  1  0.627500  0.285050  0.577290  1.0  -0.5849
  O  O1408  1  0.127500  0.577290  0.214950  1.0  -0.5849
