# generated using pymatgen
data_AgH6C5N2
_symmetry_space_group_name_H-M   'P 1'
_cell_length_a   45.67360000
_cell_length_b   45.67360000
_cell_length_c   45.67360000
_cell_angle_alpha   94.98190000
_cell_angle_beta   94.98190000
_cell_angle_gamma   145.72200000
_symmetry_Int_Tables_number   1
_chemical_formula_structural   AgH6C5N2
_chemical_formula_sum   'Ag240 H1440 C1200 N480'
_cell_volume   51278.90684762
_cell_formula_units_Z   240
loop_
 _symmetry_equiv_pos_site_id
 _symmetry_equiv_pos_as_xyz
  1  'x, y, z'
loop_
 _atom_site_type_symbol
 _atom_site_label
 _atom_site_symmetry_multiplicity
 _atom_site_fract_x
 _atom_site_fract_y
 _atom_site_fract_z
 _atom_site_occupancy
 _atom_site_charge
  Ag  Ag1  1  0.042660  0.476380  0.981580  1.0  0.3096
  Ag  Ag2  1  0.926810  0.410470  0.988640  1.0  0.3752
  Ag  Ag3  1  0.020230  0.473370  0.477140  1.0  0.3156
  Ag  Ag4  1  0.607930  0.813450  0.434660  1.0  0.3139
  Ag  Ag5  1  0.600280  0.767990  0.367910  1.0  0.3369
  Ag  Ag6  1  0.389560  0.505640  0.223420  1.0  0.2781
  Ag  Ag7  1  0.439470  0.033280  0.712730  1.0  0.3094
  Ag  Ag8  1  0.337750  0.987180  0.727530  1.0  0.3111
  Ag  Ag9  1  0.391400  0.973580  0.770280  1.0  0.3139
  Ag  Ag10  1  0.799620  0.630470  0.610430  1.0  0.3022
  Ag  Ag11  1  0.914340  0.720370  0.663730  1.0  0.3245
  Ag  Ag12  1  0.879950  0.760240  0.636050  1.0  0.3112
  Ag  Ag13  1  0.388670  0.707810  0.062620  1.0  0.3241
  Ag  Ag14  1  0.340530  0.642530  0.114540  1.0  0.2773
  Ag  Ag15  1  0.438100  0.683740  0.087120  1.0  0.3038
  Ag  Ag16  1  0.873390  0.149690  0.572020  1.0  0.2945
  Ag  Ag17  1  0.944920  0.271900  0.592240  1.0  0.2789
  Ag  Ag18  1  0.818170  0.165230  0.539840  1.0  0.2824
  Ag  Ag19  1  0.224180  0.359510  0.623290  1.0  0.2826
  Ag  Ag20  1  0.239080  0.405090  0.694050  1.0  0.354
  Ag  Ag21  1  0.350190  0.469350  0.678940  1.0  0.3508
  Ag  Ag22  1  0.532640  0.800160  0.898980  1.0  0.3347
  Ag  Ag23  1  0.513950  0.747640  0.831510  1.0  0.304
  Ag  Ag24  1  0.449260  0.668030  0.880870  1.0  0.3431
  Ag  Ag25  1  0.644250  0.031350  0.788360  1.0  0.2881
  Ag  Ag26  1  0.733770  0.159290  0.808620  1.0  0.2894
  Ag  Ag27  1  0.767450  0.121690  0.841060  1.0  0.3005
  Ag  Ag28  1  0.462390  0.529960  0.497490  1.0  0.2575
  Ag  Ag29  1  0.517330  0.522190  0.541420  1.0  0.3027
  Ag  Ag30  1  0.583060  0.600320  0.492240  1.0  0.3383
  Ag  Ag31  1  0.994800  0.061080  0.518420  1.0  0.3153
  Ag  Ag32  1  0.921830  0.938170  0.511360  1.0  0.3743
  Ag  Ag33  1  0.496230  0.543090  0.022860  1.0  0.3082
  Ag  Ag34  1  0.878790  0.173270  0.065340  1.0  0.3166
  Ag  Ag35  1  0.900080  0.232370  0.132090  1.0  0.3332
  Ag  Ag36  1  0.782220  0.166140  0.276580  1.0  0.2756
  Ag  Ag37  1  0.820550  0.726740  0.787270  1.0  0.3075
  Ag  Ag38  1  0.759650  0.610220  0.772470  1.0  0.3079
  Ag  Ag39  1  0.703300  0.621120  0.729720  1.0  0.3155
  Ag  Ag40  1  0.520040  0.189190  0.889570  1.0  0.2959
  Ag  Ag41  1  0.556640  0.250610  0.836270  1.0  0.3277
  Ag  Ag42  1  0.624190  0.243900  0.863950  1.0  0.319
  Ag  Ag43  1  0.145190  0.326050  0.437380  1.0  0.3242
  Ag  Ag44  1  0.027990  0.225990  0.385460  1.0  0.2733
  Ag  Ag45  1  0.096620  0.350980  0.412880  1.0  0.3008
  Ag  Ag46  1  0.077670  0.301370  0.927980  1.0  0.3002
  Ag  Ag47  1  0.179660  0.352680  0.907760  1.0  0.2797
  Ag  Ag48  1  0.125390  0.278330  0.960160  1.0  0.2799
  Ag  Ag49  1  0.236220  0.600890  0.876710  1.0  0.2856
  Ag  Ag50  1  0.211040  0.545030  0.805950  1.0  0.3559
  Ag  Ag51  1  0.290410  0.671250  0.821060  1.0  0.3494
  Ag  Ag52  1  0.401180  0.633660  0.601020  1.0  0.3315
  Ag  Ag53  1  0.416130  0.682440  0.668490  1.0  0.3079
  Ag  Ag54  1  0.287160  0.568390  0.619130  1.0  0.3423
  Ag  Ag55  1  0.742990  0.855890  0.711640  1.0  0.2902
  Ag  Ag56  1  0.850670  0.925150  0.691380  1.0  0.2924
  Ag  Ag57  1  0.780630  0.926390  0.658940  1.0  0.3025
  Ag  Ag58  1  0.532470  0.964900  0.002510  1.0  0.2556
  Ag  Ag59  1  0.480770  0.975910  0.958580  1.0  0.3013
  Ag  Ag60  1  0.608080  0.090820  0.007760  1.0  0.3337
  Ag  Ag61  1  0.976380  0.494800  0.433720  1.0  0.3134
  Ag  Ag62  1  0.910470  0.421830  0.483660  1.0  0.3706
  Ag  Ag63  1  0.973370  0.996230  0.453140  1.0  0.3138
  Ag  Ag64  1  0.313450  0.378790  0.205520  1.0  0.3113
  Ag  Ag65  1  0.267990  0.400080  0.167710  1.0  0.3361
  Ag  Ag66  1  0.005640  0.282220  0.116080  1.0  0.2826
  Ag  Ag67  1  0.533280  0.320550  0.593810  1.0  0.3137
  Ag  Ag68  1  0.487180  0.259650  0.649430  1.0  0.3075
  Ag  Ag69  1  0.473580  0.203300  0.582180  1.0  0.3132
  Ag  Ag70  1  0.130470  0.020040  0.830850  1.0  0.3076
  Ag  Ag71  1  0.220370  0.056640  0.806030  1.0  0.3203
  Ag  Ag72  1  0.260240  0.124190  0.880290  1.0  0.318
  Ag  Ag73  1  0.207810  0.645190  0.319140  1.0  0.3218
  Ag  Ag74  1  0.142530  0.527990  0.302000  1.0  0.2803
  Ag  Ag75  1  0.183740  0.596620  0.245640  1.0  0.3042
  Ag  Ag76  1  0.649690  0.577670  0.276300  1.0  0.3002
  Ag  Ag77  1  0.771900  0.679660  0.326980  1.0  0.2805
  Ag  Ag78  1  0.665230  0.625390  0.347060  1.0  0.2799
  Ag  Ag79  1  0.859510  0.736220  0.135330  1.0  0.2857
  Ag  Ag80  1  0.905090  0.711040  0.166010  1.0  0.357
  Ag  Ag81  1  0.969350  0.790410  0.119160  1.0  0.3499
  Ag  Ag82  1  0.300160  0.901180  0.267520  1.0  0.3306
  Ag  Ag83  1  0.247640  0.916130  0.233690  1.0  0.3023
  Ag  Ag84  1  0.168030  0.787160  0.218770  1.0  0.3425
  Ag  Ag85  1  0.531350  0.242990  0.387100  1.0  0.2965
  Ag  Ag86  1  0.659290  0.350670  0.425520  1.0  0.2903
  Ag  Ag87  1  0.621690  0.280630  0.354240  1.0  0.299
  Ag  Ag88  1  0.029960  0.032470  0.067570  1.0  0.2603
  Ag  Ag89  1  0.022190  0.980770  0.004860  1.0  0.3016
  Ag  Ag90  1  0.100320  0.108080  0.017260  1.0  0.3401
  Ag  Ag91  1  0.561080  0.542660  0.066280  1.0  0.3135
  Ag  Ag92  1  0.438170  0.426810  0.016340  1.0  0.3712
  Ag  Ag93  1  0.043090  0.520230  0.046860  1.0  0.3147
  Ag  Ag94  1  0.673270  0.107930  0.294480  1.0  0.3156
  Ag  Ag95  1  0.732370  0.100280  0.332290  1.0  0.3367
  Ag  Ag96  1  0.666140  0.889560  0.383920  1.0  0.2811
  Ag  Ag97  1  0.226740  0.939470  0.906190  1.0  0.3126
  Ag  Ag98  1  0.110220  0.837750  0.850570  1.0  0.3095
  Ag  Ag99  1  0.121120  0.891400  0.917820  1.0  0.313
  Ag  Ag100  1  0.689190  0.299620  0.669150  1.0  0.3058
  Ag  Ag101  1  0.750610  0.414340  0.693970  1.0  0.3271
  Ag  Ag102  1  0.743900  0.379950  0.619710  1.0  0.3177
  Ag  Ag103  1  0.826050  0.888670  0.180860  1.0  0.3236
  Ag  Ag104  1  0.725990  0.840530  0.198000  1.0  0.2788
  Ag  Ag105  1  0.850980  0.938100  0.254360  1.0  0.3026
  Ag  Ag106  1  0.801370  0.373390  0.223700  1.0  0.2994
  Ag  Ag107  1  0.852680  0.444920  0.173020  1.0  0.2795
  Ag  Ag108  1  0.778330  0.318170  0.152940  1.0  0.2775
  Ag  Ag109  1  0.100890  0.724180  0.364670  1.0  0.2771
  Ag  Ag110  1  0.045030  0.739080  0.333990  1.0  0.3572
  Ag  Ag111  1  0.171250  0.850190  0.380840  1.0  0.3468
  Ag  Ag112  1  0.133660  0.032640  0.232480  1.0  0.3375
  Ag  Ag113  1  0.182440  0.013950  0.266310  1.0  0.3062
  Ag  Ag114  1  0.068390  0.949260  0.281230  1.0  0.3403
  Ag  Ag115  1  0.355890  0.144250  0.112900  1.0  0.2963
  Ag  Ag116  1  0.425150  0.233770  0.074480  1.0  0.2906
  Ag  Ag117  1  0.426390  0.267450  0.145760  1.0  0.3013
  Ag  Ag118  1  0.464900  0.962390  0.432430  1.0  0.2595
  Ag  Ag119  1  0.475910  0.017330  0.495140  1.0  0.3
  Ag  Ag120  1  0.590820  0.083060  0.482740  1.0  0.3374
  Ag  Ag121  1  0.957340  0.523620  0.018420  1.0  0.3129
  Ag  Ag122  1  0.073190  0.589530  0.011360  1.0  0.3767
  Ag  Ag123  1  0.979770  0.526630  0.522860  1.0  0.3136
  Ag  Ag124  1  0.392070  0.186550  0.565340  1.0  0.3132
  Ag  Ag125  1  0.399720  0.232010  0.632090  1.0  0.3367
  Ag  Ag126  1  0.610440  0.494360  0.776580  1.0  0.276
  Ag  Ag127  1  0.560530  0.966720  0.287270  1.0  0.3082
  Ag  Ag128  1  0.662250  0.012820  0.272470  1.0  0.3101
  Ag  Ag129  1  0.608600  0.026420  0.229720  1.0  0.3145
  Ag  Ag130  1  0.200380  0.369530  0.389570  1.0  0.2976
  Ag  Ag131  1  0.085660  0.279630  0.336270  1.0  0.3258
  Ag  Ag132  1  0.120050  0.239760  0.363950  1.0  0.3146
  Ag  Ag133  1  0.611330  0.292190  0.937380  1.0  0.323
  Ag  Ag134  1  0.659470  0.357470  0.885460  1.0  0.2783
  Ag  Ag135  1  0.561900  0.316260  0.912880  1.0  0.3015
  Ag  Ag136  1  0.126610  0.850310  0.427980  1.0  0.2953
  Ag  Ag137  1  0.055080  0.728100  0.407760  1.0  0.2787
  Ag  Ag138  1  0.181830  0.834770  0.460160  1.0  0.2806
  Ag  Ag139  1  0.775820  0.640490  0.376710  1.0  0.2868
  Ag  Ag140  1  0.760920  0.594910  0.305950  1.0  0.3538
  Ag  Ag141  1  0.649810  0.530650  0.321060  1.0  0.3505
  Ag  Ag142  1  0.467360  0.199840  0.101020  1.0  0.3351
  Ag  Ag143  1  0.486050  0.252360  0.168490  1.0  0.3026
  Ag  Ag144  1  0.550740  0.331970  0.119130  1.0  0.3435
  Ag  Ag145  1  0.355750  0.968650  0.211640  1.0  0.289
  Ag  Ag146  1  0.266230  0.840710  0.191380  1.0  0.2902
  Ag  Ag147  1  0.232550  0.878310  0.158940  1.0  0.3018
  Ag  Ag148  1  0.537610  0.470040  0.502510  1.0  0.2592
  Ag  Ag149  1  0.482670  0.477810  0.458580  1.0  0.3018
  Ag  Ag150  1  0.416940  0.399680  0.507760  1.0  0.336
  Ag  Ag151  1  0.005200  0.938920  0.481580  1.0  0.3125
  Ag  Ag152  1  0.078170  0.061830  0.488640  1.0  0.3737
  Ag  Ag153  1  0.503770  0.456910  0.977140  1.0  0.3063
  Ag  Ag154  1  0.121210  0.826730  0.934660  1.0  0.3187
  Ag  Ag155  1  0.099920  0.767630  0.867910  1.0  0.3312
  Ag  Ag156  1  0.217780  0.833860  0.723420  1.0  0.2771
  Ag  Ag157  1  0.179450  0.273260  0.212730  1.0  0.3096
  Ag  Ag158  1  0.240350  0.389780  0.227530  1.0  0.3074
  Ag  Ag159  1  0.296700  0.378880  0.270280  1.0  0.3153
  Ag  Ag160  1  0.479960  0.810810  0.110430  1.0  0.3019
  Ag  Ag161  1  0.443360  0.749390  0.163730  1.0  0.3236
  Ag  Ag162  1  0.375810  0.756100  0.136050  1.0  0.3155
  Ag  Ag163  1  0.854810  0.673950  0.562620  1.0  0.3238
  Ag  Ag164  1  0.972010  0.774010  0.614540  1.0  0.2732
  Ag  Ag165  1  0.903380  0.649020  0.587120  1.0  0.3015
  Ag  Ag166  1  0.922330  0.698630  0.072020  1.0  0.3
  Ag  Ag167  1  0.820340  0.647320  0.092240  1.0  0.2791
  Ag  Ag168  1  0.874610  0.721670  0.039840  1.0  0.2827
  Ag  Ag169  1  0.763780  0.399110  0.123290  1.0  0.2845
  Ag  Ag170  1  0.788960  0.454970  0.194050  1.0  0.3596
  Ag  Ag171  1  0.709590  0.328750  0.178940  1.0  0.35
  Ag  Ag172  1  0.598820  0.366340  0.398980  1.0  0.3285
  Ag  Ag173  1  0.583870  0.317560  0.331510  1.0  0.3024
  Ag  Ag174  1  0.712840  0.431610  0.380870  1.0  0.3437
  Ag  Ag175  1  0.257010  0.144110  0.288360  1.0  0.2908
  Ag  Ag176  1  0.149330  0.074850  0.308620  1.0  0.2924
  Ag  Ag177  1  0.219370  0.073610  0.341060  1.0  0.3012
  Ag  Ag178  1  0.467530  0.035100  0.997490  1.0  0.2539
  Ag  Ag179  1  0.519230  0.024090  0.041420  1.0  0.3017
  Ag  Ag180  1  0.391920  0.909180  0.992240  1.0  0.3365
  Ag  Ag181  1  0.023620  0.505200  0.566280  1.0  0.3116
  Ag  Ag182  1  0.089530  0.578170  0.516340  1.0  0.3738
  Ag  Ag183  1  0.026630  0.003770  0.546860  1.0  0.312
  Ag  Ag184  1  0.686550  0.621210  0.794480  1.0  0.3156
  Ag  Ag185  1  0.732010  0.599920  0.832290  1.0  0.3358
  Ag  Ag186  1  0.994360  0.717780  0.883920  1.0  0.2802
  Ag  Ag187  1  0.466720  0.679450  0.406190  1.0  0.313
  Ag  Ag188  1  0.512820  0.740350  0.350570  1.0  0.3079
  Ag  Ag189  1  0.526420  0.796700  0.417820  1.0  0.3146
  Ag  Ag190  1  0.869530  0.979960  0.169150  1.0  0.3063
  Ag  Ag191  1  0.779630  0.943360  0.193970  1.0  0.3176
  Ag  Ag192  1  0.739760  0.875810  0.119710  1.0  0.316
  Ag  Ag193  1  0.792190  0.354810  0.680860  1.0  0.3223
  Ag  Ag194  1  0.857470  0.472010  0.698000  1.0  0.2798
  Ag  Ag195  1  0.816260  0.403380  0.754360  1.0  0.3043
  Ag  Ag196  1  0.350310  0.422330  0.723700  1.0  0.3011
  Ag  Ag197  1  0.228100  0.320340  0.673020  1.0  0.2786
  Ag  Ag198  1  0.334770  0.374610  0.652940  1.0  0.277
  Ag  Ag199  1  0.140490  0.263780  0.864670  1.0  0.2841
  Ag  Ag200  1  0.094910  0.288960  0.833990  1.0  0.3604
  Ag  Ag201  1  0.030650  0.209590  0.880840  1.0  0.3498
  Ag  Ag202  1  0.699840  0.098820  0.732480  1.0  0.3284
  Ag  Ag203  1  0.752360  0.083870  0.766310  1.0  0.3008
  Ag  Ag204  1  0.831970  0.212840  0.781230  1.0  0.3423
  Ag  Ag205  1  0.468650  0.757010  0.612900  1.0  0.2965
  Ag  Ag206  1  0.340710  0.649330  0.574480  1.0  0.2899
  Ag  Ag207  1  0.378310  0.719370  0.645760  1.0  0.2998
  Ag  Ag208  1  0.970040  0.967530  0.932430  1.0  0.2606
  Ag  Ag209  1  0.977810  0.019230  0.995140  1.0  0.3022
  Ag  Ag210  1  0.899680  0.891920  0.982740  1.0  0.3402
  Ag  Ag211  1  0.438920  0.457340  0.933720  1.0  0.312
  Ag  Ag212  1  0.561830  0.573190  0.983660  1.0  0.3694
  Ag  Ag213  1  0.956910  0.479770  0.953140  1.0  0.3142
  Ag  Ag214  1  0.326730  0.892070  0.705520  1.0  0.3173
  Ag  Ag215  1  0.267630  0.899720  0.667710  1.0  0.3354
  Ag  Ag216  1  0.333860  0.110440  0.616080  1.0  0.282
  Ag  Ag217  1  0.773260  0.060530  0.093810  1.0  0.314
  Ag  Ag218  1  0.889780  0.162250  0.149430  1.0  0.3094
  Ag  Ag219  1  0.878880  0.108600  0.082180  1.0  0.3108
  Ag  Ag220  1  0.310810  0.700380  0.330850  1.0  0.308
  Ag  Ag221  1  0.249390  0.585660  0.306030  1.0  0.324
  Ag  Ag222  1  0.256100  0.620050  0.380290  1.0  0.3167
  Ag  Ag223  1  0.173950  0.111330  0.819140  1.0  0.3196
  Ag  Ag224  1  0.274010  0.159470  0.802000  1.0  0.28
  Ag  Ag225  1  0.149020  0.061900  0.745640  1.0  0.3013
  Ag  Ag226  1  0.198630  0.626610  0.776300  1.0  0.2972
  Ag  Ag227  1  0.147320  0.555080  0.826980  1.0  0.2802
  Ag  Ag228  1  0.221670  0.681830  0.847060  1.0  0.2797
  Ag  Ag229  1  0.899110  0.275820  0.635330  1.0  0.282
  Ag  Ag230  1  0.954970  0.260920  0.666010  1.0  0.3598
  Ag  Ag231  1  0.828750  0.149810  0.619160  1.0  0.3478
  Ag  Ag232  1  0.866340  0.967360  0.767520  1.0  0.3348
  Ag  Ag233  1  0.817560  0.986050  0.733690  1.0  0.304
  Ag  Ag234  1  0.931610  0.050740  0.718770  1.0  0.3408
  Ag  Ag235  1  0.644110  0.855750  0.887100  1.0  0.2976
  Ag  Ag236  1  0.574850  0.766230  0.925520  1.0  0.2907
  Ag  Ag237  1  0.573610  0.732550  0.854240  1.0  0.3025
  Ag  Ag238  1  0.535100  0.037610  0.567570  1.0  0.2603
  Ag  Ag239  1  0.524090  0.982670  0.504860  1.0  0.3012
  Ag  Ag240  1  0.409180  0.916940  0.517260  1.0  0.34
  H  H241  1  0.034700  0.422000  0.929900  1.0  0.1284
  H  H242  1  0.996400  0.385100  0.895500  1.0  0.1272
  H  H243  1  0.990800  0.359300  0.920700  1.0  0.1375
  H  H244  1  0.828300  0.314900  0.941400  1.0  0.1279
  H  H245  1  0.806100  0.263400  0.931500  1.0  0.1349
  H  H246  1  0.809800  0.287500  0.905900  1.0  0.1217
  H  H247  1  0.865500  0.365700  0.542000  1.0  0.1308
  H  H248  1  0.846600  0.317500  0.545700  1.0  0.1191
  H  H249  1  0.826500  0.314300  0.513200  1.0  0.1333
  H  H250  1  0.031200  0.424200  0.501000  1.0  0.1271
  H  H251  1  0.003900  0.380700  0.519200  1.0  0.1259
  H  H252  1  0.048600  0.441900  0.537700  1.0  0.1156
  H  H253  1  0.152500  0.620200  0.095100  1.0  0.1312
  H  H254  1  0.213600  0.659800  0.101800  1.0  0.138
  H  H255  1  0.169000  0.603600  0.110400  1.0  0.1165
  H  H256  1  0.132800  0.515600  0.982600  1.0  0.1285
  H  H257  1  0.185400  0.547500  0.006300  1.0  0.1286
  H  H258  1  0.190800  0.578700  0.986900  1.0  0.1308
  H  H259  1  0.591900  0.768500  0.485800  1.0  0.1348
  H  H260  1  0.577800  0.724600  0.493000  1.0  0.1312
  H  H261  1  0.530000  0.706700  0.479100  1.0  0.13
  H  H262  1  0.530000  0.647100  0.358700  1.0  0.1294
  H  H263  1  0.535800  0.626500  0.381500  1.0  0.1274
  H  H264  1  0.588300  0.682300  0.374000  1.0  0.1389
  H  H265  1  0.239600  0.422500  0.128100  1.0  0.1237
  H  H266  1  0.270600  0.471400  0.114400  1.0  0.136
  H  H267  1  0.241000  0.457800  0.139600  1.0  0.1212
  H  H268  1  0.464300  0.617500  0.222600  1.0  0.1341
  H  H269  1  0.453900  0.642800  0.216700  1.0  0.1243
  H  H270  1  0.474600  0.638300  0.192900  1.0  0.1348
  H  H271  1  0.747600  0.006100  0.409700  1.0  0.1334
  H  H272  1  0.769600  0.046400  0.439800  1.0  0.1326
  H  H273  1  0.714800  0.008000  0.414400  1.0  0.1277
  H  H274  1  0.610200  0.856300  0.492100  1.0  0.1321
  H  H275  1  0.648900  0.914000  0.513300  1.0  0.1227
  H  H276  1  0.670900  0.899500  0.510800  1.0  0.116
  H  H277  1  0.503800  0.114600  0.677400  1.0  0.126
  H  H278  1  0.469900  0.087000  0.642300  1.0  0.1187
  H  H279  1  0.505100  0.144500  0.660000  1.0  0.1295
  H  H280  1  0.289500  0.995500  0.681400  1.0  0.1385
  H  H281  1  0.334000  0.056300  0.700900  1.0  0.1253
  H  H282  1  0.315200  0.039500  0.664300  1.0  0.133
  H  H283  1  0.466300  0.215000  0.701100  1.0  0.141
  H  H284  1  0.402400  0.156200  0.693800  1.0  0.1263
  H  H285  1  0.444000  0.166500  0.709100  1.0  0.1362
  H  H286  1  0.401200  0.086300  0.576700  1.0  0.1335
  H  H287  1  0.454300  0.114100  0.595200  1.0  0.1296
  H  H288  1  0.396700  0.059400  0.600300  1.0  0.1252
  H  H289  1  0.446900  0.970600  0.805900  1.0  0.1315
  H  H290  1  0.475500  0.965100  0.797000  1.0  0.1272
  H  H291  1  0.510900  0.020200  0.819700  1.0  0.1376
  H  H292  1  0.530300  0.078500  0.701400  1.0  0.1195
  H  H293  1  0.585800  0.123700  0.728100  1.0  0.1277
  H  H294  1  0.560900  0.073500  0.707600  1.0  0.1184
  H  H295  1  0.719800  0.510000  0.595000  1.0  0.1337
  H  H296  1  0.749600  0.514800  0.574400  1.0  0.1376
  H  H297  1  0.723500  0.478300  0.597600  1.0  0.1269
  H  H298  1  0.951300  0.684300  0.678000  1.0  0.1408
  H  H299  1  0.915100  0.655900  0.701400  1.0  0.1234
  H  H300  1  0.918000  0.628200  0.681200  1.0  0.116
  H  H301  1  0.816000  0.524600  0.716600  1.0  0.1214
  H  H302  1  0.826600  0.562600  0.702000  1.0  0.1235
  H  H303  1  0.765900  0.502200  0.699700  1.0  0.138
  H  H304  1  0.809400  0.472800  0.586400  1.0  0.1335
  H  H305  1  0.763500  0.458700  0.576800  1.0  0.1295
  H  H306  1  0.825900  0.520400  0.587900  1.0  0.1296
  H  H307  1  0.819000  0.768200  0.617400  1.0  0.1432
  H  H308  1  0.818700  0.767400  0.582300  1.0  0.132
  H  H309  1  0.766600  0.735000  0.592600  1.0  0.1335
  H  H310  1  0.701600  0.554200  0.556600  1.0  0.1209
  H  H311  1  0.667200  0.538600  0.578800  1.0  0.1087
  H  H312  1  0.657100  0.541600  0.545500  1.0  0.115
  H  H313  1  0.338000  0.728500  0.039100  1.0  0.1148
  H  H314  1  0.275300  0.683700  0.025600  1.0  0.1223
  H  H315  1  0.298900  0.673600  0.013700  1.0  0.1173
  H  H316  1  0.223800  0.565400  0.115200  1.0  0.1305
  H  H317  1  0.180800  0.553700  0.100300  1.0  0.1266
  H  H318  1  0.230100  0.603900  0.130000  1.0  0.1342
  H  H319  1  0.313100  0.597300  0.167600  1.0  0.138
  H  H320  1  0.311600  0.565300  0.181900  1.0  0.128
  H  H321  1  0.272100  0.537600  0.148700  1.0  0.1293
  H  H322  1  0.455500  0.636300  0.106200  1.0  0.1345
  H  H323  1  0.435500  0.597800  0.126500  1.0  0.1258
  H  H324  1  0.485300  0.661500  0.142000  1.0  0.1333
  H  H325  1  0.492700  0.692000  0.044100  1.0  0.121
  H  H326  1  0.522100  0.722800  0.018700  1.0  0.1154
  H  H327  1  0.460200  0.660200  0.008600  1.0  0.1227
  H  H328  1  0.407400  0.744100  0.012500  1.0  0.1276
  H  H329  1  0.407700  0.729400  0.979500  1.0  0.1305
  H  H330  1  0.461700  0.789700  0.002000  1.0  0.1016
  H  H331  1  0.934900  0.144400  0.606300  1.0  0.1194
  H  H332  1  0.995800  0.184200  0.611600  1.0  0.1182
  H  H333  1  0.960000  0.160800  0.578000  1.0  0.1288
  H  H334  1  0.067700  0.369600  0.619300  1.0  0.1331
  H  H335  1  0.112500  0.382800  0.631700  1.0  0.1321
  H  H336  1  0.078000  0.368600  0.653200  1.0  0.1312
  H  H337  1  0.000300  0.378200  0.610100  1.0  0.1294
  H  H338  1  0.003000  0.410000  0.594000  1.0  0.1281
  H  H339  1  0.026000  0.399200  0.582000  1.0  0.1246
  H  H340  1  0.791900  0.192600  0.502100  1.0  0.1271
  H  H341  1  0.827300  0.243300  0.488800  1.0  0.1303
  H  H342  1  0.797000  0.231300  0.513100  1.0  0.1223
  H  H343  1  0.721200  0.076100  0.485100  1.0  0.1291
  H  H344  1  0.669600  0.011500  0.476700  1.0  0.1261
  H  H345  1  0.712300  0.043800  0.457100  1.0  0.1163
  H  H346  1  0.826000  0.053700  0.546100  1.0  0.1316
  H  H347  1  0.785400  0.005800  0.514800  1.0  0.1325
  H  H348  1  0.764000  0.995800  0.544200  1.0  0.1335
  H  H349  1  0.123900  0.293300  0.573200  1.0  0.1431
  H  H350  1  0.072500  0.235400  0.579300  1.0  0.1326
  H  H351  1  0.069100  0.265500  0.569600  1.0  0.1346
  H  H352  1  0.132900  0.345200  0.706300  1.0  0.1313
  H  H353  1  0.148300  0.386300  0.692000  1.0  0.1294
  H  H354  1  0.086100  0.325300  0.686000  1.0  0.1185
  H  H355  1  0.255900  0.462800  0.747900  1.0  0.1294
  H  H356  1  0.270700  0.457300  0.777800  1.0  0.1216
  H  H357  1  0.302300  0.513700  0.777800  1.0  0.1325
  H  H358  1  0.455500  0.556500  0.738400  1.0  0.1411
  H  H359  1  0.472100  0.602900  0.734000  1.0  0.1328
  H  H360  1  0.479800  0.599500  0.767700  1.0  0.134
  H  H361  1  0.446100  0.538600  0.656700  1.0  0.1334
  H  H362  1  0.448800  0.506000  0.649400  1.0  0.1372
  H  H363  1  0.462900  0.539600  0.627100  1.0  0.1386
  H  H364  1  0.225500  0.320800  0.564500  1.0  0.1347
  H  H365  1  0.246400  0.363500  0.548300  1.0  0.1185
  H  H366  1  0.266900  0.347600  0.544700  1.0  0.1276
  H  H367  1  0.623200  0.925200  0.916000  1.0  0.135
  H  H368  1  0.654100  0.970500  0.898600  1.0  0.131
  H  H369  1  0.591500  0.923900  0.896000  1.0  0.1397
  H  H370  1  0.588400  0.826700  0.791900  1.0  0.1226
  H  H371  1  0.549300  0.820300  0.778400  1.0  0.1222
  H  H372  1  0.613600  0.877700  0.785900  1.0  0.1101
  H  H373  1  0.471900  0.689900  0.766400  1.0  0.1355
  H  H374  1  0.507700  0.690600  0.768900  1.0  0.134
  H  H375  1  0.447100  0.639400  0.746700  1.0  0.132
  H  H376  1  0.398600  0.561200  0.859200  1.0  0.1346
  H  H377  1  0.343600  0.528000  0.838200  1.0  0.1341
  H  H378  1  0.368200  0.518700  0.826900  1.0  0.1315
  H  H379  1  0.394300  0.607600  0.926300  1.0  0.1413
  H  H380  1  0.412900  0.623200  0.962900  1.0  0.1143
  H  H381  1  0.367200  0.607300  0.946500  1.0  0.1366
  H  H382  1  0.572900  0.851900  0.967800  1.0  0.1224
  H  H383  1  0.521300  0.829700  0.964200  1.0  0.1192
  H  H384  1  0.544700  0.833000  0.994900  1.0  0.1068
  H  H385  1  0.530000  0.950700  0.745900  1.0  0.1385
  H  H386  1  0.494100  0.949200  0.737100  1.0  0.124
  H  H387  1  0.503700  0.945600  0.770300  1.0  0.1225
  H  H388  1  0.692200  0.187400  0.805200  1.0  0.1244
  H  H389  1  0.636300  0.157700  0.793400  1.0  0.1351
  H  H390  1  0.670700  0.176400  0.770100  1.0  0.1177
  H  H391  1  0.825200  0.281600  0.826200  1.0  0.1219
  H  H392  1  0.865300  0.327700  0.858400  1.0  0.1194
  H  H393  1  0.801200  0.273800  0.853600  1.0  0.1197
  H  H394  1  0.854000  0.198800  0.903400  1.0  0.1373
  H  H395  1  0.891200  0.254700  0.926500  1.0  0.1318
  H  H396  1  0.913000  0.255200  0.900600  1.0  0.133
  H  H397  1  0.776800  0.061000  0.862800  1.0  0.1375
  H  H398  1  0.732800  0.006700  0.873300  1.0  0.1318
  H  H399  1  0.749600  0.053500  0.887700  1.0  0.1336
  H  H400  1  0.557100  0.919000  0.782700  1.0  0.1257
  H  H401  1  0.541900  0.878100  0.797200  1.0  0.1288
  H  H402  1  0.566300  0.894400  0.768500  1.0  0.1087
  H  H403  1  0.378600  0.497800  0.518200  1.0  0.1236
  H  H404  1  0.351400  0.478300  0.545700  1.0  0.1211
  H  H405  1  0.323300  0.434500  0.515200  1.0  0.1088
  H  H406  1  0.447200  0.441000  0.581200  1.0  0.1312
  H  H407  1  0.409500  0.424800  0.600500  1.0  0.1238
  H  H408  1  0.472000  0.486400  0.608600  1.0  0.1245
  H  H409  1  0.583100  0.543700  0.593400  1.0  0.1396
  H  H410  1  0.639200  0.573200  0.603000  1.0  0.1411
  H  H411  1  0.588600  0.516300  0.577100  1.0  0.1312
  H  H412  1  0.690900  0.658600  0.493300  1.0  0.1286
  H  H413  1  0.735100  0.676100  0.515200  1.0  0.1299
  H  H414  1  0.731700  0.707700  0.524000  1.0  0.138
  H  H415  1  0.643700  0.679400  0.456300  1.0  0.1324
  H  H416  1  0.649500  0.717200  0.448100  1.0  0.1303
  H  H417  1  0.617400  0.666300  0.422100  1.0  0.1262
  H  H418  1  0.425100  0.550600  0.463300  1.0  0.1143
  H  H419  1  0.441400  0.584700  0.440500  1.0  0.1189
  H  H420  1  0.467000  0.612300  0.476700  1.0  0.1155
  H  H421  1  0.992100  0.104800  0.570100  1.0  0.1277
  H  H422  1  0.989600  0.100900  0.604500  1.0  0.1286
  H  H423  1  0.938600  0.070100  0.579300  1.0  0.1353
  H  H424  1  0.873500  0.886900  0.558600  1.0  0.128
  H  H425  1  0.831900  0.874600  0.568500  1.0  0.1329
  H  H426  1  0.881600  0.903900  0.594100  1.0  0.1212
  H  H427  1  0.323700  0.323500  0.958000  1.0  0.1296
  H  H428  1  0.271800  0.300900  0.954300  1.0  0.1192
  H  H429  1  0.301100  0.313300  0.986800  1.0  0.133
  H  H430  1  0.423200  0.530200  0.999000  1.0  0.1287
  H  H431  1  0.361500  0.484700  0.980800  1.0  0.123
  H  H432  1  0.404200  0.510900  0.962300  1.0  0.1146
  H  H433  1  0.025100  0.057400  0.404900  1.0  0.1309
  H  H434  1  0.058000  0.111800  0.398200  1.0  0.1363
  H  H435  1  0.993200  0.058600  0.389600  1.0  0.1164
  H  H436  1  0.033000  0.150200  0.517400  1.0  0.129
  H  H437  1  0.041200  0.179100  0.493700  1.0  0.1298
  H  H438  1  0.091800  0.203900  0.513100  1.0  0.136
  H  H439  1  0.782700  0.106100  0.014200  1.0  0.1335
  H  H440  1  0.731600  0.084800  0.007000  1.0  0.13
  H  H441  1  0.727600  0.050900  0.020900  1.0  0.1317
  H  H442  1  0.788400  0.171300  0.141300  1.0  0.13
  H  H443  1  0.745000  0.154300  0.118500  1.0  0.1259
  H  H444  1  0.808300  0.214300  0.126000  1.0  0.1399
  H  H445  1  0.794400  0.111500  0.371900  1.0  0.1255
  H  H446  1  0.857000  0.156200  0.385600  1.0  0.1366
  H  H447  1  0.818200  0.101400  0.360400  1.0  0.1249
  H  H448  1  0.894900  0.241700  0.277400  1.0  0.1344
  H  H449  1  0.926100  0.237200  0.283300  1.0  0.1249
  H  H450  1  0.945400  0.281700  0.307100  1.0  0.134
  H  H451  1  0.096400  0.337900  0.090300  1.0  0.133
  H  H452  1  0.106600  0.329800  0.060200  1.0  0.1324
  H  H453  1  0.093600  0.300400  0.085600  1.0  0.1276
  H  H454  1  0.864200  0.118100  0.007900  1.0  0.1314
  H  H455  1  0.900700  0.135600  0.986700  1.0  0.1202
  H  H456  1  0.888700  0.160100  0.989200  1.0  0.1243
  H  H457  1  0.937200  0.826400  0.822600  1.0  0.1276
  H  H458  1  0.944700  0.827600  0.857700  1.0  0.1216
  H  H459  1  0.984500  0.845100  0.840000  1.0  0.1292
  H  H460  1  0.814100  0.608100  0.818600  1.0  0.1392
  H  H461  1  0.855400  0.633100  0.799100  1.0  0.1235
  H  H462  1  0.875200  0.650900  0.835700  1.0  0.1323
  H  H463  1  0.013900  0.765200  0.798900  1.0  0.1378
  H  H464  1  0.962400  0.708600  0.806200  1.0  0.131
  H  H465  1  0.957400  0.734900  0.790900  1.0  0.1368
  H  H466  1  0.009600  0.824500  0.923300  1.0  0.1341
  H  H467  1  0.018900  0.859100  0.904800  1.0  0.1306
  H  H468  1  0.959100  0.796400  0.899700  1.0  0.1241
  H  H469  1  0.664700  0.641000  0.694100  1.0  0.1278
  H  H470  1  0.668100  0.678500  0.703000  1.0  0.1257
  H  H471  1  0.700500  0.691200  0.680300  1.0  0.1362
  H  H472  1  0.877100  0.828900  0.798600  1.0  0.1186
  H  H473  1  0.895600  0.857700  0.771900  1.0  0.1225
  H  H474  1  0.865900  0.853300  0.792400  1.0  0.1171
  H  H475  1  0.415000  0.124800  0.905000  1.0  0.1358
  H  H476  1  0.440400  0.175200  0.925600  1.0  0.138
  H  H477  1  0.380700  0.125900  0.902400  1.0  0.1263
  H  H478  1  0.506300  0.273300  0.822000  1.0  0.1399
  H  H479  1  0.454500  0.213700  0.798600  1.0  0.1238
  H  H480  1  0.447000  0.236800  0.818800  1.0  0.1171
  H  H481  1  0.308000  0.099400  0.783400  1.0  0.1196
  H  H482  1  0.360600  0.124600  0.798000  1.0  0.1237
  H  H483  1  0.302500  0.066200  0.800300  1.0  0.1404
  H  H484  1  0.386400  0.223000  0.913600  1.0  0.1331
  H  H485  1  0.381900  0.186700  0.923200  1.0  0.129
  H  H486  1  0.432500  0.238000  0.912100  1.0  0.1285
  H  H487  1  0.650800  0.201600  0.882600  1.0  0.1418
  H  H488  1  0.685100  0.236400  0.917700  1.0  0.133
  H  H489  1  0.642400  0.174000  0.907400  1.0  0.1347
  H  H490  1  0.497600  0.145000  0.943400  1.0  0.1236
  H  H491  1  0.459800  0.088400  0.921200  1.0  0.1102
  H  H492  1  0.496100  0.111600  0.954500  1.0  0.1168
  H  H493  1  0.189400  0.298900  0.460900  1.0  0.1123
  H  H494  1  0.158100  0.249700  0.474400  1.0  0.1231
  H  H495  1  0.159900  0.285200  0.486300  1.0  0.1185
  H  H496  1  0.950200  0.108600  0.384800  1.0  0.1349
  H  H497  1  0.953400  0.080500  0.399700  1.0  0.1264
  H  H498  1  0.973900  0.100100  0.370000  1.0  0.1371
  H  H499  1  0.929700  0.145500  0.332400  1.0  0.1387
  H  H500  1  0.883400  0.129700  0.318100  1.0  0.1283
  H  H501  1  0.888900  0.123400  0.351300  1.0  0.1306
  H  H502  1  0.030100  0.349300  0.393800  1.0  0.1362
  H  H503  1  0.971300  0.309000  0.373500  1.0  0.123
  H  H504  1  0.019500  0.343300  0.358000  1.0  0.136
  H  H505  1  0.147900  0.448600  0.455900  1.0  0.1195
  H  H506  1  0.204100  0.503400  0.481300  1.0  0.1184
  H  H507  1  0.151600  0.451600  0.491400  1.0  0.1233
  H  H508  1  0.231600  0.394900  0.487500  1.0  0.129
  H  H509  1  0.249900  0.428200  0.520500  1.0  0.1326
  H  H510  1  0.287700  0.459700  0.498000  1.0  0.0971
  H  H511  1  0.038100  0.328600  0.893700  1.0  0.1192
  H  H512  1  0.072600  0.384200  0.888400  1.0  0.1172
  H  H513  1  0.082800  0.382000  0.922000  1.0  0.1285
  H  H514  1  0.250300  0.448400  0.880700  1.0  0.1308
  H  H515  1  0.251100  0.480800  0.868300  1.0  0.1327
  H  H516  1  0.215400  0.424800  0.846800  1.0  0.1312
  H  H517  1  0.268100  0.390200  0.889900  1.0  0.1295
  H  H518  1  0.316000  0.409000  0.906000  1.0  0.1305
  H  H519  1  0.317200  0.444000  0.918000  1.0  0.126
  H  H520  1  0.190500  0.289800  0.997900  1.0  0.1254
  H  H521  1  0.254500  0.338500  0.011200  1.0  0.1305
  H  H522  1  0.218200  0.283900  0.986900  1.0  0.1248
  H  H523  1  0.091000  0.236100  0.014900  1.0  0.1292
  H  H524  1  0.034800  0.192900  0.023300  1.0  0.1268
  H  H525  1  0.086700  0.255200  0.042900  1.0  0.1166
  H  H526  1  0.007600  0.279900  0.953900  1.0  0.1333
  H  H527  1  0.991000  0.270600  0.985200  1.0  0.1309
  H  H528  1  0.951600  0.219800  0.955800  1.0  0.1335
  H  H529  1  0.220100  0.550700  0.926800  1.0  0.1465
  H  H530  1  0.156100  0.493200  0.920700  1.0  0.1323
  H  H531  1  0.195900  0.499500  0.930400  1.0  0.1358
  H  H532  1  0.138900  0.426600  0.793700  1.0  0.1291
  H  H533  1  0.194300  0.456300  0.808000  1.0  0.1289
  H  H534  1  0.139300  0.400100  0.814000  1.0  0.121
  H  H535  1  0.214900  0.508000  0.752100  1.0  0.1292
  H  H536  1  0.179500  0.492900  0.722200  1.0  0.1242
  H  H537  1  0.235900  0.524500  0.722200  1.0  0.1336
  H  H538  1  0.318100  0.717100  0.761600  1.0  0.1411
  H  H539  1  0.368900  0.738100  0.766000  1.0  0.1309
  H  H540  1  0.331800  0.712100  0.732300  1.0  0.1306
  H  H541  1  0.381900  0.789400  0.843300  1.0  0.1317
  H  H542  1  0.356600  0.799400  0.850600  1.0  0.1362
  H  H543  1  0.412500  0.835800  0.872900  1.0  0.14
  H  H544  1  0.256300  0.661000  0.935500  1.0  0.1352
  H  H545  1  0.315200  0.698100  0.951700  1.0  0.1139
  H  H546  1  0.302900  0.722200  0.955300  1.0  0.1287
  H  H547  1  0.509200  0.707200  0.584000  1.0  0.1351
  H  H548  1  0.571900  0.755500  0.601400  1.0  0.1297
  H  H549  1  0.527900  0.695500  0.604000  1.0  0.1395
  H  H550  1  0.534800  0.796500  0.708100  1.0  0.1204
  H  H551  1  0.541900  0.770900  0.721600  1.0  0.1217
  H  H552  1  0.591800  0.827700  0.714100  1.0  0.1114
  H  H553  1  0.423500  0.705500  0.733600  1.0  0.1296
  H  H554  1  0.421700  0.738800  0.731100  1.0  0.1343
  H  H555  1  0.392700  0.700400  0.753300  1.0  0.1315
  H  H556  1  0.202000  0.539400  0.640800  1.0  0.1336
  H  H557  1  0.189800  0.505400  0.661800  1.0  0.1342
  H  H558  1  0.191800  0.541300  0.673100  1.0  0.1293
  H  H559  1  0.181300  0.468000  0.573700  1.0  0.1378
  H  H560  1  0.160300  0.450000  0.537100  1.0  0.111
  H  H561  1  0.160800  0.420700  0.553500  1.0  0.137
  H  H562  1  0.384100  0.605100  0.532200  1.0  0.1273
  H  H563  1  0.365500  0.557100  0.535800  1.0  0.1208
  H  H564  1  0.338100  0.549800  0.505100  1.0  0.1071
  H  H565  1  0.704800  0.784100  0.754100  1.0  0.1375
  H  H566  1  0.712100  0.757000  0.762900  1.0  0.1248
  H  H567  1  0.675300  0.733400  0.729700  1.0  0.123
  H  H568  1  0.882200  0.887000  0.694800  1.0  0.1212
  H  H569  1  0.864300  0.842900  0.706600  1.0  0.1372
  H  H570  1  0.906300  0.900600  0.729900  1.0  0.1175
  H  H571  1  0.955400  0.999000  0.673800  1.0  0.1223
  H  H572  1  0.969300  0.006900  0.641600  1.0  0.1193
  H  H573  1  0.920200  0.947600  0.646400  1.0  0.1202
  H  H574  1  0.795400  0.950600  0.596600  1.0  0.1337
  H  H575  1  0.828200  0.964700  0.573500  1.0  0.1316
  H  H576  1  0.854600  0.012400  0.599400  1.0  0.134
  H  H577  1  0.698200  0.914000  0.637200  1.0  0.1371
  H  H578  1  0.633400  0.859500  0.626700  1.0  0.1301
  H  H579  1  0.665800  0.861900  0.612300  1.0  0.1345
  H  H580  1  0.636300  0.774400  0.717300  1.0  0.1272
  H  H581  1  0.580900  0.744700  0.702800  1.0  0.1281
  H  H582  1  0.625900  0.797800  0.731500  1.0  0.1075
  H  H583  1  0.479600  0.860400  0.981800  1.0  0.126
  H  H584  1  0.432600  0.805700  0.954300  1.0  0.1229
  H  H585  1  0.419300  0.808100  0.984800  1.0  0.108
  H  H586  1  0.359800  0.866000  0.918800  1.0  0.1311
  H  H587  1  0.324300  0.809000  0.899500  1.0  0.1255
  H  H588  1  0.377800  0.863400  0.891400  1.0  0.1229
  H  H589  1  0.450300  0.989700  0.906600  1.0  0.1394
  H  H590  1  0.470200  0.036200  0.897000  1.0  0.1375
  H  H591  1  0.439200  0.011500  0.922900  1.0  0.1282
  H  H592  1  0.665300  0.197600  0.006700  1.0  0.1284
  H  H593  1  0.660900  0.219900  0.984800  1.0  0.1284
  H  H594  1  0.683700  0.207700  0.976000  1.0  0.1355
  H  H595  1  0.723100  0.187400  0.043700  1.0  0.1349
  H  H596  1  0.769100  0.201400  0.051900  1.0  0.1295
  H  H597  1  0.744200  0.195300  0.077900  1.0  0.1277
  H  H598  1  0.587300  0.961800  0.036700  1.0  0.1161
  H  H599  1  0.644200  0.000900  0.059500  1.0  0.1183
  H  H600  1  0.635600  0.990300  0.023300  1.0  0.1153
  H  H601  1  0.922000  0.492100  0.387300  1.0  0.128
  H  H602  1  0.885100  0.489600  0.388700  1.0  0.1285
  H  H603  1  0.859300  0.438600  0.368500  1.0  0.1373
  H  H604  1  0.814900  0.373500  0.486600  1.0  0.1275
  H  H605  1  0.763400  0.331900  0.457300  1.0  0.1354
  H  H606  1  0.787500  0.381600  0.477700  1.0  0.1209
  H  H607  1  0.865700  0.823700  0.500200  1.0  0.132
  H  H608  1  0.817500  0.771800  0.470900  1.0  0.1197
  H  H609  1  0.814300  0.801100  0.487800  1.0  0.1373
  H  H610  1  0.924200  0.923200  0.393000  1.0  0.1261
  H  H611  1  0.880700  0.861500  0.376800  1.0  0.1236
  H  H612  1  0.941900  0.904200  0.393300  1.0  0.1158
  H  H613  1  0.120200  0.525100  0.467700  1.0  0.1287
  H  H614  1  0.159800  0.558000  0.446200  1.0  0.136
  H  H615  1  0.103600  0.493200  0.434600  1.0  0.1177
  H  H616  1  0.015600  0.533000  0.382800  1.0  0.1277
  H  H617  1  0.047500  0.541200  0.362100  1.0  0.1319
  H  H618  1  0.078700  0.591800  0.387900  1.0  0.1352
  H  H619  1  0.268500  0.282700  0.176600  1.0  0.1326
  H  H620  1  0.224600  0.231600  0.146800  1.0  0.1319
  H  H621  1  0.206700  0.227600  0.176700  1.0  0.1311
  H  H622  1  0.147100  0.288400  0.117100  1.0  0.1306
  H  H623  1  0.126500  0.245000  0.090700  1.0  0.1272
  H  H624  1  0.182300  0.308300  0.094000  1.0  0.1389
  H  H625  1  0.922500  0.294400  0.182900  1.0  0.1255
  H  H626  1  0.971400  0.357000  0.200800  1.0  0.1359
  H  H627  1  0.957800  0.318200  0.216800  1.0  0.1229
  H  H628  1  0.117500  0.394900  0.153200  1.0  0.1319
  H  H629  1  0.142800  0.426100  0.188900  1.0  0.1239
  H  H630  1  0.138300  0.445400  0.163700  1.0  0.1336
  H  H631  1  0.506100  0.596400  0.258500  1.0  0.1357
  H  H632  1  0.546400  0.606600  0.276800  1.0  0.1339
  H  H633  1  0.508000  0.593600  0.293200  1.0  0.1277
  H  H634  1  0.356300  0.364200  0.246100  1.0  0.1334
  H  H635  1  0.414000  0.400700  0.265100  1.0  0.1198
  H  H636  1  0.399500  0.388700  0.228600  1.0  0.1258
  H  H637  1  0.614600  0.437200  0.610800  1.0  0.1279
  H  H638  1  0.587000  0.444700  0.617100  1.0  0.1205
  H  H639  1  0.644500  0.484500  0.639400  1.0  0.1303
  H  H640  1  0.495500  0.314100  0.706000  1.0  0.1383
  H  H641  1  0.556300  0.355400  0.722300  1.0  0.1245
  H  H642  1  0.539500  0.375200  0.724300  1.0  0.1325
  H  H643  1  0.715000  0.513900  0.748700  1.0  0.1376
  H  H644  1  0.656200  0.462400  0.753800  1.0  0.1292
  H  H645  1  0.666500  0.457400  0.722500  1.0  0.1373
  H  H646  1  0.586300  0.509600  0.685100  1.0  0.134
  H  H647  1  0.614100  0.518900  0.659800  1.0  0.1301
  H  H648  1  0.559400  0.459100  0.662700  1.0  0.1257
  H  H649  1  0.470600  0.164700  0.523700  1.0  0.1309
  H  H650  1  0.465100  0.168100  0.489600  1.0  0.1276
  H  H651  1  0.520200  0.200500  0.509300  1.0  0.1337
  H  H652  1  0.578500  0.377100  0.548200  1.0  0.1179
  H  H653  1  0.623700  0.395600  0.537900  1.0  0.1257
  H  H654  1  0.573500  0.365900  0.512600  1.0  0.1173
  H  H655  1  0.010000  0.915000  0.790200  1.0  0.1345
  H  H656  1  0.014800  0.940400  0.765200  1.0  0.1395
  H  H657  1  0.978300  0.880700  0.754800  1.0  0.1219
  H  H658  1  0.184300  0.006300  0.733000  1.0  0.142
  H  H659  1  0.155900  0.954500  0.740800  1.0  0.1201
  H  H660  1  0.128200  0.947000  0.710200  1.0  0.1174
  H  H661  1  0.024600  0.808000  0.708600  1.0  0.1209
  H  H662  1  0.062600  0.860600  0.736000  1.0  0.1231
  H  H663  1  0.002200  0.802500  0.736300  1.0  0.1384
  H  H664  1  0.972800  0.886400  0.663400  1.0  0.1339
  H  H665  1  0.958700  0.881900  0.695200  1.0  0.1291
  H  H666  1  0.020400  0.932500  0.694500  1.0  0.1307
  H  H667  1  0.268200  0.150800  0.949200  1.0  0.1443
  H  H668  1  0.267400  0.185100  0.948700  1.0  0.1337
  H  H669  1  0.235000  0.142400  0.968400  1.0  0.1342
  H  H670  1  0.054200  0.997600  0.852600  1.0  0.1244
  H  H671  1  0.038600  0.959800  0.871400  1.0  0.1133
  H  H672  1  0.041600  0.996100  0.884500  1.0  0.1144
  H  H673  1  0.228500  0.689400  0.390500  1.0  0.1122
  H  H674  1  0.183700  0.658100  0.408400  1.0  0.121
  H  H675  1  0.173600  0.659900  0.374700  1.0  0.1144
  H  H676  1  0.065400  0.450200  0.341600  1.0  0.1337
  H  H677  1  0.053700  0.453400  0.372900  1.0  0.1268
  H  H678  1  0.103900  0.473900  0.373800  1.0  0.1356
  H  H679  1  0.097300  0.429700  0.284200  1.0  0.1356
  H  H680  1  0.065300  0.383400  0.253700  1.0  0.131
  H  H681  1  0.037600  0.388900  0.265500  1.0  0.1292
  H  H682  1  0.136300  0.530100  0.180800  1.0  0.1348
  H  H683  1  0.097800  0.471300  0.162300  1.0  0.1228
  H  H684  1  0.161500  0.519500  0.176200  1.0  0.1334
  H  H685  1  0.192000  0.647900  0.199300  1.0  0.1199
  H  H686  1  0.222800  0.704100  0.200700  1.0  0.117
  H  H687  1  0.160200  0.651600  0.200000  1.0  0.1209
  H  H688  1  0.244100  0.731600  0.336700  1.0  0.1281
  H  H689  1  0.229400  0.749900  0.321700  1.0  0.1314
  H  H690  1  0.289700  0.787700  0.328000  1.0  0.1009
  H  H691  1  0.644400  0.538100  0.209500  1.0  0.1217
  H  H692  1  0.684200  0.572600  0.188400  1.0  0.1175
  H  H693  1  0.660800  0.582800  0.200800  1.0  0.1309
  H  H694  1  0.869600  0.750300  0.301900  1.0  0.1331
  H  H695  1  0.882800  0.751100  0.270300  1.0  0.1326
  H  H696  1  0.868600  0.715400  0.290600  1.0  0.1327
  H  H697  1  0.878200  0.768100  0.377900  1.0  0.1308
  H  H698  1  0.910000  0.816000  0.407000  1.0  0.1289
  H  H699  1  0.899200  0.817200  0.373200  1.0  0.1235
  H  H700  1  0.692600  0.690500  0.400700  1.0  0.1264
  H  H701  1  0.743300  0.754500  0.416000  1.0  0.1297
  H  H702  1  0.731300  0.718200  0.434300  1.0  0.1252
  H  H703  1  0.576100  0.591000  0.354900  1.0  0.1275
  H  H704  1  0.511500  0.534800  0.341900  1.0  0.1266
  H  H705  1  0.543800  0.586700  0.331500  1.0  0.1171
  H  H706  1  0.553700  0.507600  0.227700  1.0  0.1309
  H  H707  1  0.505800  0.491000  0.220400  1.0  0.1291
  H  H708  1  0.495800  0.451600  0.231800  1.0  0.1301
  H  H709  1  0.793300  0.720100  0.169400  1.0  0.145
  H  H710  1  0.735400  0.656100  0.162900  1.0  0.1316
  H  H711  1  0.765500  0.695900  0.196400  1.0  0.1375
  H  H712  1  0.845200  0.638900  0.212300  1.0  0.1316
  H  H713  1  0.886300  0.694300  0.238000  1.0  0.1301
  H  H714  1  0.825300  0.639300  0.239200  1.0  0.1209
  H  H715  1  0.962800  0.714900  0.206900  1.0  0.1295
  H  H716  1  0.957300  0.679500  0.186600  1.0  0.1259
  H  H717  1  0.013700  0.735900  0.211400  1.0  0.1341
  H  H718  1  0.056500  0.818100  0.101000  1.0  0.14
  H  H719  1  0.102900  0.868900  0.130800  1.0  0.1343
  H  H720  1  0.099500  0.831800  0.119700  1.0  0.1324
  H  H721  1  0.038600  0.881900  0.092500  1.0  0.1323
  H  H722  1  0.006000  0.856600  0.057200  1.0  0.1356
  H  H723  1  0.039600  0.912500  0.076700  1.0  0.1379
  H  H724  1  0.820800  0.756300  0.095300  1.0  0.1345
  H  H725  1  0.863500  0.815200  0.117100  1.0  0.1209
  H  H726  1  0.847600  0.802900  0.080700  1.0  0.1284
  H  H727  1  0.425200  0.009200  0.302000  1.0  0.1351
  H  H728  1  0.470500  0.071900  0.316400  1.0  0.1299
  H  H729  1  0.423900  0.027900  0.332400  1.0  0.1392
  H  H730  1  0.326700  0.034800  0.238300  1.0  0.1205
  H  H731  1  0.320300  0.041900  0.271000  1.0  0.1222
  H  H732  1  0.377700  0.091800  0.264100  1.0  0.1117
  H  H733  1  0.189900  0.923500  0.218000  1.0  0.135
  H  H734  1  0.190600  0.921700  0.182900  1.0  0.1321
  H  H735  1  0.139400  0.892700  0.192300  1.0  0.1306
  H  H736  1  0.061200  0.702000  0.162600  1.0  0.1312
  H  H737  1  0.028000  0.689800  0.184400  1.0  0.1329
  H  H738  1  0.018700  0.691800  0.150500  1.0  0.1301
  H  H739  1  0.107600  0.681300  0.213300  1.0  0.1343
  H  H740  1  0.123200  0.660300  0.210300  1.0  0.1129
  H  H741  1  0.107300  0.660800  0.240100  1.0  0.1373
  H  H742  1  0.351900  0.884100  0.279000  1.0  0.1233
  H  H743  1  0.329700  0.865500  0.308400  1.0  0.1212
  H  H744  1  0.333000  0.838100  0.288300  1.0  0.1045
  H  H745  1  0.450700  0.204800  0.420700  1.0  0.1389
  H  H746  1  0.449200  0.212100  0.455100  1.0  0.1248
  H  H747  1  0.445600  0.175300  0.441900  1.0  0.1243
  H  H748  1  0.687400  0.382200  0.495200  1.0  0.1223
  H  H749  1  0.657700  0.364300  0.521400  1.0  0.1357
  H  H750  1  0.676400  0.406300  0.505700  1.0  0.1192
  H  H751  1  0.781600  0.455400  0.456400  1.0  0.1205
  H  H752  1  0.827700  0.469300  0.462400  1.0  0.1207
  H  H753  1  0.773800  0.420200  0.472600  1.0  0.1196
  H  H754  1  0.698800  0.295400  0.344800  1.0  0.1366
  H  H755  1  0.754700  0.328200  0.363500  1.0  0.1293
  H  H756  1  0.755200  0.354600  0.342200  1.0  0.1323
  H  H757  1  0.561000  0.198200  0.284200  1.0  0.1374
  H  H758  1  0.506700  0.133400  0.273900  1.0  0.1329
  H  H759  1  0.553500  0.165800  0.303900  1.0  0.1333
  H  H760  1  0.419000  0.136300  0.361900  1.0  0.1257
  H  H761  1  0.378100  0.080900  0.336200  1.0  0.1299
  H  H762  1  0.394400  0.125900  0.328100  1.0  0.1076
  H  H763  1  0.997800  0.979600  0.119200  1.0  0.1247
  H  H764  1  0.978300  0.932600  0.126900  1.0  0.122
  H  H765  1  0.934500  0.919300  0.111200  1.0  0.1084
  H  H766  1  0.941000  0.859800  0.993800  1.0  0.1293
  H  H767  1  0.924800  0.824300  0.015300  1.0  0.1266
  H  H768  1  0.986400  0.877800  0.014400  1.0  0.1232
  H  H769  1  0.043700  0.950300  0.960600  1.0  0.1403
  H  H770  1  0.073200  0.970200  0.934000  1.0  0.138
  H  H771  1  0.016300  0.939200  0.927700  1.0  0.1301
  H  H772  1  0.158600  0.165300  0.967700  1.0  0.1252
  H  H773  1  0.176100  0.160900  0.941000  1.0  0.1301
  H  H774  1  0.207700  0.183700  0.976000  1.0  0.1359
  H  H775  1  0.179400  0.223100  0.035700  1.0  0.1355
  H  H776  1  0.217200  0.269100  0.067700  1.0  0.1303
  H  H777  1  0.166300  0.244200  0.048900  1.0  0.1271
  H  H778  1  0.050600  0.087300  0.125500  1.0  0.1175
  H  H779  1  0.084700  0.144200  0.143300  1.0  0.1155
  H  H780  1  0.112300  0.135600  0.145300  1.0  0.1169
  H  H781  1  0.604800  0.534700  0.112700  1.0  0.1298
  H  H782  1  0.600900  0.496400  0.111300  1.0  0.1285
  H  H783  1  0.570100  0.490800  0.131500  1.0  0.1368
  H  H784  1  0.386900  0.328300  0.013400  1.0  0.1267
  H  H785  1  0.374600  0.306100  0.042700  1.0  0.134
  H  H786  1  0.403900  0.309800  0.022300  1.0  0.1221
  H  H787  1  0.823500  0.365500  0.999800  1.0  0.1315
  H  H788  1  0.800900  0.346600  0.029100  1.0  0.1195
  H  H789  1  0.813300  0.326500  0.012200  1.0  0.1352
  H  H790  1  0.030200  0.531200  0.107000  1.0  0.1255
  H  H791  1  0.984700  0.503900  0.123200  1.0  0.1231
  H  H792  1  0.010900  0.548600  0.106700  1.0  0.1193
  H  H793  1  0.557400  0.652500  0.032300  1.0  0.1304
  H  H794  1  0.611800  0.713600  0.053800  1.0  0.1378
  H  H795  1  0.558600  0.669000  0.065400  1.0  0.1165
  H  H796  1  0.650200  0.632800  0.117200  1.0  0.1304
  H  H797  1  0.679100  0.685400  0.137900  1.0  0.1335
  H  H798  1  0.703900  0.690800  0.112100  1.0  0.134
  H  H799  1  0.606100  0.091900  0.323400  1.0  0.1333
  H  H800  1  0.584800  0.077800  0.353200  1.0  0.134
  H  H801  1  0.550900  0.030000  0.323300  1.0  0.1333
  H  H802  1  0.671300  0.030000  0.382900  1.0  0.1309
  H  H803  1  0.654300  0.035800  0.409300  1.0  0.1247
  H  H804  1  0.714300  0.088300  0.406000  1.0  0.1389
  H  H805  1  0.611500  0.739600  0.317100  1.0  0.1269
  H  H806  1  0.656200  0.770600  0.299200  1.0  0.1329
  H  H807  1  0.601400  0.741000  0.283200  1.0  0.1244
  H  H808  1  0.741700  0.964300  0.346800  1.0  0.1326
  H  H809  1  0.737200  0.953900  0.311100  1.0  0.1221
  H  H810  1  0.781700  0.974600  0.336300  1.0  0.1333
  H  H811  1  0.837900  0.247600  0.241500  1.0  0.134
  H  H812  1  0.829800  0.269600  0.223200  1.0  0.1325
  H  H813  1  0.800400  0.214800  0.206800  1.0  0.1235
  H  H814  1  0.618100  0.110200  0.253900  1.0  0.1319
  H  H815  1  0.635600  0.148900  0.234900  1.0  0.1189
  H  H816  1  0.660100  0.170900  0.271400  1.0  0.1276
  H  H817  1  0.326400  0.003800  0.889200  1.0  0.1271
  H  H818  1  0.327600  0.969900  0.882900  1.0  0.1209
  H  H819  1  0.345100  0.005100  0.860600  1.0  0.1281
  H  H820  1  0.108100  0.789500  0.794000  1.0  0.1399
  H  H821  1  0.133100  0.834000  0.777700  1.0  0.1246
  H  H822  1  0.150900  0.815200  0.775700  1.0  0.1339
  H  H823  1  0.265200  0.966300  0.751300  1.0  0.1392
  H  H824  1  0.208600  0.902400  0.746200  1.0  0.1308
  H  H825  1  0.234900  0.944000  0.777500  1.0  0.1357
  H  H826  1  0.324500  0.901200  0.814900  1.0  0.1351
  H  H827  1  0.359100  0.954300  0.840200  1.0  0.1303
  H  H828  1  0.296400  0.896700  0.837300  1.0  0.1239
  H  H829  1  0.141000  0.946900  0.976300  1.0  0.1309
  H  H830  1  0.178500  0.975500  0.010400  1.0  0.1253
  H  H831  1  0.191200  0.010900  0.990700  1.0  0.1366
  H  H832  1  0.328900  0.030300  0.951800  1.0  0.1167
  H  H833  1  0.357700  0.085800  0.962100  1.0  0.1256
  H  H834  1  0.353300  0.060900  0.987400  1.0  0.1177
  H  H835  1  0.624800  0.219800  0.709800  1.0  0.1351
  H  H836  1  0.675200  0.249600  0.734800  1.0  0.139
  H  H837  1  0.625900  0.223500  0.745200  1.0  0.1251
  H  H838  1  0.773300  0.451300  0.767000  1.0  0.1397
  H  H839  1  0.713700  0.415100  0.759200  1.0  0.1208
  H  H840  1  0.736800  0.418000  0.789800  1.0  0.117
  H  H841  1  0.599400  0.316000  0.791400  1.0  0.1179
  H  H842  1  0.624600  0.326600  0.764000  1.0  0.1229
  H  H843  1  0.566200  0.265900  0.763700  1.0  0.1394
  H  H844  1  0.723000  0.309400  0.836600  1.0  0.1337
  H  H845  1  0.686700  0.263500  0.804800  1.0  0.1268
  H  H846  1  0.738000  0.325900  0.805500  1.0  0.1262
  H  H847  1  0.701600  0.319000  0.550800  1.0  0.1426
  H  H848  1  0.736400  0.318700  0.551300  1.0  0.1307
  H  H849  1  0.674000  0.266600  0.531600  1.0  0.1326
  H  H850  1  0.645000  0.201600  0.647400  1.0  0.1254
  H  H851  1  0.588400  0.167200  0.628600  1.0  0.11
  H  H852  1  0.611600  0.157100  0.615500  1.0  0.1157
  H  H853  1  0.798900  0.838000  0.109500  1.0  0.1147
  H  H854  1  0.749700  0.775300  0.091600  1.0  0.1209
  H  H855  1  0.785200  0.798900  0.125300  1.0  0.1173
  H  H856  1  0.608600  0.723800  0.158400  1.0  0.1306
  H  H857  1  0.580500  0.680800  0.127100  1.0  0.1266
  H  H858  1  0.600100  0.730100  0.126200  1.0  0.1369
  H  H859  1  0.645500  0.813100  0.215800  1.0  0.1345
  H  H860  1  0.629700  0.811600  0.246300  1.0  0.1302
  H  H861  1  0.623400  0.772100  0.234500  1.0  0.1285
  H  H862  1  0.849300  0.955500  0.319200  1.0  0.1354
  H  H863  1  0.809000  0.935500  0.337700  1.0  0.1242
  H  H864  1  0.843300  0.985300  0.323800  1.0  0.1338
  H  H865  1  0.948600  0.992700  0.300700  1.0  0.1191
  H  H866  1  0.003400  0.022100  0.299300  1.0  0.1185
  H  H867  1  0.951600  0.960200  0.300000  1.0  0.121
  H  H868  1  0.894900  0.907400  0.163300  1.0  0.1271
  H  H869  1  0.928200  0.907700  0.178300  1.0  0.1301
  H  H870  1  0.959700  0.961700  0.172000  1.0  0.0977
  H  H871  1  0.828600  0.434900  0.290500  1.0  0.1214
  H  H872  1  0.884200  0.495800  0.311600  1.0  0.1173
  H  H873  1  0.882000  0.460000  0.299200  1.0  0.1293
  H  H874  1  0.948400  0.567700  0.198100  1.0  0.1323
  H  H875  1  0.980800  0.612500  0.229700  1.0  0.1318
  H  H876  1  0.924800  0.578000  0.209400  1.0  0.1343
  H  H877  1  0.890200  0.500300  0.122100  1.0  0.1284
  H  H878  1  0.909000  0.503000  0.093000  1.0  0.1307
  H  H879  1  0.944000  0.526000  0.126800  1.0  0.1246
  H  H880  1  0.789800  0.291900  0.099300  1.0  0.1275
  H  H881  1  0.838500  0.327300  0.084000  1.0  0.1271
  H  H882  1  0.783900  0.297000  0.065700  1.0  0.1245
  H  H883  1  0.736100  0.221200  0.145100  1.0  0.1266
  H  H884  1  0.692900  0.169600  0.158100  1.0  0.1277
  H  H885  1  0.755200  0.212300  0.168500  1.0  0.1197
  H  H886  1  0.779900  0.326000  0.272300  1.0  0.1336
  H  H887  1  0.770600  0.285400  0.279600  1.0  0.127
  H  H888  1  0.719800  0.264000  0.268200  1.0  0.1338
  H  H889  1  0.050700  0.623900  0.330600  1.0  0.1452
  H  H890  1  0.993200  0.572500  0.337100  1.0  0.1329
  H  H891  1  0.999500  0.569100  0.303600  1.0  0.1374
  H  H892  1  0.926600  0.632900  0.287700  1.0  0.1319
  H  H893  1  0.956300  0.648300  0.262000  1.0  0.1285
  H  H894  1  0.900100  0.586100  0.260800  1.0  0.1211
  H  H895  1  0.008000  0.755900  0.293100  1.0  0.1295
  H  H896  1  0.992900  0.770700  0.313400  1.0  0.1221
  H  H897  1  0.024500  0.802300  0.288600  1.0  0.1333
  H  H898  1  0.217100  0.955500  0.399000  1.0  0.1406
  H  H899  1  0.238100  0.972100  0.369200  1.0  0.1309
  H  H900  1  0.212100  0.979800  0.380300  1.0  0.1339
  H  H901  1  0.289400  0.946100  0.407500  1.0  0.1332
  H  H902  1  0.299400  0.948800  0.442800  1.0  0.1353
  H  H903  1  0.335800  0.962900  0.423300  1.0  0.1389
  H  H904  1  0.161000  0.725500  0.404700  1.0  0.1352
  H  H905  1  0.198100  0.746400  0.382900  1.0  0.1157
  H  H906  1  0.222200  0.766900  0.419300  1.0  0.1278
  H  H907  1  0.207200  0.123200  0.198000  1.0  0.1322
  H  H908  1  0.255500  0.154100  0.183600  1.0  0.1305
  H  H909  1  0.195500  0.091500  0.167600  1.0  0.1396
  H  H910  1  0.296500  0.088400  0.261700  1.0  0.1183
  H  H911  1  0.270900  0.049300  0.229000  1.0  0.1204
  H  H912  1  0.327700  0.113600  0.235900  1.0  0.11
  H  H913  1  0.205500  0.971900  0.282000  1.0  0.1344
  H  H914  1  0.238800  0.007700  0.317100  1.0  0.1359
  H  H915  1  0.200400  0.947100  0.307700  1.0  0.1315
  H  H916  1  0.039400  0.898600  0.337400  1.0  0.137
  H  H917  1  0.005400  0.843600  0.315600  1.0  0.1324
  H  H918  1  0.041300  0.868200  0.349500  1.0  0.1308
  H  H919  1  0.968000  0.894300  0.286700  1.0  0.1384
  H  H920  1  0.950000  0.912900  0.289700  1.0  0.1117
  H  H921  1  0.920700  0.867200  0.259900  1.0  0.1384
  H  H922  1  0.105100  0.072900  0.221000  1.0  0.1255
  H  H923  1  0.057100  0.021300  0.191600  1.0  0.1221
  H  H924  1  0.049800  0.044700  0.211700  1.0  0.1054
  H  H925  1  0.284100  0.030000  0.079300  1.0  0.1383
  H  H926  1  0.257000  0.994100  0.044900  1.0  0.1254
  H  H927  1  0.233400  0.003700  0.058100  1.0  0.1232
  H  H928  1  0.387000  0.192200  0.004800  1.0  0.1243
  H  H929  1  0.342900  0.136300  0.978600  1.0  0.1374
  H  H930  1  0.400600  0.170700  0.994300  1.0  0.1165
  H  H931  1  0.499000  0.325200  0.043600  1.0  0.1239
  H  H932  1  0.506900  0.365300  0.037600  1.0  0.1217
  H  H933  1  0.447600  0.301200  0.027400  1.0  0.1192
  H  H934  1  0.450600  0.354000  0.155200  1.0  0.1351
  H  H935  1  0.464700  0.391200  0.136500  1.0  0.1298
  H  H936  1  0.512400  0.413000  0.157800  1.0  0.1342
  H  H937  1  0.414000  0.276800  0.215800  1.0  0.1379
  H  H938  1  0.359500  0.232800  0.226100  1.0  0.1309
  H  H939  1  0.361900  0.249600  0.196100  1.0  0.1308
  H  H940  1  0.274400  0.057100  0.138100  1.0  0.1248
  H  H941  1  0.244700  0.041900  0.163800  1.0  0.1272
  H  H942  1  0.297800  0.066300  0.171900  1.0  0.1099
  H  H943  1  0.360400  0.878600  0.380800  1.0  0.1251
  H  H944  1  0.305700  0.851400  0.373100  1.0  0.1215
  H  H945  1  0.308100  0.823300  0.388800  1.0  0.1104
  H  H946  1  0.366000  0.947200  0.506200  1.0  0.1297
  H  H947  1  0.309000  0.909500  0.484700  1.0  0.1239
  H  H948  1  0.363400  0.972000  0.485600  1.0  0.1252
  H  H949  1  0.489700  0.083100  0.539400  1.0  0.1398
  H  H950  1  0.536200  0.139200  0.566000  1.0  0.1356
  H  H951  1  0.511500  0.088600  0.572300  1.0  0.1291
  H  H952  1  0.697600  0.190900  0.532300  1.0  0.1259
  H  H953  1  0.719900  0.235100  0.559000  1.0  0.1287
  H  H954  1  0.707700  0.231700  0.524000  1.0  0.1363
  H  H955  1  0.687400  0.143700  0.464300  1.0  0.1329
  H  H956  1  0.701400  0.149500  0.432300  1.0  0.1305
  H  H957  1  0.695300  0.117400  0.451100  1.0  0.1287
  H  H958  1  0.461800  0.925100  0.374500  1.0  0.1143
  H  H959  1  0.500900  0.941400  0.356700  1.0  0.1173
  H  H960  1  0.490300  0.967000  0.354700  1.0  0.1153
  H  H961  1  0.965300  0.578000  0.070100  1.0  0.1285
  H  H962  1  0.003600  0.614900  0.104500  1.0  0.127
  H  H963  1  0.009200  0.640700  0.079300  1.0  0.1368
  H  H964  1  0.171700  0.685100  0.058600  1.0  0.1271
  H  H965  1  0.193900  0.736600  0.068500  1.0  0.133
  H  H966  1  0.190200  0.712500  0.094100  1.0  0.1199
  H  H967  1  0.134500  0.634300  0.458000  1.0  0.1305
  H  H968  1  0.153400  0.682500  0.454300  1.0  0.1173
  H  H969  1  0.173500  0.685700  0.486800  1.0  0.1317
  H  H970  1  0.968800  0.575800  0.499000  1.0  0.1274
  H  H971  1  0.996100  0.619300  0.480800  1.0  0.1259
  H  H972  1  0.951400  0.558100  0.462300  1.0  0.1154
  H  H973  1  0.847500  0.379800  0.904900  1.0  0.1276
  H  H974  1  0.786400  0.340200  0.898200  1.0  0.1374
  H  H975  1  0.831000  0.396400  0.889600  1.0  0.1161
  H  H976  1  0.867200  0.484400  0.017400  1.0  0.1281
  H  H977  1  0.814600  0.452500  0.993700  1.0  0.1303
  H  H978  1  0.809200  0.421300  0.013100  1.0  0.131
  H  H979  1  0.408100  0.231500  0.514200  1.0  0.1331
  H  H980  1  0.422200  0.275400  0.507000  1.0  0.1301
  H  H981  1  0.470000  0.293300  0.520900  1.0  0.1307
  H  H982  1  0.470000  0.352900  0.641300  1.0  0.1303
  H  H983  1  0.464200  0.373500  0.618500  1.0  0.1274
  H  H984  1  0.411700  0.317700  0.626000  1.0  0.1387
  H  H985  1  0.760400  0.577500  0.871900  1.0  0.1263
  H  H986  1  0.729400  0.528600  0.885600  1.0  0.136
  H  H987  1  0.759000  0.542200  0.860400  1.0  0.1225
  H  H988  1  0.535700  0.382500  0.777400  1.0  0.1334
  H  H989  1  0.546100  0.357200  0.783300  1.0  0.1252
  H  H990  1  0.525400  0.361700  0.807100  1.0  0.1344
  H  H991  1  0.252400  0.993900  0.590300  1.0  0.133
  H  H992  1  0.230400  0.953600  0.560200  1.0  0.1326
  H  H993  1  0.285200  0.992000  0.585600  1.0  0.1267
  H  H994  1  0.389800  0.143700  0.507900  1.0  0.132
  H  H995  1  0.351100  0.086000  0.486700  1.0  0.1205
  H  H996  1  0.329100  0.100500  0.489200  1.0  0.1247
  H  H997  1  0.496200  0.885400  0.322600  1.0  0.1278
  H  H998  1  0.530100  0.913000  0.357700  1.0  0.1197
  H  H999  1  0.494900  0.855500  0.340000  1.0  0.1302
  H  H1000  1  0.710500  0.004500  0.318600  1.0  0.1393
  H  H1001  1  0.666000  0.943700  0.299100  1.0  0.124
  H  H1002  1  0.684800  0.960500  0.335700  1.0  0.1349
  H  H1003  1  0.533700  0.785000  0.298900  1.0  0.1393
  H  H1004  1  0.597600  0.843800  0.306200  1.0  0.1288
  H  H1005  1  0.556000  0.833500  0.290900  1.0  0.1354
  H  H1006  1  0.598800  0.913700  0.423300  1.0  0.1346
  H  H1007  1  0.545700  0.885900  0.404800  1.0  0.129
  H  H1008  1  0.603300  0.940600  0.399700  1.0  0.1262
  H  H1009  1  0.553100  0.029400  0.194100  1.0  0.1306
  H  H1010  1  0.524500  0.034900  0.203000  1.0  0.1262
  H  H1011  1  0.489100  0.979800  0.180300  1.0  0.1371
  H  H1012  1  0.469700  0.921500  0.298600  1.0  0.122
  H  H1013  1  0.414200  0.876300  0.271900  1.0  0.1294
  H  H1014  1  0.439100  0.926500  0.292400  1.0  0.1155
  H  H1015  1  0.280200  0.490000  0.405000  1.0  0.132
  H  H1016  1  0.250400  0.485200  0.425600  1.0  0.1377
  H  H1017  1  0.276500  0.521700  0.402400  1.0  0.1256
  H  H1018  1  0.048700  0.315700  0.322000  1.0  0.141
  H  H1019  1  0.084900  0.344100  0.298600  1.0  0.1246
  H  H1020  1  0.082000  0.371800  0.318800  1.0  0.1147
  H  H1021  1  0.184000  0.475400  0.283400  1.0  0.1208
  H  H1022  1  0.173400  0.437400  0.298000  1.0  0.124
  H  H1023  1  0.234100  0.497800  0.300300  1.0  0.1376
  H  H1024  1  0.190600  0.527200  0.413600  1.0  0.133
  H  H1025  1  0.236500  0.541300  0.423200  1.0  0.1286
  H  H1026  1  0.174100  0.479600  0.412100  1.0  0.1291
  H  H1027  1  0.181000  0.231800  0.382600  1.0  0.1424
  H  H1028  1  0.181300  0.232600  0.417700  1.0  0.1327
  H  H1029  1  0.233400  0.265000  0.407400  1.0  0.1337
  H  H1030  1  0.298400  0.445800  0.443400  1.0  0.1222
  H  H1031  1  0.332800  0.461400  0.421200  1.0  0.1082
  H  H1032  1  0.342900  0.458400  0.454500  1.0  0.1132
  H  H1033  1  0.662000  0.271500  0.960900  1.0  0.115
  H  H1034  1  0.724700  0.316300  0.974400  1.0  0.1194
  H  H1035  1  0.701100  0.326400  0.986300  1.0  0.1181
  H  H1036  1  0.776200  0.434600  0.884800  1.0  0.132
  H  H1037  1  0.819200  0.446300  0.899700  1.0  0.1272
  H  H1038  1  0.769900  0.396100  0.870000  1.0  0.1329
  H  H1039  1  0.686900  0.402700  0.832400  1.0  0.1372
  H  H1040  1  0.688400  0.434700  0.818100  1.0  0.1283
  H  H1041  1  0.727900  0.462400  0.851300  1.0  0.1298
  H  H1042  1  0.544500  0.363700  0.893800  1.0  0.1367
  H  H1043  1  0.564500  0.402200  0.873500  1.0  0.1247
  H  H1044  1  0.514700  0.338500  0.858000  1.0  0.1341
  H  H1045  1  0.507300  0.308000  0.955900  1.0  0.1201
  H  H1046  1  0.477900  0.277200  0.981300  1.0  0.1159
  H  H1047  1  0.539800  0.339800  0.991400  1.0  0.1229
  H  H1048  1  0.592600  0.255900  0.987500  1.0  0.1266
  H  H1049  1  0.592300  0.270600  0.020500  1.0  0.1315
  H  H1050  1  0.538300  0.210300  0.998000  1.0  0.1012
  H  H1051  1  0.065100  0.855600  0.393700  1.0  0.12
  H  H1052  1  0.004200  0.815800  0.388400  1.0  0.1181
  H  H1053  1  0.040000  0.839200  0.422000  1.0  0.1277
  H  H1054  1  0.932300  0.630400  0.380700  1.0  0.1332
  H  H1055  1  0.887500  0.617200  0.368300  1.0  0.1334
  H  H1056  1  0.922000  0.631400  0.346800  1.0  0.1311
  H  H1057  1  0.999700  0.621800  0.389900  1.0  0.1297
  H  H1058  1  0.997000  0.590000  0.406000  1.0  0.1301
  H  H1059  1  0.974000  0.600800  0.418000  1.0  0.1242
  H  H1060  1  0.208100  0.807400  0.497900  1.0  0.1285
  H  H1061  1  0.172700  0.756700  0.511200  1.0  0.1306
  H  H1062  1  0.203000  0.768700  0.486900  1.0  0.1245
  H  H1063  1  0.278800  0.923900  0.514900  1.0  0.1293
  H  H1064  1  0.330400  0.988500  0.523300  1.0  0.1277
  H  H1065  1  0.287700  0.956200  0.542900  1.0  0.1162
  H  H1066  1  0.174000  0.946300  0.453900  1.0  0.1329
  H  H1067  1  0.214600  0.994200  0.485200  1.0  0.1316
  H  H1068  1  0.236000  0.004200  0.455800  1.0  0.1332
  H  H1069  1  0.876100  0.706700  0.426800  1.0  0.1448
  H  H1070  1  0.927500  0.764600  0.420700  1.0  0.1323
  H  H1071  1  0.930900  0.734500  0.430400  1.0  0.1357
  H  H1072  1  0.867100  0.654800  0.293700  1.0  0.1308
  H  H1073  1  0.851700  0.613700  0.308000  1.0  0.129
  H  H1074  1  0.913900  0.674700  0.314000  1.0  0.119
  H  H1075  1  0.744100  0.537200  0.252100  1.0  0.1283
  H  H1076  1  0.729300  0.542700  0.222200  1.0  0.1211
  H  H1077  1  0.697700  0.486300  0.222200  1.0  0.1335
  H  H1078  1  0.544500  0.443500  0.261600  1.0  0.1406
  H  H1079  1  0.527900  0.397100  0.266000  1.0  0.1332
  H  H1080  1  0.520200  0.400500  0.232300  1.0  0.1339
  H  H1081  1  0.553900  0.461400  0.343300  1.0  0.1322
  H  H1082  1  0.551200  0.494000  0.350600  1.0  0.1347
  H  H1083  1  0.537100  0.460400  0.372900  1.0  0.1357
  H  H1084  1  0.774500  0.679200  0.435500  1.0  0.1347
  H  H1085  1  0.753600  0.636500  0.451700  1.0  0.1173
  H  H1086  1  0.733100  0.652400  0.455300  1.0  0.1282
  H  H1087  1  0.376800  0.074800  0.084000  1.0  0.1353
  H  H1088  1  0.345900  0.029500  0.101400  1.0  0.1299
  H  H1089  1  0.408500  0.076100  0.104000  1.0  0.136
  H  H1090  1  0.411600  0.173300  0.208100  1.0  0.12
  H  H1091  1  0.450700  0.179700  0.221600  1.0  0.123
  H  H1092  1  0.386400  0.122300  0.214100  1.0  0.1108
  H  H1093  1  0.528100  0.310100  0.233600  1.0  0.1352
  H  H1094  1  0.492300  0.309400  0.231100  1.0  0.1339
  H  H1095  1  0.552900  0.360600  0.253300  1.0  0.1312
  H  H1096  1  0.601400  0.438800  0.140800  1.0  0.1347
  H  H1097  1  0.656400  0.472000  0.161800  1.0  0.1337
  H  H1098  1  0.631800  0.481300  0.173100  1.0  0.131
  H  H1099  1  0.605700  0.392400  0.073700  1.0  0.1403
  H  H1100  1  0.587100  0.376800  0.037100  1.0  0.1131
  H  H1101  1  0.632800  0.392700  0.053500  1.0  0.136
  H  H1102  1  0.427100  0.148100  0.032200  1.0  0.1234
  H  H1103  1  0.478700  0.170300  0.035800  1.0  0.1211
  H  H1104  1  0.455300  0.167000  0.005100  1.0  0.1071
  H  H1105  1  0.470000  0.049300  0.254100  1.0  0.1361
  H  H1106  1  0.505900  0.050800  0.262900  1.0  0.1249
  H  H1107  1  0.496300  0.054400  0.229700  1.0  0.1228
  H  H1108  1  0.307800  0.812600  0.194800  1.0  0.1244
  H  H1109  1  0.363700  0.842300  0.206600  1.0  0.1352
  H  H1110  1  0.329300  0.823600  0.229900  1.0  0.119
  H  H1111  1  0.174800  0.718400  0.173800  1.0  0.1229
  H  H1112  1  0.134700  0.672300  0.141600  1.0  0.1173
  H  H1113  1  0.198800  0.726200  0.146400  1.0  0.1195
  H  H1114  1  0.146000  0.801200  0.096600  1.0  0.136
  H  H1115  1  0.108800  0.745300  0.073500  1.0  0.1313
  H  H1116  1  0.087000  0.744800  0.099400  1.0  0.1326
  H  H1117  1  0.223200  0.939000  0.137200  1.0  0.1365
  H  H1118  1  0.267200  0.993300  0.126700  1.0  0.1327
  H  H1119  1  0.250400  0.946500  0.112300  1.0  0.1328
  H  H1120  1  0.442900  0.081000  0.217300  1.0  0.127
  H  H1121  1  0.458100  0.121900  0.202800  1.0  0.1274
  H  H1122  1  0.433700  0.105600  0.231500  1.0  0.1094
  H  H1123  1  0.621400  0.502200  0.481800  1.0  0.1242
  H  H1124  1  0.648600  0.521700  0.454300  1.0  0.122
  H  H1125  1  0.676700  0.565500  0.484800  1.0  0.1092
  H  H1126  1  0.552800  0.559000  0.418800  1.0  0.1296
  H  H1127  1  0.590500  0.575200  0.399500  1.0  0.1235
  H  H1128  1  0.528000  0.513600  0.391400  1.0  0.1258
  H  H1129  1  0.416900  0.456300  0.406600  1.0  0.141
  H  H1130  1  0.360800  0.426800  0.397000  1.0  0.1403
  H  H1131  1  0.411400  0.483700  0.422900  1.0  0.1297
  H  H1132  1  0.309100  0.341400  0.506700  1.0  0.1281
  H  H1133  1  0.264900  0.323900  0.484800  1.0  0.1283
  H  H1134  1  0.268300  0.292300  0.476000  1.0  0.1371
  H  H1135  1  0.356300  0.320600  0.543700  1.0  0.1334
  H  H1136  1  0.350500  0.282800  0.551900  1.0  0.1293
  H  H1137  1  0.382600  0.333700  0.577900  1.0  0.125
  H  H1138  1  0.574900  0.449400  0.536700  1.0  0.1151
  H  H1139  1  0.558600  0.415300  0.559500  1.0  0.1186
  H  H1140  1  0.533000  0.387700  0.523300  1.0  0.1153
  H  H1141  1  0.007900  0.895200  0.429900  1.0  0.1277
  H  H1142  1  0.010400  0.899100  0.395500  1.0  0.129
  H  H1143  1  0.061400  0.929900  0.420700  1.0  0.1352
  H  H1144  1  0.126500  0.113100  0.441400  1.0  0.1298
  H  H1145  1  0.168100  0.125400  0.431500  1.0  0.1332
  H  H1146  1  0.118400  0.096100  0.405900  1.0  0.1216
  H  H1147  1  0.676300  0.676500  0.042000  1.0  0.1291
  H  H1148  1  0.728200  0.699100  0.045700  1.0  0.1183
  H  H1149  1  0.698900  0.686700  0.013200  1.0  0.132
  H  H1150  1  0.576800  0.469800  0.001000  1.0  0.1267
  H  H1151  1  0.638500  0.515300  0.019200  1.0  0.1222
  H  H1152  1  0.595800  0.489100  0.037700  1.0  0.1158
  H  H1153  1  0.974900  0.942600  0.595100  1.0  0.1311
  H  H1154  1  0.942000  0.888200  0.601800  1.0  0.1361
  H  H1155  1  0.006800  0.941400  0.610400  1.0  0.1162
  H  H1156  1  0.967000  0.849800  0.482600  1.0  0.1299
  H  H1157  1  0.958800  0.820900  0.506300  1.0  0.1283
  H  H1158  1  0.908200  0.796100  0.486900  1.0  0.1345
  H  H1159  1  0.217300  0.893900  0.985800  1.0  0.1354
  H  H1160  1  0.268400  0.915200  0.993000  1.0  0.1313
  H  H1161  1  0.272400  0.949100  0.979100  1.0  0.131
  H  H1162  1  0.211600  0.828700  0.858700  1.0  0.13
  H  H1163  1  0.255000  0.845700  0.881500  1.0  0.1265
  H  H1164  1  0.191700  0.785700  0.874000  1.0  0.1377
  H  H1165  1  0.205600  0.888500  0.628100  1.0  0.1268
  H  H1166  1  0.143000  0.843800  0.614400  1.0  0.1366
  H  H1167  1  0.181800  0.898600  0.639600  1.0  0.1253
  H  H1168  1  0.105100  0.758300  0.722600  1.0  0.1346
  H  H1169  1  0.073900  0.762800  0.716700  1.0  0.1243
  H  H1170  1  0.054600  0.718300  0.692900  1.0  0.1325
  H  H1171  1  0.903600  0.662100  0.909700  1.0  0.1336
  H  H1172  1  0.893400  0.670200  0.939800  1.0  0.1318
  H  H1173  1  0.906400  0.699600  0.914400  1.0  0.1276
  H  H1174  1  0.135800  0.881900  0.992100  1.0  0.1312
  H  H1175  1  0.099300  0.864400  0.013300  1.0  0.1206
  H  H1176  1  0.111300  0.839900  0.010800  1.0  0.1251
  H  H1177  1  0.062800  0.173600  0.177400  1.0  0.126
  H  H1178  1  0.055300  0.172400  0.142300  1.0  0.121
  H  H1179  1  0.015500  0.154900  0.160000  1.0  0.1293
  H  H1180  1  0.185900  0.391900  0.181400  1.0  0.1393
  H  H1181  1  0.144600  0.366900  0.200900  1.0  0.1235
  H  H1182  1  0.124800  0.349100  0.164300  1.0  0.1313
  H  H1183  1  0.986100  0.234800  0.201100  1.0  0.1381
  H  H1184  1  0.037600  0.291400  0.193800  1.0  0.1312
  H  H1185  1  0.042600  0.265100  0.209100  1.0  0.1384
  H  H1186  1  0.990400  0.175500  0.076700  1.0  0.1328
  H  H1187  1  0.981100  0.140900  0.095200  1.0  0.1284
  H  H1188  1  0.040900  0.203600  0.100300  1.0  0.1245
  H  H1189  1  0.335300  0.359000  0.305900  1.0  0.1306
  H  H1190  1  0.331900  0.321500  0.297000  1.0  0.1247
  H  H1191  1  0.299500  0.308800  0.319700  1.0  0.1365
  H  H1192  1  0.122900  0.171100  0.201400  1.0  0.1179
  H  H1193  1  0.104400  0.142300  0.228100  1.0  0.1237
  H  H1194  1  0.134100  0.146700  0.207600  1.0  0.1194
  H  H1195  1  0.585000  0.875200  0.095000  1.0  0.1352
  H  H1196  1  0.559600  0.824800  0.074400  1.0  0.1371
  H  H1197  1  0.619300  0.874100  0.097600  1.0  0.1264
  H  H1198  1  0.493700  0.726700  0.178000  1.0  0.1401
  H  H1199  1  0.545500  0.786300  0.201400  1.0  0.124
  H  H1200  1  0.553000  0.763200  0.181200  1.0  0.1146
  H  H1201  1  0.692000  0.900600  0.216600  1.0  0.1208
  H  H1202  1  0.639400  0.875400  0.202000  1.0  0.1235
  H  H1203  1  0.697500  0.933800  0.199700  1.0  0.1399
  H  H1204  1  0.613600  0.777000  0.086400  1.0  0.1341
  H  H1205  1  0.618100  0.813300  0.076800  1.0  0.1284
  H  H1206  1  0.567500  0.762000  0.087900  1.0  0.1292
  H  H1207  1  0.349200  0.798400  0.117400  1.0  0.1428
  H  H1208  1  0.314900  0.763600  0.082300  1.0  0.1335
  H  H1209  1  0.357600  0.826000  0.092600  1.0  0.1357
  H  H1210  1  0.502400  0.855000  0.056600  1.0  0.1245
  H  H1211  1  0.540200  0.911600  0.078800  1.0  0.1101
  H  H1212  1  0.503900  0.888400  0.045500  1.0  0.1166
  H  H1213  1  0.810600  0.701100  0.539100  1.0  0.1124
  H  H1214  1  0.841900  0.750300  0.525600  1.0  0.1216
  H  H1215  1  0.840100  0.714800  0.513700  1.0  0.1177
  H  H1216  1  0.049800  0.891400  0.615200  1.0  0.1339
  H  H1217  1  0.046600  0.919500  0.600300  1.0  0.1259
  H  H1218  1  0.026100  0.899900  0.630000  1.0  0.1368
  H  H1219  1  0.070300  0.854500  0.667600  1.0  0.1373
  H  H1220  1  0.116600  0.870300  0.681900  1.0  0.1272
  H  H1221  1  0.111100  0.876600  0.648700  1.0  0.1297
  H  H1222  1  0.969900  0.650700  0.606200  1.0  0.1351
  H  H1223  1  0.028700  0.691000  0.626500  1.0  0.1232
  H  H1224  1  0.980500  0.656700  0.642000  1.0  0.1353
  H  H1225  1  0.852100  0.551400  0.544100  1.0  0.1226
  H  H1226  1  0.795900  0.496600  0.518700  1.0  0.1196
  H  H1227  1  0.848400  0.548400  0.508600  1.0  0.1229
  H  H1228  1  0.768400  0.605100  0.512500  1.0  0.1288
  H  H1229  1  0.750100  0.571800  0.479500  1.0  0.1303
  H  H1230  1  0.712300  0.540300  0.502000  1.0  0.0979
  H  H1231  1  0.961900  0.671400  0.106300  1.0  0.1195
  H  H1232  1  0.927400  0.615800  0.111600  1.0  0.1182
  H  H1233  1  0.917200  0.618000  0.078000  1.0  0.1293
  H  H1234  1  0.749700  0.551600  0.119300  1.0  0.1307
  H  H1235  1  0.748900  0.519200  0.131700  1.0  0.1316
  H  H1236  1  0.784600  0.575200  0.153200  1.0  0.132
  H  H1237  1  0.731900  0.609800  0.110100  1.0  0.1291
  H  H1238  1  0.684000  0.591000  0.094000  1.0  0.1297
  H  H1239  1  0.682800  0.556000  0.082000  1.0  0.1262
  H  H1240  1  0.809500  0.710200  0.002100  1.0  0.1264
  H  H1241  1  0.745500  0.661500  0.988800  1.0  0.1296
  H  H1242  1  0.781800  0.716100  0.013100  1.0  0.126
  H  H1243  1  0.909000  0.763900  0.985100  1.0  0.1276
  H  H1244  1  0.965200  0.807100  0.976700  1.0  0.1263
  H  H1245  1  0.913300  0.744800  0.957100  1.0  0.1146
  H  H1246  1  0.992400  0.720100  0.046100  1.0  0.1334
  H  H1247  1  0.009000  0.729400  0.014800  1.0  0.1323
  H  H1248  1  0.048400  0.780200  0.044200  1.0  0.1334
  H  H1249  1  0.779900  0.449300  0.073200  1.0  0.1458
  H  H1250  1  0.843900  0.506800  0.079300  1.0  0.1315
  H  H1251  1  0.804100  0.500500  0.069600  1.0  0.1351
  H  H1252  1  0.861100  0.573400  0.206300  1.0  0.1314
  H  H1253  1  0.805700  0.543700  0.192000  1.0  0.1287
  H  H1254  1  0.860700  0.599900  0.186000  1.0  0.1217
  H  H1255  1  0.785100  0.492000  0.247900  1.0  0.1293
  H  H1256  1  0.820500  0.507100  0.277800  1.0  0.1234
  H  H1257  1  0.764100  0.475500  0.277800  1.0  0.133
  H  H1258  1  0.681900  0.282900  0.238400  1.0  0.1398
  H  H1259  1  0.631100  0.261900  0.234000  1.0  0.1303
  H  H1260  1  0.668200  0.287900  0.267700  1.0  0.1314
  H  H1261  1  0.618100  0.210600  0.156700  1.0  0.1321
  H  H1262  1  0.643400  0.200600  0.149400  1.0  0.1379
  H  H1263  1  0.587500  0.164200  0.127100  1.0  0.1367
  H  H1264  1  0.743700  0.339000  0.064500  1.0  0.1361
  H  H1265  1  0.684800  0.301900  0.048300  1.0  0.1164
  H  H1266  1  0.697100  0.277800  0.044700  1.0  0.1283
  H  H1267  1  0.490800  0.292800  0.416000  1.0  0.1346
  H  H1268  1  0.428100  0.244500  0.398600  1.0  0.1289
  H  H1269  1  0.472100  0.304500  0.396000  1.0  0.1394
  H  H1270  1  0.465200  0.203500  0.291900  1.0  0.1214
  H  H1271  1  0.458100  0.229100  0.278400  1.0  0.1206
  H  H1272  1  0.408200  0.172300  0.285900  1.0  0.1123
  H  H1273  1  0.576500  0.294500  0.266400  1.0  0.1335
  H  H1274  1  0.578300  0.261200  0.268900  1.0  0.1355
  H  H1275  1  0.607300  0.299600  0.246700  1.0  0.1319
  H  H1276  1  0.798000  0.460600  0.359200  1.0  0.1342
  H  H1277  1  0.810200  0.494600  0.338200  1.0  0.1344
  H  H1278  1  0.808200  0.458700  0.326900  1.0  0.1317
  H  H1279  1  0.818700  0.532000  0.426300  1.0  0.1376
  H  H1280  1  0.839700  0.550000  0.462900  1.0  0.1099
  H  H1281  1  0.839200  0.579300  0.446500  1.0  0.1377
  H  H1282  1  0.615900  0.394900  0.467800  1.0  0.1264
  H  H1283  1  0.634500  0.442900  0.464200  1.0  0.1186
  H  H1284  1  0.661900  0.450200  0.494900  1.0  0.1063
  H  H1285  1  0.295200  0.215900  0.245900  1.0  0.1379
  H  H1286  1  0.287900  0.243000  0.237100  1.0  0.1248
  H  H1287  1  0.324700  0.266600  0.270300  1.0  0.1224
  H  H1288  1  0.117800  0.113000  0.305200  1.0  0.1223
  H  H1289  1  0.135700  0.157100  0.293400  1.0  0.1374
  H  H1290  1  0.093700  0.099400  0.270100  1.0  0.1185
  H  H1291  1  0.044600  0.001000  0.326200  1.0  0.1219
  H  H1292  1  0.030700  0.993100  0.358400  1.0  0.1191
  H  H1293  1  0.079800  0.052400  0.353600  1.0  0.1205
  H  H1294  1  0.204600  0.049400  0.403400  1.0  0.1341
  H  H1295  1  0.171800  0.035300  0.426500  1.0  0.1321
  H  H1296  1  0.145400  0.987600  0.400600  1.0  0.1341
  H  H1297  1  0.301800  0.086000  0.362800  1.0  0.1362
  H  H1298  1  0.366600  0.140500  0.373300  1.0  0.1323
  H  H1299  1  0.334200  0.138100  0.387700  1.0  0.1344
  H  H1300  1  0.363700  0.225600  0.282700  1.0  0.1275
  H  H1301  1  0.419100  0.255300  0.297200  1.0  0.1291
  H  H1302  1  0.374100  0.202200  0.268500  1.0  0.1065
  H  H1303  1  0.520400  0.139600  0.018200  1.0  0.1258
  H  H1304  1  0.567400  0.194300  0.045700  1.0  0.1223
  H  H1305  1  0.580700  0.191900  0.015200  1.0  0.1077
  H  H1306  1  0.640200  0.134000  0.081200  1.0  0.1306
  H  H1307  1  0.675700  0.191000  0.100500  1.0  0.125
  H  H1308  1  0.622200  0.136600  0.108600  1.0  0.1239
  H  H1309  1  0.549700  0.010300  0.093400  1.0  0.1401
  H  H1310  1  0.529800  0.963800  0.103000  1.0  0.1397
  H  H1311  1  0.560800  0.988500  0.077100  1.0  0.1285
  H  H1312  1  0.334700  0.802400  0.993300  1.0  0.1281
  H  H1313  1  0.339100  0.780100  0.015200  1.0  0.1275
  H  H1314  1  0.316300  0.792300  0.024000  1.0  0.1352
  H  H1315  1  0.276900  0.812600  0.956300  1.0  0.1357
  H  H1316  1  0.230900  0.798600  0.948100  1.0  0.1309
  H  H1317  1  0.255800  0.804700  0.922100  1.0  0.1279
  H  H1318  1  0.412700  0.038200  0.963300  1.0  0.1146
  H  H1319  1  0.355800  0.999100  0.940500  1.0  0.118
  H  H1320  1  0.364400  0.009700  0.976700  1.0  0.1157
  H  H1321  1  0.078000  0.507900  0.612700  1.0  0.1281
  H  H1322  1  0.114900  0.510400  0.611300  1.0  0.129
  H  H1323  1  0.140700  0.561400  0.631500  1.0  0.1373
  H  H1324  1  0.185100  0.626500  0.513400  1.0  0.128
  H  H1325  1  0.236600  0.668100  0.542700  1.0  0.1336
  H  H1326  1  0.212500  0.618400  0.522300  1.0  0.1211
  H  H1327  1  0.134300  0.176300  0.499800  1.0  0.1301
  H  H1328  1  0.182500  0.228200  0.529100  1.0  0.1204
  H  H1329  1  0.185700  0.198900  0.512200  1.0  0.1373
  H  H1330  1  0.075800  0.076800  0.607000  1.0  0.1261
  H  H1331  1  0.119300  0.138500  0.623200  1.0  0.123
  H  H1332  1  0.058100  0.095800  0.606700  1.0  0.1129
  H  H1333  1  0.879800  0.474900  0.532300  1.0  0.1273
  H  H1334  1  0.840200  0.442000  0.553800  1.0  0.1349
  H  H1335  1  0.896400  0.506800  0.565400  1.0  0.1168
  H  H1336  1  0.984400  0.467000  0.617200  1.0  0.1275
  H  H1337  1  0.952500  0.458800  0.637900  1.0  0.1334
  H  H1338  1  0.921300  0.408200  0.612100  1.0  0.1328
  H  H1339  1  0.731500  0.717300  0.823400  1.0  0.1326
  H  H1340  1  0.775400  0.768400  0.853200  1.0  0.1333
  H  H1341  1  0.793300  0.772400  0.823300  1.0  0.1305
  H  H1342  1  0.852900  0.711600  0.882900  1.0  0.1297
  H  H1343  1  0.873500  0.755000  0.909300  1.0  0.1268
  H  H1344  1  0.817700  0.691700  0.906000  1.0  0.1394
  H  H1345  1  0.077500  0.705600  0.817100  1.0  0.1253
  H  H1346  1  0.028600  0.643000  0.799200  1.0  0.1355
  H  H1347  1  0.042200  0.681800  0.783200  1.0  0.1228
  H  H1348  1  0.882500  0.605100  0.846800  1.0  0.1314
  H  H1349  1  0.857200  0.573900  0.811100  1.0  0.1237
  H  H1350  1  0.861700  0.554600  0.836300  1.0  0.1347
  H  H1351  1  0.493900  0.403600  0.741500  1.0  0.1358
  H  H1352  1  0.453600  0.393400  0.723200  1.0  0.1327
  H  H1353  1  0.492000  0.406400  0.706800  1.0  0.1281
  H  H1354  1  0.643700  0.635800  0.753900  1.0  0.1328
  H  H1355  1  0.586000  0.599300  0.734900  1.0  0.1197
  H  H1356  1  0.600500  0.611300  0.771400  1.0  0.1279
  H  H1357  1  0.385400  0.562800  0.389200  1.0  0.1272
  H  H1358  1  0.413000  0.555300  0.382900  1.0  0.1212
  H  H1359  1  0.355500  0.515500  0.360600  1.0  0.13
  H  H1360  1  0.504500  0.685900  0.294000  1.0  0.1397
  H  H1361  1  0.443700  0.644600  0.277700  1.0  0.1238
  H  H1362  1  0.460500  0.624800  0.275700  1.0  0.1327
  H  H1363  1  0.285000  0.486100  0.251300  1.0  0.1378
  H  H1364  1  0.343800  0.537600  0.246200  1.0  0.1298
  H  H1365  1  0.333500  0.542600  0.277500  1.0  0.1367
  H  H1366  1  0.413700  0.490400  0.314900  1.0  0.1341
  H  H1367  1  0.385900  0.481100  0.340200  1.0  0.1304
  H  H1368  1  0.440600  0.540900  0.337300  1.0  0.1251
  H  H1369  1  0.529400  0.835300  0.476300  1.0  0.1312
  H  H1370  1  0.534900  0.831900  0.510400  1.0  0.1284
  H  H1371  1  0.479800  0.799500  0.490700  1.0  0.1378
  H  H1372  1  0.421500  0.622900  0.451800  1.0  0.1163
  H  H1373  1  0.376300  0.604400  0.462100  1.0  0.1257
  H  H1374  1  0.426500  0.634100  0.487400  1.0  0.1183
  H  H1375  1  0.990000  0.085000  0.209800  1.0  0.1343
  H  H1376  1  0.985200  0.059600  0.234800  1.0  0.1391
  H  H1377  1  0.021700  0.119300  0.245200  1.0  0.1243
  H  H1378  1  0.815700  0.993700  0.267000  1.0  0.143
  H  H1379  1  0.844100  0.045500  0.259200  1.0  0.1206
  H  H1380  1  0.871800  0.053000  0.289800  1.0  0.1166
  H  H1381  1  0.975400  0.192000  0.291400  1.0  0.1199
  H  H1382  1  0.937400  0.139400  0.264000  1.0  0.1233
  H  H1383  1  0.997800  0.197500  0.263700  1.0  0.1388
  H  H1384  1  0.027200  0.113600  0.336600  1.0  0.1339
  H  H1385  1  0.041300  0.118100  0.304800  1.0  0.1294
  H  H1386  1  0.979600  0.067500  0.305500  1.0  0.13
  H  H1387  1  0.731800  0.849200  0.050800  1.0  0.1437
  H  H1388  1  0.732600  0.814900  0.051300  1.0  0.1323
  H  H1389  1  0.765000  0.857600  0.031600  1.0  0.1339
  H  H1390  1  0.945800  0.002400  0.147400  1.0  0.1247
  H  H1391  1  0.961400  0.040200  0.128600  1.0  0.1136
  H  H1392  1  0.958400  0.003900  0.115500  1.0  0.1139
  H  H1393  1  0.771500  0.310600  0.609500  1.0  0.1132
  H  H1394  1  0.816300  0.341900  0.591600  1.0  0.1214
  H  H1395  1  0.826400  0.340100  0.625300  1.0  0.1167
  H  H1396  1  0.934600  0.549800  0.658400  1.0  0.1325
  H  H1397  1  0.946300  0.546600  0.627100  1.0  0.1274
  H  H1398  1  0.896100  0.526100  0.626200  1.0  0.1366
  H  H1399  1  0.902700  0.570300  0.715800  1.0  0.1332
  H  H1400  1  0.934700  0.616600  0.746300  1.0  0.1311
  H  H1401  1  0.962400  0.611100  0.734500  1.0  0.1304
  H  H1402  1  0.863700  0.469900  0.819200  1.0  0.134
  H  H1403  1  0.902200  0.528700  0.837700  1.0  0.124
  H  H1404  1  0.838500  0.480500  0.823800  1.0  0.1325
  H  H1405  1  0.808000  0.352100  0.800700  1.0  0.121
  H  H1406  1  0.777200  0.295900  0.799300  1.0  0.1163
  H  H1407  1  0.839800  0.348400  0.800000  1.0  0.1211
  H  H1408  1  0.755900  0.268400  0.663300  1.0  0.1277
  H  H1409  1  0.770600  0.250100  0.678300  1.0  0.133
  H  H1410  1  0.710300  0.212300  0.672000  1.0  0.1004
  H  H1411  1  0.355600  0.461900  0.790500  1.0  0.1221
  H  H1412  1  0.315800  0.427400  0.811600  1.0  0.1183
  H  H1413  1  0.339200  0.417200  0.799200  1.0  0.1293
  H  H1414  1  0.130400  0.249700  0.698100  1.0  0.1333
  H  H1415  1  0.117200  0.248900  0.729700  1.0  0.1323
  H  H1416  1  0.131400  0.284600  0.709400  1.0  0.1297
  H  H1417  1  0.121800  0.231900  0.622100  1.0  0.1308
  H  H1418  1  0.090000  0.184000  0.593000  1.0  0.1296
  H  H1419  1  0.100800  0.182800  0.626800  1.0  0.1261
  H  H1420  1  0.307400  0.309500  0.599300  1.0  0.1255
  H  H1421  1  0.256700  0.245500  0.584000  1.0  0.1295
  H  H1422  1  0.268700  0.281800  0.565700  1.0  0.1252
  H  H1423  1  0.423900  0.409000  0.645100  1.0  0.1283
  H  H1424  1  0.488500  0.465200  0.658100  1.0  0.1269
  H  H1425  1  0.456200  0.413300  0.668500  1.0  0.1169
  H  H1426  1  0.446300  0.492400  0.772300  1.0  0.1327
  H  H1427  1  0.494200  0.509000  0.779600  1.0  0.1302
  H  H1428  1  0.504200  0.548400  0.768200  1.0  0.1324
  H  H1429  1  0.206700  0.279900  0.830600  1.0  0.1448
  H  H1430  1  0.264600  0.343900  0.837100  1.0  0.1305
  H  H1431  1  0.234500  0.304100  0.803600  1.0  0.1389
  H  H1432  1  0.154800  0.361100  0.787700  1.0  0.1321
  H  H1433  1  0.113700  0.305700  0.762000  1.0  0.1303
  H  H1434  1  0.174700  0.360700  0.760800  1.0  0.1209
  H  H1435  1  0.037200  0.285100  0.793100  1.0  0.131
  H  H1436  1  0.042700  0.320500  0.813400  1.0  0.1252
  H  H1437  1  0.986300  0.264100  0.788600  1.0  0.1333
  H  H1438  1  0.943500  0.181900  0.899000  1.0  0.1401
  H  H1439  1  0.897100  0.131100  0.869200  1.0  0.1346
  H  H1440  1  0.900500  0.168200  0.880300  1.0  0.1325
  H  H1441  1  0.961400  0.118100  0.907500  1.0  0.1312
  H  H1442  1  0.994000  0.143400  0.942800  1.0  0.1351
  H  H1443  1  0.960400  0.087500  0.923300  1.0  0.1352
  H  H1444  1  0.179200  0.243700  0.904700  1.0  0.1333
  H  H1445  1  0.136500  0.184800  0.882900  1.0  0.1201
  H  H1446  1  0.152400  0.197100  0.919300  1.0  0.1286
  H  H1447  1  0.574800  0.990800  0.698000  1.0  0.1353
  H  H1448  1  0.529500  0.928100  0.683600  1.0  0.1309
  H  H1449  1  0.576100  0.972100  0.667600  1.0  0.1392
  H  H1450  1  0.673300  0.965200  0.761700  1.0  0.1205
  H  H1451  1  0.679700  0.958100  0.729000  1.0  0.1208
  H  H1452  1  0.622300  0.908200  0.735900  1.0  0.1131
  H  H1453  1  0.810100  0.076500  0.782000  1.0  0.1356
  H  H1454  1  0.809400  0.078300  0.817100  1.0  0.1339
  H  H1455  1  0.860600  0.107300  0.807700  1.0  0.1309
  H  H1456  1  0.938800  0.298000  0.837400  1.0  0.1337
  H  H1457  1  0.972000  0.310200  0.815600  1.0  0.1326
  H  H1458  1  0.981300  0.308200  0.849500  1.0  0.131
  H  H1459  1  0.892400  0.318700  0.786700  1.0  0.1312
  H  H1460  1  0.876800  0.339700  0.789700  1.0  0.1118
  H  H1461  1  0.892700  0.339200  0.759900  1.0  0.1377
  H  H1462  1  0.648100  0.115900  0.721000  1.0  0.1231
  H  H1463  1  0.670300  0.134500  0.691600  1.0  0.1213
  H  H1464  1  0.667000  0.161900  0.711700  1.0  0.1023
  H  H1465  1  0.549300  0.795200  0.579300  1.0  0.1382
  H  H1466  1  0.550800  0.787900  0.544900  1.0  0.1247
  H  H1467  1  0.554400  0.824700  0.558100  1.0  0.1236
  H  H1468  1  0.312600  0.617800  0.504800  1.0  0.1224
  H  H1469  1  0.342300  0.635700  0.478600  1.0  0.1356
  H  H1470  1  0.323600  0.593700  0.494300  1.0  0.1174
  H  H1471  1  0.218400  0.544600  0.543600  1.0  0.1215
  H  H1472  1  0.172300  0.530700  0.537600  1.0  0.1202
  H  H1473  1  0.226200  0.579800  0.527400  1.0  0.1201
  H  H1474  1  0.301200  0.704600  0.655200  1.0  0.1349
  H  H1475  1  0.245300  0.671800  0.636500  1.0  0.13
  H  H1476  1  0.244800  0.645400  0.657800  1.0  0.1319
  H  H1477  1  0.439000  0.801800  0.715800  1.0  0.1375
  H  H1478  1  0.493300  0.866600  0.726100  1.0  0.132
  H  H1479  1  0.446500  0.834200  0.696100  1.0  0.1332
  H  H1480  1  0.581000  0.863700  0.638100  1.0  0.1251
  H  H1481  1  0.621900  0.919100  0.663800  1.0  0.1302
  H  H1482  1  0.605600  0.874100  0.671900  1.0  0.1086
  H  H1483  1  0.002200  0.020400  0.880800  1.0  0.1235
  H  H1484  1  0.021700  0.067400  0.873100  1.0  0.1221
  H  H1485  1  0.065500  0.080700  0.888800  1.0  0.108
  H  H1486  1  0.059000  0.140200  0.006200  1.0  0.1296
  H  H1487  1  0.075200  0.175700  0.984700  1.0  0.1269
  H  H1488  1  0.013600  0.122200  0.985600  1.0  0.1241
  H  H1489  1  0.956300  0.049700  0.039400  1.0  0.1407
  H  H1490  1  0.926800  0.029800  0.066000  1.0  0.1383
  H  H1491  1  0.983700  0.060800  0.072300  1.0  0.1296
  H  H1492  1  0.841400  0.834700  0.032300  1.0  0.1228
  H  H1493  1  0.823900  0.839100  0.059000  1.0  0.1281
  H  H1494  1  0.792300  0.816300  0.024000  1.0  0.1357
  H  H1495  1  0.820600  0.776900  0.964300  1.0  0.1334
  H  H1496  1  0.782800  0.730900  0.932300  1.0  0.1299
  H  H1497  1  0.833700  0.755800  0.951100  1.0  0.1306
  H  H1498  1  0.949400  0.912700  0.874500  1.0  0.1159
  H  H1499  1  0.915300  0.855800  0.856700  1.0  0.1164
  H  H1500  1  0.887700  0.864400  0.854700  1.0  0.1161
  H  H1501  1  0.395200  0.465300  0.887300  1.0  0.1299
  H  H1502  1  0.399100  0.503600  0.888700  1.0  0.1285
  H  H1503  1  0.429900  0.509200  0.868500  1.0  0.1358
  H  H1504  1  0.613100  0.671700  0.986600  1.0  0.1261
  H  H1505  1  0.625400  0.693900  0.957300  1.0  0.1331
  H  H1506  1  0.596100  0.690200  0.977700  1.0  0.1202
  H  H1507  1  0.176500  0.634500  0.000200  1.0  0.1313
  H  H1508  1  0.199100  0.653400  0.970900  1.0  0.1174
  H  H1509  1  0.186700  0.673500  0.987800  1.0  0.1343
  H  H1510  1  0.969800  0.468800  0.893000  1.0  0.1223
  H  H1511  1  0.015300  0.496100  0.876800  1.0  0.1237
  H  H1512  1  0.989100  0.451400  0.893300  1.0  0.1183
  H  H1513  1  0.442600  0.347500  0.967700  1.0  0.1305
  H  H1514  1  0.388200  0.286400  0.946200  1.0  0.1392
  H  H1515  1  0.441400  0.331000  0.934600  1.0  0.1164
  H  H1516  1  0.349800  0.367200  0.882800  1.0  0.1302
  H  H1517  1  0.320900  0.314600  0.862100  1.0  0.1321
  H  H1518  1  0.296100  0.309200  0.887900  1.0  0.1326
  H  H1519  1  0.393900  0.908100  0.676600  1.0  0.1338
  H  H1520  1  0.415200  0.922200  0.646800  1.0  0.1332
  H  H1521  1  0.449100  0.970000  0.676700  1.0  0.1325
  H  H1522  1  0.328700  0.970000  0.617100  1.0  0.1313
  H  H1523  1  0.345700  0.964200  0.590700  1.0  0.1251
  H  H1524  1  0.285700  0.911700  0.594000  1.0  0.1369
  H  H1525  1  0.388500  0.260400  0.682900  1.0  0.1265
  H  H1526  1  0.343800  0.229400  0.700800  1.0  0.1353
  H  H1527  1  0.398600  0.259000  0.716800  1.0  0.1243
  H  H1528  1  0.258300  0.035700  0.653200  1.0  0.1323
  H  H1529  1  0.262800  0.046100  0.688900  1.0  0.1221
  H  H1530  1  0.218300  0.025400  0.663700  1.0  0.1318
  H  H1531  1  0.162100  0.752400  0.758500  1.0  0.1338
  H  H1532  1  0.170200  0.730400  0.776800  1.0  0.1319
  H  H1533  1  0.199600  0.785200  0.793200  1.0  0.1243
  H  H1534  1  0.381900  0.889800  0.746100  1.0  0.1317
  H  H1535  1  0.364400  0.851100  0.765100  1.0  0.1196
  H  H1536  1  0.339900  0.829100  0.728600  1.0  0.1255
  H  H1537  1  0.673600  0.996200  0.110800  1.0  0.1272
  H  H1538  1  0.672400  0.030100  0.117100  1.0  0.1201
  H  H1539  1  0.654900  0.994900  0.139400  1.0  0.1278
  H  H1540  1  0.891900  0.210500  0.206000  1.0  0.1401
  H  H1541  1  0.866900  0.166000  0.222300  1.0  0.1249
  H  H1542  1  0.849100  0.184800  0.224300  1.0  0.1326
  H  H1543  1  0.734800  0.033700  0.248700  1.0  0.1393
  H  H1544  1  0.791400  0.097600  0.253800  1.0  0.1294
  H  H1545  1  0.765100  0.056000  0.222500  1.0  0.1368
  H  H1546  1  0.675500  0.098800  0.185100  1.0  0.1342
  H  H1547  1  0.640900  0.045700  0.159800  1.0  0.1307
  H  H1548  1  0.703600  0.103300  0.162700  1.0  0.1231
  H  H1549  1  0.859000  0.053100  0.023700  1.0  0.1304
  H  H1550  1  0.821500  0.024500  0.989600  1.0  0.1247
  H  H1551  1  0.808800  0.989100  0.009300  1.0  0.1373
  H  H1552  1  0.671100  0.969700  0.048200  1.0  0.1183
  H  H1553  1  0.642300  0.914200  0.037900  1.0  0.1256
  H  H1554  1  0.646700  0.939100  0.012600  1.0  0.1169
  H  H1555  1  0.375200  0.780200  0.290200  1.0  0.1359
  H  H1556  1  0.324800  0.750400  0.265200  1.0  0.1388
  H  H1557  1  0.374100  0.776500  0.254800  1.0  0.1255
  H  H1558  1  0.226700  0.548700  0.233000  1.0  0.1417
  H  H1559  1  0.286300  0.584900  0.240800  1.0  0.1207
  H  H1560  1  0.263200  0.582000  0.210200  1.0  0.117
  H  H1561  1  0.400600  0.684000  0.208600  1.0  0.1208
  H  H1562  1  0.375400  0.673400  0.236000  1.0  0.1217
  H  H1563  1  0.433800  0.734100  0.236300  1.0  0.1402
  H  H1564  1  0.277000  0.690600  0.163400  1.0  0.1339
  H  H1565  1  0.313300  0.736500  0.195200  1.0  0.1278
  H  H1566  1  0.262000  0.674100  0.194500  1.0  0.1266
  H  H1567  1  0.298400  0.681000  0.449200  1.0  0.1433
  H  H1568  1  0.263600  0.681300  0.448700  1.0  0.1342
  H  H1569  1  0.326000  0.733400  0.468400  1.0  0.134
  H  H1570  1  0.355000  0.798400  0.352600  1.0  0.1248
  H  H1571  1  0.411600  0.832800  0.371400  1.0  0.1098
  H  H1572  1  0.388400  0.842900  0.384500  1.0  0.1153
  H  H1573  1  0.201100  0.162000  0.890500  1.0  0.1143
  H  H1574  1  0.250300  0.224700  0.908400  1.0  0.1209
  H  H1575  1  0.214800  0.201100  0.874700  1.0  0.1146
  H  H1576  1  0.391400  0.276200  0.841600  1.0  0.1321
  H  H1577  1  0.419500  0.319200  0.872900  1.0  0.1295
  H  H1578  1  0.399900  0.269900  0.873800  1.0  0.1355
  H  H1579  1  0.354500  0.186900  0.784200  1.0  0.1358
  H  H1580  1  0.370300  0.188400  0.753700  1.0  0.1299
  H  H1581  1  0.376600  0.227900  0.765500  1.0  0.1303
  H  H1582  1  0.150700  0.044500  0.680800  1.0  0.1336
  H  H1583  1  0.191000  0.064500  0.662300  1.0  0.123
  H  H1584  1  0.156700  0.014700  0.676200  1.0  0.1343
  H  H1585  1  0.051400  0.007300  0.699300  1.0  0.1196
  H  H1586  1  0.996600  0.977900  0.700700  1.0  0.1179
  H  H1587  1  0.048400  0.039800  0.700000  1.0  0.1237
  H  H1588  1  0.105100  0.092600  0.836700  1.0  0.1268
  H  H1589  1  0.071800  0.092300  0.821700  1.0  0.1294
  H  H1590  1  0.040300  0.038300  0.828000  1.0  0.0979
  H  H1591  1  0.171400  0.565100  0.709500  1.0  0.1195
  H  H1592  1  0.115800  0.504200  0.688400  1.0  0.1175
  H  H1593  1  0.118000  0.540000  0.700800  1.0  0.1313
  H  H1594  1  0.051600  0.432300  0.801900  1.0  0.1326
  H  H1595  1  0.019200  0.387500  0.770300  1.0  0.1307
  H  H1596  1  0.075200  0.422000  0.790600  1.0  0.1352
  H  H1597  1  0.109800  0.499700  0.877900  1.0  0.1284
  H  H1598  1  0.091000  0.497000  0.907000  1.0  0.1302
  H  H1599  1  0.056000  0.474000  0.873200  1.0  0.1242
  H  H1600  1  0.210200  0.708100  0.900700  1.0  0.1275
  H  H1601  1  0.161500  0.672700  0.916000  1.0  0.1266
  H  H1602  1  0.216100  0.703000  0.934300  1.0  0.1255
  H  H1603  1  0.263900  0.778800  0.854900  1.0  0.1271
  H  H1604  1  0.307100  0.830400  0.841900  1.0  0.1277
  H  H1605  1  0.244800  0.787700  0.831500  1.0  0.1181
  H  H1606  1  0.220100  0.674000  0.727700  1.0  0.1324
  H  H1607  1  0.229400  0.714600  0.720400  1.0  0.1273
  H  H1608  1  0.280200  0.736000  0.731800  1.0  0.1336
  H  H1609  1  0.949300  0.376100  0.669400  1.0  0.1449
  H  H1610  1  0.006800  0.427500  0.662900  1.0  0.1317
  H  H1611  1  0.000500  0.430900  0.696400  1.0  0.1375
  H  H1612  1  0.073400  0.367100  0.712300  1.0  0.1317
  H  H1613  1  0.043700  0.351700  0.738000  1.0  0.1288
  H  H1614  1  0.099900  0.413900  0.739200  1.0  0.1217
  H  H1615  1  0.992000  0.244100  0.706900  1.0  0.1291
  H  H1616  1  0.007100  0.229300  0.686600  1.0  0.122
  H  H1617  1  0.975500  0.197700  0.711400  1.0  0.1344
  H  H1618  1  0.782900  0.044500  0.601000  1.0  0.1405
  H  H1619  1  0.761900  0.027900  0.630800  1.0  0.1305
  H  H1620  1  0.787900  0.020200  0.619700  1.0  0.1337
  H  H1621  1  0.710600  0.053900  0.592500  1.0  0.1347
  H  H1622  1  0.700600  0.051200  0.557200  1.0  0.1364
  H  H1623  1  0.664200  0.037100  0.576700  1.0  0.1369
  H  H1624  1  0.839000  0.274500  0.595300  1.0  0.1358
  H  H1625  1  0.801900  0.253600  0.617100  1.0  0.1163
  H  H1626  1  0.777800  0.233100  0.580700  1.0  0.1273
  H  H1627  1  0.792800  0.876800  0.802000  1.0  0.133
  H  H1628  1  0.744500  0.845900  0.816400  1.0  0.1307
  H  H1629  1  0.804500  0.908500  0.832400  1.0  0.1403
  H  H1630  1  0.703500  0.911600  0.738300  1.0  0.1186
  H  H1631  1  0.729100  0.950700  0.771000  1.0  0.1224
  H  H1632  1  0.672300  0.886400  0.764100  1.0  0.1115
  H  H1633  1  0.794500  0.028100  0.718000  1.0  0.1337
  H  H1634  1  0.761200  0.992300  0.682900  1.0  0.1348
  H  H1635  1  0.799600  0.052900  0.692300  1.0  0.1327
  H  H1636  1  0.960600  0.101400  0.662600  1.0  0.135
  H  H1637  1  0.994600  0.156400  0.684400  1.0  0.1322
  H  H1638  1  0.958700  0.131800  0.650500  1.0  0.1315
  H  H1639  1  0.032000  0.105700  0.713300  1.0  0.1383
  H  H1640  1  0.050000  0.087100  0.710300  1.0  0.1117
  H  H1641  1  0.079300  0.132800  0.740100  1.0  0.1365
  H  H1642  1  0.894900  0.927100  0.779000  1.0  0.1232
  H  H1643  1  0.942900  0.978700  0.808400  1.0  0.1215
  H  H1644  1  0.950200  0.955300  0.788300  1.0  0.1037
  H  H1645  1  0.715900  0.970000  0.920700  1.0  0.1383
  H  H1646  1  0.743000  0.005900  0.955100  1.0  0.1248
  H  H1647  1  0.766600  0.996300  0.941900  1.0  0.1236
  H  H1648  1  0.613000  0.807800  0.995200  1.0  0.1243
  H  H1649  1  0.657100  0.863700  0.021400  1.0  0.136
  H  H1650  1  0.599400  0.829300  0.005700  1.0  0.117
  H  H1651  1  0.501000  0.674800  0.956400  1.0  0.127
  H  H1652  1  0.493100  0.634700  0.962400  1.0  0.1201
  H  H1653  1  0.552400  0.698800  0.972600  1.0  0.1197
  H  H1654  1  0.549400  0.646000  0.844800  1.0  0.1339
  H  H1655  1  0.535300  0.608800  0.863500  1.0  0.1284
  H  H1656  1  0.487600  0.587000  0.842200  1.0  0.1361
  H  H1657  1  0.586000  0.723200  0.784200  1.0  0.1382
  H  H1658  1  0.640500  0.767200  0.773900  1.0  0.1323
  H  H1659  1  0.638100  0.750400  0.803900  1.0  0.1306
  H  H1660  1  0.725600  0.942900  0.861900  1.0  0.1249
  H  H1661  1  0.755300  0.958100  0.836200  1.0  0.128
  H  H1662  1  0.702200  0.933700  0.828100  1.0  0.1091
  H  H1663  1  0.639600  0.121400  0.619200  1.0  0.1255
  H  H1664  1  0.694300  0.148600  0.626900  1.0  0.1218
  H  H1665  1  0.691900  0.176700  0.611200  1.0  0.1104
  H  H1666  1  0.634000  0.052800  0.493800  1.0  0.1294
  H  H1667  1  0.691000  0.090500  0.515300  1.0  0.1237
  H  H1668  1  0.636600  0.028000  0.514400  1.0  0.1256
  H  H1669  1  0.510300  0.916900  0.460600  1.0  0.141
  H  H1670  1  0.463800  0.860800  0.434000  1.0  0.1369
  H  H1671  1  0.488500  0.911400  0.427700  1.0  0.1288
  H  H1672  1  0.302400  0.809100  0.467700  1.0  0.1272
  H  H1673  1  0.280100  0.764900  0.441000  1.0  0.1267
  H  H1674  1  0.292300  0.768300  0.476000  1.0  0.1367
  H  H1675  1  0.312600  0.856300  0.535700  1.0  0.1339
  H  H1676  1  0.298600  0.850500  0.567700  1.0  0.1301
  H  H1677  1  0.304700  0.882600  0.548900  1.0  0.1274
  H  H1678  1  0.538200  0.074900  0.625500  1.0  0.1141
  H  H1679  1  0.499100  0.058600  0.643300  1.0  0.1166
  H  H1680  1  0.509700  0.033000  0.645300  1.0  0.1164
  C  C1681  1  0.998390  0.385750  0.917140  1.0  -0.3782
  C  C1682  1  0.957090  0.371680  0.925370  1.0  0.1923
  C  C1683  1  0.901070  0.325120  0.912390  1.0  -0.1925
  C  C1684  1  0.883170  0.333190  0.929160  1.0  0.1998
  C  C1685  1  0.827030  0.296590  0.926820  1.0  -0.3975
  C  C1686  1  0.856790  0.338610  0.531800  1.0  -0.4134
  C  C1687  1  0.905030  0.366410  0.523440  1.0  0.2059
  C  C1688  1  0.930860  0.360770  0.530430  1.0  -0.1415
  C  C1689  1  0.975660  0.398590  0.518650  1.0  0.1965
  C  C1690  1  0.018440  0.412530  0.519170  1.0  -0.4346
  C  C1691  1  0.175380  0.621840  0.095620  1.0  -0.3836
  C  C1692  1  0.161690  0.594160  0.064450  1.0  0.1906
  C  C1693  1  0.190450  0.597370  0.052020  1.0  -0.1744
  C  C1694  1  0.158680  0.563950  0.022030  1.0  0.1947
  C  C1695  1  0.167700  0.550300  0.997400  1.0  -0.4349
  C  C1696  1  0.566440  0.730610  0.479050  1.0  -0.4298
  C  C1697  1  0.565800  0.718290  0.447090  1.0  0.2066
  C  C1698  1  0.555170  0.681240  0.433010  1.0  -0.1955
  C  C1699  1  0.561530  0.688230  0.403760  1.0  0.1563
  C  C1700  1  0.553150  0.658430  0.377180  1.0  -0.4077
  C  C1701  1  0.261520  0.458830  0.132750  1.0  -0.422
  C  C1702  1  0.311990  0.496400  0.157190  1.0  0.1774
  C  C1703  1  0.362040  0.552540  0.165180  1.0  -0.1488
  C  C1704  1  0.394550  0.566010  0.189360  1.0  0.2075
  C  C1705  1  0.451690  0.620800  0.206890  1.0  -0.4211
  C  C1706  1  0.737020  0.010760  0.424780  1.0  -0.4249
  C  C1707  1  0.705110  0.967780  0.440690  1.0  0.1977
  C  C1708  1  0.703550  0.969720  0.471070  1.0  -0.1726
  C  C1709  1  0.666667  0.917690  0.473210  1.0  0.1721
  C  C1710  1  0.647610  0.894980  0.499590  1.0  -0.4307
  C  C1711  1  0.482540  0.109310  0.662050  1.0  -0.4216
  C  C1712  1  0.434630  0.081140  0.671770  1.0  0.2014
  C  C1713  1  0.406710  0.083590  0.665900  1.0  -0.1581
  C  C1714  1  0.366200  0.049040  0.680440  1.0  0.1931
  C  C1715  1  0.322490  0.033750  0.681840  1.0  -0.4097
  C  C1716  1  0.437230  0.175920  0.694550  1.0  -0.4244
  C  C1717  1  0.435830  0.160870  0.663500  1.0  0.2145
  C  C1718  1  0.421110  0.119960  0.650470  1.0  -0.2182
  C  C1719  1  0.429670  0.126480  0.621550  1.0  0.2027
  C  C1720  1  0.419560  0.093680  0.596240  1.0  -0.4026
  C  C1721  1  0.479750  0.989910  0.801660  1.0  -0.4355
  C  C1722  1  0.488930  0.011070  0.775000  1.0  0.2146
  C  C1723  1  0.530410  0.041310  0.761320  1.0  -0.1727
  C  C1724  1  0.521340  0.053600  0.739140  1.0  0.1915
  C  C1725  1  0.552230  0.084970  0.717200  1.0  -0.4099
  C  C1726  1  0.742450  0.511550  0.594400  1.0  -0.3993
  C  C1727  1  0.795190  0.559800  0.619190  1.0  0.2159
  C  C1728  1  0.824950  0.564750  0.639100  1.0  -0.1413
  C  C1729  1  0.870490  0.619230  0.656920  1.0  0.2139
  C  C1730  1  0.917750  0.649520  0.681470  1.0  -0.4246
  C  C1731  1  0.802020  0.525210  0.699630  1.0  -0.4191
  C  C1732  1  0.798480  0.504810  0.670290  1.0  0.2034
  C  C1733  1  0.808870  0.521930  0.643600  1.0  -0.1463
  C  C1734  1  0.795960  0.486150  0.622910  1.0  0.2178
  C  C1735  1  0.798960  0.484390  0.590750  1.0  -0.421
  C  C1736  1  0.796620  0.746160  0.596180  1.0  -0.4255
  C  C1737  1  0.774450  0.696790  0.590440  1.0  0.216
  C  C1738  1  0.723970  0.644210  0.572780  1.0  -0.2138
  C  C1739  1  0.726570  0.616220  0.576190  1.0  0.2123
  C  C1740  1  0.684530  0.557610  0.563140  1.0  -0.4016
  C  C1741  1  0.301190  0.689520  0.031510  1.0  -0.4112
  C  C1742  1  0.288190  0.663330  0.055920  1.0  0.1931
  C  C1743  1  0.242420  0.626620  0.066440  1.0  -0.1697
  C  C1744  1  0.253160  0.617560  0.090720  1.0  0.1687
  C  C1745  1  0.219060  0.582140  0.110800  1.0  -0.4163
  C  C1746  1  0.308210  0.571910  0.162920  1.0  -0.4143
  C  C1747  1  0.350540  0.595390  0.148330  1.0  0.2017
  C  C1748  1  0.374980  0.588200  0.149980  1.0  -0.2189
  C  C1749  1  0.411800  0.620700  0.132900  1.0  0.2149
  C  C1750  1  0.450410  0.629910  0.126320  1.0  -0.4302
  C  C1751  1  0.487660  0.695110  0.023970  1.0  -0.3885
  C  C1752  1  0.469890  0.710830  0.024920  1.0  0.212
  C  C1753  1  0.462200  0.724500  0.002100  1.0  -0.1757
  C  C1754  1  0.445320  0.735860  0.014580  1.0  0.1992
  C  C1755  1  0.429090  0.751050  0.000940  1.0  -0.3726
  C  C1756  1  0.967940  0.173560  0.599900  1.0  -0.4222
  C  C1757  1  0.987520  0.220710  0.605630  1.0  0.1846
  C  C1758  1  0.039560  0.275430  0.619790  1.0  -0.1796
  C  C1759  1  0.034810  0.301830  0.620440  1.0  0.1813
  C  C1760  1  0.076920  0.360860  0.632180  1.0  -0.419
  C  C1761  1  0.997850  0.384340  0.590590  1.0  -0.386
  C  C1762  1  0.942670  0.331200  0.568470  1.0  0.188
  C  C1763  1  0.913490  0.321650  0.544140  1.0  -0.1776
  C  C1764  1  0.864900  0.265060  0.532560  1.0  0.2124
  C  C1765  1  0.816090  0.230060  0.506950  1.0  -0.4037
  C  C1766  1  0.708020  0.045040  0.477660  1.0  -0.4036
  C  C1767  1  0.739470  0.050500  0.498770  1.0  0.2015
  C  C1768  1  0.736760  0.017660  0.496420  1.0  -0.1799
  C  C1769  1  0.773900  0.040270  0.522770  1.0  0.2033
  C  C1770  1  0.788660  0.022390  0.532850  1.0  -0.4167
  C  C1771  1  0.092610  0.270610  0.581220  1.0  -0.4278
  C  C1772  1  0.111600  0.297640  0.614040  1.0  0.183
  C  C1773  1  0.089960  0.300620  0.631180  1.0  -0.1899
  C  C1774  1  0.124910  0.331210  0.660320  1.0  0.198
  C  C1775  1  0.122890  0.348530  0.688620  1.0  -0.4061
  C  C1776  1  0.285350  0.481750  0.765300  1.0  -0.4179
  C  C1777  1  0.326750  0.499290  0.753840  1.0  0.2081
  C  C1778  1  0.382900  0.544990  0.766290  1.0  -0.1888
  C  C1779  1  0.400920  0.541820  0.745340  1.0  0.1793
  C  C1780  1  0.456920  0.578330  0.746450  1.0  -0.4221
  C  C1781  1  0.439880  0.517330  0.640410  1.0  -0.4218
  C  C1782  1  0.381700  0.468350  0.622050  1.0  0.1895
  C  C1783  1  0.358140  0.440450  0.590990  1.0  -0.1957
  C  C1784  1  0.302600  0.398590  0.586390  1.0  0.1859
  C  C1785  1  0.256440  0.353800  0.558640  1.0  -0.4065
  C  C1786  1  0.619440  0.932240  0.897480  1.0  -0.425
  C  C1787  1  0.603520  0.897350  0.869870  1.0  0.1925
  C  C1788  1  0.615050  0.906490  0.841740  1.0  -0.1851
  C  C1789  1  0.587030  0.859210  0.824040  1.0  0.1777
  C  C1790  1  0.584390  0.844800  0.792390  1.0  -0.3844
  C  C1791  1  0.470990  0.667690  0.766280  1.0  -0.4257
  C  C1792  1  0.450030  0.641860  0.792090  1.0  0.182
  C  C1793  1  0.413940  0.589780  0.793120  1.0  -0.1953
  C  C1794  1  0.408900  0.589280  0.822780  1.0  0.2046
  C  C1795  1  0.377100  0.545570  0.838070  1.0  -0.4351
  C  C1796  1  0.400830  0.625410  0.945640  1.0  -0.4195
  C  C1797  1  0.444160  0.684310  0.947470  1.0  0.1883
  C  C1798  1  0.470160  0.726380  0.971140  1.0  -0.1592
  C  C1799  1  0.501370  0.769210  0.958580  1.0  0.1778
  C  C1800  1  0.538310  0.825900  0.972610  1.0  -0.3913
  C  C1801  1  0.520140  0.961740  0.753680  1.0  -0.4307
  C  C1802  1  0.569430  0.021730  0.765560  1.0  0.2016
  C  C1803  1  0.574410  0.056810  0.768620  1.0  -0.221
  C  C1804  1  0.629940  0.108410  0.780150  1.0  0.2176
  C  C1805  1  0.659800  0.162080  0.787880  1.0  -0.4092
  C  C1806  1  0.831390  0.288500  0.848490  1.0  -0.4074
  C  C1807  1  0.835330  0.261830  0.859560  1.0  0.2035
  C  C1808  1  0.867450  0.278540  0.886390  1.0  -0.1941
  C  C1809  1  0.856700  0.239540  0.883440  1.0  0.2069
  C  C1810  1  0.880840  0.236770  0.905410  1.0  -0.4153
  C  C1811  1  0.743320  0.034800  0.869120  1.0  -0.438
  C  C1812  1  0.699330  0.009620  0.844150  1.0  0.2197
  C  C1813  1  0.645530  0.954730  0.832060  1.0  -0.2258
  C  C1814  1  0.622990  0.953900  0.808690  1.0  0.2184
  C  C1815  1  0.567310  0.907350  0.787460  1.0  -0.4138
  C  C1816  1  0.357990  0.470320  0.529310  1.0  -0.4117
  C  C1817  1  0.389260  0.471150  0.542610  1.0  0.2104
  C  C1818  1  0.388090  0.456280  0.568370  1.0  -0.1802
  C  C1819  1  0.425020  0.463950  0.570170  1.0  0.2054
  C  C1820  1  0.439650  0.453120  0.591970  1.0  -0.4089
  C  C1821  1  0.607600  0.550730  0.585930  1.0  -0.4273
  C  C1822  1  0.625990  0.579840  0.561830  1.0  0.2058
  C  C1823  1  0.676600  0.620980  0.556180  1.0  -0.192
  C  C1824  1  0.671080  0.633480  0.531960  1.0  0.1898
  C  C1825  1  0.710560  0.672290  0.514650  1.0  -0.4055
  C  C1826  1  0.625660  0.680030  0.443890  1.0  -0.4046
  C  C1827  1  0.574140  0.645010  0.451550  1.0  0.1981
  C  C1828  1  0.543390  0.645040  0.446230  1.0  -0.2174
  C  C1829  1  0.500330  0.604910  0.458440  1.0  0.2014
  C  C1830  1  0.454530  0.586510  0.459840  1.0  -0.3849
  C  C1831  1  0.968610  0.081250  0.582860  1.0  -0.3787
  C  C1832  1  0.946310  0.031720  0.574630  1.0  0.1925
  C  C1833  1  0.912730  0.988680  0.587610  1.0  -0.1942
  C  C1834  1  0.904030  0.954010  0.570840  1.0  0.1973
  C  C1835  1  0.869770  0.900210  0.573180  1.0  -0.3988
  C  C1836  1  0.306810  0.324990  0.968200  1.0  -0.4161
  C  C1837  1  0.342970  0.381590  0.976560  1.0  0.2036
  C  C1838  1  0.330340  0.400430  0.969570  1.0  -0.1421
  C  C1839  1  0.379940  0.457010  0.981350  1.0  0.1961
  C  C1840  1  0.393360  0.499270  0.980830  1.0  -0.4363
  C  C1841  1  0.026220  0.079760  0.404380  1.0  -0.3833
  C  C1842  1  0.029710  0.097240  0.435550  1.0  0.191
  C  C1843  1  0.045350  0.138430  0.447980  1.0  -0.1729
  C  C1844  1  0.041920  0.136650  0.477970  1.0  0.1918
  C  C1845  1  0.052900  0.170300  0.502600  1.0  -0.4375
  C  C1846  1  0.751560  0.087390  0.020950  1.0  -0.4256
  C  C1847  1  0.771200  0.118710  0.052910  1.0  0.2061
  C  C1848  1  0.748230  0.122160  0.066990  1.0  -0.1938
  C  C1849  1  0.784470  0.157770  0.096240  1.0  0.1579
  C  C1850  1  0.781250  0.175970  0.122820  1.0  -0.4066
  C  C1851  1  0.826080  0.128770  0.367250  1.0  -0.4238
  C  C1852  1  0.839210  0.154800  0.342810  1.0  0.178
  C  C1853  1  0.887360  0.196860  0.334820  1.0  -0.1488
  C  C1854  1  0.876650  0.205190  0.310640  1.0  0.2074
  C  C1855  1  0.913910  0.244800  0.293110  1.0  -0.4186
  C  C1856  1  0.085980  0.312240  0.075220  1.0  -0.4255
  C  C1857  1  0.027090  0.264420  0.059310  1.0  0.1974
  C  C1858  1  0.998650  0.232480  0.028930  1.0  -0.1727
  C  C1859  1  0.944480  0.193510  0.026790  1.0  0.1723
  C  C1860  1  0.895390  0.148020  0.000410  1.0  -0.4278
  C  C1861  1  0.947260  0.820490  0.837950  1.0  -0.4245
  C  C1862  1  0.909370  0.762860  0.828230  1.0  0.202
  C  C1863  1  0.917690  0.740810  0.834100  1.0  -0.1579
  C  C1864  1  0.868600  0.685760  0.819560  1.0  0.1921
  C  C1865  1  0.851910  0.640650  0.818160  1.0  -0.4097
  C  C1866  1  0.981370  0.742680  0.805450  1.0  -0.4212
  C  C1867  1  0.997370  0.772330  0.836500  1.0  0.2143
  C  C1868  1  0.969490  0.770640  0.849530  1.0  -0.217
  C  C1869  1  0.004930  0.808120  0.878450  1.0  0.1999
  C  C1870  1  0.997440  0.823320  0.903760  1.0  -0.4027
  C  C1871  1  0.688250  0.678090  0.698340  1.0  -0.4354
  C  C1872  1  0.736070  0.713930  0.725000  1.0  0.2156
  C  C1873  1  0.779990  0.769090  0.738680  1.0  -0.1716
  C  C1874  1  0.814460  0.782200  0.760860  1.0  0.1901
  C  C1875  1  0.867770  0.835030  0.782800  1.0  -0.411
  C  C1876  1  0.417150  0.148050  0.905600  1.0  -0.3999
  C  C1877  1  0.440610  0.176000  0.880810  1.0  0.2148
  C  C1878  1  0.425650  0.185850  0.860900  1.0  -0.1428
  C  C1879  1  0.462310  0.213570  0.843080  1.0  0.2147
  C  C1880  1  0.468050  0.236280  0.818530  1.0  -0.4255
  C  C1881  1  0.325580  0.102390  0.800370  1.0  -0.4202
  C  C1882  1  0.334520  0.128190  0.829710  1.0  0.2022
  C  C1883  1  0.378330  0.165270  0.856400  1.0  -0.1445
  C  C1884  1  0.363240  0.173050  0.877090  1.0  0.2189
  C  C1885  1  0.393640  0.208210  0.909250  1.0  -0.4169
  C  C1886  1  0.649980  0.200440  0.903820  1.0  -0.424
  C  C1887  1  0.606350  0.184010  0.909560  1.0  0.2141
  C  C1888  1  0.571430  0.151190  0.927220  1.0  -0.2143
  C  C1889  1  0.540030  0.150380  0.923810  1.0  0.2141
  C  C1890  1  0.494470  0.121390  0.936860  1.0  -0.3991
  C  C1891  1  0.158010  0.269680  0.468490  1.0  -0.41
  C  C1892  1  0.107410  0.232270  0.444080  1.0  0.1947
  C  C1893  1  0.060180  0.175980  0.433560  1.0  -0.1689
  C  C1894  1  0.026840  0.162440  0.409280  1.0  0.1708
  C  C1895  1  0.971340  0.108260  0.389200  1.0  -0.4169
  C  C1896  1  0.908990  0.145290  0.337080  1.0  -0.4148
  C  C1897  1  0.947060  0.202210  0.351670  1.0  0.2015
  C  C1898  1  0.938220  0.225000  0.350020  1.0  -0.2161
  C  C1899  1  0.987800  0.278900  0.367100  1.0  0.2138
  C  C1900  1  0.003590  0.324090  0.373680  1.0  -0.4279
  C  C1901  1  0.171140  0.463690  0.476030  1.0  -0.3869
  C  C1902  1  0.185910  0.444970  0.475080  1.0  0.2111
  C  C1903  1  0.222400  0.460100  0.497900  1.0  -0.1772
  C  C1904  1  0.221280  0.430740  0.485420  1.0  0.1989
  C  C1905  1  0.250110  0.428150  0.499060  1.0  -0.3725
  C  C1906  1  0.073660  0.368040  0.900100  1.0  -0.4225
  C  C1907  1  0.115080  0.381890  0.894370  1.0  0.1865
  C  C1908  1  0.155640  0.419770  0.880210  1.0  -0.1782
  C  C1909  1  0.181390  0.414370  0.879560  1.0  0.1788
  C  C1910  1  0.228680  0.444740  0.867820  1.0  -0.4194
  C  C1911  1  0.293750  0.407260  0.909410  1.0  -0.3838
  C  C1912  1  0.262730  0.374200  0.931530  1.0  0.1868
  C  C1913  1  0.277510  0.369350  0.955860  1.0  -0.1798
  C  C1914  1  0.232500  0.332340  0.967440  1.0  0.2117
  C  C1915  1  0.223110  0.309140  0.993050  1.0  -0.4035
  C  C1916  1  0.067380  0.230360  0.022340  1.0  -0.4041
  C  C1917  1  0.051730  0.240700  0.001230  1.0  0.2014
  C  C1918  1  0.021240  0.240340  0.003580  1.0  -0.1814
  C  C1919  1  0.017500  0.251130  0.977230  1.0  0.202
  C  C1920  1  0.989540  0.255810  0.967150  1.0  -0.4133
  C  C1921  1  0.189390  0.511390  0.918780  1.0  -0.4299
  C  C1922  1  0.183600  0.497560  0.885960  1.0  0.1831
  C  C1923  1  0.169440  0.458780  0.868820  1.0  -0.1921
  C  C1924  1  0.170890  0.464590  0.839680  1.0  0.1994
  C  C1925  1  0.159910  0.434270  0.811380  1.0  -0.4059
  C  C1926  1  0.216450  0.520050  0.734700  1.0  -0.421
  C  C1927  1  0.245450  0.572910  0.746160  1.0  0.2067
  C  C1928  1  0.278700  0.616610  0.733710  1.0  -0.1881
  C  C1929  1  0.296480  0.655580  0.754660  1.0  0.1781
  C  C1930  1  0.331880  0.710470  0.753550  1.0  -0.4221
  C  C1931  1  0.376920  0.799470  0.859590  1.0  -0.4208
  C  C1932  1  0.346300  0.759650  0.877950  1.0  0.1899
  C  C1933  1  0.349460  0.767150  0.909010  1.0  -0.197
  C  C1934  1  0.312200  0.716210  0.913610  1.0  0.1851
  C  C1935  1  0.295160  0.697800  0.941360  1.0  -0.4087
  C  C1936  1  0.534760  0.721960  0.602520  1.0  -0.4264
  C  C1937  1  0.527480  0.733650  0.630130  1.0  0.1899
  C  C1938  1  0.564750  0.773310  0.658260  1.0  -0.1861
  C  C1939  1  0.535170  0.762990  0.675960  1.0  0.178
  C  C1940  1  0.552410  0.792000  0.707610  1.0  -0.3792
  C  C1941  1  0.401410  0.704710  0.733720  1.0  -0.4231
  C  C1942  1  0.349770  0.657940  0.707910  1.0  0.1817
  C  C1943  1  0.296660  0.620820  0.706880  1.0  -0.1953
  C  C1944  1  0.266500  0.586120  0.677220  1.0  0.2051
  C  C1945  1  0.207500  0.539030  0.661930  1.0  -0.4357
  C  C1946  1  0.179770  0.455190  0.554360  1.0  -0.4201
  C  C1947  1  0.236840  0.496690  0.552530  1.0  0.1903
  C  C1948  1  0.255240  0.499020  0.528860  1.0  -0.158
  C  C1949  1  0.310630  0.542790  0.541420  1.0  0.1809
  C  C1950  1  0.353290  0.565700  0.527390  1.0  -0.3906
  C  C1951  1  0.708060  0.766460  0.746320  1.0  -0.4305
  C  C1952  1  0.756170  0.803870  0.734440  1.0  0.2019
  C  C1953  1  0.788190  0.805790  0.731380  1.0  -0.2197
  C  C1954  1  0.828260  0.849790  0.719850  1.0  0.2134
  C  C1955  1  0.874200  0.871920  0.712120  1.0  -0.4072
  C  C1956  1  0.940010  0.982900  0.651510  1.0  -0.409
  C  C1957  1  0.902270  0.975770  0.640440  1.0  0.2027
  C  C1958  1  0.892150  0.981060  0.613610  1.0  -0.1941
  C  C1959  1  0.856100  0.973260  0.616560  1.0  0.2086
  C  C1960  1  0.831360  0.975430  0.594590  1.0  -0.4152
  C  C1961  1  0.665680  0.874200  0.630880  1.0  -0.4409
  C  C1962  1  0.665470  0.855180  0.655850  1.0  0.2207
  C  C1963  1  0.622670  0.813470  0.667940  1.0  -0.2261
  C  C1964  1  0.645210  0.814300  0.691310  1.0  0.2161
  C  C1965  1  0.619890  0.779850  0.712540  1.0  -0.412
  C  C1966  1  0.441010  0.828680  0.970690  1.0  -0.4123
  C  C1967  1  0.428540  0.846650  0.957390  1.0  0.2101
  C  C1968  1  0.387910  0.819720  0.931630  1.0  -0.1797
  C  C1969  1  0.393780  0.854850  0.929830  1.0  0.2053
  C  C1970  1  0.361150  0.847680  0.908030  1.0  -0.4067
  C  C1971  1  0.464800  0.021670  0.914070  1.0  -0.4248
  C  C1972  1  0.518010  0.064160  0.938170  1.0  0.207
  C  C1973  1  0.564800  0.120420  0.943820  1.0  -0.1937
  C  C1974  1  0.601520  0.139120  0.968040  1.0  0.1911
  C  C1975  1  0.657640  0.195910  0.985350  1.0  -0.4095
  C  C1976  1  0.736140  0.181770  0.056110  1.0  -0.4065
  C  C1977  1  0.693460  0.122590  0.048450  1.0  0.1987
  C  C1978  1  0.698810  0.097160  0.053770  1.0  -0.2178
  C  C1979  1  0.646470  0.041890  0.041560  1.0  0.2023
  C  C1980  1  0.626670  0.994690  0.040160  1.0  -0.3847
  C  C1981  1  0.885750  0.468610  0.387360  1.0  -0.3812
  C  C1982  1  0.871680  0.446310  0.414590  1.0  0.1915
  C  C1983  1  0.825120  0.412730  0.424050  1.0  -0.1926
  C  C1984  1  0.833190  0.404030  0.450020  1.0  0.1981
  C  C1985  1  0.796590  0.369770  0.469560  1.0  -0.398
  C  C1986  1  0.838610  0.806810  0.481820  1.0  -0.4135
  C  C1987  1  0.866410  0.842970  0.461380  1.0  0.2063
  C  C1988  1  0.860770  0.830340  0.429910  1.0  -0.1429
  C  C1989  1  0.898590  0.879940  0.422930  1.0  0.1971
  C  C1990  1  0.912530  0.893360  0.394090  1.0  -0.438
  C  C1991  1  0.121840  0.526220  0.446460  1.0  -0.3818
  C  C1992  1  0.094160  0.529710  0.432470  1.0  0.1906
  C  C1993  1  0.097370  0.545350  0.406920  1.0  -0.1748
  C  C1994  1  0.063950  0.541920  0.405270  1.0  0.1942
  C  C1995  1  0.050300  0.552900  0.382600  1.0  -0.4339
  C  C1996  1  0.230610  0.251560  0.164170  1.0  -0.4264
  C  C1997  1  0.218290  0.271200  0.152490  1.0  0.2079
  C  C1998  1  0.181240  0.248230  0.126070  1.0  -0.1942
  C  C1999  1  0.188230  0.284470  0.126700  1.0  0.1572
  C  C2000  1  0.158430  0.281250  0.105280  1.0  -0.4061
  C  C2001  1  0.958830  0.326080  0.197310  1.0  -0.4225
  C  C2002  1  0.996400  0.339210  0.184410  1.0  0.1794
  C  C2003  1  0.052540  0.387360  0.190500  1.0  -0.1488
  C  C2004  1  0.066010  0.376650  0.171460  1.0  0.2063
  C  C2005  1  0.120800  0.413910  0.169110  1.0  -0.4197
  C  C2006  1  0.510760  0.585980  0.273740  1.0  -0.4269
  C  C2007  1  0.467780  0.527090  0.262670  1.0  0.1981
  C  C2008  1  0.469720  0.498650  0.266170  1.0  -0.1717
  C  C2009  1  0.417690  0.444480  0.250970  1.0  0.1727
  C  C2010  1  0.394980  0.395390  0.247370  1.0  -0.4279
  C  C2011  1  0.609310  0.447260  0.626770  1.0  -0.4222
  C  C2012  1  0.581140  0.409370  0.646510  1.0  0.2003
  C  C2013  1  0.583590  0.417690  0.676880  1.0  -0.1601
  C  C2014  1  0.549040  0.368600  0.682840  1.0  0.1918
  C  C2015  1  0.533750  0.351910  0.711260  1.0  -0.4124
  C  C2016  1  0.675920  0.481370  0.738690  1.0  -0.4204
  C  C2017  1  0.660870  0.497370  0.725040  1.0  0.2135
  C  C2018  1  0.619960  0.469490  0.698850  1.0  -0.218
  C  C2019  1  0.626480  0.504930  0.696810  1.0  0.2028
  C  C2020  1  0.593680  0.497440  0.674120  1.0  -0.4
  C  C2021  1  0.489910  0.188250  0.510160  1.0  -0.4396
  C  C2022  1  0.511070  0.236070  0.522140  1.0  0.2178
  C  C2023  1  0.541310  0.279990  0.510900  1.0  -0.1701
  C  C2024  1  0.553600  0.314460  0.532260  1.0  0.1911
  C  C2025  1  0.584970  0.367770  0.532740  1.0  -0.4097
  C  C2026  1  0.011550  0.917150  0.769100  1.0  -0.3988
  C  C2027  1  0.059800  0.940610  0.764610  1.0  0.2155
  C  C2028  1  0.064750  0.925650  0.739800  1.0  -0.1415
  C  C2029  1  0.119230  0.962310  0.748740  1.0  0.2148
  C  C2030  1  0.149520  0.968050  0.731770  1.0  -0.4256
  C  C2031  1  0.025210  0.825580  0.723190  1.0  -0.4185
  C  C2032  1  0.004810  0.834520  0.706330  1.0  0.2021
  C  C2033  1  0.021930  0.878330  0.713060  1.0  -0.1458
  C  C2034  1  0.986150  0.863240  0.690190  1.0  0.2182
  C  C2035  1  0.984390  0.893640  0.685430  1.0  -0.417
  C  C2036  1  0.246160  0.149980  0.949540  1.0  -0.4258
  C  C2037  1  0.196790  0.106350  0.922340  1.0  0.2135
  C  C2038  1  0.144210  0.071430  0.920240  1.0  -0.212
  C  C2039  1  0.116220  0.040030  0.889650  1.0  0.2146
  C  C2040  1  0.057610  0.994470  0.873080  1.0  -0.4008
  C  C2041  1  0.189520  0.658010  0.388330  1.0  -0.4098
  C  C2042  1  0.163330  0.607410  0.375140  1.0  0.1939
  C  C2043  1  0.126620  0.560180  0.384200  1.0  -0.1701
  C  C2044  1  0.117560  0.526840  0.364400  1.0  0.1702
  C  C2045  1  0.082140  0.471340  0.363080  1.0  -0.4172
  C  C2046  1  0.071910  0.408990  0.263700  1.0  -0.4169
  C  C2047  1  0.095390  0.447060  0.244850  1.0  0.2007
  C  C2048  1  0.088200  0.438220  0.213220  1.0  -0.2181
  C  C2049  1  0.120700  0.487800  0.208900  1.0  0.2125
  C  C2050  1  0.129910  0.503590  0.179500  1.0  -0.4303
  C  C2051  1  0.195110  0.671140  0.207450  1.0  -0.3907
  C  C2052  1  0.210830  0.685910  0.240940  1.0  0.212
  C  C2053  1  0.224500  0.722400  0.262300  1.0  -0.1771
  C  C2054  1  0.235860  0.721280  0.290540  1.0  0.1987
  C  C2055  1  0.251050  0.750110  0.321960  1.0  -0.3745
  C  C2056  1  0.673560  0.573660  0.205620  1.0  -0.4225
  C  C2057  1  0.720710  0.615080  0.233190  1.0  0.185
  C  C2058  1  0.775430  0.655640  0.235870  1.0  -0.1791
  C  C2059  1  0.801830  0.681390  0.267020  1.0  0.1786
  C  C2060  1  0.860860  0.728680  0.283940  1.0  -0.4187
  C  C2061  1  0.884340  0.793750  0.386490  1.0  -0.3837
  C  C2062  1  0.831200  0.762730  0.388530  1.0  0.1879
  C  C2063  1  0.821650  0.777510  0.408160  1.0  -0.1786
  C  C2064  1  0.765060  0.732500  0.400160  1.0  0.2126
  C  C2065  1  0.730060  0.723110  0.413970  1.0  -0.4014
  C  C2066  1  0.545040  0.567380  0.337020  1.0  -0.4052
  C  C2067  1  0.550500  0.551730  0.311030  1.0  0.1999
  C  C2068  1  0.517660  0.521240  0.280900  1.0  -0.1794
  C  C2069  1  0.540270  0.517500  0.266370  1.0  0.2041
  C  C2070  1  0.522390  0.489540  0.233730  1.0  -0.4185
  C  C2071  1  0.770610  0.689390  0.178000  1.0  -0.428
  C  C2072  1  0.797640  0.683600  0.186040  1.0  0.1818
  C  C2073  1  0.800620  0.669440  0.210660  1.0  -0.191
  C  C2074  1  0.831210  0.670890  0.206300  1.0  0.2002
  C  C2075  1  0.848530  0.659910  0.225640  1.0  -0.4069
  C  C2076  1  0.981750  0.716450  0.196400  1.0  -0.4212
  C  C2077  1  0.999290  0.745450  0.172540  1.0  0.2061
  C  C2078  1  0.044990  0.778700  0.162090  1.0  -0.188
  C  C2079  1  0.041820  0.796480  0.140900  1.0  0.1776
  C  C2080  1  0.078330  0.831880  0.121410  1.0  -0.4204
  C  C2081  1  0.017330  0.876920  0.077450  1.0  -0.4221
  C  C2082  1  0.968350  0.846300  0.086650  1.0  0.1901
  C  C2083  1  0.940450  0.849460  0.082310  1.0  -0.1952
  C  C2084  1  0.898590  0.812200  0.095990  1.0  0.1831
  C  C2085  1  0.853800  0.795160  0.097360  1.0  -0.4061
  C  C2086  1  0.432240  0.034760  0.312800  1.0  -0.4231
  C  C2087  1  0.397350  0.027480  0.293830  1.0  0.1894
  C  C2088  1  0.406490  0.064750  0.291440  1.0  -0.1859
  C  C2089  1  0.359210  0.035170  0.272180  1.0  0.1786
  C  C2090  1  0.344800  0.052410  0.260410  1.0  -0.378
  C  C2091  1  0.167690  0.901410  0.196700  1.0  -0.4224
  C  C2092  1  0.141860  0.849770  0.191830  1.0  0.1822
  C  C2093  1  0.089780  0.796660  0.175840  1.0  -0.1937
  C  C2094  1  0.089280  0.766500  0.180380  1.0  0.2059
  C  C2095  1  0.045570  0.707500  0.168470  1.0  -0.4367
  C  C2096  1  0.125410  0.679770  0.224580  1.0  -0.4229
  C  C2097  1  0.184310  0.736840  0.240150  1.0  0.1894
  C  C2098  1  0.226380  0.755240  0.256220  1.0  -0.1597
  C  C2099  1  0.269210  0.810630  0.267840  1.0  0.179
  C  C2100  1  0.325900  0.853290  0.287590  1.0  -0.3894
  C  C2101  1  0.461740  0.208060  0.441600  1.0  -0.4305
  C  C2102  1  0.521730  0.256170  0.452300  1.0  0.202
  C  C2103  1  0.556810  0.288190  0.482400  1.0  -0.2214
  C  C2104  1  0.608410  0.328260  0.478470  1.0  0.2131
  C  C2105  1  0.662080  0.374200  0.502280  1.0  -0.4088
  C  C2106  1  0.788500  0.440010  0.457110  1.0  -0.4054
  C  C2107  1  0.761830  0.402270  0.426500  1.0  0.2038
  C  C2108  1  0.778540  0.392150  0.411090  1.0  -0.1955
  C  C2109  1  0.739540  0.356100  0.382840  1.0  0.2088
  C  C2110  1  0.736770  0.331360  0.355930  1.0  -0.4162
  C  C2111  1  0.534800  0.165680  0.291480  1.0  -0.4399
  C  C2112  1  0.509620  0.165470  0.310290  1.0  0.2214
  C  C2113  1  0.454730  0.122670  0.309200  1.0  -0.2266
  C  C2114  1  0.453900  0.145210  0.330910  1.0  0.2161
  C  C2115  1  0.407350  0.119890  0.340040  1.0  -0.4114
  C  C2116  1  0.970320  0.941010  0.112330  1.0  -0.4122
  C  C2117  1  0.971150  0.928540  0.081890  1.0  0.2096
  C  C2118  1  0.956280  0.887910  0.068190  1.0  -0.1811
  C  C2119  1  0.963950  0.893780  0.038930  1.0  0.2046
  C  C2120  1  0.953120  0.861150  0.013470  1.0  -0.4088
  C  C2121  1  0.050730  0.964800  0.943130  1.0  -0.4289
  C  C2122  1  0.079840  0.018010  0.953850  1.0  0.2078
  C  C2123  1  0.120980  0.064800  0.944380  1.0  -0.1912
  C  C2124  1  0.133480  0.101520  0.962400  1.0  0.1939
  C  C2125  1  0.172290  0.157640  0.961730  1.0  -0.4107
  C  C2126  1  0.180030  0.236140  0.054370  1.0  -0.4041
  C  C2127  1  0.145010  0.193460  0.070870  1.0  0.1989
  C  C2128  1  0.145040  0.198810  0.101650  1.0  -0.2187
  C  C2129  1  0.104910  0.146470  0.104580  1.0  0.2047
  C  C2130  1  0.086510  0.126670  0.131980  1.0  -0.3882
  C  C2131  1  0.581250  0.498390  0.112640  1.0  -0.3785
  C  C2132  1  0.531720  0.457090  0.085410  1.0  0.1896
  C  C2133  1  0.488680  0.401070  0.075950  1.0  -0.1935
  C  C2134  1  0.454010  0.383170  0.049980  1.0  0.1988
  C  C2135  1  0.400210  0.327030  0.030440  1.0  -0.3992
  C  C2136  1  0.824990  0.356790  0.018180  1.0  -0.4155
  C  C2137  1  0.881590  0.405030  0.038620  1.0  0.2075
  C  C2138  1  0.900430  0.430860  0.070090  1.0  -0.1447
  C  C2139  1  0.957010  0.475660  0.077070  1.0  0.196
  C  C2140  1  0.999270  0.518440  0.105910  1.0  -0.4353
  C  C2141  1  0.579760  0.675380  0.053540  1.0  -0.3803
  C  C2142  1  0.597240  0.661690  0.067530  1.0  0.1902
  C  C2143  1  0.638430  0.690450  0.093080  1.0  -0.1747
  C  C2144  1  0.636650  0.658680  0.094730  1.0  0.1922
  C  C2145  1  0.670300  0.667700  0.117400  1.0  -0.4314
  C  C2146  1  0.587390  0.066440  0.335830  1.0  -0.4241
  C  C2147  1  0.618710  0.065800  0.347510  1.0  0.2033
  C  C2148  1  0.622160  0.055170  0.373930  1.0  -0.1969
  C  C2149  1  0.657770  0.061530  0.373300  1.0  0.158
  C  C2150  1  0.675970  0.053150  0.394720  1.0  -0.4068
  C  C2151  1  0.628770  0.761520  0.302690  1.0  -0.4246
  C  C2152  1  0.654800  0.811990  0.315590  1.0  0.1799
  C  C2153  1  0.696860  0.862040  0.309500  1.0  -0.1488
  C  C2154  1  0.705190  0.894550  0.328540  1.0  0.2078
  C  C2155  1  0.744800  0.951690  0.330890  1.0  -0.4203
  C  C2156  1  0.812240  0.237020  0.226260  1.0  -0.424
  C  C2157  1  0.764420  0.205110  0.237330  1.0  0.1986
  C  C2158  1  0.732480  0.203550  0.233830  1.0  -0.1703
  C  C2159  1  0.693510  0.166720  0.249030  1.0  0.1716
  C  C2160  1  0.648020  0.147610  0.252630  1.0  -0.4268
  C  C2161  1  0.320490  0.982540  0.873230  1.0  -0.4223
  C  C2162  1  0.262860  0.934630  0.853490  1.0  0.2001
  C  C2163  1  0.240810  0.906710  0.823120  1.0  -0.1596
  C  C2164  1  0.185760  0.866200  0.817160  1.0  0.1929
  C  C2165  1  0.140650  0.822490  0.788740  1.0  -0.4104
  C  C2166  1  0.242680  0.937230  0.761310  1.0  -0.4189
  C  C2167  1  0.272330  0.935830  0.774960  1.0  0.213
  C  C2168  1  0.270640  0.921110  0.801150  1.0  -0.2167
  C  C2169  1  0.308120  0.929670  0.803190  1.0  0.2044
  C  C2170  1  0.323320  0.919560  0.825880  1.0  -0.4036
  C  C2171  1  0.178090  0.979750  0.989840  1.0  -0.4382
  C  C2172  1  0.213930  0.988930  0.977860  1.0  0.2184
  C  C2173  1  0.269090  0.030410  0.989100  1.0  -0.1695
  C  C2174  1  0.282200  0.021340  0.967740  1.0  0.1897
  C  C2175  1  0.335030  0.052230  0.967260  1.0  -0.4121
  C  C2176  1  0.648050  0.242450  0.730900  1.0  -0.3991
  C  C2177  1  0.676000  0.295190  0.735390  1.0  0.2147
  C  C2178  1  0.685850  0.324950  0.760200  1.0  -0.1431
  C  C2179  1  0.713570  0.370490  0.751260  1.0  0.2156
  C  C2180  1  0.736280  0.417750  0.768230  1.0  -0.4236
  C  C2181  1  0.602390  0.302020  0.776810  1.0  -0.417
  C  C2182  1  0.628190  0.298480  0.793670  1.0  0.2035
  C  C2183  1  0.665270  0.308870  0.786940  1.0  -0.1461
  C  C2184  1  0.673050  0.295960  0.809810  1.0  0.2184
  C  C2185  1  0.708210  0.298960  0.814570  1.0  -0.4189
  C  C2186  1  0.700440  0.296620  0.550460  1.0  -0.4273
  C  C2187  1  0.684010  0.274450  0.577660  1.0  0.2141
  C  C2188  1  0.651190  0.223970  0.579760  1.0  -0.2129
  C  C2189  1  0.650380  0.226570  0.610350  1.0  0.2136
  C  C2190  1  0.621390  0.184530  0.626920  1.0  -0.3988
  C  C2191  1  0.769680  0.801190  0.111670  1.0  -0.4104
  C  C2192  1  0.732270  0.788190  0.124860  1.0  0.1952
  C  C2193  1  0.675980  0.742420  0.115800  1.0  -0.1662
  C  C2194  1  0.662440  0.753160  0.135600  1.0  0.1716
  C  C2195  1  0.608260  0.719060  0.136920  1.0  -0.4186
  C  C2196  1  0.645290  0.808210  0.236300  1.0  -0.4161
  C  C2197  1  0.702210  0.850540  0.255150  1.0  0.2005
  C  C2198  1  0.725000  0.874980  0.286780  1.0  -0.2181
  C  C2199  1  0.778900  0.911800  0.291100  1.0  0.2138
  C  C2200  1  0.824090  0.950410  0.320500  1.0  -0.4289
  C  C2201  1  0.963690  0.987660  0.292550  1.0  -0.3919
  C  C2202  1  0.944970  0.969890  0.259060  1.0  0.2112
  C  C2203  1  0.960100  0.962200  0.237700  1.0  -0.1769
  C  C2204  1  0.930740  0.945320  0.209460  1.0  0.1998
  C  C2205  1  0.928150  0.929090  0.178040  1.0  -0.3766
  C  C2206  1  0.868040  0.467940  0.294380  1.0  -0.4231
  C  C2207  1  0.881890  0.487520  0.266810  1.0  0.1853
  C  C2208  1  0.919770  0.539560  0.264130  1.0  -0.1776
  C  C2209  1  0.914370  0.534810  0.232980  1.0  0.179
  C  C2210  1  0.944740  0.576920  0.216060  1.0  -0.42
  C  C2211  1  0.907260  0.497850  0.113510  1.0  -0.3843
  C  C2212  1  0.874200  0.442670  0.111470  1.0  0.1888
  C  C2213  1  0.869350  0.413490  0.091840  1.0  -0.1786
  C  C2214  1  0.832340  0.364900  0.099840  1.0  0.2133
  C  C2215  1  0.809140  0.316090  0.086030  1.0  -0.4053
  C  C2216  1  0.730360  0.208020  0.162980  1.0  -0.4036
  C  C2217  1  0.740700  0.239470  0.188970  1.0  0.1999
  C  C2218  1  0.740340  0.236760  0.219100  1.0  -0.1807
  C  C2219  1  0.751130  0.273900  0.233630  1.0  0.2042
  C  C2220  1  0.755810  0.288660  0.266270  1.0  -0.424
  C  C2221  1  0.011390  0.592610  0.322000  1.0  -0.4307
  C  C2222  1  0.997560  0.611600  0.313960  1.0  0.1825
  C  C2223  1  0.958780  0.589960  0.289340  1.0  -0.1914
  C  C2224  1  0.964590  0.624910  0.293700  1.0  0.1989
  C  C2225  1  0.934270  0.622890  0.274360  1.0  -0.4046
  C  C2226  1  0.020050  0.785350  0.303600  1.0  -0.4214
  C  C2227  1  0.072910  0.826750  0.327460  1.0  0.2066
  C  C2228  1  0.116610  0.882900  0.337910  1.0  -0.1879
  C  C2229  1  0.155580  0.900920  0.359100  1.0  0.1785
  C  C2230  1  0.210470  0.956920  0.378590  1.0  -0.4218
  C  C2231  1  0.299470  0.939880  0.422550  1.0  -0.4225
  C  C2232  1  0.259650  0.881700  0.413350  1.0  0.1889
  C  C2233  1  0.267150  0.858140  0.417690  1.0  -0.1971
  C  C2234  1  0.216210  0.802600  0.404010  1.0  0.1844
  C  C2235  1  0.197800  0.756440  0.402640  1.0  -0.4061
  C  C2236  1  0.221960  0.119440  0.187200  1.0  -0.4199
  C  C2237  1  0.233650  0.103520  0.206170  1.0  0.1896
  C  C2238  1  0.273310  0.115050  0.208560  1.0  -0.1851
  C  C2239  1  0.262990  0.087030  0.227820  1.0  0.1774
  C  C2240  1  0.292000  0.084390  0.239590  1.0  -0.383
  C  C2241  1  0.204710  0.970990  0.303300  1.0  -0.424
  C  C2242  1  0.157940  0.950030  0.308170  1.0  0.1818
  C  C2243  1  0.120820  0.913940  0.324160  1.0  -0.1953
  C  C2244  1  0.086120  0.908900  0.319620  1.0  0.2055
  C  C2245  1  0.039030  0.877100  0.331530  1.0  -0.4332
  C  C2246  1  0.955190  0.900830  0.275420  1.0  -0.4181
  C  C2247  1  0.996690  0.944160  0.259850  1.0  0.1904
  C  C2248  1  0.999020  0.970160  0.243780  1.0  -0.1594
  C  C2249  1  0.042790  0.001370  0.232160  1.0  0.1794
  C  C2250  1  0.065700  0.038310  0.212410  1.0  -0.39
  C  C2251  1  0.266460  0.020140  0.058400  1.0  -0.4305
  C  C2252  1  0.303870  0.069430  0.047700  1.0  0.201
  C  C2253  1  0.305790  0.074410  0.017600  1.0  -0.2199
  C  C2254  1  0.349790  0.129940  0.021530  1.0  0.2138
  C  C2255  1  0.371920  0.159800  0.997720  1.0  -0.4084
  C  C2256  1  0.482900  0.331390  0.042890  1.0  -0.4072
  C  C2257  1  0.475770  0.335330  0.073500  1.0  0.2035
  C  C2258  1  0.481060  0.367450  0.088910  1.0  -0.1947
  C  C2259  1  0.473260  0.356700  0.117160  1.0  0.2075
  C  C2260  1  0.475430  0.380840  0.144070  1.0  -0.4174
  C  C2261  1  0.374200  0.243320  0.208520  1.0  -0.4376
  C  C2262  1  0.355180  0.199330  0.189710  1.0  0.2229
  C  C2263  1  0.313470  0.145530  0.190800  1.0  -0.2269
  C  C2264  1  0.314300  0.122990  0.169090  1.0  0.2167
  C  C2265  1  0.279850  0.067310  0.159960  1.0  -0.4134
  C  C2266  1  0.328680  0.857990  0.387670  1.0  -0.4122
  C  C2267  1  0.346650  0.889260  0.418110  1.0  0.2103
  C  C2268  1  0.319720  0.888090  0.431810  1.0  -0.1785
  C  C2269  1  0.354850  0.925020  0.461070  1.0  0.2059
  C  C2270  1  0.347680  0.939650  0.486530  1.0  -0.4086
  C  C2271  1  0.521670  0.107600  0.556870  1.0  -0.4265
  C  C2272  1  0.564160  0.125990  0.546150  1.0  0.2072
  C  C2273  1  0.620420  0.176600  0.555620  1.0  -0.1923
  C  C2274  1  0.639120  0.171080  0.537600  1.0  0.1883
  C  C2275  1  0.695910  0.210560  0.538270  1.0  -0.4106
  C  C2276  1  0.681770  0.125660  0.445630  1.0  -0.4046
  C  C2277  1  0.622590  0.074140  0.429130  1.0  0.1981
  C  C2278  1  0.597160  0.043390  0.398350  1.0  -0.2194
  C  C2279  1  0.541890  0.000330  0.395420  1.0  0.2007
  C  C2280  1  0.494690  0.954530  0.368020  1.0  -0.386
  C  C2281  1  0.001610  0.614250  0.082860  1.0  -0.3768
  C  C2282  1  0.042910  0.628320  0.074630  1.0  0.192
  C  C2283  1  0.098930  0.674880  0.087610  1.0  -0.1924
  C  C2284  1  0.116830  0.666810  0.070840  1.0  0.198
  C  C2285  1  0.172970  0.703410  0.073180  1.0  -0.3966
  C  C2286  1  0.143210  0.661390  0.468200  1.0  -0.4155
  C  C2287  1  0.094970  0.633590  0.476560  1.0  0.2043
  C  C2288  1  0.069140  0.639230  0.469570  1.0  -0.1425
  C  C2289  1  0.024340  0.601410  0.481350  1.0  0.1967
  C  C2290  1  0.981560  0.587470  0.480830  1.0  -0.4344
  C  C2291  1  0.824620  0.378160  0.904380  1.0  -0.3842
  C  C2292  1  0.838310  0.405840  0.935550  1.0  0.1916
  C  C2293  1  0.809550  0.402630  0.947980  1.0  -0.1741
  C  C2294  1  0.841320  0.436050  0.977970  1.0  0.1921
  C  C2295  1  0.832300  0.449700  0.002600  1.0  -0.4336
  C  C2296  1  0.433560  0.269390  0.520950  1.0  -0.4291
  C  C2297  1  0.434200  0.281710  0.552910  1.0  0.206
  C  C2298  1  0.444830  0.318760  0.566990  1.0  -0.1967
  C  C2299  1  0.438470  0.311770  0.596240  1.0  0.1579
  C  C2300  1  0.446850  0.341570  0.622820  1.0  -0.4097
  C  C2301  1  0.738480  0.541170  0.867250  1.0  -0.4215
  C  C2302  1  0.688010  0.503600  0.842810  1.0  0.1771
  C  C2303  1  0.637960  0.447460  0.834820  1.0  -0.1496
  C  C2304  1  0.605450  0.433990  0.810640  1.0  0.2077
  C  C2305  1  0.548310  0.379200  0.793110  1.0  -0.4199
  C  C2306  1  0.262980  0.989240  0.575220  1.0  -0.4231
  C  C2307  1  0.294890  0.032220  0.559310  1.0  0.1972
  C  C2308  1  0.296450  0.030280  0.528930  1.0  -0.1727
  C  C2309  1  0.333280  0.082310  0.526790  1.0  0.1725
  C  C2310  1  0.352390  0.105020  0.500410  1.0  -0.4306
  C  C2311  1  0.517460  0.890690  0.337950  1.0  -0.4212
  C  C2312  1  0.565370  0.918860  0.328230  1.0  0.2005
  C  C2313  1  0.593290  0.916410  0.334100  1.0  -0.1579
  C  C2314  1  0.633800  0.950960  0.319560  1.0  0.1929
  C  C2315  1  0.677510  0.966250  0.318160  1.0  -0.4095
  C  C2316  1  0.562770  0.824080  0.305450  1.0  -0.4237
  C  C2317  1  0.564170  0.839130  0.336500  1.0  0.2141
  C  C2318  1  0.578890  0.880040  0.349530  1.0  -0.218
  C  C2319  1  0.570330  0.873520  0.378450  1.0  0.2017
  C  C2320  1  0.580440  0.906320  0.403760  1.0  -0.4025
  C  C2321  1  0.520250  0.010090  0.198340  1.0  -0.4351
  C  C2322  1  0.511070  0.988930  0.225000  1.0  0.2159
  C  C2323  1  0.469590  0.958690  0.238680  1.0  -0.1704
  C  C2324  1  0.478660  0.946400  0.260860  1.0  0.1914
  C  C2325  1  0.447770  0.915030  0.282800  1.0  -0.4098
  C  C2326  1  0.257550  0.488450  0.405600  1.0  -0.3988
  C  C2327  1  0.204810  0.440200  0.380810  1.0  0.2151
  C  C2328  1  0.175050  0.435250  0.360900  1.0  -0.1429
  C  C2329  1  0.129510  0.380770  0.343080  1.0  0.2143
  C  C2330  1  0.082250  0.350480  0.318530  1.0  -0.4245
  C  C2331  1  0.197980  0.474790  0.300370  1.0  -0.4204
  C  C2332  1  0.201520  0.495190  0.329710  1.0  0.2036
  C  C2333  1  0.191130  0.478070  0.356400  1.0  -0.1464
  C  C2334  1  0.204040  0.513850  0.377090  1.0  0.2186
  C  C2335  1  0.201040  0.515610  0.409250  1.0  -0.421
  C  C2336  1  0.203380  0.253840  0.403820  1.0  -0.4259
  C  C2337  1  0.225550  0.303210  0.409560  1.0  0.2157
  C  C2338  1  0.276030  0.355790  0.427220  1.0  -0.2141
  C  C2339  1  0.273430  0.383780  0.423810  1.0  0.2134
  C  C2340  1  0.315470  0.442390  0.436860  1.0  -0.4002
  C  C2341  1  0.698810  0.310480  0.968490  1.0  -0.4105
  C  C2342  1  0.711810  0.336670  0.944080  1.0  0.1947
  C  C2343  1  0.757580  0.373380  0.933560  1.0  -0.1692
  C  C2344  1  0.746840  0.382440  0.909280  1.0  0.1701
  C  C2345  1  0.780940  0.417860  0.889200  1.0  -0.416
  C  C2346  1  0.691790  0.428090  0.837080  1.0  -0.4157
  C  C2347  1  0.649460  0.404610  0.851670  1.0  0.2018
  C  C2348  1  0.625020  0.411800  0.850020  1.0  -0.2148
  C  C2349  1  0.588200  0.379300  0.867100  1.0  0.2123
  C  C2350  1  0.549590  0.370090  0.873680  1.0  -0.4283
  C  C2351  1  0.512340  0.304890  0.976030  1.0  -0.3861
  C  C2352  1  0.530110  0.289170  0.975080  1.0  0.2128
  C  C2353  1  0.537800  0.275500  0.997900  1.0  -0.176
  C  C2354  1  0.554680  0.264140  0.985420  1.0  0.1998
  C  C2355  1  0.570910  0.248950  0.999060  1.0  -0.3722
  C  C2356  1  0.032060  0.826440  0.400100  1.0  -0.421
  C  C2357  1  0.012480  0.779290  0.394370  1.0  0.1851
  C  C2358  1  0.960440  0.724570  0.380210  1.0  -0.1794
  C  C2359  1  0.965190  0.698170  0.379560  1.0  0.1811
  C  C2360  1  0.923080  0.639140  0.367820  1.0  -0.4208
  C  C2361  1  0.002150  0.615660  0.409410  1.0  -0.3856
  C  C2362  1  0.057330  0.668800  0.431530  1.0  0.1878
  C  C2363  1  0.086510  0.678350  0.455860  1.0  -0.1783
  C  C2364  1  0.135100  0.734940  0.467440  1.0  0.2124
  C  C2365  1  0.183910  0.769940  0.493050  1.0  -0.4031
  C  C2366  1  0.291980  0.954960  0.522340  1.0  -0.4037
  C  C2367  1  0.260530  0.949500  0.501230  1.0  0.2016
  C  C2368  1  0.263240  0.982340  0.503580  1.0  -0.1806
  C  C2369  1  0.226100  0.959730  0.477230  1.0  0.2033
  C  C2370  1  0.211340  0.977610  0.467150  1.0  -0.4151
  C  C2371  1  0.907390  0.729390  0.418780  1.0  -0.4277
  C  C2372  1  0.888400  0.702360  0.385960  1.0  0.1833
  C  C2373  1  0.910040  0.699380  0.368820  1.0  -0.1926
  C  C2374  1  0.875090  0.668790  0.339680  1.0  0.1976
  C  C2375  1  0.877110  0.651470  0.311380  1.0  -0.4066
  C  C2376  1  0.714650  0.518250  0.234700  1.0  -0.4189
  C  C2377  1  0.673250  0.500710  0.246160  1.0  0.2073
  C  C2378  1  0.617100  0.455010  0.233710  1.0  -0.1878
  C  C2379  1  0.599080  0.458180  0.254660  1.0  0.1792
  C  C2380  1  0.543080  0.421670  0.253550  1.0  -0.4212
  C  C2381  1  0.560120  0.482670  0.359590  1.0  -0.4224
  C  C2382  1  0.618300  0.531650  0.377950  1.0  0.1894
  C  C2383  1  0.641860  0.559550  0.409010  1.0  -0.1978
  C  C2384  1  0.697400  0.601410  0.413610  1.0  0.1852
  C  C2385  1  0.743560  0.646200  0.441360  1.0  -0.4062
  C  C2386  1  0.380560  0.067760  0.102520  1.0  -0.4264
  C  C2387  1  0.396480  0.102650  0.130130  1.0  0.1915
  C  C2388  1  0.384950  0.093510  0.158260  1.0  -0.1848
  C  C2389  1  0.412970  0.140790  0.175960  1.0  0.1769
  C  C2390  1  0.415610  0.155200  0.207610  1.0  -0.3839
  C  C2391  1  0.529010  0.332310  0.233720  1.0  -0.4241
  C  C2392  1  0.549970  0.358140  0.207910  1.0  0.1818
  C  C2393  1  0.586060  0.410220  0.206880  1.0  -0.196
  C  C2394  1  0.591100  0.410720  0.177220  1.0  0.2041
  C  C2395  1  0.622900  0.454430  0.161930  1.0  -0.4366
  C  C2396  1  0.599170  0.374590  0.054360  1.0  -0.4208
  C  C2397  1  0.555840  0.315690  0.052530  1.0  0.1895
  C  C2398  1  0.529840  0.273620  0.028860  1.0  -0.159
  C  C2399  1  0.498630  0.230790  0.041420  1.0  0.1795
  C  C2400  1  0.461690  0.174100  0.027390  1.0  -0.3926
  C  C2401  1  0.479860  0.038260  0.246320  1.0  -0.4297
  C  C2402  1  0.430570  0.978270  0.234440  1.0  0.2016
  C  C2403  1  0.425590  0.943190  0.231380  1.0  -0.2209
  C  C2404  1  0.370060  0.891590  0.219850  1.0  0.214
  C  C2405  1  0.340200  0.837920  0.212120  1.0  -0.4109
  C  C2406  1  0.168610  0.711500  0.151510  1.0  -0.4085
  C  C2407  1  0.164670  0.738170  0.140440  1.0  0.2031
  C  C2408  1  0.132550  0.721460  0.113610  1.0  -0.1932
  C  C2409  1  0.143300  0.760460  0.116560  1.0  0.2077
  C  C2410  1  0.119160  0.763230  0.094590  1.0  -0.4142
  C  C2411  1  0.256680  0.965200  0.130880  1.0  -0.4392
  C  C2412  1  0.300670  0.990380  0.155850  1.0  0.2188
  C  C2413  1  0.354470  0.045270  0.167940  1.0  -0.2254
  C  C2414  1  0.377010  0.046100  0.191310  1.0  0.2183
  C  C2415  1  0.432690  0.092650  0.212540  1.0  -0.4148
  C  C2416  1  0.642010  0.529680  0.470690  1.0  -0.4123
  C  C2417  1  0.610740  0.528850  0.457390  1.0  0.2112
  C  C2418  1  0.611910  0.543720  0.431630  1.0  -0.1796
  C  C2419  1  0.574980  0.536050  0.429830  1.0  0.2057
  C  C2420  1  0.560350  0.546880  0.408030  1.0  -0.4077
  C  C2421  1  0.392400  0.449270  0.414070  1.0  -0.4282
  C  C2422  1  0.374010  0.420160  0.438170  1.0  0.2065
  C  C2423  1  0.323400  0.379020  0.443820  1.0  -0.1935
  C  C2424  1  0.328920  0.366520  0.468040  1.0  0.1899
  C  C2425  1  0.289440  0.327710  0.485350  1.0  -0.4076
  C  C2426  1  0.374340  0.319970  0.556110  1.0  -0.4041
  C  C2427  1  0.425860  0.354990  0.548450  1.0  0.1981
  C  C2428  1  0.456610  0.354960  0.553770  1.0  -0.2201
  C  C2429  1  0.499670  0.395090  0.541560  1.0  0.2011
  C  C2430  1  0.545470  0.413490  0.540160  1.0  -0.3841
  C  C2431  1  0.031390  0.918750  0.417140  1.0  -0.3794
  C  C2432  1  0.053690  0.968280  0.425370  1.0  0.1925
  C  C2433  1  0.087270  0.011320  0.412390  1.0  -0.1914
  C  C2434  1  0.095970  0.045990  0.429160  1.0  0.1974
  C  C2435  1  0.130230  0.099790  0.426820  1.0  -0.3998
  C  C2436  1  0.693190  0.675010  0.031800  1.0  -0.4149
  C  C2437  1  0.657030  0.618410  0.023440  1.0  0.2046
  C  C2438  1  0.669660  0.599570  0.030430  1.0  -0.1408
  C  C2439  1  0.620060  0.542990  0.018650  1.0  0.1958
  C  C2440  1  0.606640  0.500730  0.019170  1.0  -0.4357
  C  C2441  1  0.973780  0.920240  0.595620  1.0  -0.383
  C  C2442  1  0.970290  0.902760  0.564450  1.0  0.1919
  C  C2443  1  0.954650  0.861570  0.552020  1.0  -0.1741
  C  C2444  1  0.958080  0.863350  0.522030  1.0  0.1913
  C  C2445  1  0.947100  0.829700  0.497400  1.0  -0.4384
  C  C2446  1  0.248440  0.912610  0.979050  1.0  -0.4266
  C  C2447  1  0.228800  0.881290  0.947090  1.0  0.2039
  C  C2448  1  0.251770  0.877840  0.933010  1.0  -0.195
  C  C2449  1  0.215530  0.842230  0.903760  1.0  0.1583
  C  C2450  1  0.218750  0.824030  0.877180  1.0  -0.409
  C  C2451  1  0.173920  0.871230  0.632750  1.0  -0.4238
  C  C2452  1  0.160790  0.845200  0.657190  1.0  0.1785
  C  C2453  1  0.112640  0.803140  0.665180  1.0  -0.1487
  C  C2454  1  0.123350  0.794810  0.689360  1.0  0.2064
  C  C2455  1  0.086090  0.755200  0.706890  1.0  -0.4196
  C  C2456  1  0.914020  0.687760  0.924780  1.0  -0.4256
  C  C2457  1  0.972910  0.735580  0.940690  1.0  0.1968
  C  C2458  1  0.001350  0.767520  0.971070  1.0  -0.1741
  C  C2459  1  0.055520  0.806490  0.973210  1.0  0.1721
  C  C2460  1  0.104610  0.851980  0.999590  1.0  -0.4283
  C  C2461  1  0.052740  0.179510  0.162050  1.0  -0.4256
  C  C2462  1  0.090630  0.237140  0.171770  1.0  0.2029
  C  C2463  1  0.082310  0.259190  0.165900  1.0  -0.1585
  C  C2464  1  0.131400  0.314240  0.180440  1.0  0.1928
  C  C2465  1  0.148090  0.359350  0.181840  1.0  -0.4089
  C  C2466  1  0.018630  0.257320  0.194550  1.0  -0.4226
  C  C2467  1  0.002630  0.227670  0.163500  1.0  0.2131
  C  C2468  1  0.030510  0.229360  0.150470  1.0  -0.2172
  C  C2469  1  0.995070  0.191880  0.121550  1.0  0.2017
  C  C2470  1  0.002560  0.176680  0.096240  1.0  -0.4029
  C  C2471  1  0.311750  0.321910  0.301660  1.0  -0.4344
  C  C2472  1  0.263930  0.286070  0.275000  1.0  0.215
  C  C2473  1  0.220010  0.230910  0.261320  1.0  -0.1728
  C  C2474  1  0.185540  0.217800  0.239140  1.0  0.1905
  C  C2475  1  0.132230  0.164970  0.217200  1.0  -0.4111
  C  C2476  1  0.582850  0.851950  0.094400  1.0  -0.4012
  C  C2477  1  0.559390  0.824000  0.119190  1.0  0.2145
  C  C2478  1  0.574350  0.814150  0.139100  1.0  -0.143
  C  C2479  1  0.537690  0.786430  0.156920  1.0  0.2145
  C  C2480  1  0.531950  0.763720  0.181470  1.0  -0.4264
  C  C2481  1  0.674420  0.897610  0.199630  1.0  -0.4187
  C  C2482  1  0.665480  0.871810  0.170290  1.0  0.2031
  C  C2483  1  0.621670  0.834730  0.143600  1.0  -0.1446
  C  C2484  1  0.636760  0.826950  0.122910  1.0  0.218
  C  C2485  1  0.606360  0.791790  0.090750  1.0  -0.418
  C  C2486  1  0.350020  0.799560  0.096180  1.0  -0.4228
  C  C2487  1  0.393650  0.815990  0.090440  1.0  0.2144
  C  C2488  1  0.428570  0.848810  0.072780  1.0  -0.2135
  C  C2489  1  0.459970  0.849620  0.076190  1.0  0.2136
  C  C2490  1  0.505530  0.878610  0.063140  1.0  -0.3999
  C  C2491  1  0.841990  0.730320  0.531510  1.0  -0.4109
  C  C2492  1  0.892590  0.767730  0.555920  1.0  0.195
  C  C2493  1  0.939820  0.824020  0.566440  1.0  -0.1702
  C  C2494  1  0.973160  0.837560  0.590720  1.0  0.1702
  C  C2495  1  0.028660  0.891740  0.610800  1.0  -0.4166
  C  C2496  1  0.091010  0.854710  0.662920  1.0  -0.4149
  C  C2497  1  0.052940  0.797790  0.648330  1.0  0.2005
  C  C2498  1  0.061780  0.775000  0.649980  1.0  -0.2155
  C  C2499  1  0.012200  0.721100  0.632900  1.0  0.2166
  C  C2500  1  0.996410  0.675910  0.626320  1.0  -0.4305
  C  C2501  1  0.828860  0.536310  0.523970  1.0  -0.3884
  C  C2502  1  0.814090  0.555030  0.524920  1.0  0.2108
  C  C2503  1  0.777600  0.539900  0.502100  1.0  -0.1754
  C  C2504  1  0.778720  0.569260  0.514580  1.0  0.1997
  C  C2505  1  0.749890  0.571850  0.500940  1.0  -0.3732
  C  C2506  1  0.926340  0.631960  0.099900  1.0  -0.423
  C  C2507  1  0.884920  0.618110  0.105630  1.0  0.1853
  C  C2508  1  0.844360  0.580230  0.119790  1.0  -0.1788
  C  C2509  1  0.818610  0.585630  0.120440  1.0  0.1788
  C  C2510  1  0.771320  0.555260  0.132180  1.0  -0.4169
  C  C2511  1  0.706250  0.592740  0.090590  1.0  -0.3845
  C  C2512  1  0.737270  0.625800  0.068470  1.0  0.1868
  C  C2513  1  0.722490  0.630650  0.044140  1.0  -0.1787
  C  C2514  1  0.767500  0.667660  0.032560  1.0  0.2112
  C  C2515  1  0.776890  0.690860  0.006950  1.0  -0.4044
  C  C2516  1  0.932620  0.769640  0.977660  1.0  -0.403
  C  C2517  1  0.948270  0.759300  0.998770  1.0  0.2013
  C  C2518  1  0.978760  0.759660  0.996420  1.0  -0.1805
  C  C2519  1  0.982500  0.748870  0.022770  1.0  0.2036
  C  C2520  1  0.010460  0.744190  0.032850  1.0  -0.4155
  C  C2521  1  0.810610  0.488610  0.081220  1.0  -0.429
  C  C2522  1  0.816400  0.502440  0.114040  1.0  0.1833
  C  C2523  1  0.830560  0.541220  0.131180  1.0  -0.1912
  C  C2524  1  0.829110  0.535410  0.160320  1.0  0.1984
  C  C2525  1  0.840090  0.565730  0.188620  1.0  -0.4069
  C  C2526  1  0.783550  0.479950  0.265300  1.0  -0.4199
  C  C2527  1  0.754550  0.427090  0.253840  1.0  0.2079
  C  C2528  1  0.721300  0.383390  0.266290  1.0  -0.1883
  C  C2529  1  0.703520  0.344420  0.245340  1.0  0.1773
  C  C2530  1  0.668120  0.289530  0.246450  1.0  -0.4219
  C  C2531  1  0.623080  0.200530  0.140410  1.0  -0.4189
  C  C2532  1  0.653700  0.240350  0.122050  1.0  0.1904
  C  C2533  1  0.650540  0.232850  0.090990  1.0  -0.1959
  C  C2534  1  0.687800  0.283790  0.086390  1.0  0.186
  C  C2535  1  0.704840  0.302200  0.058640  1.0  -0.4067
  C  C2536  1  0.465240  0.278040  0.397480  1.0  -0.4247
  C  C2537  1  0.472520  0.266350  0.369870  1.0  0.189
  C  C2538  1  0.435250  0.226690  0.341740  1.0  -0.1853
  C  C2539  1  0.464830  0.237010  0.324040  1.0  0.1762
  C  C2540  1  0.447590  0.208000  0.292390  1.0  -0.3787
  C  C2541  1  0.598590  0.295290  0.266280  1.0  -0.4231
  C  C2542  1  0.650230  0.342060  0.292090  1.0  0.1831
  C  C2543  1  0.703340  0.379180  0.293120  1.0  -0.1963
  C  C2544  1  0.733500  0.413880  0.322780  1.0  0.2045
  C  C2545  1  0.792500  0.460970  0.338070  1.0  -0.4358
  C  C2546  1  0.820230  0.544810  0.445640  1.0  -0.4202
  C  C2547  1  0.763160  0.503310  0.447470  1.0  0.1894
  C  C2548  1  0.744760  0.500980  0.471140  1.0  -0.1568
  C  C2549  1  0.689370  0.457210  0.458580  1.0  0.1782
  C  C2550  1  0.646710  0.434300  0.472610  1.0  -0.3912
  C  C2551  1  0.291940  0.233540  0.253680  1.0  -0.4306
  C  C2552  1  0.243830  0.196130  0.265560  1.0  0.2015
  C  C2553  1  0.211810  0.194210  0.268620  1.0  -0.2197
  C  C2554  1  0.171740  0.150210  0.280150  1.0  0.2147
  C  C2555  1  0.125800  0.128080  0.287880  1.0  -0.4074
  C  C2556  1  0.059990  0.017100  0.348490  1.0  -0.4075
  C  C2557  1  0.097730  0.024230  0.359560  1.0  0.2014
  C  C2558  1  0.107850  0.018940  0.386390  1.0  -0.1951
  C  C2559  1  0.143900  0.026740  0.383440  1.0  0.2103
  C  C2560  1  0.168640  0.024570  0.405410  1.0  -0.4164
  C  C2561  1  0.334320  0.125800  0.369120  1.0  -0.4413
  C  C2562  1  0.334530  0.144820  0.344150  1.0  0.2203
  C  C2563  1  0.377330  0.186530  0.332060  1.0  -0.2257
  C  C2564  1  0.354790  0.185700  0.308690  1.0  0.216
  C  C2565  1  0.380110  0.220150  0.287460  1.0  -0.4114
  C  C2566  1  0.558990  0.171320  0.029310  1.0  -0.4123
  C  C2567  1  0.571460  0.153350  0.042610  1.0  0.2088
  C  C2568  1  0.612090  0.180280  0.068370  1.0  -0.1799
  C  C2569  1  0.606220  0.145150  0.070170  1.0  0.2047
  C  C2570  1  0.638850  0.152320  0.091970  1.0  -0.4057
  C  C2571  1  0.535200  0.978330  0.085930  1.0  -0.4261
  C  C2572  1  0.481990  0.935840  0.061830  1.0  0.2077
  C  C2573  1  0.435200  0.879580  0.056180  1.0  -0.1916
  C  C2574  1  0.398480  0.860880  0.031960  1.0  0.1914
  C  C2575  1  0.342360  0.804090  0.014650  1.0  -0.4108
  C  C2576  1  0.263860  0.818230  0.943890  1.0  -0.4073
  C  C2577  1  0.306540  0.877410  0.951550  1.0  0.1996
  C  C2578  1  0.301190  0.902840  0.946230  1.0  -0.2194
  C  C2579  1  0.353530  0.958110  0.958440  1.0  0.2015
  C  C2580  1  0.373330  0.005310  0.959840  1.0  -0.3838
  C  C2581  1  0.114250  0.531390  0.612640  1.0  -0.3821
  C  C2582  1  0.128320  0.553690  0.585410  1.0  0.1911
  C  C2583  1  0.174880  0.587270  0.575950  1.0  -0.1928
  C  C2584  1  0.166810  0.595970  0.549980  1.0  0.1992
  C  C2585  1  0.203410  0.630230  0.530440  1.0  -0.3991
  C  C2586  1  0.161390  0.193190  0.518180  1.0  -0.4136
  C  C2587  1  0.133590  0.157030  0.538620  1.0  0.2073
  C  C2588  1  0.139230  0.169660  0.570090  1.0  -0.1439
  C  C2589  1  0.101410  0.120060  0.577070  1.0  0.1966
  C  C2590  1  0.087470  0.106640  0.605910  1.0  -0.4384
  C  C2591  1  0.878160  0.473780  0.553540  1.0  -0.381
  C  C2592  1  0.905840  0.470290  0.567530  1.0  0.1915
  C  C2593  1  0.902630  0.454650  0.593080  1.0  -0.1761
  C  C2594  1  0.936050  0.458080  0.594730  1.0  0.193
  C  C2595  1  0.949700  0.447100  0.617400  1.0  -0.4356
  C  C2596  1  0.769390  0.748440  0.835830  1.0  -0.4266
  C  C2597  1  0.781710  0.728800  0.847510  1.0  0.2059
  C  C2598  1  0.818760  0.751770  0.873930  1.0  -0.1955
  C  C2599  1  0.811770  0.715530  0.873300  1.0  0.159
  C  C2600  1  0.841570  0.718750  0.894720  1.0  -0.41
  C  C2601  1  0.041170  0.673920  0.802690  1.0  -0.4235
  C  C2602  1  0.003600  0.660790  0.815590  1.0  0.1798
  C  C2603  1  0.947460  0.612640  0.809500  1.0  -0.1485
  C  C2604  1  0.933990  0.623350  0.828540  1.0  0.207
  C  C2605  1  0.879200  0.586090  0.830890  1.0  -0.4196
  C  C2606  1  0.489240  0.414020  0.726260  1.0  -0.4275
  C  C2607  1  0.532220  0.472910  0.737330  1.0  0.2003
  C  C2608  1  0.530280  0.501350  0.733830  1.0  -0.1706
  C  C2609  1  0.582310  0.555520  0.749030  1.0  0.1725
  C  C2610  1  0.605020  0.604610  0.752630  1.0  -0.4263
  C  C2611  1  0.390690  0.552740  0.373230  1.0  -0.4232
  C  C2612  1  0.418860  0.590630  0.353490  1.0  0.2018
  C  C2613  1  0.416410  0.582310  0.323120  1.0  -0.1592
  C  C2614  1  0.450960  0.631400  0.317160  1.0  0.1915
  C  C2615  1  0.466250  0.648090  0.288740  1.0  -0.4114
  C  C2616  1  0.324080  0.518630  0.261310  1.0  -0.4202
  C  C2617  1  0.339130  0.502630  0.274960  1.0  0.2132
  C  C2618  1  0.380040  0.530510  0.301150  1.0  -0.2171
  C  C2619  1  0.373520  0.495070  0.303190  1.0  0.2021
  C  C2620  1  0.406320  0.502560  0.325880  1.0  -0.4001
  C  C2621  1  0.510090  0.811750  0.489840  1.0  -0.4395
  C  C2622  1  0.488930  0.763930  0.477860  1.0  0.2178
  C  C2623  1  0.458690  0.720010  0.489100  1.0  -0.17
  C  C2624  1  0.446400  0.685540  0.467740  1.0  0.1902
  C  C2625  1  0.415030  0.632230  0.467260  1.0  -0.4115
  C  C2626  1  0.988450  0.082850  0.230900  1.0  -0.3982
  C  C2627  1  0.940200  0.059390  0.235390  1.0  0.2142
  C  C2628  1  0.935250  0.074350  0.260200  1.0  -0.1414
  C  C2629  1  0.880770  0.037690  0.251260  1.0  0.2149
  C  C2630  1  0.850480  0.031950  0.268230  1.0  -0.4239
  C  C2631  1  0.974790  0.174420  0.276810  1.0  -0.4171
  C  C2632  1  0.995190  0.165480  0.293670  1.0  0.2024
  C  C2633  1  0.978070  0.121670  0.286940  1.0  -0.1452
  C  C2634  1  0.013850  0.136760  0.309810  1.0  0.218
  C  C2635  1  0.015610  0.106360  0.314570  1.0  -0.4181
  C  C2636  1  0.753840  0.850020  0.050460  1.0  -0.4258
  C  C2637  1  0.803210  0.893650  0.077660  1.0  0.2152
  C  C2638  1  0.855790  0.928570  0.079760  1.0  -0.2134
  C  C2639  1  0.883780  0.959970  0.110350  1.0  0.2151
  C  C2640  1  0.942390  0.005530  0.126920  1.0  -0.3991
  C  C2641  1  0.810480  0.341990  0.611670  1.0  -0.4107
  C  C2642  1  0.836670  0.392590  0.624860  1.0  0.1947
  C  C2643  1  0.873380  0.439820  0.615800  1.0  -0.1681
  C  C2644  1  0.882440  0.473160  0.635600  1.0  0.1697
  C  C2645  1  0.917860  0.528660  0.636920  1.0  -0.4178
  C  C2646  1  0.928090  0.591010  0.736300  1.0  -0.4164
  C  C2647  1  0.904610  0.552940  0.755150  1.0  0.2007
  C  C2648  1  0.911800  0.561780  0.786780  1.0  -0.2192
  C  C2649  1  0.879300  0.512200  0.791100  1.0  0.2121
  C  C2650  1  0.870090  0.496410  0.820500  1.0  -0.4327
  C  C2651  1  0.804890  0.328860  0.792550  1.0  -0.3899
  C  C2652  1  0.789170  0.314090  0.759060  1.0  0.2119
  C  C2653  1  0.775500  0.277600  0.737700  1.0  -0.1753
  C  C2654  1  0.764140  0.278720  0.709460  1.0  0.2006
  C  C2655  1  0.748950  0.249890  0.678040  1.0  -0.3746
  C  C2656  1  0.326440  0.426340  0.794380  1.0  -0.4223
  C  C2657  1  0.279290  0.384920  0.766810  1.0  0.1858
  C  C2658  1  0.224570  0.344360  0.764130  1.0  -0.1794
  C  C2659  1  0.198170  0.318610  0.732980  1.0  0.1792
  C  C2660  1  0.139140  0.271320  0.716060  1.0  -0.419
  C  C2661  1  0.115660  0.206250  0.613510  1.0  -0.3833
  C  C2662  1  0.168800  0.237270  0.611470  1.0  0.1886
  C  C2663  1  0.178350  0.222490  0.591840  1.0  -0.1775
  C  C2664  1  0.234940  0.267500  0.599840  1.0  0.2119
  C  C2665  1  0.269940  0.276890  0.586030  1.0  -0.4022
  C  C2666  1  0.454960  0.432620  0.662980  1.0  -0.4039
  C  C2667  1  0.449500  0.448270  0.688970  1.0  0.2001
  C  C2668  1  0.482340  0.478760  0.719100  1.0  -0.1804
  C  C2669  1  0.459730  0.482500  0.733630  1.0  0.2038
  C  C2670  1  0.477610  0.510460  0.766270  1.0  -0.4206
  C  C2671  1  0.229390  0.310610  0.822000  1.0  -0.4293
  C  C2672  1  0.202360  0.316400  0.813960  1.0  0.1828
  C  C2673  1  0.199380  0.330560  0.789340  1.0  -0.1912
  C  C2674  1  0.168790  0.329110  0.793700  1.0  0.1994
  C  C2675  1  0.151470  0.340090  0.774360  1.0  -0.4067
  C  C2676  1  0.018250  0.283550  0.803600  1.0  -0.4211
  C  C2677  1  0.000710  0.254550  0.827460  1.0  0.2066
  C  C2678  1  0.955010  0.221300  0.837910  1.0  -0.1895
  C  C2679  1  0.958180  0.203520  0.859100  1.0  0.1769
  C  C2680  1  0.921670  0.168120  0.878590  1.0  -0.422
  C  C2681  1  0.982670  0.123080  0.922550  1.0  -0.4198
  C  C2682  1  0.031650  0.153700  0.913350  1.0  0.1906
  C  C2683  1  0.059550  0.150540  0.917690  1.0  -0.1958
  C  C2684  1  0.101410  0.187800  0.904010  1.0  0.1838
  C  C2685  1  0.146200  0.204840  0.902640  1.0  -0.4058
  C  C2686  1  0.567760  0.965240  0.687200  1.0  -0.422
  C  C2687  1  0.602650  0.972520  0.706170  1.0  0.19
  C  C2688  1  0.593510  0.935250  0.708560  1.0  -0.1852
  C  C2689  1  0.640790  0.964830  0.727820  1.0  0.1776
  C  C2690  1  0.655200  0.947590  0.739590  1.0  -0.38
  C  C2691  1  0.832310  0.098590  0.803300  1.0  -0.4247
  C  C2692  1  0.858140  0.150230  0.808170  1.0  0.1824
  C  C2693  1  0.910220  0.203340  0.824160  1.0  -0.195
  C  C2694  1  0.910720  0.233500  0.819620  1.0  0.2059
  C  C2695  1  0.954430  0.292500  0.831530  1.0  -0.4344
  C  C2696  1  0.874590  0.320230  0.775420  1.0  -0.4222
  C  C2697  1  0.815690  0.263160  0.759850  1.0  0.1878
  C  C2698  1  0.773620  0.244760  0.743780  1.0  -0.1599
  C  C2699  1  0.730790  0.189370  0.732160  1.0  0.1791
  C  C2700  1  0.674100  0.146710  0.712410  1.0  -0.3898
  C  C2701  1  0.538260  0.791940  0.558400  1.0  -0.43
  C  C2702  1  0.478270  0.743830  0.547700  1.0  0.2007
  C  C2703  1  0.443190  0.711810  0.517600  1.0  -0.2195
  C  C2704  1  0.391590  0.671740  0.521530  1.0  0.2146
  C  C2705  1  0.337920  0.625800  0.497720  1.0  -0.4087
  C  C2706  1  0.211500  0.559990  0.542890  1.0  -0.4062
  C  C2707  1  0.238170  0.597730  0.573500  1.0  0.2027
  C  C2708  1  0.221460  0.607850  0.588910  1.0  -0.1944
  C  C2709  1  0.260460  0.643900  0.617160  1.0  0.2095
  C  C2710  1  0.263230  0.668640  0.644070  1.0  -0.4149
  C  C2711  1  0.465200  0.834320  0.708520  1.0  -0.4385
  C  C2712  1  0.490380  0.834530  0.689710  1.0  0.2198
  C  C2713  1  0.545270  0.877330  0.690800  1.0  -0.2257
  C  C2714  1  0.546100  0.854790  0.669090  1.0  0.2149
  C  C2715  1  0.592650  0.880110  0.659960  1.0  -0.4128
  C  C2716  1  0.029680  0.058990  0.887670  1.0  -0.412
  C  C2717  1  0.028850  0.071460  0.918110  1.0  0.2089
  C  C2718  1  0.043720  0.112090  0.931810  1.0  -0.1807
  C  C2719  1  0.036050  0.106220  0.961070  1.0  0.2042
  C  C2720  1  0.046880  0.138850  0.986530  1.0  -0.4079
  C  C2721  1  0.949270  0.035200  0.056870  1.0  -0.4291
  C  C2722  1  0.920160  0.981990  0.046150  1.0  0.2069
  C  C2723  1  0.879020  0.935200  0.055620  1.0  -0.1923
  C  C2724  1  0.866520  0.898480  0.037600  1.0  0.1893
  C  C2725  1  0.827710  0.842360  0.038270  1.0  -0.4102
  C  C2726  1  0.819970  0.763860  0.945630  1.0  -0.4028
  C  C2727  1  0.854990  0.806540  0.929130  1.0  0.1983
  C  C2728  1  0.854960  0.801190  0.898350  1.0  -0.2185
  C  C2729  1  0.895090  0.853530  0.895420  1.0  0.2049
  C  C2730  1  0.913490  0.873330  0.868020  1.0  -0.3868
  C  C2731  1  0.418750  0.501610  0.887360  1.0  -0.3781
  C  C2732  1  0.468280  0.542910  0.914590  1.0  0.1914
  C  C2733  1  0.511320  0.598930  0.924050  1.0  -0.1926
  C  C2734  1  0.545990  0.616830  0.950020  1.0  0.1976
  C  C2735  1  0.599790  0.672970  0.969560  1.0  -0.3987
  C  C2736  1  0.175010  0.643210  0.981820  1.0  -0.4149
  C  C2737  1  0.118410  0.594970  0.961380  1.0  0.2055
  C  C2738  1  0.099570  0.569140  0.929910  1.0  -0.1436
  C  C2739  1  0.042990  0.524340  0.922930  1.0  0.1962
  C  C2740  1  0.000730  0.481560  0.894090  1.0  -0.4346
  C  C2741  1  0.420240  0.324620  0.946460  1.0  -0.3818
  C  C2742  1  0.402760  0.338310  0.932470  1.0  0.1907
  C  C2743  1  0.361570  0.309550  0.906920  1.0  -0.1738
  C  C2744  1  0.363350  0.341320  0.905270  1.0  0.1903
  C  C2745  1  0.329700  0.332300  0.882600  1.0  -0.4331
  C  C2746  1  0.412610  0.933560  0.664170  1.0  -0.425
  C  C2747  1  0.381290  0.934200  0.652490  1.0  0.2054
  C  C2748  1  0.377840  0.944830  0.626070  1.0  -0.1953
  C  C2749  1  0.342230  0.938470  0.626700  1.0  0.1588
  C  C2750  1  0.324030  0.946850  0.605280  1.0  -0.409
  C  C2751  1  0.371230  0.238480  0.697310  1.0  -0.4231
  C  C2752  1  0.345200  0.188010  0.684410  1.0  0.1785
  C  C2753  1  0.303140  0.137960  0.690500  1.0  -0.1489
  C  C2754  1  0.294810  0.105450  0.671460  1.0  0.2081
  C  C2755  1  0.255200  0.048310  0.669110  1.0  -0.4205
  C  C2756  1  0.187760  0.762980  0.773740  1.0  -0.4238
  C  C2757  1  0.235580  0.794890  0.762670  1.0  0.1975
  C  C2758  1  0.267520  0.796450  0.766170  1.0  -0.1712
  C  C2759  1  0.306490  0.833280  0.750970  1.0  0.1706
  C  C2760  1  0.351980  0.852390  0.747370  1.0  -0.4277
  C  C2761  1  0.679510  0.017460  0.126770  1.0  -0.4244
  C  C2762  1  0.737140  0.065370  0.146510  1.0  0.1996
  C  C2763  1  0.759190  0.093290  0.176880  1.0  -0.1613
  C  C2764  1  0.814240  0.133800  0.182840  1.0  0.1917
  C  C2765  1  0.859350  0.177510  0.211260  1.0  -0.4097
  C  C2766  1  0.757320  0.062770  0.238690  1.0  -0.4192
  C  C2767  1  0.727670  0.064170  0.225040  1.0  0.2133
  C  C2768  1  0.729360  0.078890  0.198850  1.0  -0.2165
  C  C2769  1  0.691880  0.070330  0.196810  1.0  0.203
  C  C2770  1  0.676680  0.080440  0.174120  1.0  -0.4034
  C  C2771  1  0.821910  0.020250  0.010160  1.0  -0.4392
  C  C2772  1  0.786070  0.011070  0.022140  1.0  0.2193
  C  C2773  1  0.730910  0.969590  0.010900  1.0  -0.1706
  C  C2774  1  0.717800  0.978660  0.032260  1.0  0.1903
  C  C2775  1  0.664970  0.947770  0.032740  1.0  -0.4109
  C  C2776  1  0.351950  0.757550  0.269100  1.0  -0.3986
  C  C2777  1  0.324000  0.704810  0.264610  1.0  0.215
  C  C2778  1  0.314150  0.675050  0.239800  1.0  -0.1418
  C  C2779  1  0.286430  0.629510  0.248740  1.0  0.2153
  C  C2780  1  0.263720  0.582250  0.231770  1.0  -0.425
  C  C2781  1  0.397610  0.697980  0.223190  1.0  -0.4179
  C  C2782  1  0.371810  0.701520  0.206330  1.0  0.2026
  C  C2783  1  0.334730  0.691130  0.213060  1.0  -0.147
  C  C2784  1  0.326950  0.704040  0.190190  1.0  0.2181
  C  C2785  1  0.291790  0.701040  0.185430  1.0  -0.418
  C  C2786  1  0.299560  0.703380  0.449540  1.0  -0.4294
  C  C2787  1  0.315990  0.725550  0.422340  1.0  0.2132
  C  C2788  1  0.348810  0.776030  0.420240  1.0  -0.2117
  C  C2789  1  0.349620  0.773430  0.389650  1.0  0.2135
  C  C2790  1  0.378610  0.815470  0.373080  1.0  -0.3991
  C  C2791  1  0.230320  0.198810  0.888330  1.0  -0.4093
  C  C2792  1  0.267730  0.211810  0.875140  1.0  0.1944
  C  C2793  1  0.324020  0.257580  0.884200  1.0  -0.1656
  C  C2794  1  0.337560  0.246840  0.864400  1.0  0.1719
  C  C2795  1  0.391740  0.280940  0.863080  1.0  -0.4169
  C  C2796  1  0.354710  0.191790  0.763700  1.0  -0.4157
  C  C2797  1  0.297790  0.149460  0.744850  1.0  0.1993
  C  C2798  1  0.275000  0.125020  0.713220  1.0  -0.2173
  C  C2799  1  0.221100  0.088200  0.708900  1.0  0.2155
  C  C2800  1  0.175910  0.049590  0.679500  1.0  -0.4286
  C  C2801  1  0.036310  0.012340  0.707450  1.0  -0.3914
  C  C2802  1  0.055030  0.030110  0.740940  1.0  0.2122
  C  C2803  1  0.039900  0.037800  0.762300  1.0  -0.1758
  C  C2804  1  0.069260  0.054680  0.790540  1.0  0.2008
  C  C2805  1  0.071850  0.070910  0.821960  1.0  -0.3768
  C  C2806  1  0.131960  0.532060  0.705620  1.0  -0.4219
  C  C2807  1  0.118110  0.512480  0.733190  1.0  0.1857
  C  C2808  1  0.080230  0.460440  0.735870  1.0  -0.1772
  C  C2809  1  0.085630  0.465190  0.767020  1.0  0.1799
  C  C2810  1  0.055260  0.423080  0.783940  1.0  -0.4192
  C  C2811  1  0.092740  0.502150  0.886490  1.0  -0.3863
  C  C2812  1  0.125800  0.557330  0.888530  1.0  0.1883
  C  C2813  1  0.130650  0.586510  0.908160  1.0  -0.1792
  C  C2814  1  0.167660  0.635100  0.900160  1.0  0.2131
  C  C2815  1  0.190860  0.683910  0.913970  1.0  -0.4049
  C  C2816  1  0.269640  0.791980  0.837020  1.0  -0.4039
  C  C2817  1  0.259300  0.760530  0.811030  1.0  0.2007
  C  C2818  1  0.259660  0.763240  0.780900  1.0  -0.181
  C  C2819  1  0.248870  0.726100  0.766370  1.0  0.2044
  C  C2820  1  0.244190  0.711340  0.733730  1.0  -0.4214
  C  C2821  1  0.988610  0.407390  0.678000  1.0  -0.4299
  C  C2822  1  0.002440  0.388400  0.686040  1.0  0.1815
  C  C2823  1  0.041220  0.410040  0.710660  1.0  -0.1914
  C  C2824  1  0.035410  0.375090  0.706300  1.0  0.1971
  C  C2825  1  0.065730  0.377110  0.725640  1.0  -0.4062
  C  C2826  1  0.979950  0.214650  0.696400  1.0  -0.4222
  C  C2827  1  0.927090  0.173250  0.672540  1.0  0.2058
  C  C2828  1  0.883390  0.117100  0.662090  1.0  -0.1885
  C  C2829  1  0.844420  0.099080  0.640900  1.0  0.1796
  C  C2830  1  0.789530  0.043080  0.621410  1.0  -0.4198
  C  C2831  1  0.700530  0.060120  0.577450  1.0  -0.4237
  C  C2832  1  0.740350  0.118300  0.586650  1.0  0.1914
  C  C2833  1  0.732850  0.141860  0.582310  1.0  -0.1967
  C  C2834  1  0.783790  0.197400  0.595990  1.0  0.1839
  C  C2835  1  0.802200  0.243560  0.597360  1.0  -0.4056
  C  C2836  1  0.778040  0.880560  0.812800  1.0  -0.4212
  C  C2837  1  0.766350  0.896480  0.793830  1.0  0.1877
  C  C2838  1  0.726690  0.884950  0.791440  1.0  -0.1872
  C  C2839  1  0.737010  0.912970  0.772180  1.0  0.1744
  C  C2840  1  0.708000  0.915610  0.760410  1.0  -0.3826
  C  C2841  1  0.795290  0.029010  0.696700  1.0  -0.4215
  C  C2842  1  0.842060  0.049970  0.691830  1.0  0.1803
  C  C2843  1  0.879180  0.086060  0.675840  1.0  -0.1944
  C  C2844  1  0.913880  0.091100  0.680380  1.0  0.2048
  C  C2845  1  0.960970  0.122900  0.668470  1.0  -0.4351
  C  C2846  1  0.044810  0.099170  0.724580  1.0  -0.4199
  C  C2847  1  0.003310  0.055840  0.740150  1.0  0.19
  C  C2848  1  0.000980  0.029840  0.756220  1.0  -0.1593
  C  C2849  1  0.957210  0.998630  0.767840  1.0  0.1791
  C  C2850  1  0.934300  0.961690  0.787590  1.0  -0.391
  C  C2851  1  0.733540  0.979860  0.941600  1.0  -0.4305
  C  C2852  1  0.696130  0.930570  0.952300  1.0  0.2008
  C  C2853  1  0.694210  0.925590  0.982400  1.0  -0.2205
  C  C2854  1  0.650210  0.870060  0.978470  1.0  0.2136
  C  C2855  1  0.628080  0.840200  0.002280  1.0  -0.4097
  C  C2856  1  0.517100  0.668610  0.957110  1.0  -0.4075
  C  C2857  1  0.524230  0.664670  0.926500  1.0  0.2038
  C  C2858  1  0.518940  0.632550  0.911090  1.0  -0.1941
  C  C2859  1  0.526740  0.643300  0.882840  1.0  0.2078
  C  C2860  1  0.524570  0.619160  0.855930  1.0  -0.4169
  C  C2861  1  0.625800  0.756680  0.791480  1.0  -0.4395
  C  C2862  1  0.644820  0.800670  0.810290  1.0  0.2213
  C  C2863  1  0.686530  0.854470  0.809200  1.0  -0.2264
  C  C2864  1  0.685700  0.877010  0.830910  1.0  0.2168
  C  C2865  1  0.720150  0.932690  0.840040  1.0  -0.4135
  C  C2866  1  0.671320  0.142010  0.612330  1.0  -0.4132
  C  C2867  1  0.653350  0.110740  0.581890  1.0  0.2098
  C  C2868  1  0.680280  0.111910  0.568190  1.0  -0.1797
  C  C2869  1  0.645150  0.074980  0.538930  1.0  0.2054
  C  C2870  1  0.652320  0.060350  0.513470  1.0  -0.4075
  C  C2871  1  0.478330  0.892400  0.443130  1.0  -0.4271
  C  C2872  1  0.435840  0.874010  0.453850  1.0  0.2084
  C  C2873  1  0.379580  0.823400  0.444380  1.0  -0.1929
  C  C2874  1  0.360880  0.828920  0.462400  1.0  0.1931
  C  C2875  1  0.304090  0.789440  0.461730  1.0  -0.4095
  C  C2876  1  0.318230  0.874340  0.554370  1.0  -0.4058
  C  C2877  1  0.377410  0.925860  0.570870  1.0  0.1986
  C  C2878  1  0.402840  0.956610  0.601650  1.0  -0.2194
  C  C2879  1  0.458110  0.999670  0.604580  1.0  0.2021
  C  C2880  1  0.505310  0.045470  0.631980  1.0  -0.3862
  N  N2881  1  0.971240  0.405040  0.947880  1.0  -0.2185
  N  N2882  1  0.925980  0.381760  0.950740  1.0  -0.2495
  N  N2883  1  0.932100  0.403890  0.508590  1.0  -0.2149
  N  N2884  1  0.975380  0.423660  0.505640  1.0  -0.2228
  N  N2885  1  0.114690  0.560390  0.043680  1.0  -0.2661
  N  N2886  1  0.113250  0.541840  0.017490  1.0  -0.1946
  N  N2887  1  0.576990  0.745460  0.428050  1.0  -0.1812
  N  N2888  1  0.574100  0.726720  0.400620  1.0  -0.2561
  N  N2889  1  0.314700  0.477260  0.176360  1.0  -0.2404
  N  N2890  1  0.365990  0.520630  0.196020  1.0  -0.2144
  N  N2891  1  0.672160  0.918170  0.425530  1.0  -0.243
  N  N2892  1  0.648070  0.886980  0.445450  1.0  -0.2174
  N  N2893  1  0.413310  0.047820  0.688930  1.0  -0.2665
  N  N2894  1  0.370350  0.027590  0.694540  1.0  -0.26
  N  N2895  1  0.451960  0.189410  0.643770  1.0  -0.2479
  N  N2896  1  0.447780  0.167380  0.617560  1.0  -0.2296
  N  N2897  1  0.455950  0.004440  0.761590  1.0  -0.2502
  N  N2898  1  0.475700  0.030380  0.739080  1.0  -0.233
  N  N2899  1  0.821100  0.607230  0.624730  1.0  -0.2162
  N  N2900  1  0.867660  0.644010  0.648070  1.0  -0.2307
  N  N2901  1  0.780860  0.462040  0.665300  1.0  -0.254
  N  N2902  1  0.779390  0.450790  0.635980  1.0  -0.2293
  N  N2903  1  0.804640  0.700000  0.603440  1.0  -0.2527
  N  N2904  1  0.774910  0.650000  0.594510  1.0  -0.222
  N  N2905  1  0.323850  0.675000  0.072450  1.0  -0.2168
  N  N2906  1  0.302590  0.646990  0.093980  1.0  -0.1835
  N  N2907  1  0.371330  0.629310  0.131440  1.0  -0.2318
  N  N2908  1  0.409360  0.644670  0.121830  1.0  -0.2194
  N  N2909  1  0.456820  0.713820  0.048840  1.0  -0.2068
  N  N2910  1  0.442250  0.729750  0.043000  1.0  -0.2223
  N  N2911  1  0.953480  0.215090  0.598170  1.0  -0.2371
  N  N2912  1  0.982640  0.265070  0.607310  1.0  -0.1915
  N  N2913  1  0.914750  0.284240  0.571390  1.0  -0.2303
  N  N2914  1  0.865820  0.243020  0.549040  1.0  -0.2566
  N  N2915  1  0.776420  0.090460  0.525080  1.0  -0.21
  N  N2916  1  0.797630  0.084340  0.539770  1.0  -0.1992
  N  N2917  1  0.158260  0.326560  0.632420  1.0  -0.2321
  N  N2918  1  0.166330  0.347360  0.661090  1.0  -0.2609
  N  N2919  1  0.312460  0.471030  0.727090  1.0  -0.2376
  N  N2920  1  0.357850  0.496690  0.721940  1.0  -0.2574
  N  N2921  1  0.342980  0.445220  0.635000  1.0  -0.2152
  N  N2922  1  0.294160  0.402040  0.613200  1.0  -0.2425
  N  N2923  1  0.570360  0.847260  0.868820  1.0  -0.2313
  N  N2924  1  0.559850  0.823470  0.840320  1.0  -0.2323
  N  N2925  1  0.465130  0.670420  0.819150  1.0  -0.2324
  N  N2926  1  0.439660  0.637640  0.838300  1.0  -0.2375
  N  N2927  1  0.459650  0.701160  0.922610  1.0  -0.2801
  N  N2928  1  0.495790  0.754520  0.929710  1.0  -0.226
  N  N2929  1  0.619210  0.051720  0.774730  1.0  -0.2327
  N  N2930  1  0.656670  0.105210  0.783480  1.0  -0.2738
  N  N2931  1  0.807170  0.215910  0.841680  1.0  -0.1814
  N  N2932  1  0.819740  0.200980  0.856920  1.0  -0.2871
  N  N2933  1  0.707950  0.039530  0.829280  1.0  -0.2771
  N  N2934  1  0.660350  0.004720  0.807470  1.0  -0.2248
  N  N2935  1  0.425260  0.487640  0.529900  1.0  -0.2656
  N  N2936  1  0.447030  0.482960  0.546990  1.0  -0.1933
  N  N2937  1  0.593220  0.569190  0.542210  1.0  -0.1704
  N  N2938  1  0.620320  0.601920  0.523440  1.0  -0.2785
  N  N2939  1  0.550220  0.606750  0.465570  1.0  -0.2407
  N  N2940  1  0.504350  0.581880  0.469830  1.0  -0.2164
  N  N2941  1  0.957160  0.023360  0.552120  1.0  -0.2218
  N  N2942  1  0.931020  0.975240  0.549260  1.0  -0.2518
  N  N2943  1  0.395300  0.423510  0.991410  1.0  -0.2179
  N  N2944  1  0.418020  0.469740  0.994360  1.0  -0.2209
  N  N2945  1  0.016710  0.071010  0.456320  1.0  -0.264
  N  N2946  1  0.024350  0.095760  0.482510  1.0  -0.1982
  N  N2947  1  0.817410  0.148940  0.071950  1.0  -0.1848
  N  N2948  1  0.826100  0.173480  0.099380  1.0  -0.2576
  N  N2949  1  0.800900  0.138340  0.323640  1.0  -0.2408
  N  N2950  1  0.824610  0.169970  0.303980  1.0  -0.2124
  N  N2951  1  0.992640  0.246630  0.074470  1.0  -0.2458
  N  N2952  1  0.941530  0.202620  0.054550  1.0  -0.2172
  N  N2953  1  0.858890  0.724380  0.811070  1.0  -0.2708
  N  N2954  1  0.833050  0.675810  0.805460  1.0  -0.2632
  N  N2955  1  0.045640  0.808190  0.856230  1.0  -0.2524
  N  N2956  1  0.049820  0.830220  0.882440  1.0  -0.2299
  N  N2957  1  0.742850  0.694360  0.738410  1.0  -0.2529
  N  N2958  1  0.791300  0.736620  0.760920  1.0  -0.2357
  N  N2959  1  0.482500  0.196370  0.875270  1.0  -0.2178
  N  N2960  1  0.495940  0.219590  0.851930  1.0  -0.2338
  N  N2961  1  0.296740  0.115560  0.834700  1.0  -0.2559
  N  N2962  1  0.314810  0.143410  0.864020  1.0  -0.2348
  N  N2963  1  0.596560  0.201200  0.896560  1.0  -0.2569
  N  N2964  1  0.555490  0.180400  0.905490  1.0  -0.2166
  N  N2965  1  0.102550  0.251400  0.427550  1.0  -0.2157
  N  N2966  1  0.053010  0.208610  0.406020  1.0  -0.1844
  N  N2967  1  0.997870  0.239890  0.368560  1.0  -0.236
  N  N2968  1  0.022840  0.287530  0.378170  1.0  -0.2188
  N  N2969  1  0.164980  0.407980  0.451160  1.0  -0.2031
  N  N2970  1  0.186750  0.399250  0.457000  1.0  -0.2195
  N  N2971  1  0.116920  0.355310  0.901830  1.0  -0.2407
  N  N2972  1  0.157760  0.375330  0.892690  1.0  -0.189
  N  N2973  1  0.212850  0.343360  0.928610  1.0  -0.2314
  N  N2974  1  0.193980  0.316780  0.950960  1.0  -0.2535
  N  N2975  1  0.065380  0.251340  0.974920  1.0  -0.2101
  N  N2976  1  0.044570  0.257860  0.960230  1.0  -0.1951
  N  N2977  1  0.194140  0.525840  0.867580  1.0  -0.2261
  N  N2978  1  0.186270  0.505240  0.838910  1.0  -0.2573
  N  N2979  1  0.243940  0.585370  0.772910  1.0  -0.2411
  N  N2980  1  0.274750  0.635910  0.778060  1.0  -0.2567
  N  N2981  1  0.310220  0.707980  0.865000  1.0  -0.2142
  N  N2982  1  0.288840  0.680960  0.886800  1.0  -0.2467
  N  N2983  1  0.478440  0.701540  0.631180  1.0  -0.2257
  N  N2984  1  0.483150  0.719530  0.659680  1.0  -0.2302
  N  N2985  1  0.351270  0.645980  0.680850  1.0  -0.2338
  N  N2986  1  0.299340  0.601360  0.661700  1.0  -0.239
  N  N2987  1  0.278550  0.537040  0.577390  1.0  -0.2784
  N  N2988  1  0.324810  0.566080  0.570290  1.0  -0.2212
  N  N2989  1  0.776990  0.844480  0.725270  1.0  -0.2324
  N  N2990  1  0.821730  0.873190  0.716520  1.0  -0.267
  N  N2991  1  0.874230  0.965490  0.658320  1.0  -0.1792
  N  N2992  1  0.844060  0.962820  0.643080  1.0  -0.29
  N  N2993  1  0.710250  0.878670  0.670720  1.0  -0.2756
  N  N2994  1  0.697250  0.852880  0.692530  1.0  -0.2222
  N  N2995  1  0.457740  0.895360  0.970100  1.0  -0.2603
  N  N2996  1  0.435970  0.900040  0.953010  1.0  -0.1902
  N  N2997  1  0.526980  0.051010  0.957790  1.0  -0.1718
  N  N2998  1  0.578480  0.096880  0.976560  1.0  -0.2789
  N  N2999  1  0.641180  0.084650  0.034430  1.0  -0.244
  N  N3000  1  0.612050  0.034520  0.030170  1.0  -0.2181
  N  N3001  1  0.905040  0.457160  0.433800  1.0  -0.223
  N  N3002  1  0.881760  0.431020  0.455780  1.0  -0.252
  N  N3003  1  0.903890  0.895300  0.471790  1.0  -0.2181
  N  N3004  1  0.923660  0.918020  0.448280  1.0  -0.2251
  N  N3005  1  0.060390  0.516710  0.445700  1.0  -0.2688
  N  N3006  1  0.041840  0.524350  0.428590  1.0  -0.1981
  N  N3007  1  0.245460  0.317410  0.168470  1.0  -0.1813
  N  N3008  1  0.226720  0.326100  0.152620  1.0  -0.2531
  N  N3009  1  0.977260  0.300900  0.162560  1.0  -0.2464
  N  N3010  1  0.020630  0.324610  0.154640  1.0  -0.2116
  N  N3011  1  0.418170  0.492640  0.246010  1.0  -0.2429
  N  N3012  1  0.386980  0.441530  0.238910  1.0  -0.2171
  N  N3013  1  0.547820  0.358890  0.634510  1.0  -0.2743
  N  N3014  1  0.527590  0.333050  0.657240  1.0  -0.2649
  N  N3015  1  0.689410  0.545640  0.737450  1.0  -0.2475
  N  N3016  1  0.667380  0.549820  0.719600  1.0  -0.2283
  N  N3017  1  0.504440  0.242850  0.548490  1.0  -0.2515
  N  N3018  1  0.530380  0.291300  0.554680  1.0  -0.2321
  N  N3019  1  0.107230  0.982500  0.786130  1.0  -0.2176
  N  N3020  1  0.144010  0.995940  0.776350  1.0  -0.2286
  N  N3021  1  0.962040  0.796740  0.681180  1.0  -0.256
  N  N3022  1  0.950790  0.814810  0.671400  1.0  -0.231
  N  N3023  1  0.200000  0.096560  0.895360  1.0  -0.2562
  N  N3024  1  0.150000  0.055490  0.875090  1.0  -0.2229
  N  N3025  1  0.175000  0.602550  0.351150  1.0  -0.2111
  N  N3026  1  0.146990  0.553010  0.344400  1.0  -0.1843
  N  N3027  1  0.129310  0.497870  0.257980  1.0  -0.2339
  N  N3028  1  0.144670  0.522840  0.235310  1.0  -0.2245
  N  N3029  1  0.213820  0.664980  0.257000  1.0  -0.204
  N  N3030  1  0.229750  0.686750  0.287500  1.0  -0.2173
  N  N3031  1  0.715090  0.616920  0.261610  1.0  -0.2413
  N  N3032  1  0.765070  0.657760  0.282430  1.0  -0.1931
  N  N3033  1  0.784240  0.712850  0.369490  1.0  -0.2292
  N  N3034  1  0.743020  0.693980  0.377200  1.0  -0.2518
  N  N3035  1  0.590460  0.565380  0.314040  1.0  -0.2135
  N  N3036  1  0.584340  0.544570  0.286710  1.0  -0.2003
  N  N3037  1  0.826560  0.694140  0.168300  1.0  -0.2256
  N  N3038  1  0.847360  0.686270  0.181030  1.0  -0.2564
  N  N3039  1  0.971030  0.743940  0.158570  1.0  -0.2404
  N  N3040  1  0.996690  0.774750  0.138840  1.0  -0.2545
  N  N3041  1  0.945220  0.810220  0.102240  1.0  -0.2107
  N  N3042  1  0.902040  0.788840  0.107880  1.0  -0.2417
  N  N3043  1  0.347260  0.978440  0.276900  1.0  -0.2293
  N  N3044  1  0.323470  0.983150  0.263620  1.0  -0.2285
  N  N3045  1  0.170420  0.851270  0.205290  1.0  -0.2309
  N  N3046  1  0.137640  0.799340  0.197980  1.0  -0.237
  N  N3047  1  0.201160  0.778550  0.241510  1.0  -0.2708
  N  N3048  1  0.254520  0.824810  0.258730  1.0  -0.2239
  N  N3049  1  0.551720  0.276990  0.432510  1.0  -0.2309
  N  N3050  1  0.605210  0.321730  0.448540  1.0  -0.272
  N  N3051  1  0.715910  0.374230  0.408740  1.0  -0.185
  N  N3052  1  0.700980  0.344060  0.381240  1.0  -0.2888
  N  N3053  1  0.539530  0.210250  0.331580  1.0  -0.2763
  N  N3054  1  0.504720  0.197250  0.344370  1.0  -0.2211
  N  N3055  1  0.987640  0.957740  0.062380  1.0  -0.2592
  N  N3056  1  0.982960  0.935970  0.035930  1.0  -0.1933
  N  N3057  1  0.069190  0.026980  0.975970  1.0  -0.1692
  N  N3058  1  0.101920  0.078480  0.981600  1.0  -0.2761
  N  N3059  1  0.106750  0.141180  0.056530  1.0  -0.243
  N  N3060  1  0.081880  0.112050  0.077530  1.0  -0.2216
  N  N3061  1  0.523360  0.471240  0.066200  1.0  -0.2208
  N  N3062  1  0.475240  0.425980  0.044220  1.0  -0.2495
  N  N3063  1  0.923510  0.432100  0.028210  1.0  -0.218
  N  N3064  1  0.969740  0.475380  0.051720  1.0  -0.2244
  N  N3065  1  0.571010  0.614690  0.054300  1.0  -0.2649
  N  N3066  1  0.595760  0.613250  0.071410  1.0  -0.1956
  N  N3067  1  0.648940  0.076990  0.331530  1.0  -0.1829
  N  N3068  1  0.673480  0.074100  0.347380  1.0  -0.2577
  N  N3069  1  0.638340  0.814700  0.337440  1.0  -0.2429
  N  N3070  1  0.669970  0.865990  0.345360  1.0  -0.2121
  N  N3071  1  0.746630  0.172160  0.253990  1.0  -0.243
  N  N3072  1  0.702620  0.148070  0.261090  1.0  -0.2142
  N  N3073  1  0.224380  0.913310  0.865490  1.0  -0.2744
  N  N3074  1  0.175810  0.870350  0.842760  1.0  -0.2599
  N  N3075  1  0.308190  0.951960  0.762550  1.0  -0.2503
  N  N3076  1  0.330220  0.947780  0.780400  1.0  -0.2307
  N  N3077  1  0.194360  0.955950  0.951510  1.0  -0.2499
  N  N3078  1  0.236620  0.975700  0.945320  1.0  -0.2328
  N  N3079  1  0.696370  0.321100  0.713870  1.0  -0.2151
  N  N3080  1  0.719590  0.367660  0.723650  1.0  -0.2302
  N  N3081  1  0.615560  0.280860  0.818820  1.0  -0.2551
  N  N3082  1  0.643410  0.279390  0.828600  1.0  -0.2319
  N  N3083  1  0.701200  0.304640  0.604640  1.0  -0.2588
  N  N3084  1  0.680400  0.274910  0.624910  1.0  -0.2221
  N  N3085  1  0.751400  0.823850  0.148850  1.0  -0.2113
  N  N3086  1  0.708610  0.802590  0.155600  1.0  -0.1825
  N  N3087  1  0.739890  0.871330  0.242020  1.0  -0.2336
  N  N3088  1  0.787530  0.909360  0.264690  1.0  -0.2212
  N  N3089  1  0.907980  0.956820  0.243000  1.0  -0.2061
  N  N3090  1  0.899250  0.942250  0.212500  1.0  -0.2243
  N  N3091  1  0.855310  0.453480  0.238390  1.0  -0.2416
  N  N3092  1  0.875330  0.482640  0.217570  1.0  -0.1945
  N  N3093  1  0.843360  0.414750  0.130510  1.0  -0.2277
  N  N3094  1  0.816780  0.365820  0.122800  1.0  -0.2536
  N  N3095  1  0.751340  0.276420  0.185960  1.0  -0.2114
  N  N3096  1  0.757860  0.297630  0.213290  1.0  -0.197
  N  N3097  1  0.025840  0.658260  0.331700  1.0  -0.2266
  N  N3098  1  0.005240  0.666330  0.318970  1.0  -0.2568
  N  N3099  1  0.085370  0.812460  0.341430  1.0  -0.2392
  N  N3100  1  0.135910  0.857850  0.361160  1.0  -0.2545
  N  N3101  1  0.207980  0.842980  0.397760  1.0  -0.2155
  N  N3102  1  0.180960  0.794160  0.392120  1.0  -0.2398
  N  N3103  1  0.201540  0.070360  0.223100  1.0  -0.2306
  N  N3104  1  0.219530  0.059850  0.236380  1.0  -0.2318
  N  N3105  1  0.145980  0.965130  0.294710  1.0  -0.2335
  N  N3106  1  0.101360  0.939660  0.302020  1.0  -0.2339
  N  N3107  1  0.037040  0.959650  0.258490  1.0  -0.2759
  N  N3108  1  0.066080  0.995790  0.241270  1.0  -0.2284
  N  N3109  1  0.344480  0.119210  0.067490  1.0  -0.2326
  N  N3110  1  0.373190  0.156670  0.051460  1.0  -0.2722
  N  N3111  1  0.465490  0.307170  0.091260  1.0  -0.1801
  N  N3112  1  0.462820  0.319740  0.118760  1.0  -0.2886
  N  N3113  1  0.378670  0.207950  0.168420  1.0  -0.2726
  N  N3114  1  0.352880  0.160350  0.155630  1.0  -0.2203
  N  N3115  1  0.395360  0.925260  0.437620  1.0  -0.2627
  N  N3116  1  0.400040  0.947030  0.464070  1.0  -0.1904
  N  N3117  1  0.551010  0.093220  0.524030  1.0  -0.1705
  N  N3118  1  0.596880  0.120320  0.518400  1.0  -0.2758
  N  N3119  1  0.584650  0.050220  0.443470  1.0  -0.2444
  N  N3120  1  0.534520  0.004350  0.422470  1.0  -0.2167
  N  N3121  1  0.028760  0.594960  0.052120  1.0  -0.2196
  N  N3122  1  0.074020  0.618240  0.049260  1.0  -0.2496
  N  N3123  1  0.067900  0.596110  0.491410  1.0  -0.2148
  N  N3124  1  0.024620  0.576340  0.494360  1.0  -0.2203
  N  N3125  1  0.885310  0.439610  0.956320  1.0  -0.2664
  N  N3126  1  0.886750  0.458160  0.982510  1.0  -0.1965
  N  N3127  1  0.423010  0.254540  0.571950  1.0  -0.1834
  N  N3128  1  0.425900  0.273280  0.599380  1.0  -0.2541
  N  N3129  1  0.685300  0.522740  0.823640  1.0  -0.2411
  N  N3130  1  0.634010  0.479370  0.803980  1.0  -0.2122
  N  N3131  1  0.327840  0.081830  0.574470  1.0  -0.2462
  N  N3132  1  0.351930  0.113020  0.554550  1.0  -0.2188
  N  N3133  1  0.586690  0.952180  0.311070  1.0  -0.2674
  N  N3134  1  0.629650  0.972410  0.305460  1.0  -0.2603
  N  N3135  1  0.548040  0.810590  0.356230  1.0  -0.2469
  N  N3136  1  0.552220  0.832620  0.382440  1.0  -0.2302
  N  N3137  1  0.544050  0.995560  0.238410  1.0  -0.2512
  N  N3138  1  0.524300  0.969620  0.260920  1.0  -0.2339
  N  N3139  1  0.178900  0.392770  0.375270  1.0  -0.2181
  N  N3140  1  0.132340  0.355990  0.351930  1.0  -0.2324
  N  N3141  1  0.219140  0.537960  0.334700  1.0  -0.2579
  N  N3142  1  0.220610  0.549210  0.364020  1.0  -0.2297
  N  N3143  1  0.195360  0.300000  0.396560  1.0  -0.2535
  N  N3144  1  0.225090  0.350000  0.405490  1.0  -0.2183
  N  N3145  1  0.676150  0.325000  0.927550  1.0  -0.2148
  N  N3146  1  0.697410  0.353010  0.906020  1.0  -0.1851
  N  N3147  1  0.628670  0.370690  0.868560  1.0  -0.2329
  N  N3148  1  0.590640  0.355330  0.878170  1.0  -0.2205
  N  N3149  1  0.543180  0.286180  0.951160  1.0  -0.2061
  N  N3150  1  0.557750  0.270250  0.957000  1.0  -0.2225
  N  N3151  1  0.046520  0.784910  0.401830  1.0  -0.2418
  N  N3152  1  0.017360  0.734930  0.392690  1.0  -0.1901
  N  N3153  1  0.085250  0.715760  0.428610  1.0  -0.2309
  N  N3154  1  0.134180  0.756980  0.450960  1.0  -0.2556
  N  N3155  1  0.223580  0.909540  0.474920  1.0  -0.2095
  N  N3156  1  0.202370  0.915660  0.460230  1.0  -0.1998
  N  N3157  1  0.841740  0.673440  0.367580  1.0  -0.2307
  N  N3158  1  0.833670  0.652640  0.338910  1.0  -0.2599
  N  N3159  1  0.687540  0.528970  0.272910  1.0  -0.2347
  N  N3160  1  0.642150  0.503310  0.278060  1.0  -0.2551
  N  N3161  1  0.657020  0.554780  0.365000  1.0  -0.2163
  N  N3162  1  0.705840  0.597960  0.386800  1.0  -0.2454
  N  N3163  1  0.429640  0.152740  0.131180  1.0  -0.2321
  N  N3164  1  0.440150  0.176530  0.159680  1.0  -0.2311
  N  N3165  1  0.534870  0.329580  0.180850  1.0  -0.2327
  N  N3166  1  0.560340  0.362360  0.161700  1.0  -0.2394
  N  N3167  1  0.540350  0.298840  0.077390  1.0  -0.2802
  N  N3168  1  0.504210  0.245480  0.070290  1.0  -0.2257
  N  N3169  1  0.380790  0.948280  0.225270  1.0  -0.2322
  N  N3170  1  0.343330  0.894790  0.216520  1.0  -0.2718
  N  N3171  1  0.192830  0.784090  0.158320  1.0  -0.1803
  N  N3172  1  0.180260  0.799020  0.143080  1.0  -0.284
  N  N3173  1  0.292050  0.960470  0.170720  1.0  -0.2795
  N  N3174  1  0.339650  0.995280  0.192530  1.0  -0.2258
  N  N3175  1  0.574740  0.512360  0.470100  1.0  -0.264
  N  N3176  1  0.552970  0.517040  0.453010  1.0  -0.1921
  N  N3177  1  0.406780  0.430810  0.457790  1.0  -0.1729
  N  N3178  1  0.379680  0.398080  0.476560  1.0  -0.279
  N  N3179  1  0.449780  0.393250  0.534430  1.0  -0.2398
  N  N3180  1  0.495650  0.418120  0.530170  1.0  -0.2176
  N  N3181  1  0.042840  0.976640  0.447880  1.0  -0.2205
  N  N3182  1  0.068980  0.024760  0.450740  1.0  -0.2498
  N  N3183  1  0.604700  0.576490  0.008590  1.0  -0.2166
  N  N3184  1  0.581980  0.530260  0.005640  1.0  -0.2217
  N  N3185  1  0.983290  0.928990  0.543680  1.0  -0.2604
  N  N3186  1  0.975650  0.904240  0.517490  1.0  -0.1987
  N  N3187  1  0.182590  0.851060  0.928050  1.0  -0.183
  N  N3188  1  0.173900  0.826520  0.900620  1.0  -0.2559
  N  N3189  1  0.199100  0.861660  0.676360  1.0  -0.2432
  N  N3190  1  0.175390  0.830030  0.696020  1.0  -0.2143
  N  N3191  1  0.007360  0.753370  0.925530  1.0  -0.2466
  N  N3192  1  0.058470  0.797380  0.945450  1.0  -0.2193
  N  N3193  1  0.141110  0.275620  0.188930  1.0  -0.2697
  N  N3194  1  0.166950  0.324190  0.194540  1.0  -0.2608
  N  N3195  1  0.954360  0.191810  0.143770  1.0  -0.252
  N  N3196  1  0.950180  0.169780  0.117560  1.0  -0.2282
  N  N3197  1  0.257150  0.305640  0.261590  1.0  -0.251
  N  N3198  1  0.208700  0.263380  0.239080  1.0  -0.2328
  N  N3199  1  0.517500  0.803630  0.124730  1.0  -0.2154
  N  N3200  1  0.504060  0.780410  0.148070  1.0  -0.2302
  N  N3201  1  0.703260  0.884440  0.165300  1.0  -0.2596
  N  N3202  1  0.685190  0.856590  0.135980  1.0  -0.2364
  N  N3203  1  0.403440  0.798800  0.103440  1.0  -0.2573
  N  N3204  1  0.444510  0.819600  0.094510  1.0  -0.2198
  N  N3205  1  0.897450  0.748600  0.572450  1.0  -0.2167
  N  N3206  1  0.946990  0.791390  0.593980  1.0  -0.1839
  N  N3207  1  0.002130  0.760110  0.631440  1.0  -0.2349
  N  N3208  1  0.977160  0.712470  0.621830  1.0  -0.2181
  N  N3209  1  0.835020  0.592020  0.548840  1.0  -0.2021
  N  N3210  1  0.813250  0.600750  0.543000  1.0  -0.2165
  N  N3211  1  0.883080  0.644690  0.098170  1.0  -0.2395
  N  N3212  1  0.842240  0.624670  0.107310  1.0  -0.1891
  N  N3213  1  0.787150  0.656640  0.071390  1.0  -0.2302
  N  N3214  1  0.806020  0.683220  0.049040  1.0  -0.2564
  N  N3215  1  0.934620  0.748660  0.025080  1.0  -0.2115
  N  N3216  1  0.955430  0.742140  0.039770  1.0  -0.1968
  N  N3217  1  0.805860  0.474160  0.132420  1.0  -0.2275
  N  N3218  1  0.813730  0.494760  0.161090  1.0  -0.2565
  N  N3219  1  0.756060  0.414630  0.227090  1.0  -0.2412
  N  N3220  1  0.725250  0.364090  0.221940  1.0  -0.2581
  N  N3221  1  0.689780  0.292020  0.135000  1.0  -0.2144
  N  N3222  1  0.711160  0.319040  0.113200  1.0  -0.2451
  N  N3223  1  0.521560  0.298460  0.368820  1.0  -0.2236
  N  N3224  1  0.516850  0.280470  0.340320  1.0  -0.2285
  N  N3225  1  0.648730  0.354020  0.319150  1.0  -0.2299
  N  N3226  1  0.700660  0.398640  0.338300  1.0  -0.2366
  N  N3227  1  0.721450  0.462960  0.422610  1.0  -0.2801
  N  N3228  1  0.675190  0.433920  0.429710  1.0  -0.2251
  N  N3229  1  0.223010  0.155520  0.274730  1.0  -0.2326
  N  N3230  1  0.178270  0.126810  0.283480  1.0  -0.2702
  N  N3231  1  0.125770  0.034510  0.341680  1.0  -0.1753
  N  N3232  1  0.155940  0.037180  0.356920  1.0  -0.2882
  N  N3233  1  0.289750  0.121330  0.329280  1.0  -0.2762
  N  N3234  1  0.302750  0.147120  0.307470  1.0  -0.2216
  N  N3235  1  0.542260  0.104640  0.029900  1.0  -0.2587
  N  N3236  1  0.564030  0.099960  0.046990  1.0  -0.1885
  N  N3237  1  0.473020  0.948990  0.042210  1.0  -0.1707
  N  N3238  1  0.421520  0.903120  0.023440  1.0  -0.2782
  N  N3239  1  0.358820  0.915350  0.965570  1.0  -0.2433
  N  N3240  1  0.387950  0.965480  0.969830  1.0  -0.2191
  N  N3241  1  0.094960  0.542840  0.566200  1.0  -0.2208
  N  N3242  1  0.118240  0.568980  0.544220  1.0  -0.251
  N  N3243  1  0.096110  0.104700  0.528210  1.0  -0.2181
  N  N3244  1  0.076340  0.081980  0.551720  1.0  -0.2268
  N  N3245  1  0.939610  0.483290  0.554300  1.0  -0.2645
  N  N3246  1  0.958160  0.475650  0.571410  1.0  -0.1986
  N  N3247  1  0.754540  0.682590  0.831530  1.0  -0.1806
  N  N3248  1  0.773280  0.673900  0.847380  1.0  -0.2502
  N  N3249  1  0.022740  0.699100  0.837440  1.0  -0.2442
  N  N3250  1  0.979370  0.675390  0.845360  1.0  -0.2114
  N  N3251  1  0.581830  0.507360  0.753990  1.0  -0.242
  N  N3252  1  0.613020  0.558470  0.761090  1.0  -0.217
  N  N3253  1  0.452180  0.641110  0.365490  1.0  -0.2741
  N  N3254  1  0.472410  0.666950  0.342760  1.0  -0.2651
  N  N3255  1  0.310590  0.454360  0.262550  1.0  -0.2476
  N  N3256  1  0.332620  0.450180  0.280400  1.0  -0.2286
  N  N3257  1  0.495560  0.757150  0.451510  1.0  -0.2523
  N  N3258  1  0.469620  0.708700  0.445320  1.0  -0.2324
  N  N3259  1  0.892770  0.017500  0.213870  1.0  -0.2176
  N  N3260  1  0.855990  0.004060  0.223650  1.0  -0.229
  N  N3261  1  0.037960  0.203260  0.318820  1.0  -0.2574
  N  N3262  1  0.049210  0.185190  0.328600  1.0  -0.2291
  N  N3263  1  0.800000  0.903440  0.104640  1.0  -0.2552
  N  N3264  1  0.850000  0.944510  0.124910  1.0  -0.2207
  N  N3265  1  0.825000  0.397450  0.648850  1.0  -0.213
  N  N3266  1  0.853010  0.446990  0.655600  1.0  -0.1842
  N  N3267  1  0.870690  0.502130  0.742020  1.0  -0.2337
  N  N3268  1  0.855330  0.477160  0.764690  1.0  -0.2246
  N  N3269  1  0.786180  0.335020  0.743000  1.0  -0.2016
  N  N3270  1  0.770250  0.313250  0.712500  1.0  -0.22
  N  N3271  1  0.284910  0.383080  0.738390  1.0  -0.2425
  N  N3272  1  0.234930  0.342240  0.717570  1.0  -0.1951
  N  N3273  1  0.215760  0.287150  0.630510  1.0  -0.2286
  N  N3274  1  0.256980  0.306020  0.622800  1.0  -0.2527
  N  N3275  1  0.409540  0.434620  0.685960  1.0  -0.2139
  N  N3276  1  0.415660  0.455430  0.713290  1.0  -0.1991
  N  N3277  1  0.173440  0.305860  0.831700  1.0  -0.23
  N  N3278  1  0.152640  0.313730  0.818970  1.0  -0.2572
  N  N3279  1  0.028970  0.256060  0.841430  1.0  -0.2419
  N  N3280  1  0.003310  0.225250  0.861160  1.0  -0.2549
  N  N3281  1  0.054780  0.189780  0.897760  1.0  -0.2113
  N  N3282  1  0.097960  0.211160  0.892120  1.0  -0.2405
  N  N3283  1  0.652740  0.021560  0.723100  1.0  -0.2289
  N  N3284  1  0.676530  0.016850  0.736380  1.0  -0.228
  N  N3285  1  0.829580  0.148730  0.794710  1.0  -0.2291
  N  N3286  1  0.862360  0.200660  0.802020  1.0  -0.2351
  N  N3287  1  0.798840  0.221450  0.758490  1.0  -0.2737
  N  N3288  1  0.745480  0.175190  0.741270  1.0  -0.222
  N  N3289  1  0.448280  0.723010  0.567490  1.0  -0.2324
  N  N3290  1  0.394790  0.678270  0.551460  1.0  -0.2716
  N  N3291  1  0.284090  0.625770  0.591260  1.0  -0.1854
  N  N3292  1  0.299020  0.655940  0.618760  1.0  -0.2887
  N  N3293  1  0.460470  0.789750  0.668420  1.0  -0.2791
  N  N3294  1  0.495280  0.802750  0.655630  1.0  -0.221
  N  N3295  1  0.012360  0.042260  0.937620  1.0  -0.2589
  N  N3296  1  0.017040  0.064030  0.964070  1.0  -0.1938
  N  N3297  1  0.930810  0.973020  0.024030  1.0  -0.1697
  N  N3298  1  0.898080  0.921520  0.018400  1.0  -0.2768
  N  N3299  1  0.893250  0.858820  0.943470  1.0  -0.2451
  N  N3300  1  0.918120  0.887950  0.922470  1.0  -0.2215
  N  N3301  1  0.476640  0.528760  0.933800  1.0  -0.223
  N  N3302  1  0.524760  0.574020  0.955780  1.0  -0.2519
  N  N3303  1  0.076490  0.567900  0.971790  1.0  -0.2178
  N  N3304  1  0.030260  0.524620  0.948280  1.0  -0.2216
  N  N3305  1  0.428990  0.385310  0.945700  1.0  -0.2632
  N  N3306  1  0.404240  0.386750  0.928590  1.0  -0.1981
  N  N3307  1  0.351060  0.923010  0.668470  1.0  -0.1847
  N  N3308  1  0.326520  0.925900  0.652620  1.0  -0.256
  N  N3309  1  0.361660  0.185300  0.662560  1.0  -0.2433
  N  N3310  1  0.330030  0.134010  0.654640  1.0  -0.2122
  N  N3311  1  0.253370  0.827840  0.746010  1.0  -0.2418
  N  N3312  1  0.297380  0.851930  0.738910  1.0  -0.2173
  N  N3313  1  0.775620  0.086690  0.134510  1.0  -0.2769
  N  N3314  1  0.824190  0.129650  0.157240  1.0  -0.2608
  N  N3315  1  0.691810  0.048040  0.237450  1.0  -0.2535
  N  N3316  1  0.669780  0.052220  0.219600  1.0  -0.2321
  N  N3317  1  0.805640  0.044050  0.048490  1.0  -0.2483
  N  N3318  1  0.763380  0.024300  0.054680  1.0  -0.2317
  N  N3319  1  0.303630  0.678900  0.286130  1.0  -0.2162
  N  N3320  1  0.280410  0.632340  0.276350  1.0  -0.2321
  N  N3321  1  0.384440  0.719140  0.181180  1.0  -0.2579
  N  N3322  1  0.356590  0.720610  0.171400  1.0  -0.2314
  N  N3323  1  0.298800  0.695360  0.395360  1.0  -0.2602
  N  N3324  1  0.319600  0.725090  0.375090  1.0  -0.2237
  N  N3325  1  0.248600  0.176150  0.851150  1.0  -0.2118
  N  N3326  1  0.291390  0.197410  0.844400  1.0  -0.1849
  N  N3327  1  0.260110  0.128670  0.757980  1.0  -0.2309
  N  N3328  1  0.212470  0.090640  0.735310  1.0  -0.2202
  N  N3329  1  0.092020  0.043180  0.757000  1.0  -0.2073
  N  N3330  1  0.100750  0.057750  0.787500  1.0  -0.2212
  N  N3331  1  0.144690  0.546520  0.761610  1.0  -0.2435
  N  N3332  1  0.124670  0.517360  0.782430  1.0  -0.194
  N  N3333  1  0.156640  0.585250  0.869490  1.0  -0.2303
  N  N3334  1  0.183220  0.634180  0.877200  1.0  -0.2527
  N  N3335  1  0.248660  0.723580  0.814040  1.0  -0.2145
  N  N3336  1  0.242140  0.702370  0.786710  1.0  -0.1961
  N  N3337  1  0.974160  0.341740  0.668300  1.0  -0.2277
  N  N3338  1  0.994760  0.333670  0.681030  1.0  -0.255
  N  N3339  1  0.914630  0.187540  0.658570  1.0  -0.2392
  N  N3340  1  0.864090  0.142150  0.638840  1.0  -0.2553
  N  N3341  1  0.792020  0.157020  0.602240  1.0  -0.2146
  N  N3342  1  0.819040  0.205840  0.607880  1.0  -0.2408
  N  N3343  1  0.798460  0.929640  0.776900  1.0  -0.2285
  N  N3344  1  0.780470  0.940150  0.763620  1.0  -0.2329
  N  N3345  1  0.854020  0.034870  0.705290  1.0  -0.2308
  N  N3346  1  0.898640  0.060340  0.697980  1.0  -0.2362
  N  N3347  1  0.962960  0.040350  0.741510  1.0  -0.2759
  N  N3348  1  0.933920  0.004210  0.758730  1.0  -0.2265
  N  N3349  1  0.655520  0.880790  0.932510  1.0  -0.2305
  N  N3350  1  0.626810  0.843330  0.948540  1.0  -0.2729
  N  N3351  1  0.534510  0.692830  0.908740  1.0  -0.1808
  N  N3352  1  0.537180  0.680260  0.881240  1.0  -0.2873
  N  N3353  1  0.621330  0.792050  0.831580  1.0  -0.2715
  N  N3354  1  0.647120  0.839650  0.844370  1.0  -0.2214
  N  N3355  1  0.604640  0.074740  0.562380  1.0  -0.2621
  N  N3356  1  0.599960  0.052970  0.535930  1.0  -0.19
  N  N3357  1  0.448990  0.906780  0.475970  1.0  -0.1663
  N  N3358  1  0.403120  0.879680  0.481600  1.0  -0.2745
  N  N3359  1  0.415350  0.949780  0.556530  1.0  -0.244
  N  N3360  1  0.465480  0.995650  0.577530  1.0  -0.2198
