# generated using pymatgen
data_CuH6C13N3O4
_symmetry_space_group_name_H-M   'P 1'
_cell_length_a   24.99330000
_cell_length_b   28.20780000
_cell_length_c   38.87330000
_cell_angle_alpha   90.00000000
_cell_angle_beta   90.00000000
_cell_angle_gamma   90.00000000
_symmetry_Int_Tables_number   1
_chemical_formula_structural   CuH6C13N3O4
_chemical_formula_sum   'Cu32 H192 C416 N96 O128'
_cell_volume   27405.91004068
_cell_formula_units_Z   32
loop_
 _symmetry_equiv_pos_site_id
 _symmetry_equiv_pos_as_xyz
  1  'x, y, z'
loop_
 _atom_site_type_symbol
 _atom_site_label
 _atom_site_symmetry_multiplicity
 _atom_site_fract_x
 _atom_site_fract_y
 _atom_site_fract_z
 _atom_site_occupancy
 _atom_site_charge
  Cu  Cu1  1  0.000000  0.279810  0.223910  1.0  0.9389
  Cu  Cu2  1  0.000000  0.779810  0.723910  1.0  0.9389
  Cu  Cu3  1  0.500000  0.279810  0.723910  1.0  0.9389
  Cu  Cu4  1  0.500000  0.779810  0.223910  1.0  0.9389
  Cu  Cu5  1  0.000000  0.720190  0.223910  1.0  0.9399
  Cu  Cu6  1  0.000000  0.220190  0.723910  1.0  0.9399
  Cu  Cu7  1  0.500000  0.720190  0.723910  1.0  0.9399
  Cu  Cu8  1  0.500000  0.220190  0.223910  1.0  0.9399
  Cu  Cu9  1  0.000000  0.279810  0.776090  1.0  0.939
  Cu  Cu10  1  0.000000  0.779810  0.276090  1.0  0.939
  Cu  Cu11  1  0.500000  0.279810  0.276090  1.0  0.939
  Cu  Cu12  1  0.500000  0.779810  0.776090  1.0  0.939
  Cu  Cu13  1  0.000000  0.720190  0.776090  1.0  0.9385
  Cu  Cu14  1  0.000000  0.220190  0.276090  1.0  0.9385
  Cu  Cu15  1  0.500000  0.720190  0.276090  1.0  0.9385
  Cu  Cu16  1  0.500000  0.220190  0.776090  1.0  0.9385
  Cu  Cu17  1  0.286570  0.000000  0.225310  1.0  0.8957
  Cu  Cu18  1  0.286570  0.500000  0.725310  1.0  0.8953
  Cu  Cu19  1  0.786570  0.000000  0.725310  1.0  0.8957
  Cu  Cu20  1  0.786570  0.500000  0.225310  1.0  0.8953
  Cu  Cu21  1  0.713430  0.000000  0.225310  1.0  0.8958
  Cu  Cu22  1  0.713430  0.500000  0.725310  1.0  0.8955
  Cu  Cu23  1  0.213430  0.000000  0.725310  1.0  0.8958
  Cu  Cu24  1  0.213430  0.500000  0.225310  1.0  0.8955
  Cu  Cu25  1  0.713430  0.000000  0.774690  1.0  0.8961
  Cu  Cu26  1  0.713430  0.500000  0.274690  1.0  0.8956
  Cu  Cu27  1  0.213430  0.000000  0.274690  1.0  0.8961
  Cu  Cu28  1  0.213430  0.500000  0.774690  1.0  0.8956
  Cu  Cu29  1  0.286570  0.000000  0.774690  1.0  0.8966
  Cu  Cu30  1  0.286570  0.500000  0.274690  1.0  0.8963
  Cu  Cu31  1  0.786570  0.000000  0.274690  1.0  0.8966
  Cu  Cu32  1  0.786570  0.500000  0.774690  1.0  0.8963
  H  H33  1  0.106300  0.205300  0.156900  1.0  0.1254
  H  H34  1  0.125300  0.125100  0.241000  1.0  0.1106
  H  H35  1  0.208900  0.095700  0.155900  1.0  0.1219
  H  H36  1  0.145000  0.225900  0.102900  1.0  0.1179
  H  H37  1  0.167600  0.277200  0.052200  1.0  0.1045
  H  H38  1  0.106300  0.705300  0.656900  1.0  0.1254
  H  H39  1  0.125300  0.625100  0.741000  1.0  0.1106
  H  H40  1  0.208900  0.595700  0.655900  1.0  0.1219
  H  H41  1  0.145000  0.725900  0.602900  1.0  0.1179
  H  H42  1  0.167600  0.777200  0.552200  1.0  0.1045
  H  H43  1  0.606300  0.205300  0.656900  1.0  0.1254
  H  H44  1  0.625300  0.125100  0.741000  1.0  0.1106
  H  H45  1  0.708900  0.095700  0.655900  1.0  0.1219
  H  H46  1  0.645000  0.225900  0.602900  1.0  0.1179
  H  H47  1  0.667600  0.277200  0.552200  1.0  0.1045
  H  H48  1  0.606300  0.705300  0.156900  1.0  0.1254
  H  H49  1  0.625300  0.625100  0.241000  1.0  0.1106
  H  H50  1  0.708900  0.595700  0.155900  1.0  0.1219
  H  H51  1  0.645000  0.725900  0.102900  1.0  0.1179
  H  H52  1  0.667600  0.777200  0.052200  1.0  0.1045
  H  H53  1  0.893700  0.794700  0.156900  1.0  0.1247
  H  H54  1  0.874700  0.874900  0.241000  1.0  0.1104
  H  H55  1  0.791100  0.904300  0.155900  1.0  0.1218
  H  H56  1  0.855000  0.774100  0.102900  1.0  0.118
  H  H57  1  0.832400  0.722800  0.052200  1.0  0.1041
  H  H58  1  0.893700  0.294700  0.656900  1.0  0.1247
  H  H59  1  0.874700  0.374900  0.741000  1.0  0.1104
  H  H60  1  0.791100  0.404300  0.655900  1.0  0.1218
  H  H61  1  0.855000  0.274100  0.602900  1.0  0.118
  H  H62  1  0.832400  0.222800  0.552200  1.0  0.1041
  H  H63  1  0.393700  0.794700  0.656900  1.0  0.1247
  H  H64  1  0.374700  0.874900  0.741000  1.0  0.1104
  H  H65  1  0.291100  0.904300  0.655900  1.0  0.1218
  H  H66  1  0.355000  0.774100  0.602900  1.0  0.118
  H  H67  1  0.332400  0.722800  0.552200  1.0  0.1041
  H  H68  1  0.393700  0.294700  0.156900  1.0  0.1247
  H  H69  1  0.374700  0.374900  0.241000  1.0  0.1104
  H  H70  1  0.291100  0.404300  0.155900  1.0  0.1218
  H  H71  1  0.355000  0.274100  0.102900  1.0  0.118
  H  H72  1  0.332400  0.222800  0.052200  1.0  0.1041
  H  H73  1  0.893700  0.205300  0.843100  1.0  0.1246
  H  H74  1  0.874700  0.125100  0.759000  1.0  0.11
  H  H75  1  0.791100  0.095700  0.844100  1.0  0.1223
  H  H76  1  0.855000  0.225900  0.897100  1.0  0.1187
  H  H77  1  0.832400  0.277200  0.947800  1.0  0.1053
  H  H78  1  0.893700  0.705300  0.343100  1.0  0.1246
  H  H79  1  0.874700  0.625100  0.259000  1.0  0.11
  H  H80  1  0.791100  0.595700  0.344100  1.0  0.1223
  H  H81  1  0.855000  0.725900  0.397100  1.0  0.1187
  H  H82  1  0.832400  0.777200  0.447800  1.0  0.1053
  H  H83  1  0.393700  0.205300  0.343100  1.0  0.1246
  H  H84  1  0.374700  0.125100  0.259000  1.0  0.11
  H  H85  1  0.291100  0.095700  0.344100  1.0  0.1223
  H  H86  1  0.355000  0.225900  0.397100  1.0  0.1187
  H  H87  1  0.332400  0.277200  0.447800  1.0  0.1053
  H  H88  1  0.393700  0.705300  0.843100  1.0  0.1246
  H  H89  1  0.374700  0.625100  0.759000  1.0  0.11
  H  H90  1  0.291100  0.595700  0.844100  1.0  0.1223
  H  H91  1  0.355000  0.725900  0.897100  1.0  0.1187
  H  H92  1  0.332400  0.777200  0.947800  1.0  0.1053
  H  H93  1  0.106300  0.794700  0.843100  1.0  0.1248
  H  H94  1  0.125300  0.874900  0.759000  1.0  0.1102
  H  H95  1  0.208900  0.904300  0.844100  1.0  0.1224
  H  H96  1  0.145000  0.774100  0.897100  1.0  0.1185
  H  H97  1  0.167600  0.722800  0.947800  1.0  0.1038
  H  H98  1  0.106300  0.294700  0.343100  1.0  0.1248
  H  H99  1  0.125300  0.374900  0.259000  1.0  0.1102
  H  H100  1  0.208900  0.404300  0.344100  1.0  0.1224
  H  H101  1  0.145000  0.274100  0.397100  1.0  0.1185
  H  H102  1  0.167600  0.222800  0.447800  1.0  0.1038
  H  H103  1  0.606300  0.794700  0.343100  1.0  0.1248
  H  H104  1  0.625300  0.874900  0.259000  1.0  0.1102
  H  H105  1  0.708900  0.904300  0.344100  1.0  0.1224
  H  H106  1  0.645000  0.774100  0.397100  1.0  0.1185
  H  H107  1  0.667600  0.722800  0.447800  1.0  0.1038
  H  H108  1  0.606300  0.294700  0.843100  1.0  0.1248
  H  H109  1  0.625300  0.374900  0.759000  1.0  0.1102
  H  H110  1  0.708900  0.404300  0.844100  1.0  0.1224
  H  H111  1  0.645000  0.274100  0.897100  1.0  0.1185
  H  H112  1  0.667600  0.222800  0.947800  1.0  0.1038
  H  H113  1  0.893700  0.794700  0.843100  1.0  0.1245
  H  H114  1  0.874700  0.874900  0.759000  1.0  0.1102
  H  H115  1  0.791100  0.904300  0.844100  1.0  0.1222
  H  H116  1  0.855000  0.774100  0.897100  1.0  0.1188
  H  H117  1  0.832400  0.722800  0.947800  1.0  0.1044
  H  H118  1  0.893700  0.294700  0.343100  1.0  0.1245
  H  H119  1  0.874700  0.374900  0.259000  1.0  0.1102
  H  H120  1  0.791100  0.404300  0.344100  1.0  0.1222
  H  H121  1  0.855000  0.274100  0.397100  1.0  0.1188
  H  H122  1  0.832400  0.222800  0.447800  1.0  0.1044
  H  H123  1  0.393700  0.794700  0.343100  1.0  0.1245
  H  H124  1  0.374700  0.874900  0.259000  1.0  0.1102
  H  H125  1  0.291100  0.904300  0.344100  1.0  0.1222
  H  H126  1  0.355000  0.774100  0.397100  1.0  0.1188
  H  H127  1  0.332400  0.722800  0.447800  1.0  0.1044
  H  H128  1  0.393700  0.294700  0.843100  1.0  0.1245
  H  H129  1  0.374700  0.374900  0.759000  1.0  0.1102
  H  H130  1  0.291100  0.404300  0.844100  1.0  0.1222
  H  H131  1  0.355000  0.274100  0.897100  1.0  0.1188
  H  H132  1  0.332400  0.222800  0.947800  1.0  0.1044
  H  H133  1  0.106300  0.205300  0.843100  1.0  0.1251
  H  H134  1  0.125300  0.125100  0.759000  1.0  0.1099
  H  H135  1  0.208900  0.095700  0.844100  1.0  0.1224
  H  H136  1  0.145000  0.225900  0.897100  1.0  0.119
  H  H137  1  0.167600  0.277200  0.947800  1.0  0.1042
  H  H138  1  0.106300  0.705300  0.343100  1.0  0.1251
  H  H139  1  0.125300  0.625100  0.259000  1.0  0.1099
  H  H140  1  0.208900  0.595700  0.344100  1.0  0.1224
  H  H141  1  0.145000  0.725900  0.397100  1.0  0.119
  H  H142  1  0.167600  0.777200  0.447800  1.0  0.1042
  H  H143  1  0.606300  0.205300  0.343100  1.0  0.1251
  H  H144  1  0.625300  0.125100  0.259000  1.0  0.1099
  H  H145  1  0.708900  0.095700  0.344100  1.0  0.1224
  H  H146  1  0.645000  0.225900  0.397100  1.0  0.119
  H  H147  1  0.667600  0.277200  0.447800  1.0  0.1042
  H  H148  1  0.606300  0.705300  0.843100  1.0  0.1251
  H  H149  1  0.625300  0.625100  0.759000  1.0  0.1099
  H  H150  1  0.708900  0.595700  0.844100  1.0  0.1224
  H  H151  1  0.645000  0.725900  0.897100  1.0  0.119
  H  H152  1  0.667600  0.777200  0.947800  1.0  0.1042
  H  H153  1  0.106300  0.794700  0.156900  1.0  0.1249
  H  H154  1  0.125300  0.874900  0.241000  1.0  0.1104
  H  H155  1  0.208900  0.904300  0.155900  1.0  0.122
  H  H156  1  0.145000  0.774100  0.102900  1.0  0.1179
  H  H157  1  0.167600  0.722800  0.052200  1.0  0.1042
  H  H158  1  0.106300  0.294700  0.656900  1.0  0.1249
  H  H159  1  0.125300  0.374900  0.741000  1.0  0.1104
  H  H160  1  0.208900  0.404300  0.655900  1.0  0.122
  H  H161  1  0.145000  0.274100  0.602900  1.0  0.1179
  H  H162  1  0.167600  0.222800  0.552200  1.0  0.1042
  H  H163  1  0.606300  0.794700  0.656900  1.0  0.1249
  H  H164  1  0.625300  0.874900  0.741000  1.0  0.1104
  H  H165  1  0.708900  0.904300  0.655900  1.0  0.122
  H  H166  1  0.645000  0.774100  0.602900  1.0  0.1179
  H  H167  1  0.667600  0.722800  0.552200  1.0  0.1042
  H  H168  1  0.606300  0.294700  0.156900  1.0  0.1249
  H  H169  1  0.625300  0.374900  0.241000  1.0  0.1104
  H  H170  1  0.708900  0.404300  0.155900  1.0  0.122
  H  H171  1  0.645000  0.274100  0.102900  1.0  0.1179
  H  H172  1  0.667600  0.222800  0.052200  1.0  0.1042
  H  H173  1  0.893700  0.205300  0.156900  1.0  0.1248
  H  H174  1  0.874700  0.125100  0.241000  1.0  0.1105
  H  H175  1  0.791100  0.095700  0.155900  1.0  0.1218
  H  H176  1  0.855000  0.225900  0.102900  1.0  0.1177
  H  H177  1  0.832400  0.277200  0.052200  1.0  0.1051
  H  H178  1  0.893700  0.705300  0.656900  1.0  0.1248
  H  H179  1  0.874700  0.625100  0.741000  1.0  0.1105
  H  H180  1  0.791100  0.595700  0.655900  1.0  0.1218
  H  H181  1  0.855000  0.725900  0.602900  1.0  0.1177
  H  H182  1  0.832400  0.777200  0.552200  1.0  0.1051
  H  H183  1  0.393700  0.205300  0.656900  1.0  0.1248
  H  H184  1  0.374700  0.125100  0.741000  1.0  0.1105
  H  H185  1  0.291100  0.095700  0.655900  1.0  0.1218
  H  H186  1  0.355000  0.225900  0.602900  1.0  0.1177
  H  H187  1  0.332400  0.277200  0.552200  1.0  0.1051
  H  H188  1  0.393700  0.705300  0.156900  1.0  0.1248
  H  H189  1  0.374700  0.625100  0.241000  1.0  0.1105
  H  H190  1  0.291100  0.595700  0.155900  1.0  0.1218
  H  H191  1  0.355000  0.725900  0.102900  1.0  0.1177
  H  H192  1  0.332400  0.777200  0.052200  1.0  0.1051
  H  H193  1  0.184900  0.155000  0.000000  1.0  0.1257
  H  H194  1  0.159100  0.318700  0.000000  1.0  0.1143
  H  H195  1  0.184900  0.655000  0.500000  1.0  0.1257
  H  H196  1  0.159100  0.818700  0.500000  1.0  0.1128
  H  H197  1  0.684900  0.155000  0.500000  1.0  0.1257
  H  H198  1  0.659100  0.318700  0.500000  1.0  0.1142
  H  H199  1  0.684900  0.655000  0.000000  1.0  0.1257
  H  H200  1  0.659100  0.818700  0.000000  1.0  0.1135
  H  H201  1  0.815100  0.845000  0.000000  1.0  0.126
  H  H202  1  0.840900  0.681300  0.000000  1.0  0.1152
  H  H203  1  0.815100  0.345000  0.500000  1.0  0.126
  H  H204  1  0.840900  0.181300  0.500000  1.0  0.1146
  H  H205  1  0.315100  0.845000  0.500000  1.0  0.126
  H  H206  1  0.340900  0.681300  0.500000  1.0  0.1151
  H  H207  1  0.315100  0.345000  0.000000  1.0  0.126
  H  H208  1  0.340900  0.181300  0.000000  1.0  0.1148
  H  H209  1  0.815100  0.155000  0.000000  1.0  0.1261
  H  H210  1  0.840900  0.318700  0.000000  1.0  0.1145
  H  H211  1  0.815100  0.655000  0.500000  1.0  0.1261
  H  H212  1  0.840900  0.818700  0.500000  1.0  0.1133
  H  H213  1  0.315100  0.155000  0.500000  1.0  0.1261
  H  H214  1  0.340900  0.318700  0.500000  1.0  0.1144
  H  H215  1  0.315100  0.655000  0.000000  1.0  0.1261
  H  H216  1  0.340900  0.818700  0.000000  1.0  0.114
  H  H217  1  0.184900  0.845000  0.000000  1.0  0.1254
  H  H218  1  0.159100  0.681300  0.000000  1.0  0.1149
  H  H219  1  0.184900  0.345000  0.500000  1.0  0.1254
  H  H220  1  0.159100  0.181300  0.500000  1.0  0.1142
  H  H221  1  0.684900  0.845000  0.500000  1.0  0.1254
  H  H222  1  0.659100  0.681300  0.500000  1.0  0.1149
  H  H223  1  0.684900  0.345000  0.000000  1.0  0.1254
  H  H224  1  0.659100  0.181300  0.000000  1.0  0.1142
  C  C225  1  0.200370  0.063910  0.219330  1.0  0.7127
  C  C226  1  0.070570  0.201190  0.220650  1.0  0.6891
  C  C227  1  0.110350  0.169980  0.202100  1.0  -0.1486
  C  C228  1  0.122400  0.179950  0.168130  1.0  -0.0821
  C  C229  1  0.158920  0.151410  0.151220  1.0  0.072
  C  C230  1  0.134220  0.132140  0.218380  1.0  0.0304
  C  C231  1  0.171090  0.104680  0.201300  1.0  -0.1519
  C  C232  1  0.183880  0.114160  0.167490  1.0  -0.0266
  C  C233  1  0.160400  0.197500  0.095870  1.0  -0.0516
  C  C234  1  0.176500  0.186040  0.063510  1.0  0.1586
  C  C235  1  0.177200  0.213500  0.031270  1.0  -0.0517
  C  C236  1  0.169700  0.261000  0.031410  1.0  -0.1262
  C  C237  1  0.200370  0.563910  0.719330  1.0  0.7127
  C  C238  1  0.070570  0.701190  0.720650  1.0  0.6891
  C  C239  1  0.110350  0.669980  0.702100  1.0  -0.1486
  C  C240  1  0.122400  0.679950  0.668130  1.0  -0.0821
  C  C241  1  0.158920  0.651410  0.651220  1.0  0.072
  C  C242  1  0.134220  0.632140  0.718380  1.0  0.0304
  C  C243  1  0.171090  0.604680  0.701300  1.0  -0.1519
  C  C244  1  0.183880  0.614160  0.667490  1.0  -0.0266
  C  C245  1  0.160400  0.697500  0.595870  1.0  -0.0516
  C  C246  1  0.176500  0.686040  0.563510  1.0  0.1586
  C  C247  1  0.177200  0.713500  0.531270  1.0  -0.0517
  C  C248  1  0.169700  0.761000  0.531410  1.0  -0.1262
  C  C249  1  0.700370  0.063910  0.719330  1.0  0.7127
  C  C250  1  0.570570  0.201190  0.720650  1.0  0.6891
  C  C251  1  0.610350  0.169980  0.702100  1.0  -0.1486
  C  C252  1  0.622400  0.179950  0.668130  1.0  -0.0821
  C  C253  1  0.658920  0.151410  0.651220  1.0  0.072
  C  C254  1  0.634220  0.132140  0.718380  1.0  0.0304
  C  C255  1  0.671090  0.104680  0.701300  1.0  -0.1519
  C  C256  1  0.683880  0.114160  0.667490  1.0  -0.0266
  C  C257  1  0.660400  0.197500  0.595870  1.0  -0.0516
  C  C258  1  0.676500  0.186040  0.563510  1.0  0.1586
  C  C259  1  0.677200  0.213500  0.531270  1.0  -0.0517
  C  C260  1  0.669700  0.261000  0.531410  1.0  -0.1262
  C  C261  1  0.700370  0.563910  0.219330  1.0  0.7127
  C  C262  1  0.570570  0.701190  0.220650  1.0  0.6891
  C  C263  1  0.610350  0.669980  0.202100  1.0  -0.1486
  C  C264  1  0.622400  0.679950  0.168130  1.0  -0.0821
  C  C265  1  0.658920  0.651410  0.151220  1.0  0.072
  C  C266  1  0.634220  0.632140  0.218380  1.0  0.0304
  C  C267  1  0.671090  0.604680  0.201300  1.0  -0.1519
  C  C268  1  0.683880  0.614160  0.167490  1.0  -0.0266
  C  C269  1  0.660400  0.697500  0.095870  1.0  -0.0516
  C  C270  1  0.676500  0.686040  0.063510  1.0  0.1586
  C  C271  1  0.677200  0.713500  0.031270  1.0  -0.0517
  C  C272  1  0.669700  0.761000  0.031410  1.0  -0.1262
  C  C273  1  0.799630  0.936090  0.219330  1.0  0.7124
  C  C274  1  0.929430  0.798810  0.220650  1.0  0.6895
  C  C275  1  0.889650  0.830020  0.202100  1.0  -0.1476
  C  C276  1  0.877600  0.820050  0.168130  1.0  -0.0819
  C  C277  1  0.841080  0.848590  0.151220  1.0  0.0711
  C  C278  1  0.865780  0.867860  0.218380  1.0  0.0305
  C  C279  1  0.828910  0.895320  0.201300  1.0  -0.1516
  C  C280  1  0.816120  0.885840  0.167490  1.0  -0.0276
  C  C281  1  0.839600  0.802500  0.095870  1.0  -0.0517
  C  C282  1  0.823500  0.813960  0.063510  1.0  0.1588
  C  C283  1  0.822800  0.786500  0.031270  1.0  -0.0524
  C  C284  1  0.830300  0.739000  0.031410  1.0  -0.1254
  C  C285  1  0.799630  0.436090  0.719330  1.0  0.7124
  C  C286  1  0.929430  0.298810  0.720650  1.0  0.6895
  C  C287  1  0.889650  0.330020  0.702100  1.0  -0.1476
  C  C288  1  0.877600  0.320050  0.668130  1.0  -0.0819
  C  C289  1  0.841080  0.348590  0.651220  1.0  0.0711
  C  C290  1  0.865780  0.367860  0.718380  1.0  0.0305
  C  C291  1  0.828910  0.395320  0.701300  1.0  -0.1516
  C  C292  1  0.816120  0.385840  0.667490  1.0  -0.0276
  C  C293  1  0.839600  0.302500  0.595870  1.0  -0.0517
  C  C294  1  0.823500  0.313960  0.563510  1.0  0.1588
  C  C295  1  0.822800  0.286500  0.531270  1.0  -0.0524
  C  C296  1  0.830300  0.239000  0.531410  1.0  -0.1254
  C  C297  1  0.299630  0.936090  0.719330  1.0  0.7124
  C  C298  1  0.429430  0.798810  0.720650  1.0  0.6895
  C  C299  1  0.389650  0.830020  0.702100  1.0  -0.1476
  C  C300  1  0.377600  0.820050  0.668130  1.0  -0.0819
  C  C301  1  0.341080  0.848590  0.651220  1.0  0.0711
  C  C302  1  0.365780  0.867860  0.718380  1.0  0.0305
  C  C303  1  0.328910  0.895320  0.701300  1.0  -0.1516
  C  C304  1  0.316120  0.885840  0.667490  1.0  -0.0276
  C  C305  1  0.339600  0.802500  0.595870  1.0  -0.0517
  C  C306  1  0.323500  0.813960  0.563510  1.0  0.1588
  C  C307  1  0.322800  0.786500  0.531270  1.0  -0.0524
  C  C308  1  0.330300  0.739000  0.531410  1.0  -0.1254
  C  C309  1  0.299630  0.436090  0.219330  1.0  0.7124
  C  C310  1  0.429430  0.298810  0.220650  1.0  0.6895
  C  C311  1  0.389650  0.330020  0.202100  1.0  -0.1476
  C  C312  1  0.377600  0.320050  0.168130  1.0  -0.0819
  C  C313  1  0.341080  0.348590  0.151220  1.0  0.0711
  C  C314  1  0.365780  0.367860  0.218380  1.0  0.0305
  C  C315  1  0.328910  0.395320  0.201300  1.0  -0.1516
  C  C316  1  0.316120  0.385840  0.167490  1.0  -0.0276
  C  C317  1  0.339600  0.302500  0.095870  1.0  -0.0517
  C  C318  1  0.323500  0.313960  0.063510  1.0  0.1588
  C  C319  1  0.322800  0.286500  0.031270  1.0  -0.0524
  C  C320  1  0.330300  0.239000  0.031410  1.0  -0.1254
  C  C321  1  0.799630  0.063910  0.780670  1.0  0.7123
  C  C322  1  0.929430  0.201190  0.779350  1.0  0.69
  C  C323  1  0.889650  0.169980  0.797900  1.0  -0.1481
  C  C324  1  0.877600  0.179950  0.831870  1.0  -0.0826
  C  C325  1  0.841080  0.151410  0.848780  1.0  0.0713
  C  C326  1  0.865780  0.132140  0.781620  1.0  0.0302
  C  C327  1  0.828910  0.104680  0.798700  1.0  -0.152
  C  C328  1  0.816120  0.114160  0.832510  1.0  -0.0264
  C  C329  1  0.839600  0.197500  0.904130  1.0  -0.0521
  C  C330  1  0.823500  0.186040  0.936490  1.0  0.1602
  C  C331  1  0.822800  0.213500  0.968730  1.0  -0.0526
  C  C332  1  0.830300  0.261000  0.968590  1.0  -0.1242
  C  C333  1  0.799630  0.563910  0.280670  1.0  0.7123
  C  C334  1  0.929430  0.701190  0.279350  1.0  0.69
  C  C335  1  0.889650  0.669980  0.297900  1.0  -0.1481
  C  C336  1  0.877600  0.679950  0.331870  1.0  -0.0826
  C  C337  1  0.841080  0.651410  0.348780  1.0  0.0713
  C  C338  1  0.865780  0.632140  0.281620  1.0  0.0302
  C  C339  1  0.828910  0.604680  0.298700  1.0  -0.152
  C  C340  1  0.816120  0.614160  0.332510  1.0  -0.0264
  C  C341  1  0.839600  0.697500  0.404130  1.0  -0.0521
  C  C342  1  0.823500  0.686040  0.436490  1.0  0.1602
  C  C343  1  0.822800  0.713500  0.468730  1.0  -0.0526
  C  C344  1  0.830300  0.761000  0.468590  1.0  -0.1242
  C  C345  1  0.299630  0.063910  0.280670  1.0  0.7123
  C  C346  1  0.429430  0.201190  0.279350  1.0  0.69
  C  C347  1  0.389650  0.169980  0.297900  1.0  -0.1481
  C  C348  1  0.377600  0.179950  0.331870  1.0  -0.0826
  C  C349  1  0.341080  0.151410  0.348780  1.0  0.0713
  C  C350  1  0.365780  0.132140  0.281620  1.0  0.0302
  C  C351  1  0.328910  0.104680  0.298700  1.0  -0.152
  C  C352  1  0.316120  0.114160  0.332510  1.0  -0.0264
  C  C353  1  0.339600  0.197500  0.404130  1.0  -0.0521
  C  C354  1  0.323500  0.186040  0.436490  1.0  0.1602
  C  C355  1  0.322800  0.213500  0.468730  1.0  -0.0526
  C  C356  1  0.330300  0.261000  0.468590  1.0  -0.1242
  C  C357  1  0.299630  0.563910  0.780670  1.0  0.7123
  C  C358  1  0.429430  0.701190  0.779350  1.0  0.69
  C  C359  1  0.389650  0.669980  0.797900  1.0  -0.1481
  C  C360  1  0.377600  0.679950  0.831870  1.0  -0.0826
  C  C361  1  0.341080  0.651410  0.848780  1.0  0.0713
  C  C362  1  0.365780  0.632140  0.781620  1.0  0.0302
  C  C363  1  0.328910  0.604680  0.798700  1.0  -0.152
  C  C364  1  0.316120  0.614160  0.832510  1.0  -0.0264
  C  C365  1  0.339600  0.697500  0.904130  1.0  -0.0521
  C  C366  1  0.323500  0.686040  0.936490  1.0  0.1602
  C  C367  1  0.322800  0.713500  0.968730  1.0  -0.0526
  C  C368  1  0.330300  0.761000  0.968590  1.0  -0.1242
  C  C369  1  0.200370  0.936090  0.780670  1.0  0.7128
  C  C370  1  0.070570  0.798810  0.779350  1.0  0.6894
  C  C371  1  0.110350  0.830020  0.797900  1.0  -0.1485
  C  C372  1  0.122400  0.820050  0.831870  1.0  -0.0821
  C  C373  1  0.158920  0.848590  0.848780  1.0  0.0713
  C  C374  1  0.134220  0.867860  0.781620  1.0  0.0306
  C  C375  1  0.171090  0.895320  0.798700  1.0  -0.1515
  C  C376  1  0.183880  0.885840  0.832510  1.0  -0.026
  C  C377  1  0.160400  0.802500  0.904130  1.0  -0.0505
  C  C378  1  0.176500  0.813960  0.936490  1.0  0.1584
  C  C379  1  0.177200  0.786500  0.968730  1.0  -0.0511
  C  C380  1  0.169700  0.739000  0.968590  1.0  -0.1248
  C  C381  1  0.200370  0.436090  0.280670  1.0  0.7128
  C  C382  1  0.070570  0.298810  0.279350  1.0  0.6894
  C  C383  1  0.110350  0.330020  0.297900  1.0  -0.1485
  C  C384  1  0.122400  0.320050  0.331870  1.0  -0.0821
  C  C385  1  0.158920  0.348590  0.348780  1.0  0.0713
  C  C386  1  0.134220  0.367860  0.281620  1.0  0.0306
  C  C387  1  0.171090  0.395320  0.298700  1.0  -0.1515
  C  C388  1  0.183880  0.385840  0.332510  1.0  -0.026
  C  C389  1  0.160400  0.302500  0.404130  1.0  -0.0505
  C  C390  1  0.176500  0.313960  0.436490  1.0  0.1584
  C  C391  1  0.177200  0.286500  0.468730  1.0  -0.0511
  C  C392  1  0.169700  0.239000  0.468590  1.0  -0.1248
  C  C393  1  0.700370  0.936090  0.280670  1.0  0.7128
  C  C394  1  0.570570  0.798810  0.279350  1.0  0.6894
  C  C395  1  0.610350  0.830020  0.297900  1.0  -0.1485
  C  C396  1  0.622400  0.820050  0.331870  1.0  -0.0821
  C  C397  1  0.658920  0.848590  0.348780  1.0  0.0713
  C  C398  1  0.634220  0.867860  0.281620  1.0  0.0306
  C  C399  1  0.671090  0.895320  0.298700  1.0  -0.1515
  C  C400  1  0.683880  0.885840  0.332510  1.0  -0.026
  C  C401  1  0.660400  0.802500  0.404130  1.0  -0.0505
  C  C402  1  0.676500  0.813960  0.436490  1.0  0.1584
  C  C403  1  0.677200  0.786500  0.468730  1.0  -0.0511
  C  C404  1  0.669700  0.739000  0.468590  1.0  -0.1248
  C  C405  1  0.700370  0.436090  0.780670  1.0  0.7128
  C  C406  1  0.570570  0.298810  0.779350  1.0  0.6894
  C  C407  1  0.610350  0.330020  0.797900  1.0  -0.1485
  C  C408  1  0.622400  0.320050  0.831870  1.0  -0.0821
  C  C409  1  0.658920  0.348590  0.848780  1.0  0.0713
  C  C410  1  0.634220  0.367860  0.781620  1.0  0.0306
  C  C411  1  0.671090  0.395320  0.798700  1.0  -0.1515
  C  C412  1  0.683880  0.385840  0.832510  1.0  -0.026
  C  C413  1  0.660400  0.302500  0.904130  1.0  -0.0505
  C  C414  1  0.676500  0.313960  0.936490  1.0  0.1584
  C  C415  1  0.677200  0.286500  0.968730  1.0  -0.0511
  C  C416  1  0.669700  0.239000  0.968590  1.0  -0.1248
  C  C417  1  0.799630  0.936090  0.780670  1.0  0.7122
  C  C418  1  0.929430  0.798810  0.779350  1.0  0.6897
  C  C419  1  0.889650  0.830020  0.797900  1.0  -0.1477
  C  C420  1  0.877600  0.820050  0.831870  1.0  -0.0822
  C  C421  1  0.841080  0.848590  0.848780  1.0  0.0708
  C  C422  1  0.865780  0.867860  0.781620  1.0  0.03
  C  C423  1  0.828910  0.895320  0.798700  1.0  -0.1515
  C  C424  1  0.816120  0.885840  0.832510  1.0  -0.0272
  C  C425  1  0.839600  0.802500  0.904130  1.0  -0.0514
  C  C426  1  0.823500  0.813960  0.936490  1.0  0.1597
  C  C427  1  0.822800  0.786500  0.968730  1.0  -0.0522
  C  C428  1  0.830300  0.739000  0.968590  1.0  -0.1253
  C  C429  1  0.799630  0.436090  0.280670  1.0  0.7122
  C  C430  1  0.929430  0.298810  0.279350  1.0  0.6897
  C  C431  1  0.889650  0.330020  0.297900  1.0  -0.1477
  C  C432  1  0.877600  0.320050  0.331870  1.0  -0.0822
  C  C433  1  0.841080  0.348590  0.348780  1.0  0.0708
  C  C434  1  0.865780  0.367860  0.281620  1.0  0.03
  C  C435  1  0.828910  0.395320  0.298700  1.0  -0.1515
  C  C436  1  0.816120  0.385840  0.332510  1.0  -0.0272
  C  C437  1  0.839600  0.302500  0.404130  1.0  -0.0514
  C  C438  1  0.823500  0.313960  0.436490  1.0  0.1597
  C  C439  1  0.822800  0.286500  0.468730  1.0  -0.0522
  C  C440  1  0.830300  0.239000  0.468590  1.0  -0.1253
  C  C441  1  0.299630  0.936090  0.280670  1.0  0.7122
  C  C442  1  0.429430  0.798810  0.279350  1.0  0.6897
  C  C443  1  0.389650  0.830020  0.297900  1.0  -0.1477
  C  C444  1  0.377600  0.820050  0.331870  1.0  -0.0822
  C  C445  1  0.341080  0.848590  0.348780  1.0  0.0708
  C  C446  1  0.365780  0.867860  0.281620  1.0  0.03
  C  C447  1  0.328910  0.895320  0.298700  1.0  -0.1515
  C  C448  1  0.316120  0.885840  0.332510  1.0  -0.0272
  C  C449  1  0.339600  0.802500  0.404130  1.0  -0.0514
  C  C450  1  0.323500  0.813960  0.436490  1.0  0.1597
  C  C451  1  0.322800  0.786500  0.468730  1.0  -0.0522
  C  C452  1  0.330300  0.739000  0.468590  1.0  -0.1253
  C  C453  1  0.299630  0.436090  0.780670  1.0  0.7122
  C  C454  1  0.429430  0.298810  0.779350  1.0  0.6897
  C  C455  1  0.389650  0.330020  0.797900  1.0  -0.1477
  C  C456  1  0.377600  0.320050  0.831870  1.0  -0.0822
  C  C457  1  0.341080  0.348590  0.848780  1.0  0.0708
  C  C458  1  0.365780  0.367860  0.781620  1.0  0.03
  C  C459  1  0.328910  0.395320  0.798700  1.0  -0.1515
  C  C460  1  0.316120  0.385840  0.832510  1.0  -0.0272
  C  C461  1  0.339600  0.302500  0.904130  1.0  -0.0514
  C  C462  1  0.323500  0.313960  0.936490  1.0  0.1597
  C  C463  1  0.322800  0.286500  0.968730  1.0  -0.0522
  C  C464  1  0.330300  0.239000  0.968590  1.0  -0.1253
  C  C465  1  0.200370  0.063910  0.780670  1.0  0.7126
  C  C466  1  0.070570  0.201190  0.779350  1.0  0.6893
  C  C467  1  0.110350  0.169980  0.797900  1.0  -0.1486
  C  C468  1  0.122400  0.179950  0.831870  1.0  -0.0822
  C  C469  1  0.158920  0.151410  0.848780  1.0  0.0717
  C  C470  1  0.134220  0.132140  0.781620  1.0  0.0307
  C  C471  1  0.171090  0.104680  0.798700  1.0  -0.1518
  C  C472  1  0.183880  0.114160  0.832510  1.0  -0.0256
  C  C473  1  0.160400  0.197500  0.904130  1.0  -0.0513
  C  C474  1  0.176500  0.186040  0.936490  1.0  0.1592
  C  C475  1  0.177200  0.213500  0.968730  1.0  -0.0518
  C  C476  1  0.169700  0.261000  0.968590  1.0  -0.1257
  C  C477  1  0.200370  0.563910  0.280670  1.0  0.7126
  C  C478  1  0.070570  0.701190  0.279350  1.0  0.6893
  C  C479  1  0.110350  0.669980  0.297900  1.0  -0.1486
  C  C480  1  0.122400  0.679950  0.331870  1.0  -0.0822
  C  C481  1  0.158920  0.651410  0.348780  1.0  0.0717
  C  C482  1  0.134220  0.632140  0.281620  1.0  0.0307
  C  C483  1  0.171090  0.604680  0.298700  1.0  -0.1518
  C  C484  1  0.183880  0.614160  0.332510  1.0  -0.0256
  C  C485  1  0.160400  0.697500  0.404130  1.0  -0.0513
  C  C486  1  0.176500  0.686040  0.436490  1.0  0.1592
  C  C487  1  0.177200  0.713500  0.468730  1.0  -0.0518
  C  C488  1  0.169700  0.761000  0.468590  1.0  -0.1257
  C  C489  1  0.700370  0.063910  0.280670  1.0  0.7126
  C  C490  1  0.570570  0.201190  0.279350  1.0  0.6893
  C  C491  1  0.610350  0.169980  0.297900  1.0  -0.1486
  C  C492  1  0.622400  0.179950  0.331870  1.0  -0.0822
  C  C493  1  0.658920  0.151410  0.348780  1.0  0.0717
  C  C494  1  0.634220  0.132140  0.281620  1.0  0.0307
  C  C495  1  0.671090  0.104680  0.298700  1.0  -0.1518
  C  C496  1  0.683880  0.114160  0.332510  1.0  -0.0256
  C  C497  1  0.660400  0.197500  0.404130  1.0  -0.0513
  C  C498  1  0.676500  0.186040  0.436490  1.0  0.1592
  C  C499  1  0.677200  0.213500  0.468730  1.0  -0.0518
  C  C500  1  0.669700  0.261000  0.468590  1.0  -0.1257
  C  C501  1  0.700370  0.563910  0.780670  1.0  0.7126
  C  C502  1  0.570570  0.701190  0.779350  1.0  0.6893
  C  C503  1  0.610350  0.669980  0.797900  1.0  -0.1486
  C  C504  1  0.622400  0.679950  0.831870  1.0  -0.0822
  C  C505  1  0.658920  0.651410  0.848780  1.0  0.0717
  C  C506  1  0.634220  0.632140  0.781620  1.0  0.0307
  C  C507  1  0.671090  0.604680  0.798700  1.0  -0.1518
  C  C508  1  0.683880  0.614160  0.832510  1.0  -0.0256
  C  C509  1  0.660400  0.697500  0.904130  1.0  -0.0513
  C  C510  1  0.676500  0.686040  0.936490  1.0  0.1592
  C  C511  1  0.677200  0.713500  0.968730  1.0  -0.0518
  C  C512  1  0.669700  0.761000  0.968590  1.0  -0.1257
  C  C513  1  0.200370  0.936090  0.219330  1.0  0.7129
  C  C514  1  0.070570  0.798810  0.220650  1.0  0.6892
  C  C515  1  0.110350  0.830020  0.202100  1.0  -0.1482
  C  C516  1  0.122400  0.820050  0.168130  1.0  -0.0819
  C  C517  1  0.158920  0.848590  0.151220  1.0  0.0716
  C  C518  1  0.134220  0.867860  0.218380  1.0  0.0295
  C  C519  1  0.171090  0.895320  0.201300  1.0  -0.1518
  C  C520  1  0.183880  0.885840  0.167490  1.0  -0.0266
  C  C521  1  0.160400  0.802500  0.095870  1.0  -0.0509
  C  C522  1  0.176500  0.813960  0.063510  1.0  0.1578
  C  C523  1  0.177200  0.786500  0.031270  1.0  -0.051
  C  C524  1  0.169700  0.739000  0.031410  1.0  -0.125
  C  C525  1  0.200370  0.436090  0.719330  1.0  0.7129
  C  C526  1  0.070570  0.298810  0.720650  1.0  0.6892
  C  C527  1  0.110350  0.330020  0.702100  1.0  -0.1482
  C  C528  1  0.122400  0.320050  0.668130  1.0  -0.0819
  C  C529  1  0.158920  0.348590  0.651220  1.0  0.0716
  C  C530  1  0.134220  0.367860  0.718380  1.0  0.0295
  C  C531  1  0.171090  0.395320  0.701300  1.0  -0.1518
  C  C532  1  0.183880  0.385840  0.667490  1.0  -0.0266
  C  C533  1  0.160400  0.302500  0.595870  1.0  -0.0509
  C  C534  1  0.176500  0.313960  0.563510  1.0  0.1578
  C  C535  1  0.177200  0.286500  0.531270  1.0  -0.051
  C  C536  1  0.169700  0.239000  0.531410  1.0  -0.125
  C  C537  1  0.700370  0.936090  0.719330  1.0  0.7129
  C  C538  1  0.570570  0.798810  0.720650  1.0  0.6892
  C  C539  1  0.610350  0.830020  0.702100  1.0  -0.1482
  C  C540  1  0.622400  0.820050  0.668130  1.0  -0.0819
  C  C541  1  0.658920  0.848590  0.651220  1.0  0.0716
  C  C542  1  0.634220  0.867860  0.718380  1.0  0.0295
  C  C543  1  0.671090  0.895320  0.701300  1.0  -0.1518
  C  C544  1  0.683880  0.885840  0.667490  1.0  -0.0266
  C  C545  1  0.660400  0.802500  0.595870  1.0  -0.0509
  C  C546  1  0.676500  0.813960  0.563510  1.0  0.1578
  C  C547  1  0.677200  0.786500  0.531270  1.0  -0.051
  C  C548  1  0.669700  0.739000  0.531410  1.0  -0.125
  C  C549  1  0.700370  0.436090  0.219330  1.0  0.7129
  C  C550  1  0.570570  0.298810  0.220650  1.0  0.6892
  C  C551  1  0.610350  0.330020  0.202100  1.0  -0.1482
  C  C552  1  0.622400  0.320050  0.168130  1.0  -0.0819
  C  C553  1  0.658920  0.348590  0.151220  1.0  0.0716
  C  C554  1  0.634220  0.367860  0.218380  1.0  0.0295
  C  C555  1  0.671090  0.395320  0.201300  1.0  -0.1518
  C  C556  1  0.683880  0.385840  0.167490  1.0  -0.0266
  C  C557  1  0.660400  0.302500  0.095870  1.0  -0.0509
  C  C558  1  0.676500  0.313960  0.063510  1.0  0.1578
  C  C559  1  0.677200  0.286500  0.031270  1.0  -0.051
  C  C560  1  0.669700  0.239000  0.031410  1.0  -0.125
  C  C561  1  0.799630  0.063910  0.219330  1.0  0.7125
  C  C562  1  0.929430  0.201190  0.220650  1.0  0.6897
  C  C563  1  0.889650  0.169980  0.202100  1.0  -0.1482
  C  C564  1  0.877600  0.179950  0.168130  1.0  -0.0824
  C  C565  1  0.841080  0.151410  0.151220  1.0  0.0715
  C  C566  1  0.865780  0.132140  0.218380  1.0  0.0311
  C  C567  1  0.828910  0.104680  0.201300  1.0  -0.152
  C  C568  1  0.816120  0.114160  0.167490  1.0  -0.0274
  C  C569  1  0.839600  0.197500  0.095870  1.0  -0.0526
  C  C570  1  0.823500  0.186040  0.063510  1.0  0.1594
  C  C571  1  0.822800  0.213500  0.031270  1.0  -0.0529
  C  C572  1  0.830300  0.261000  0.031410  1.0  -0.1256
  C  C573  1  0.799630  0.563910  0.719330  1.0  0.7125
  C  C574  1  0.929430  0.701190  0.720650  1.0  0.6897
  C  C575  1  0.889650  0.669980  0.702100  1.0  -0.1482
  C  C576  1  0.877600  0.679950  0.668130  1.0  -0.0824
  C  C577  1  0.841080  0.651410  0.651220  1.0  0.0715
  C  C578  1  0.865780  0.632140  0.718380  1.0  0.0311
  C  C579  1  0.828910  0.604680  0.701300  1.0  -0.152
  C  C580  1  0.816120  0.614160  0.667490  1.0  -0.0274
  C  C581  1  0.839600  0.697500  0.595870  1.0  -0.0526
  C  C582  1  0.823500  0.686040  0.563510  1.0  0.1594
  C  C583  1  0.822800  0.713500  0.531270  1.0  -0.0529
  C  C584  1  0.830300  0.761000  0.531410  1.0  -0.1256
  C  C585  1  0.299630  0.063910  0.719330  1.0  0.7125
  C  C586  1  0.429430  0.201190  0.720650  1.0  0.6897
  C  C587  1  0.389650  0.169980  0.702100  1.0  -0.1482
  C  C588  1  0.377600  0.179950  0.668130  1.0  -0.0824
  C  C589  1  0.341080  0.151410  0.651220  1.0  0.0715
  C  C590  1  0.365780  0.132140  0.718380  1.0  0.0311
  C  C591  1  0.328910  0.104680  0.701300  1.0  -0.152
  C  C592  1  0.316120  0.114160  0.667490  1.0  -0.0274
  C  C593  1  0.339600  0.197500  0.595870  1.0  -0.0526
  C  C594  1  0.323500  0.186040  0.563510  1.0  0.1594
  C  C595  1  0.322800  0.213500  0.531270  1.0  -0.0529
  C  C596  1  0.330300  0.261000  0.531410  1.0  -0.1256
  C  C597  1  0.299630  0.563910  0.219330  1.0  0.7125
  C  C598  1  0.429430  0.701190  0.220650  1.0  0.6897
  C  C599  1  0.389650  0.669980  0.202100  1.0  -0.1482
  C  C600  1  0.377600  0.679950  0.168130  1.0  -0.0824
  C  C601  1  0.341080  0.651410  0.151220  1.0  0.0715
  C  C602  1  0.365780  0.632140  0.218380  1.0  0.0311
  C  C603  1  0.328910  0.604680  0.201300  1.0  -0.152
  C  C604  1  0.316120  0.614160  0.167490  1.0  -0.0274
  C  C605  1  0.339600  0.697500  0.095870  1.0  -0.0526
  C  C606  1  0.323500  0.686040  0.063510  1.0  0.1594
  C  C607  1  0.322800  0.713500  0.031270  1.0  -0.0529
  C  C608  1  0.330300  0.761000  0.031410  1.0  -0.1256
  C  C609  1  0.180600  0.187700  0.000000  1.0  -0.0402
  C  C610  1  0.165100  0.286200  0.000000  1.0  -0.1202
  C  C611  1  0.180600  0.687700  0.500000  1.0  -0.0402
  C  C612  1  0.165100  0.786200  0.500000  1.0  -0.1202
  C  C613  1  0.680600  0.187700  0.500000  1.0  -0.0402
  C  C614  1  0.665100  0.286200  0.500000  1.0  -0.1202
  C  C615  1  0.680600  0.687700  0.000000  1.0  -0.0402
  C  C616  1  0.665100  0.786200  0.000000  1.0  -0.1202
  C  C617  1  0.819400  0.812300  0.000000  1.0  -0.043
  C  C618  1  0.834900  0.713800  0.000000  1.0  -0.1207
  C  C619  1  0.819400  0.312300  0.500000  1.0  -0.043
  C  C620  1  0.834900  0.213800  0.500000  1.0  -0.1207
  C  C621  1  0.319400  0.812300  0.500000  1.0  -0.043
  C  C622  1  0.334900  0.713800  0.500000  1.0  -0.1207
  C  C623  1  0.319400  0.312300  0.000000  1.0  -0.043
  C  C624  1  0.334900  0.213800  0.000000  1.0  -0.1207
  C  C625  1  0.819400  0.187700  0.000000  1.0  -0.0398
  C  C626  1  0.834900  0.286200  0.000000  1.0  -0.1213
  C  C627  1  0.819400  0.687700  0.500000  1.0  -0.0398
  C  C628  1  0.834900  0.786200  0.500000  1.0  -0.1213
  C  C629  1  0.319400  0.187700  0.500000  1.0  -0.0398
  C  C630  1  0.334900  0.286200  0.500000  1.0  -0.1213
  C  C631  1  0.319400  0.687700  0.000000  1.0  -0.0398
  C  C632  1  0.334900  0.786200  0.000000  1.0  -0.1213
  C  C633  1  0.180600  0.812300  0.000000  1.0  -0.0416
  C  C634  1  0.165100  0.713800  0.000000  1.0  -0.1221
  C  C635  1  0.180600  0.312300  0.500000  1.0  -0.0416
  C  C636  1  0.165100  0.213800  0.500000  1.0  -0.1221
  C  C637  1  0.680600  0.812300  0.500000  1.0  -0.0416
  C  C638  1  0.665100  0.713800  0.500000  1.0  -0.1221
  C  C639  1  0.680600  0.312300  0.000000  1.0  -0.0416
  C  C640  1  0.665100  0.213800  0.000000  1.0  -0.1221
  N  N641  1  0.170960  0.160100  0.115520  1.0  0.153
  N  N642  1  0.195300  0.127640  0.096630  1.0  -0.2517
  N  N643  1  0.196600  0.143500  0.064640  1.0  -0.1798
  N  N644  1  0.170960  0.660100  0.615520  1.0  0.153
  N  N645  1  0.195300  0.627640  0.596630  1.0  -0.2517
  N  N646  1  0.196600  0.643500  0.564640  1.0  -0.1798
  N  N647  1  0.670960  0.160100  0.615520  1.0  0.153
  N  N648  1  0.695300  0.127640  0.596630  1.0  -0.2517
  N  N649  1  0.696600  0.143500  0.564640  1.0  -0.1798
  N  N650  1  0.670960  0.660100  0.115520  1.0  0.153
  N  N651  1  0.695300  0.627640  0.096630  1.0  -0.2517
  N  N652  1  0.696600  0.643500  0.064640  1.0  -0.1798
  N  N653  1  0.829040  0.839900  0.115520  1.0  0.1524
  N  N654  1  0.804700  0.872360  0.096630  1.0  -0.2534
  N  N655  1  0.803400  0.856500  0.064640  1.0  -0.1801
  N  N656  1  0.829040  0.339900  0.615520  1.0  0.1524
  N  N657  1  0.804700  0.372360  0.596630  1.0  -0.2534
  N  N658  1  0.803400  0.356500  0.564640  1.0  -0.1801
  N  N659  1  0.329040  0.839900  0.615520  1.0  0.1524
  N  N660  1  0.304700  0.872360  0.596630  1.0  -0.2534
  N  N661  1  0.303400  0.856500  0.564640  1.0  -0.1801
  N  N662  1  0.329040  0.339900  0.115520  1.0  0.1524
  N  N663  1  0.304700  0.372360  0.096630  1.0  -0.2534
  N  N664  1  0.303400  0.356500  0.064640  1.0  -0.1801
  N  N665  1  0.829040  0.160100  0.884480  1.0  0.1518
  N  N666  1  0.804700  0.127640  0.903370  1.0  -0.2519
  N  N667  1  0.803400  0.143500  0.935360  1.0  -0.1792
  N  N668  1  0.829040  0.660100  0.384480  1.0  0.1518
  N  N669  1  0.804700  0.627640  0.403370  1.0  -0.2519
  N  N670  1  0.803400  0.643500  0.435360  1.0  -0.1792
  N  N671  1  0.329040  0.160100  0.384480  1.0  0.1518
  N  N672  1  0.304700  0.127640  0.403370  1.0  -0.2519
  N  N673  1  0.303400  0.143500  0.435360  1.0  -0.1792
  N  N674  1  0.329040  0.660100  0.884480  1.0  0.1518
  N  N675  1  0.304700  0.627640  0.903370  1.0  -0.2519
  N  N676  1  0.303400  0.643500  0.935360  1.0  -0.1792
  N  N677  1  0.170960  0.839900  0.884480  1.0  0.1518
  N  N678  1  0.195300  0.872360  0.903370  1.0  -0.2534
  N  N679  1  0.196600  0.856500  0.935360  1.0  -0.1772
  N  N680  1  0.170960  0.339900  0.384480  1.0  0.1518
  N  N681  1  0.195300  0.372360  0.403370  1.0  -0.2534
  N  N682  1  0.196600  0.356500  0.435360  1.0  -0.1772
  N  N683  1  0.670960  0.839900  0.384480  1.0  0.1518
  N  N684  1  0.695300  0.872360  0.403370  1.0  -0.2534
  N  N685  1  0.696600  0.856500  0.435360  1.0  -0.1772
  N  N686  1  0.670960  0.339900  0.884480  1.0  0.1518
  N  N687  1  0.695300  0.372360  0.903370  1.0  -0.2534
  N  N688  1  0.696600  0.356500  0.935360  1.0  -0.1772
  N  N689  1  0.829040  0.839900  0.884480  1.0  0.1516
  N  N690  1  0.804700  0.872360  0.903370  1.0  -0.2542
  N  N691  1  0.803400  0.856500  0.935360  1.0  -0.1773
  N  N692  1  0.829040  0.339900  0.384480  1.0  0.1516
  N  N693  1  0.804700  0.372360  0.403370  1.0  -0.2542
  N  N694  1  0.803400  0.356500  0.435360  1.0  -0.1773
  N  N695  1  0.329040  0.839900  0.384480  1.0  0.1516
  N  N696  1  0.304700  0.872360  0.403370  1.0  -0.2542
  N  N697  1  0.303400  0.856500  0.435360  1.0  -0.1773
  N  N698  1  0.329040  0.339900  0.884480  1.0  0.1516
  N  N699  1  0.304700  0.372360  0.903370  1.0  -0.2542
  N  N700  1  0.303400  0.356500  0.935360  1.0  -0.1773
  N  N701  1  0.170960  0.160100  0.884480  1.0  0.1521
  N  N702  1  0.195300  0.127640  0.903370  1.0  -0.2511
  N  N703  1  0.196600  0.143500  0.935360  1.0  -0.1784
  N  N704  1  0.170960  0.660100  0.384480  1.0  0.1521
  N  N705  1  0.195300  0.627640  0.403370  1.0  -0.2511
  N  N706  1  0.196600  0.643500  0.435360  1.0  -0.1784
  N  N707  1  0.670960  0.160100  0.384480  1.0  0.1521
  N  N708  1  0.695300  0.127640  0.403370  1.0  -0.2511
  N  N709  1  0.696600  0.143500  0.435360  1.0  -0.1784
  N  N710  1  0.670960  0.660100  0.884480  1.0  0.1521
  N  N711  1  0.695300  0.627640  0.903370  1.0  -0.2511
  N  N712  1  0.696600  0.643500  0.935360  1.0  -0.1784
  N  N713  1  0.170960  0.839900  0.115520  1.0  0.1527
  N  N714  1  0.195300  0.872360  0.096630  1.0  -0.2528
  N  N715  1  0.196600  0.856500  0.064640  1.0  -0.1799
  N  N716  1  0.170960  0.339900  0.615520  1.0  0.1527
  N  N717  1  0.195300  0.372360  0.596630  1.0  -0.2528
  N  N718  1  0.196600  0.356500  0.564640  1.0  -0.1799
  N  N719  1  0.670960  0.839900  0.615520  1.0  0.1527
  N  N720  1  0.695300  0.872360  0.596630  1.0  -0.2528
  N  N721  1  0.696600  0.856500  0.564640  1.0  -0.1799
  N  N722  1  0.670960  0.339900  0.115520  1.0  0.1527
  N  N723  1  0.695300  0.372360  0.096630  1.0  -0.2528
  N  N724  1  0.696600  0.356500  0.064640  1.0  -0.1799
  N  N725  1  0.829040  0.160100  0.115520  1.0  0.1526
  N  N726  1  0.804700  0.127640  0.096630  1.0  -0.2525
  N  N727  1  0.803400  0.143500  0.064640  1.0  -0.1808
  N  N728  1  0.829040  0.660100  0.615520  1.0  0.1526
  N  N729  1  0.804700  0.627640  0.596630  1.0  -0.2525
  N  N730  1  0.803400  0.643500  0.564640  1.0  -0.1808
  N  N731  1  0.329040  0.160100  0.615520  1.0  0.1526
  N  N732  1  0.304700  0.127640  0.596630  1.0  -0.2525
  N  N733  1  0.303400  0.143500  0.564640  1.0  -0.1808
  N  N734  1  0.329040  0.660100  0.115520  1.0  0.1526
  N  N735  1  0.304700  0.627640  0.096630  1.0  -0.2525
  N  N736  1  0.303400  0.643500  0.064640  1.0  -0.1808
  O  O737  1  0.240530  0.048880  0.205140  1.0  -0.5708
  O  O738  1  0.054620  0.237200  0.205260  1.0  -0.5661
  O  O739  1  0.179160  0.049700  0.246810  1.0  -0.5782
  O  O740  1  0.055190  0.186700  0.249370  1.0  -0.5667
  O  O741  1  0.240530  0.548880  0.705140  1.0  -0.5708
  O  O742  1  0.054620  0.737200  0.705260  1.0  -0.5661
  O  O743  1  0.179160  0.549700  0.746810  1.0  -0.5782
  O  O744  1  0.055190  0.686700  0.749370  1.0  -0.5667
  O  O745  1  0.740530  0.048880  0.705140  1.0  -0.5708
  O  O746  1  0.554620  0.237200  0.705260  1.0  -0.5661
  O  O747  1  0.679160  0.049700  0.746810  1.0  -0.5782
  O  O748  1  0.555190  0.186700  0.749370  1.0  -0.5667
  O  O749  1  0.740530  0.548880  0.205140  1.0  -0.5708
  O  O750  1  0.554620  0.737200  0.205260  1.0  -0.5661
  O  O751  1  0.679160  0.549700  0.246810  1.0  -0.5782
  O  O752  1  0.555190  0.686700  0.249370  1.0  -0.5667
  O  O753  1  0.759470  0.951120  0.205140  1.0  -0.5697
  O  O754  1  0.945380  0.762800  0.205260  1.0  -0.5671
  O  O755  1  0.820840  0.950300  0.246810  1.0  -0.5774
  O  O756  1  0.944810  0.813300  0.249370  1.0  -0.5682
  O  O757  1  0.759470  0.451120  0.705140  1.0  -0.5697
  O  O758  1  0.945380  0.262800  0.705260  1.0  -0.5671
  O  O759  1  0.820840  0.450300  0.746810  1.0  -0.5774
  O  O760  1  0.944810  0.313300  0.749370  1.0  -0.5682
  O  O761  1  0.259470  0.951120  0.705140  1.0  -0.5697
  O  O762  1  0.445380  0.762800  0.705260  1.0  -0.5671
  O  O763  1  0.320840  0.950300  0.746810  1.0  -0.5774
  O  O764  1  0.444810  0.813300  0.749370  1.0  -0.5682
  O  O765  1  0.259470  0.451120  0.205140  1.0  -0.5697
  O  O766  1  0.445380  0.262800  0.205260  1.0  -0.5671
  O  O767  1  0.320840  0.450300  0.246810  1.0  -0.5774
  O  O768  1  0.444810  0.313300  0.249370  1.0  -0.5682
  O  O769  1  0.759470  0.048880  0.794860  1.0  -0.5694
  O  O770  1  0.945380  0.237200  0.794740  1.0  -0.5669
  O  O771  1  0.820840  0.049700  0.753190  1.0  -0.5777
  O  O772  1  0.944810  0.186700  0.750630  1.0  -0.5676
  O  O773  1  0.759470  0.548880  0.294860  1.0  -0.5694
  O  O774  1  0.945380  0.737200  0.294740  1.0  -0.5669
  O  O775  1  0.820840  0.549700  0.253190  1.0  -0.5777
  O  O776  1  0.944810  0.686700  0.250630  1.0  -0.5676
  O  O777  1  0.259470  0.048880  0.294860  1.0  -0.5694
  O  O778  1  0.445380  0.237200  0.294740  1.0  -0.5669
  O  O779  1  0.320840  0.049700  0.253190  1.0  -0.5777
  O  O780  1  0.444810  0.186700  0.250630  1.0  -0.5676
  O  O781  1  0.259470  0.548880  0.794860  1.0  -0.5694
  O  O782  1  0.445380  0.737200  0.794740  1.0  -0.5669
  O  O783  1  0.320840  0.549700  0.753190  1.0  -0.5777
  O  O784  1  0.444810  0.686700  0.750630  1.0  -0.5676
  O  O785  1  0.240530  0.951120  0.794860  1.0  -0.5703
  O  O786  1  0.054620  0.762800  0.794740  1.0  -0.5666
  O  O787  1  0.179160  0.950300  0.753190  1.0  -0.5779
  O  O788  1  0.055190  0.813300  0.750630  1.0  -0.5669
  O  O789  1  0.240530  0.451120  0.294860  1.0  -0.5703
  O  O790  1  0.054620  0.262800  0.294740  1.0  -0.5666
  O  O791  1  0.179160  0.450300  0.253190  1.0  -0.5779
  O  O792  1  0.055190  0.313300  0.250630  1.0  -0.5669
  O  O793  1  0.740530  0.951120  0.294860  1.0  -0.5703
  O  O794  1  0.554620  0.762800  0.294740  1.0  -0.5666
  O  O795  1  0.679160  0.950300  0.253190  1.0  -0.5779
  O  O796  1  0.555190  0.813300  0.250630  1.0  -0.5669
  O  O797  1  0.740530  0.451120  0.794860  1.0  -0.5703
  O  O798  1  0.554620  0.262800  0.794740  1.0  -0.5666
  O  O799  1  0.679160  0.450300  0.753190  1.0  -0.5779
  O  O800  1  0.555190  0.313300  0.750630  1.0  -0.5669
  O  O801  1  0.759470  0.951120  0.794860  1.0  -0.5696
  O  O802  1  0.945380  0.762800  0.794740  1.0  -0.5669
  O  O803  1  0.820840  0.950300  0.753190  1.0  -0.5776
  O  O804  1  0.944810  0.813300  0.750630  1.0  -0.5679
  O  O805  1  0.759470  0.451120  0.294860  1.0  -0.5696
  O  O806  1  0.945380  0.262800  0.294740  1.0  -0.5669
  O  O807  1  0.820840  0.450300  0.253190  1.0  -0.5776
  O  O808  1  0.944810  0.313300  0.250630  1.0  -0.5679
  O  O809  1  0.259470  0.951120  0.294860  1.0  -0.5696
  O  O810  1  0.445380  0.762800  0.294740  1.0  -0.5669
  O  O811  1  0.320840  0.950300  0.253190  1.0  -0.5776
  O  O812  1  0.444810  0.813300  0.250630  1.0  -0.5679
  O  O813  1  0.259470  0.451120  0.794860  1.0  -0.5696
  O  O814  1  0.445380  0.262800  0.794740  1.0  -0.5669
  O  O815  1  0.320840  0.450300  0.753190  1.0  -0.5776
  O  O816  1  0.444810  0.313300  0.750630  1.0  -0.5679
  O  O817  1  0.240530  0.048880  0.794860  1.0  -0.57
  O  O818  1  0.054620  0.237200  0.794740  1.0  -0.5664
  O  O819  1  0.179160  0.049700  0.753190  1.0  -0.5788
  O  O820  1  0.055190  0.186700  0.750630  1.0  -0.5671
  O  O821  1  0.240530  0.548880  0.294860  1.0  -0.57
  O  O822  1  0.054620  0.737200  0.294740  1.0  -0.5664
  O  O823  1  0.179160  0.549700  0.253190  1.0  -0.5788
  O  O824  1  0.055190  0.686700  0.250630  1.0  -0.5671
  O  O825  1  0.740530  0.048880  0.294860  1.0  -0.57
  O  O826  1  0.554620  0.237200  0.294740  1.0  -0.5664
  O  O827  1  0.679160  0.049700  0.253190  1.0  -0.5788
  O  O828  1  0.555190  0.186700  0.250630  1.0  -0.5671
  O  O829  1  0.740530  0.548880  0.794860  1.0  -0.57
  O  O830  1  0.554620  0.737200  0.794740  1.0  -0.5664
  O  O831  1  0.679160  0.549700  0.753190  1.0  -0.5788
  O  O832  1  0.555190  0.686700  0.750630  1.0  -0.5671
  O  O833  1  0.240530  0.951120  0.205140  1.0  -0.5707
  O  O834  1  0.054620  0.762800  0.205260  1.0  -0.5668
  O  O835  1  0.179160  0.950300  0.246810  1.0  -0.5789
  O  O836  1  0.055190  0.813300  0.249370  1.0  -0.5673
  O  O837  1  0.240530  0.451120  0.705140  1.0  -0.5707
  O  O838  1  0.054620  0.262800  0.705260  1.0  -0.5668
  O  O839  1  0.179160  0.450300  0.746810  1.0  -0.5789
  O  O840  1  0.055190  0.313300  0.749370  1.0  -0.5673
  O  O841  1  0.740530  0.951120  0.705140  1.0  -0.5707
  O  O842  1  0.554620  0.762800  0.705260  1.0  -0.5668
  O  O843  1  0.679160  0.950300  0.746810  1.0  -0.5789
  O  O844  1  0.555190  0.813300  0.749370  1.0  -0.5673
  O  O845  1  0.740530  0.451120  0.205140  1.0  -0.5707
  O  O846  1  0.554620  0.262800  0.205260  1.0  -0.5668
  O  O847  1  0.679160  0.450300  0.246810  1.0  -0.5789
  O  O848  1  0.555190  0.313300  0.249370  1.0  -0.5673
  O  O849  1  0.759470  0.048880  0.205140  1.0  -0.5698
  O  O850  1  0.945380  0.237200  0.205260  1.0  -0.5666
  O  O851  1  0.820840  0.049700  0.246810  1.0  -0.578
  O  O852  1  0.944810  0.186700  0.249370  1.0  -0.5676
  O  O853  1  0.759470  0.548880  0.705140  1.0  -0.5698
  O  O854  1  0.945380  0.737200  0.705260  1.0  -0.5666
  O  O855  1  0.820840  0.549700  0.746810  1.0  -0.578
  O  O856  1  0.944810  0.686700  0.749370  1.0  -0.5676
  O  O857  1  0.259470  0.048880  0.705140  1.0  -0.5698
  O  O858  1  0.445380  0.237200  0.705260  1.0  -0.5666
  O  O859  1  0.320840  0.049700  0.746810  1.0  -0.578
  O  O860  1  0.444810  0.186700  0.749370  1.0  -0.5676
  O  O861  1  0.259470  0.548880  0.205140  1.0  -0.5698
  O  O862  1  0.445380  0.737200  0.205260  1.0  -0.5666
  O  O863  1  0.320840  0.549700  0.246810  1.0  -0.578
  O  O864  1  0.444810  0.686700  0.249370  1.0  -0.5676
