# generated using pymatgen
data_Cu3H88(C5N3)11
_symmetry_space_group_name_H-M   'P 1'
_cell_length_a   15.86670000
_cell_length_b   15.86670000
_cell_length_c   54.08170000
_cell_angle_alpha   87.37690000
_cell_angle_beta   84.13390000
_cell_angle_gamma   119.71200000
_symmetry_Int_Tables_number   1
_chemical_formula_structural   Cu3H88(C5N3)11
_chemical_formula_sum   'Cu12 H352 C220 N132'
_cell_volume   11689.75731730
_cell_formula_units_Z   4
loop_
 _symmetry_equiv_pos_site_id
 _symmetry_equiv_pos_as_xyz
  1  'x, y, z'
loop_
 _atom_site_type_symbol
 _atom_site_label
 _atom_site_symmetry_multiplicity
 _atom_site_fract_x
 _atom_site_fract_y
 _atom_site_fract_z
 _atom_site_occupancy
 _atom_site_charge
  Cu  Cu1  1  0.915340  0.683460  0.576960  1.0  0.5231
  Cu  Cu2  1  0.139580  0.265850  0.757290  1.0  0.4059
  Cu  Cu3  1  0.427000  0.188320  0.573260  1.0  0.5841
  Cu  Cu4  1  0.760420  0.492300  0.923040  1.0  0.5235
  Cu  Cu5  1  0.523140  0.896870  0.742710  1.0  0.4049
  Cu  Cu6  1  0.261580  0.000260  0.926740  1.0  0.5823
  Cu  Cu7  1  0.084660  0.316540  0.423040  1.0  0.5232
  Cu  Cu8  1  0.860420  0.734150  0.242710  1.0  0.4054
  Cu  Cu9  1  0.573000  0.811680  0.426740  1.0  0.5816
  Cu  Cu10  1  0.239580  0.507700  0.076960  1.0  0.523
  Cu  Cu11  1  0.476860  0.103130  0.257290  1.0  0.4052
  Cu  Cu12  1  0.738420  0.999740  0.073260  1.0  0.5831
  H  H13  1  0.794000  0.636500  0.530300  1.0  0.09
  H  H14  1  0.016900  0.878900  0.541600  1.0  0.0518
  H  H15  1  0.771400  0.706700  0.485100  1.0  0.0731
  H  H16  1  0.853300  0.818100  0.475800  1.0  0.0604
  H  H17  1  0.966000  0.751200  0.469800  1.0  0.0618
  H  H18  1  0.867300  0.649300  0.469600  1.0  0.0738
  H  H19  1  0.832800  0.735500  0.435300  1.0  0.0535
  H  H20  1  0.914100  0.705800  0.427700  1.0  0.0686
  H  H21  1  0.039000  0.869200  0.433400  1.0  0.0473
  H  H22  1  0.955300  0.897300  0.438200  1.0  0.052
  H  H23  1  0.920500  0.872300  0.397400  1.0  0.0558
  H  H24  1  0.994500  0.832100  0.392400  1.0  0.0634
  H  H25  1  0.079200  0.983900  0.373300  1.0  0.094
  H  H26  1  0.123500  0.992400  0.398900  1.0  0.0761
  H  H27  1  0.933500  0.162300  0.391000  1.0  0.074
  H  H28  1  0.140100  0.144700  0.419000  1.0  0.0748
  H  H29  1  0.809800  0.456200  0.577000  1.0  0.0953
  H  H30  1  0.047700  0.646500  0.532600  1.0  0.0916
  H  H31  1  0.750900  0.317800  0.556100  1.0  0.0449
  H  H32  1  0.773700  0.345900  0.526200  1.0  0.113
  H  H33  1  0.870500  0.276600  0.555100  1.0  0.0652
  H  H34  1  0.906500  0.316900  0.525600  1.0  0.0725
  H  H35  1  0.708300  0.164300  0.547000  1.0  0.0488
  H  H36  1  0.734900  0.211300  0.518200  1.0  0.0744
  H  H37  1  0.793800  0.091400  0.541200  1.0  0.058
  H  H38  1  0.871000  0.173200  0.519600  1.0  0.0679
  H  H39  1  0.680400  0.023100  0.511900  1.0  0.0618
  H  H40  1  0.760500  0.103100  0.490400  1.0  0.0675
  H  H41  1  0.763900  0.944200  0.514100  1.0  0.0949
  H  H42  1  0.860800  0.033100  0.498300  1.0  0.0659
  H  H43  1  0.613600  0.892700  0.479300  1.0  0.0852
  H  H44  1  0.804400  0.905000  0.426200  1.0  0.0784
  H  H45  1  0.954400  0.519400  0.607800  1.0  0.0618
  H  H46  1  0.841000  0.676400  0.633200  1.0  0.0842
  H  H47  1  0.846200  0.524000  0.686200  1.0  0.0669
  H  H48  1  0.749500  0.519100  0.678400  1.0  0.0699
  H  H49  1  0.814400  0.637100  0.704500  1.0  0.0785
  H  H50  1  0.820700  0.686300  0.677600  1.0  0.0748
  H  H51  1  0.995200  0.747100  0.671100  1.0  0.0565
  H  H52  1  0.961300  0.791400  0.693500  1.0  0.0521
  H  H53  1  0.998800  0.632000  0.699800  1.0  0.0674
  H  H54  1  0.955300  0.666500  0.722600  1.0  0.0554
  H  H55  1  0.154900  0.783300  0.694800  1.0  0.0608
  H  H56  1  0.111200  0.831000  0.714200  1.0  0.0686
  H  H57  1  0.083800  0.707600  0.746400  1.0  0.072
  H  H58  1  0.135400  0.667800  0.727000  1.0  0.0775
  H  H59  1  0.311300  0.731900  0.732000  1.0  0.0985
  H  H60  1  0.380600  0.985900  0.756700  1.0  0.0848
  H  H61  1  0.908800  0.199000  0.763600  1.0  0.0657
  H  H62  1  0.092500  0.291900  0.701200  1.0  0.1157
  H  H63  1  0.968600  0.316200  0.673400  1.0  0.0681
  H  H64  1  0.864000  0.285100  0.688500  1.0  0.0931
  H  H65  1  0.832800  0.117300  0.686700  1.0  0.085
  H  H66  1  0.923000  0.165400  0.664800  1.0  0.0652
  H  H67  1  0.775000  0.093600  0.647200  1.0  0.0457
  H  H68  1  0.739400  0.159300  0.661700  1.0  0.0679
  H  H69  1  0.904000  0.228600  0.624000  1.0  0.0496
  H  H70  1  0.886900  0.300800  0.640900  1.0  0.0539
  H  H71  1  0.818800  0.294100  0.603700  1.0  0.0552
  H  H72  1  0.753600  0.177400  0.609000  1.0  0.0446
  H  H73  1  0.656400  0.185300  0.642300  1.0  0.0309
  H  H74  1  0.730800  0.300000  0.642800  1.0  0.0639
  H  H75  1  0.618400  0.392400  0.577400  1.0  0.0577
  H  H76  1  0.533400  0.140100  0.613100  1.0  0.0799
  H  H77  1  0.251400  0.968300  0.596700  1.0  0.0761
  H  H78  1  0.376800  0.205500  0.629900  1.0  0.0936
  H  H79  1  0.294300  0.139100  0.674200  1.0  0.069
  H  H80  1  0.297900  0.040000  0.678700  1.0  0.0967
  H  H81  1  0.120300  0.949400  0.674300  1.0  0.0563
  H  H82  1  0.142500  0.002800  0.699300  1.0  0.0621
  H  H83  1  0.161400  0.146000  0.669400  1.0  0.0485
  H  H84  1  0.085100  0.057200  0.655900  1.0  0.0585
  H  H85  1  0.016800  0.118700  0.689300  1.0  0.051
  H  H86  1  0.043500  0.057600  0.708300  1.0  0.054
  H  H87  1  0.898300  0.990700  0.677600  1.0  0.0694
  H  H88  1  0.955800  0.933200  0.677000  1.0  0.0541
  H  H89  1  0.882900  0.864400  0.717300  1.0  0.0815
  H  H90  1  0.811200  0.835400  0.696600  1.0  0.0675
  H  H91  1  0.052700  0.367900  0.792200  1.0  0.0933
  H  H92  1  0.276400  0.500300  0.738700  1.0  0.0753
  H  H93  1  0.200600  0.205700  0.808100  1.0  0.0628
  H  H94  1  0.374100  0.393000  0.749700  1.0  0.0882
  H  H95  1  0.540300  0.456400  0.790900  1.0  0.0879
  H  H96  1  0.537700  0.454000  0.761300  1.0  0.0854
  H  H97  1  0.623700  0.376900  0.770200  1.0  0.0674
  H  H98  1  0.550900  0.318300  0.795200  1.0  0.0877
  H  H99  1  0.436200  0.209700  0.771700  1.0  0.0867
  H  H100  1  0.537600  0.210100  0.767700  1.0  0.0598
  H  H101  1  0.666800  0.324300  0.969700  1.0  0.0898
  H  H102  1  0.920500  0.558500  0.958400  1.0  0.0537
  H  H103  1  0.691800  0.256500  0.014900  1.0  0.0704
  H  H104  1  0.793900  0.329100  0.024200  1.0  0.0584
  H  H105  1  0.721000  0.435800  0.030200  1.0  0.061
  H  H106  1  0.618900  0.336900  0.030400  1.0  0.0752
  H  H107  1  0.670800  0.268100  0.064700  1.0  0.055
  H  H108  1  0.633500  0.341800  0.072300  1.0  0.0648
  H  H109  1  0.802600  0.472400  0.066600  1.0  0.0486
  H  H110  1  0.835500  0.393500  0.061800  1.0  0.0457
  H  H111  1  0.769700  0.317900  0.102600  1.0  0.0594
  H  H112  1  0.724500  0.386900  0.107600  1.0  0.0606
  H  H113  1  0.857200  0.452500  0.126700  1.0  0.0914
  H  H114  1  0.891300  0.522400  0.101100  1.0  0.0759
  H  H115  1  0.053300  0.324500  0.109000  1.0  0.075
  H  H116  1  0.063700  0.559100  0.081000  1.0  0.0774
  H  H117  1  0.533200  0.386800  0.923000  1.0  0.0968
  H  H118  1  0.679100  0.580300  0.967400  1.0  0.0922
  H  H119  1  0.373900  0.307000  0.943900  1.0  0.0448
  H  H120  1  0.372100  0.299900  0.973800  1.0  0.1083
  H  H121  1  0.331700  0.425600  0.944900  1.0  0.0639
  H  H122  1  0.342500  0.432100  0.974400  1.0  0.0713
  H  H123  1  0.211300  0.255300  0.953000  1.0  0.0473
  H  H124  1  0.229500  0.253100  0.981800  1.0  0.0726
  H  H125  1  0.132600  0.335000  0.958800  1.0  0.057
  H  H126  1  0.192800  0.390600  0.980400  1.0  0.0662
  H  H127  1  0.035000  0.192300  0.988100  1.0  0.0594
  H  H128  1  0.093500  0.250900  0.009600  1.0  0.0663
  H  H129  1  0.958300  0.278000  0.985900  1.0  0.093
  H  H130  1  0.031400  0.359100  0.001700  1.0  0.0694
  H  H131  1  0.872000  0.092900  0.020700  1.0  0.0855
  H  H132  1  0.831200  0.230600  0.073800  1.0  0.0781
  H  H133  1  0.627200  0.562200  0.892200  1.0  0.0651
  H  H134  1  0.809600  0.474200  0.866800  1.0  0.0829
  H  H135  1  0.710200  0.532400  0.813800  1.0  0.0633
  H  H136  1  0.697500  0.427900  0.821600  1.0  0.065
  H  H137  1  0.841600  0.518900  0.795500  1.0  0.0763
  H  H138  1  0.863900  0.498300  0.822400  1.0  0.0722
  H  H139  1  0.918200  0.666300  0.828900  1.0  0.0573
  H  H140  1  0.984900  0.654800  0.806500  1.0  0.0527
  H  H141  1  0.831800  0.698600  0.800200  1.0  0.0706
  H  H142  1  0.889100  0.677900  0.777400  1.0  0.0572
  H  H143  1  0.978100  0.849700  0.805200  1.0  0.0631
  H  H144  1  0.045200  0.825400  0.785800  1.0  0.0695
  H  H145  1  0.954000  0.830200  0.753600  1.0  0.0718
  H  H146  1  0.894800  0.862400  0.773000  1.0  0.0745
  H  H147  1  0.963900  0.043300  0.768000  1.0  0.1007
  H  H148  1  0.242600  0.137300  0.743300  1.0  0.0847
  H  H149  1  0.462600  0.672400  0.736400  1.0  0.0648
  H  H150  1  0.493100  0.793700  0.798800  1.0  0.1124
  H  H151  1  0.489600  0.642000  0.826600  1.0  0.0673
  H  H152  1  0.473600  0.552500  0.811500  1.0  0.0904
  H  H153  1  0.304000  0.519500  0.813300  1.0  0.0832
  H  H154  1  0.330200  0.587800  0.835200  1.0  0.0669
  H  H155  1  0.240800  0.422200  0.852800  1.0  0.0414
  H  H156  1  0.321000  0.401100  0.838300  1.0  0.0683
  H  H157  1  0.352600  0.528000  0.876000  1.0  0.0514
  H  H158  1  0.441700  0.527800  0.859100  1.0  0.0534
  H  H159  1  0.397800  0.422500  0.896300  1.0  0.0516
  H  H160  1  0.286400  0.362600  0.891000  1.0  0.043
  H  H161  1  0.327600  0.298700  0.857700  1.0  0.03
  H  H162  1  0.442800  0.373600  0.857200  1.0  0.063
  H  H163  1  0.469800  0.195800  0.922600  1.0  0.0566
  H  H164  1  0.253200  0.146500  0.886900  1.0  0.0781
  H  H165  1  0.065000  0.848100  0.903300  1.0  0.0752
  H  H166  1  0.335400  0.006700  0.870100  1.0  0.0942
  H  H167  1  0.313300  0.968500  0.825800  1.0  0.0706
  H  H168  1  0.218700  0.976600  0.821300  1.0  0.0963
  H  H169  1  0.123700  0.794600  0.825700  1.0  0.0546
  H  H170  1  0.202100  0.841800  0.800700  1.0  0.0598
  H  H171  1  0.315400  0.830800  0.830600  1.0  0.0434
  H  H172  1  0.213100  0.741000  0.844100  1.0  0.0585
  H  H173  1  0.308000  0.706100  0.810700  1.0  0.0497
  H  H174  1  0.265900  0.751800  0.791700  1.0  0.0542
  H  H175  1  0.168300  0.575900  0.822400  1.0  0.0629
  H  H176  1  0.110200  0.632800  0.823000  1.0  0.0534
  H  H177  1  0.081700  0.600200  0.782700  1.0  0.0792
  H  H178  1  0.032000  0.507800  0.803400  1.0  0.0693
  H  H179  1  0.660100  0.844900  0.707800  1.0  0.0931
  H  H180  1  0.739000  0.015100  0.761300  1.0  0.0737
  H  H181  1  0.513800  0.008700  0.691900  1.0  0.0628
  H  H182  1  0.642700  0.123800  0.750300  1.0  0.0882
  H  H183  1  0.747300  0.331200  0.709100  1.0  0.0859
  H  H184  1  0.715300  0.299000  0.738700  1.0  0.085
  H  H185  1  0.647100  0.393900  0.729800  1.0  0.0661
  H  H186  1  0.613500  0.346100  0.704800  1.0  0.0892
  H  H187  1  0.481400  0.207900  0.728300  1.0  0.0854
  H  H188  1  0.477800  0.305300  0.732300  1.0  0.0592
  H  H189  1  0.206000  0.363500  0.469700  1.0  0.0898
  H  H190  1  0.983100  0.121100  0.458400  1.0  0.0534
  H  H191  1  0.228600  0.293300  0.514900  1.0  0.0755
  H  H192  1  0.146700  0.181900  0.524200  1.0  0.0601
  H  H193  1  0.034000  0.248800  0.530200  1.0  0.0622
  H  H194  1  0.132700  0.350700  0.530400  1.0  0.0765
  H  H195  1  0.167200  0.264500  0.564700  1.0  0.0524
  H  H196  1  0.085900  0.294200  0.572300  1.0  0.0688
  H  H197  1  0.961000  0.130800  0.566600  1.0  0.0474
  H  H198  1  0.044700  0.102700  0.561800  1.0  0.0524
  H  H199  1  0.079500  0.127700  0.602600  1.0  0.0549
  H  H200  1  0.005500  0.167900  0.607600  1.0  0.0636
  H  H201  1  0.920800  0.016100  0.626700  1.0  0.0938
  H  H202  1  0.876500  0.007600  0.601100  1.0  0.0753
  H  H203  1  0.066500  0.837700  0.609000  1.0  0.0736
  H  H204  1  0.859900  0.855300  0.581000  1.0  0.0763
  H  H205  1  0.190200  0.543800  0.423000  1.0  0.0952
  H  H206  1  0.952300  0.353500  0.467400  1.0  0.0921
  H  H207  1  0.249100  0.682200  0.443900  1.0  0.0444
  H  H208  1  0.226300  0.654100  0.473800  1.0  0.1124
  H  H209  1  0.129500  0.723400  0.444900  1.0  0.0646
  H  H210  1  0.093500  0.683100  0.474400  1.0  0.073
  H  H211  1  0.291700  0.835700  0.453000  1.0  0.0478
  H  H212  1  0.265100  0.788700  0.481800  1.0  0.0739
  H  H213  1  0.206200  0.908600  0.458800  1.0  0.0583
  H  H214  1  0.129000  0.826800  0.480400  1.0  0.0649
  H  H215  1  0.319600  0.976900  0.488100  1.0  0.0631
  H  H216  1  0.239500  0.896900  0.509600  1.0  0.0657
  H  H217  1  0.236100  0.055800  0.485900  1.0  0.0948
  H  H218  1  0.139200  0.966900  0.501700  1.0  0.0652
  H  H219  1  0.386400  0.107300  0.520700  1.0  0.0846
  H  H220  1  0.195600  0.095000  0.573800  1.0  0.0783
  H  H221  1  0.045600  0.480600  0.392200  1.0  0.0611
  H  H222  1  0.159000  0.323600  0.366800  1.0  0.083
  H  H223  1  0.153800  0.476000  0.313800  1.0  0.0671
  H  H224  1  0.250500  0.480900  0.321600  1.0  0.0696
  H  H225  1  0.185600  0.362900  0.295500  1.0  0.0789
  H  H226  1  0.179300  0.313700  0.322400  1.0  0.0729
  H  H227  1  0.004800  0.252900  0.328900  1.0  0.0561
  H  H228  1  0.038700  0.208600  0.306500  1.0  0.0517
  H  H229  1  0.001200  0.368000  0.300200  1.0  0.0673
  H  H230  1  0.044700  0.333500  0.277400  1.0  0.0534
  H  H231  1  0.845100  0.216700  0.305200  1.0  0.0622
  H  H232  1  0.888800  0.169000  0.285800  1.0  0.0678
  H  H233  1  0.916200  0.292400  0.253600  1.0  0.0726
  H  H234  1  0.864600  0.332200  0.273000  1.0  0.0771
  H  H235  1  0.688700  0.268100  0.268000  1.0  0.0983
  H  H236  1  0.619400  0.014100  0.243300  1.0  0.0858
  H  H237  1  0.091200  0.801000  0.236400  1.0  0.0654
  H  H238  1  0.907500  0.708100  0.298800  1.0  0.1145
  H  H239  1  0.031400  0.683800  0.326600  1.0  0.0686
  H  H240  1  0.136000  0.714900  0.311500  1.0  0.0931
  H  H241  1  0.167200  0.882700  0.313300  1.0  0.0824
  H  H242  1  0.077000  0.834600  0.335200  1.0  0.0641
  H  H243  1  0.225000  0.906400  0.352800  1.0  0.0449
  H  H244  1  0.260600  0.840700  0.338300  1.0  0.0689
  H  H245  1  0.096000  0.771400  0.376000  1.0  0.0503
  H  H246  1  0.113100  0.699200  0.359100  1.0  0.0535
  H  H247  1  0.181200  0.705900  0.396300  1.0  0.055
  H  H248  1  0.246400  0.822600  0.391000  1.0  0.045
  H  H249  1  0.343600  0.814700  0.357700  1.0  0.0309
  H  H250  1  0.269200  0.700000  0.357200  1.0  0.0645
  H  H251  1  0.381600  0.607600  0.422600  1.0  0.0567
  H  H252  1  0.466600  0.859900  0.386900  1.0  0.0782
  H  H253  1  0.748600  0.031700  0.403300  1.0  0.0772
  H  H254  1  0.623200  0.794500  0.370100  1.0  0.0934
  H  H255  1  0.705700  0.860900  0.325800  1.0  0.0687
  H  H256  1  0.702100  0.960000  0.321300  1.0  0.0963
  H  H257  1  0.879700  0.050600  0.325700  1.0  0.0556
  H  H258  1  0.857500  0.997200  0.300700  1.0  0.0638
  H  H259  1  0.838600  0.854000  0.330600  1.0  0.0464
  H  H260  1  0.914900  0.942800  0.344100  1.0  0.0591
  H  H261  1  0.983200  0.881300  0.310700  1.0  0.0511
  H  H262  1  0.956500  0.942400  0.291700  1.0  0.0541
  H  H263  1  0.101700  0.009300  0.322400  1.0  0.0671
  H  H264  1  0.044200  0.066800  0.323000  1.0  0.053
  H  H265  1  0.117100  0.135600  0.282700  1.0  0.0822
  H  H266  1  0.188800  0.164600  0.303400  1.0  0.0675
  H  H267  1  0.947300  0.632100  0.207800  1.0  0.093
  H  H268  1  0.723600  0.499700  0.261300  1.0  0.0743
  H  H269  1  0.799400  0.794300  0.191900  1.0  0.062
  H  H270  1  0.625900  0.607000  0.250300  1.0  0.0873
  H  H271  1  0.459700  0.543600  0.209100  1.0  0.0863
  H  H272  1  0.462300  0.546000  0.238700  1.0  0.0846
  H  H273  1  0.376300  0.623100  0.229800  1.0  0.0688
  H  H274  1  0.449100  0.681700  0.204800  1.0  0.0896
  H  H275  1  0.563800  0.790300  0.228300  1.0  0.0861
  H  H276  1  0.462400  0.789900  0.232300  1.0  0.0592
  H  H277  1  0.333200  0.675700  0.030300  1.0  0.091
  H  H278  1  0.079500  0.441500  0.041600  1.0  0.0546
  H  H279  1  0.308200  0.743500  0.985100  1.0  0.0749
  H  H280  1  0.206100  0.670900  0.975800  1.0  0.057
  H  H281  1  0.279000  0.564200  0.969800  1.0  0.0602
  H  H282  1  0.381100  0.663100  0.969600  1.0  0.0741
  H  H283  1  0.329200  0.731900  0.935300  1.0  0.0554
  H  H284  1  0.366500  0.658200  0.927700  1.0  0.0644
  H  H285  1  0.197400  0.527600  0.933400  1.0  0.0498
  H  H286  1  0.164500  0.606500  0.938200  1.0  0.0462
  H  H287  1  0.230300  0.682100  0.897400  1.0  0.0602
  H  H288  1  0.275500  0.613100  0.892400  1.0  0.0624
  H  H289  1  0.142800  0.547500  0.873300  1.0  0.0909
  H  H290  1  0.108700  0.477600  0.898900  1.0  0.0759
  H  H291  1  0.946700  0.675500  0.891000  1.0  0.0735
  H  H292  1  0.936300  0.440900  0.919000  1.0  0.0783
  H  H293  1  0.466800  0.613200  0.077000  1.0  0.0967
  H  H294  1  0.320900  0.419700  0.032600  1.0  0.0923
  H  H295  1  0.626100  0.693000  0.056100  1.0  0.0421
  H  H296  1  0.627900  0.700100  0.026200  1.0  0.1097
  H  H297  1  0.668300  0.574400  0.055100  1.0  0.0628
  H  H298  1  0.657500  0.567900  0.025600  1.0  0.0705
  H  H299  1  0.788700  0.744700  0.047000  1.0  0.0466
  H  H300  1  0.770500  0.746900  0.018200  1.0  0.0737
  H  H301  1  0.867400  0.665000  0.041200  1.0  0.056
  H  H302  1  0.807200  0.609400  0.019600  1.0  0.0648
  H  H303  1  0.965000  0.807700  0.011900  1.0  0.0633
  H  H304  1  0.906500  0.749100  0.990400  1.0  0.067
  H  H305  1  0.041700  0.722000  0.014100  1.0  0.0936
  H  H306  1  0.968600  0.640900  0.998300  1.0  0.0683
  H  H307  1  0.128000  0.907100  0.979300  1.0  0.0858
  H  H308  1  0.168800  0.769400  0.926200  1.0  0.0777
  H  H309  1  0.372800  0.437800  0.107800  1.0  0.0647
  H  H310  1  0.190400  0.525800  0.133200  1.0  0.0843
  H  H311  1  0.289800  0.467600  0.186200  1.0  0.0653
  H  H312  1  0.302500  0.572100  0.178400  1.0  0.0655
  H  H313  1  0.158400  0.481100  0.204500  1.0  0.0775
  H  H314  1  0.136100  0.501700  0.177600  1.0  0.0724
  H  H315  1  0.081800  0.333700  0.171100  1.0  0.0581
  H  H316  1  0.015100  0.345200  0.193500  1.0  0.052
  H  H317  1  0.168200  0.301400  0.199800  1.0  0.0699
  H  H318  1  0.110900  0.322100  0.222600  1.0  0.0562
  H  H319  1  0.021900  0.150300  0.194800  1.0  0.0633
  H  H320  1  0.954800  0.174600  0.214200  1.0  0.0689
  H  H321  1  0.046000  0.169800  0.246400  1.0  0.0717
  H  H322  1  0.105200  0.137600  0.227000  1.0  0.0753
  H  H323  1  0.036100  0.956700  0.232000  1.0  0.1006
  H  H324  1  0.757400  0.862700  0.256700  1.0  0.0846
  H  H325  1  0.537400  0.327600  0.263600  1.0  0.0636
  H  H326  1  0.506900  0.206300  0.201200  1.0  0.1157
  H  H327  1  0.510400  0.358000  0.173400  1.0  0.0671
  H  H328  1  0.526400  0.447500  0.188500  1.0  0.0917
  H  H329  1  0.696000  0.480500  0.186700  1.0  0.0826
  H  H330  1  0.669800  0.412200  0.164800  1.0  0.0664
  H  H331  1  0.759200  0.577800  0.147200  1.0  0.0435
  H  H332  1  0.679000  0.598900  0.161700  1.0  0.0696
  H  H333  1  0.647400  0.472000  0.124000  1.0  0.0518
  H  H334  1  0.558300  0.472200  0.140900  1.0  0.0517
  H  H335  1  0.602200  0.577500  0.103700  1.0  0.0518
  H  H336  1  0.713600  0.637400  0.109000  1.0  0.044
  H  H337  1  0.672400  0.701300  0.142300  1.0  0.0298
  H  H338  1  0.557200  0.626400  0.142800  1.0  0.062
  H  H339  1  0.530200  0.804200  0.077400  1.0  0.0571
  H  H340  1  0.746800  0.853500  0.113100  1.0  0.0767
  H  H341  1  0.935000  0.151900  0.096700  1.0  0.0755
  H  H342  1  0.664600  0.993300  0.129900  1.0  0.0943
  H  H343  1  0.686700  0.031500  0.174200  1.0  0.0698
  H  H344  1  0.781300  0.023400  0.178700  1.0  0.0966
  H  H345  1  0.876300  0.205400  0.174300  1.0  0.0545
  H  H346  1  0.797900  0.158200  0.199300  1.0  0.0586
  H  H347  1  0.684600  0.169200  0.169400  1.0  0.0434
  H  H348  1  0.786900  0.259000  0.155900  1.0  0.0592
  H  H349  1  0.692000  0.293900  0.189300  1.0  0.0463
  H  H350  1  0.734100  0.248200  0.208300  1.0  0.0541
  H  H351  1  0.831700  0.424100  0.177600  1.0  0.0641
  H  H352  1  0.889800  0.367200  0.177000  1.0  0.0544
  H  H353  1  0.918300  0.399800  0.217300  1.0  0.0794
  H  H354  1  0.968000  0.492200  0.196600  1.0  0.0697
  H  H355  1  0.339900  0.155100  0.292200  1.0  0.0928
  H  H356  1  0.261000  0.984900  0.238700  1.0  0.0747
  H  H357  1  0.486200  0.991300  0.308100  1.0  0.0635
  H  H358  1  0.357300  0.876200  0.249700  1.0  0.0897
  H  H359  1  0.252700  0.668800  0.290900  1.0  0.0864
  H  H360  1  0.284700  0.701000  0.261300  1.0  0.0854
  H  H361  1  0.352900  0.606100  0.270200  1.0  0.0626
  H  H362  1  0.386500  0.653900  0.295200  1.0  0.087
  H  H363  1  0.518600  0.792100  0.271700  1.0  0.0847
  H  H364  1  0.522200  0.694700  0.267700  1.0  0.0573
  C  C365  1  0.847600  0.701600  0.528200  1.0  0.0596
  C  C366  1  0.966900  0.830900  0.533600  1.0  0.2098
  C  C367  1  0.842600  0.754600  0.483200  1.0  -0.0548
  C  C368  1  0.897700  0.721100  0.466200  1.0  -0.107
  C  C369  1  0.898700  0.748000  0.437900  1.0  -0.1283
  C  C370  1  0.974300  0.855100  0.429200  1.0  -0.1303
  C  C371  1  0.983200  0.879500  0.401300  1.0  -0.1174
  C  C372  1  0.064200  0.980500  0.391700  1.0  -0.0666
  C  C373  1  0.977700  0.140900  0.394600  1.0  0.2402
  C  C374  1  0.088600  0.133700  0.409700  1.0  0.1084
  C  C375  1  0.861300  0.488500  0.563400  1.0  0.1486
  C  C376  1  0.989900  0.587400  0.539500  1.0  0.1294
  C  C377  1  0.802700  0.343900  0.541400  1.0  -0.0037
  C  C378  1  0.850000  0.288000  0.539200  1.0  -0.1454
  C  C379  1  0.761100  0.195600  0.532500  1.0  -0.1214
  C  C380  1  0.800200  0.131600  0.525800  1.0  -0.1482
  C  C381  1  0.751800  0.062800  0.506000  1.0  -0.1099
  C  C382  1  0.788300  0.996300  0.500000  1.0  -0.0062
  C  C383  1  0.672900  0.905500  0.469600  1.0  0.1134
  C  C384  1  0.776200  0.914200  0.441400  1.0  0.1989
  C  C385  1  0.924100  0.545000  0.618700  1.0  0.1742
  C  C386  1  0.864000  0.631700  0.631700  1.0  0.0832
  C  C387  1  0.821900  0.559800  0.676500  1.0  -0.0347
  C  C388  1  0.848800  0.653900  0.687100  1.0  -0.097
  C  C389  1  0.956800  0.730800  0.688000  1.0  -0.114
  C  C390  1  0.998400  0.689100  0.706300  1.0  -0.1146
  C  C391  1  0.108400  0.769400  0.710200  1.0  -0.119
  C  C392  1  0.134600  0.727100  0.731700  1.0  -0.0857
  C  C393  1  0.309000  0.787300  0.737100  1.0  0.0882
  C  C394  1  0.345300  0.923900  0.750800  1.0  0.1825
  C  C395  1  0.936600  0.223200  0.746600  1.0  0.2027
  C  C396  1  0.037300  0.271900  0.713600  1.0  0.074
  C  C397  1  0.913600  0.264900  0.685500  1.0  -0.1267
  C  C398  1  0.868700  0.172100  0.673200  1.0  -0.1569
  C  C399  1  0.797100  0.157000  0.653900  1.0  -0.1148
  C  C400  1  0.853900  0.238300  0.633800  1.0  -0.1478
  C  C401  1  0.782600  0.238400  0.617000  1.0  -0.1483
  C  C402  1  0.703000  0.247400  0.631800  1.0  0.0122
  C  C403  1  0.615100  0.342700  0.588600  1.0  0.2157
  C  C404  1  0.569200  0.207600  0.607200  1.0  0.0969
  C  C405  1  0.269900  0.010900  0.609400  1.0  0.1834
  C  C406  1  0.338100  0.139200  0.626700  1.0  0.0815
  C  C407  1  0.264300  0.070200  0.670700  1.0  -0.0637
  C  C408  1  0.152800  0.013600  0.680800  1.0  -0.1654
  C  C409  1  0.109700  0.076300  0.672000  1.0  -0.1545
  C  C410  1  0.026900  0.062200  0.691300  1.0  -0.1671
  C  C411  1  0.932500  0.967900  0.688000  1.0  -0.1557
  C  C412  1  0.853300  0.889700  0.706000  1.0  -0.0686
  C  C413  1  0.106200  0.415700  0.780500  1.0  0.0884
  C  C414  1  0.227100  0.488500  0.752200  1.0  0.2275
  C  C415  1  0.257600  0.253100  0.797300  1.0  0.191
  C  C416  1  0.349900  0.354900  0.765600  1.0  0.1244
  C  C417  1  0.515200  0.413000  0.777600  1.0  -0.1166
  C  C418  1  0.553600  0.339700  0.777500  1.0  -0.1133
  C  C419  1  0.506400  0.249400  0.764400  1.0  -0.1094
  C  C420  1  0.729800  0.375800  0.971800  1.0  0.0677
  C  C421  1  0.864500  0.500500  0.966400  1.0  0.2116
  C  C422  1  0.737800  0.325800  0.016800  1.0  -0.0639
  C  C423  1  0.687300  0.363900  0.033800  1.0  -0.1033
  C  C424  1  0.685900  0.336600  0.062100  1.0  -0.1265
  C  C425  1  0.784300  0.403500  0.070800  1.0  -0.1311
  C  C426  1  0.780800  0.384500  0.098700  1.0  -0.1195
  C  C427  1  0.872200  0.455900  0.108300  1.0  -0.0705
  C  C428  1  0.035500  0.372300  0.105400  1.0  0.2404
  C  C429  1  0.043400  0.498300  0.090300  1.0  0.1122
  C  C430  1  0.551900  0.424700  0.936600  1.0  0.1461
  C  C431  1  0.626900  0.529400  0.960500  1.0  0.1319
  C  C432  1  0.385300  0.344100  0.958600  1.0  -0.0044
  C  C433  1  0.327200  0.389200  0.960800  1.0  -0.1466
  C  C434  1  0.228100  0.293600  0.967500  1.0  -0.121
  C  C435  1  0.157400  0.326000  0.974200  1.0  -0.1455
  C  C436  1  0.068800  0.257800  0.994000  1.0  -0.1138
  C  C437  1  0.996300  0.288300  0.000000  1.0  -0.0026
  C  C438  1  0.875100  0.142500  0.030400  1.0  0.1181
  C  C439  1  0.855600  0.217600  0.058600  1.0  0.1994
  C  C440  1  0.663700  0.542800  0.881300  1.0  0.1738
  C  C441  1  0.763400  0.495700  0.868300  1.0  0.086
  C  C442  1  0.736300  0.498400  0.823500  1.0  -0.0346
  C  C443  1  0.841000  0.535900  0.812900  1.0  -0.0938
  C  C444  1  0.918800  0.644800  0.812000  1.0  -0.1154
  C  C445  1  0.895400  0.704700  0.793700  1.0  -0.1157
  C  C446  1  0.979600  0.818600  0.789800  1.0  -0.1199
  C  C447  1  0.958800  0.866300  0.768300  1.0  -0.08
  C  C448  1  0.024400  0.046100  0.762900  1.0  0.0883
  C  C449  1  0.174700  0.096100  0.749200  1.0  0.1818
  C  C450  1  0.469800  0.683200  0.753400  1.0  0.203
  C  C451  1  0.485500  0.750900  0.786400  1.0  0.0773
  C  C452  1  0.450400  0.599100  0.814500  1.0  -0.1179
  C  C453  1  0.345300  0.541900  0.826800  1.0  -0.1555
  C  C454  1  0.310900  0.451000  0.846100  1.0  -0.1184
  C  C455  1  0.372100  0.487700  0.866200  1.0  -0.1403
  C  C456  1  0.355400  0.399600  0.883000  1.0  -0.1527
  C  C457  1  0.379200  0.334800  0.868200  1.0  0.0118
  C  C458  1  0.431300  0.203700  0.911400  1.0  0.2193
  C  C459  1  0.314800  0.176400  0.892800  1.0  0.0975
  C  C460  1  0.120300  0.879300  0.890600  1.0  0.1846
  C  C461  1  0.265900  0.964800  0.873300  1.0  0.0793
  C  C462  1  0.240900  0.935000  0.829300  1.0  -0.0639
  C  C463  1  0.194400  0.833600  0.819200  1.0  -0.1628
  C  C464  1  0.248300  0.781700  0.828000  1.0  -0.1551
  C  C465  1  0.253500  0.718200  0.808700  1.0  -0.1649
  C  C466  1  0.155900  0.620500  0.812000  1.0  -0.1607
  C  C467  1  0.095700  0.559300  0.794000  1.0  -0.0705
  C  C468  1  0.696200  0.886700  0.719500  1.0  0.0872
  C  C469  1  0.740700  0.979300  0.747800  1.0  0.2265
  C  C470  1  0.550400  0.054900  0.702700  1.0  0.191
  C  C471  1  0.620500  0.115500  0.734400  1.0  0.1249
  C  C472  1  0.690600  0.292800  0.722400  1.0  -0.1155
  C  C473  1  0.617200  0.331100  0.722500  1.0  -0.1158
  C  C474  1  0.513800  0.270800  0.735600  1.0  -0.1151
  C  C475  1  0.152400  0.298400  0.471800  1.0  0.0596
  C  C476  1  0.033100  0.169100  0.466400  1.0  0.2115
  C  C477  1  0.157400  0.245400  0.516800  1.0  -0.0524
  C  C478  1  0.102300  0.278900  0.533800  1.0  -0.1072
  C  C479  1  0.101300  0.252000  0.562100  1.0  -0.1314
  C  C480  1  0.025700  0.144900  0.570800  1.0  -0.1305
  C  C481  1  0.016800  0.120500  0.598700  1.0  -0.1168
  C  C482  1  0.935800  0.019500  0.608300  1.0  -0.0682
  C  C483  1  0.022300  0.859100  0.605400  1.0  0.2378
  C  C484  1  0.911400  0.866300  0.590300  1.0  0.1061
  C  C485  1  0.138700  0.511500  0.436600  1.0  0.1477
  C  C486  1  0.010100  0.412600  0.460500  1.0  0.1327
  C  C487  1  0.197300  0.656100  0.458600  1.0  -0.0049
  C  C488  1  0.150000  0.712000  0.460800  1.0  -0.1445
  C  C489  1  0.238900  0.804400  0.467500  1.0  -0.1213
  C  C490  1  0.199800  0.868400  0.474200  1.0  -0.1468
  C  C491  1  0.248200  0.937200  0.494000  1.0  -0.1111
  C  C492  1  0.211700  0.003700  0.500000  1.0  -0.0071
  C  C493  1  0.327100  0.094500  0.530400  1.0  0.1187
  C  C494  1  0.223800  0.085800  0.558600  1.0  0.2014
  C  C495  1  0.075900  0.455000  0.381300  1.0  0.172
  C  C496  1  0.136000  0.368300  0.368300  1.0  0.0829
  C  C497  1  0.178100  0.440200  0.323500  1.0  -0.0346
  C  C498  1  0.151200  0.346100  0.312900  1.0  -0.0934
  C  C499  1  0.043200  0.269200  0.312000  1.0  -0.1132
  C  C500  1  0.001600  0.310900  0.293700  1.0  -0.1139
  C  C501  1  0.891600  0.230600  0.289800  1.0  -0.1196
  C  C502  1  0.865400  0.272900  0.268300  1.0  -0.0848
  C  C503  1  0.691000  0.212700  0.262900  1.0  0.0864
  C  C504  1  0.654700  0.076100  0.249200  1.0  0.1825
  C  C505  1  0.063400  0.776800  0.253400  1.0  0.2028
  C  C506  1  0.962700  0.728100  0.286400  1.0  0.075
  C  C507  1  0.086400  0.735100  0.314500  1.0  -0.1239
  C  C508  1  0.131300  0.827900  0.326800  1.0  -0.156
  C  C509  1  0.202900  0.843000  0.346100  1.0  -0.1156
  C  C510  1  0.146100  0.761700  0.366200  1.0  -0.1473
  C  C511  1  0.217400  0.761600  0.383000  1.0  -0.1485
  C  C512  1  0.297000  0.752600  0.368200  1.0  0.0149
  C  C513  1  0.384900  0.657300  0.411400  1.0  0.2165
  C  C514  1  0.430800  0.792400  0.392800  1.0  0.0979
  C  C515  1  0.730100  0.989100  0.390600  1.0  0.1835
  C  C516  1  0.661900  0.860800  0.373300  1.0  0.0828
  C  C517  1  0.735700  0.929800  0.329300  1.0  -0.0632
  C  C518  1  0.847200  0.986400  0.319200  1.0  -0.1642
  C  C519  1  0.890300  0.923700  0.328000  1.0  -0.1539
  C  C520  1  0.973100  0.937800  0.308700  1.0  -0.1667
  C  C521  1  0.067500  0.032100  0.312000  1.0  -0.1577
  C  C522  1  0.146700  0.110300  0.294000  1.0  -0.0714
  C  C523  1  0.893800  0.584300  0.219500  1.0  0.0876
  C  C524  1  0.772900  0.511500  0.247800  1.0  0.2262
  C  C525  1  0.742400  0.746900  0.202700  1.0  0.1894
  C  C526  1  0.650100  0.645100  0.234400  1.0  0.1244
  C  C527  1  0.484800  0.587000  0.222400  1.0  -0.1154
  C  C528  1  0.446400  0.660300  0.222500  1.0  -0.1126
  C  C529  1  0.493600  0.750600  0.235600  1.0  -0.1099
  C  C530  1  0.270200  0.624200  0.028200  1.0  0.0674
  C  C531  1  0.135500  0.499500  0.033600  1.0  0.212
  C  C532  1  0.262200  0.674200  0.983200  1.0  -0.0625
  C  C533  1  0.312700  0.636100  0.966200  1.0  -0.1071
  C  C534  1  0.314100  0.663400  0.937900  1.0  -0.1273
  C  C535  1  0.215700  0.596500  0.929200  1.0  -0.1333
  C  C536  1  0.219200  0.615500  0.901300  1.0  -0.1218
  C  C537  1  0.127800  0.544100  0.891700  1.0  -0.0697
  C  C538  1  0.964500  0.627700  0.894600  1.0  0.2373
  C  C539  1  0.956600  0.501700  0.909700  1.0  0.1108
  C  C540  1  0.448100  0.575300  0.063400  1.0  0.1468
  C  C541  1  0.373100  0.470600  0.039500  1.0  0.1297
  C  C542  1  0.614700  0.655900  0.041400  1.0  -0.0066
  C  C543  1  0.672800  0.610800  0.039200  1.0  -0.1481
  C  C544  1  0.771900  0.706400  0.032500  1.0  -0.1215
  C  C545  1  0.842600  0.674000  0.025800  1.0  -0.1472
  C  C546  1  0.931200  0.742200  0.006000  1.0  -0.1123
  C  C547  1  0.003700  0.711700  0.000000  1.0  -0.0032
  C  C548  1  0.124900  0.857500  0.969600  1.0  0.1202
  C  C549  1  0.144400  0.782400  0.941400  1.0  0.1993
  C  C550  1  0.336300  0.457200  0.118700  1.0  0.1729
  C  C551  1  0.236600  0.504300  0.131700  1.0  0.0854
  C  C552  1  0.263700  0.501600  0.176500  1.0  -0.0356
  C  C553  1  0.159000  0.464100  0.187100  1.0  -0.0941
  C  C554  1  0.081200  0.355200  0.188000  1.0  -0.1143
  C  C555  1  0.104600  0.295300  0.206300  1.0  -0.1145
  C  C556  1  0.020400  0.181400  0.210200  1.0  -0.1165
  C  C557  1  0.041200  0.133700  0.231700  1.0  -0.0828
  C  C558  1  0.975600  0.953900  0.237100  1.0  0.0901
  C  C559  1  0.825300  0.903900  0.250800  1.0  0.1811
  C  C560  1  0.530200  0.316800  0.246600  1.0  0.203
  C  C561  1  0.514500  0.249100  0.213600  1.0  0.0761
  C  C562  1  0.549600  0.400900  0.185500  1.0  -0.1171
  C  C563  1  0.654700  0.458100  0.173200  1.0  -0.1555
  C  C564  1  0.689100  0.549000  0.153900  1.0  -0.1215
  C  C565  1  0.627900  0.512300  0.133800  1.0  -0.1397
  C  C566  1  0.644600  0.600400  0.117000  1.0  -0.1514
  C  C567  1  0.620800  0.665200  0.131800  1.0  0.0093
  C  C568  1  0.568700  0.796300  0.088600  1.0  0.2172
  C  C569  1  0.685200  0.823600  0.107200  1.0  0.0992
  C  C570  1  0.879700  0.120700  0.109400  1.0  0.1882
  C  C571  1  0.734100  0.035200  0.126700  1.0  0.0777
  C  C572  1  0.759100  0.065000  0.170700  1.0  -0.0646
  C  C573  1  0.805600  0.166400  0.180800  1.0  -0.1629
  C  C574  1  0.751700  0.218300  0.172000  1.0  -0.1529
  C  C575  1  0.746500  0.281800  0.191300  1.0  -0.1638
  C  C576  1  0.844100  0.379500  0.188000  1.0  -0.1581
  C  C577  1  0.904300  0.440700  0.206000  1.0  -0.0716
  C  C578  1  0.303800  0.113300  0.280500  1.0  0.0878
  C  C579  1  0.259300  0.020700  0.252200  1.0  0.2276
  C  C580  1  0.449600  0.945100  0.297300  1.0  0.191
  C  C581  1  0.379500  0.884500  0.265600  1.0  0.124
  C  C582  1  0.309400  0.707200  0.277600  1.0  -0.1146
  C  C583  1  0.382800  0.668900  0.277500  1.0  -0.1127
  C  C584  1  0.486200  0.729200  0.264400  1.0  -0.1157
  N  N585  1  0.907200  0.744000  0.544800  1.0  -0.3804
  N  N586  1  0.956700  0.849400  0.511700  1.0  -0.3728
  N  N587  1  0.875500  0.765600  0.508100  1.0  0.1228
  N  N588  1  0.969600  0.060800  0.387000  1.0  -0.3889
  N  N589  1  0.044900  0.058800  0.397100  1.0  0.1237
  N  N590  1  0.948400  0.807600  0.592200  1.0  -0.4004
  N  N591  1  0.918000  0.578000  0.559600  1.0  -0.3638
  N  N592  1  0.962300  0.499900  0.532000  1.0  -0.2366
  N  N593  1  0.884700  0.441700  0.544600  1.0  -0.0971
  N  N594  1  0.758200  0.951000  0.476800  1.0  0.1469
  N  N595  1  0.829200  0.961400  0.458600  1.0  -0.4024
  N  N596  1  0.321200  0.120600  0.553000  1.0  -0.4351
  N  N597  1  0.903300  0.618100  0.610600  1.0  -0.4667
  N  N598  1  0.897300  0.516500  0.642600  1.0  -0.3945
  N  N599  1  0.861400  0.573700  0.650500  1.0  0.1465
  N  N600  1  0.250100  0.880200  0.747700  1.0  -0.3738
  N  N601  1  0.232500  0.798500  0.738400  1.0  0.1535
  N  N602  1  0.111200  0.127900  0.755700  1.0  -0.4173
  N  N603  1  0.032500  0.249100  0.737400  1.0  -0.4416
  N  N604  1  0.889000  0.234900  0.730300  1.0  -0.3951
  N  N605  1  0.951700  0.262800  0.709500  1.0  0.1096
  N  N606  1  0.654100  0.270000  0.613700  1.0  0.1275
  N  N607  1  0.680500  0.358400  0.601900  1.0  -0.3077
  N  N608  1  0.539800  0.249700  0.591300  1.0  -0.4142
  N  N609  1  0.340500  0.106200  0.604900  1.0  -0.402
  N  N610  1  0.273400  0.064600  0.643400  1.0  0.1426
  N  N611  1  0.229800  0.983200  0.632800  1.0  -0.4055
  N  N612  1  0.217400  0.560100  0.761900  1.0  -0.3916
  N  N613  1  0.160500  0.398000  0.763300  1.0  -0.4421
  N  N614  1  0.790400  0.917800  0.721400  1.0  0.1394
  N  N615  1  0.254700  0.292900  0.774200  1.0  -0.4554
  N  N616  1  0.345200  0.286800  0.802400  1.0  -0.3342
  N  N617  1  0.405200  0.354700  0.782300  1.0  0.133
  N  N618  1  0.788800  0.452000  0.955200  1.0  -0.3835
  N  N619  1  0.861100  0.468400  0.988300  1.0  -0.3725
  N  N620  1  0.773700  0.383600  0.991900  1.0  0.125
  N  N621  1  0.947800  0.356600  0.113000  1.0  -0.3908
  N  N622  1  0.955900  0.442000  0.102900  1.0  0.1196
  N  N623  1  0.899800  0.540600  0.907800  1.0  -0.4014
  N  N624  1  0.637600  0.477600  0.940400  1.0  -0.3657
  N  N625  1  0.531900  0.494300  0.968000  1.0  -0.2306
  N  N626  1  0.486300  0.429300  0.955400  1.0  -0.0977
  N  N627  1  0.927800  0.235000  0.023200  1.0  0.1473
  N  N628  1  0.920000  0.287800  0.041400  1.0  -0.3994
  N  N629  1  0.173600  0.874200  0.947000  1.0  -0.4351
  N  N630  1  0.728700  0.513900  0.889400  1.0  -0.4652
  N  N631  1  0.659100  0.539900  0.857400  1.0  -0.3967
  N  N632  1  0.724200  0.511900  0.849500  1.0  0.1491
  N  N633  1  0.127900  0.997800  0.752300  1.0  -0.3711
  N  N634  1  0.036900  0.970900  0.761600  1.0  0.1535
  N  N635  1  0.383600  0.866900  0.744300  1.0  -0.4169
  N  N636  1  0.486500  0.769900  0.762600  1.0  -0.4409
  N  N637  1  0.465200  0.619300  0.769700  1.0  -0.3976
  N  N638  1  0.472300  0.661200  0.790500  1.0  0.1091
  N  N639  1  0.383700  0.267800  0.886300  1.0  0.1294
  N  N640  1  0.460300  0.282400  0.898100  1.0  -0.3011
  N  N641  1  0.341000  0.131100  0.908700  1.0  -0.4167
  N  N642  1  0.211100  0.945400  0.895100  1.0  -0.4042
  N  N643  1  0.208000  0.916800  0.856600  1.0  0.1415
  N  N644  1  0.116000  0.862600  0.867200  1.0  -0.4049
  N  N645  1  0.822000  0.979300  0.738100  1.0  -0.3911
  N  N646  1  0.661300  0.923800  0.736700  1.0  -0.4427
  N  N647  1  0.139200  0.511800  0.778600  1.0  0.14
  N  N648  1  0.567100  0.028900  0.725800  1.0  -0.4502
  N  N649  1  0.589200  0.147600  0.697600  1.0  -0.3357
  N  N650  1  0.637000  0.187500  0.717700  1.0  0.1329
  N  N651  1  0.092800  0.256000  0.455200  1.0  -0.3831
  N  N652  1  0.043300  0.150600  0.488300  1.0  -0.3725
  N  N653  1  0.124500  0.234400  0.491900  1.0  0.1228
  N  N654  1  0.030400  0.939200  0.613000  1.0  -0.3904
  N  N655  1  0.955100  0.941200  0.602900  1.0  0.1241
  N  N656  1  0.051600  0.192400  0.407800  1.0  -0.4011
  N  N657  1  0.082000  0.422000  0.440400  1.0  -0.3639
  N  N658  1  0.037700  0.500100  0.468000  1.0  -0.2333
  N  N659  1  0.115300  0.558300  0.455400  1.0  -0.0961
  N  N660  1  0.241800  0.049000  0.523200  1.0  0.1472
  N  N661  1  0.170800  0.038600  0.541400  1.0  -0.4071
  N  N662  1  0.678800  0.879400  0.447000  1.0  -0.435
  N  N663  1  0.096700  0.381900  0.389400  1.0  -0.466
  N  N664  1  0.102700  0.483500  0.357400  1.0  -0.395
  N  N665  1  0.138600  0.426300  0.349500  1.0  0.146
  N  N666  1  0.749900  0.119800  0.252300  1.0  -0.3758
  N  N667  1  0.767500  0.201500  0.261600  1.0  0.1531
  N  N668  1  0.888800  0.872100  0.244300  1.0  -0.4156
  N  N669  1  0.967500  0.750900  0.262600  1.0  -0.4408
  N  N670  1  0.111000  0.765100  0.269700  1.0  -0.3935
  N  N671  1  0.048300  0.737200  0.290500  1.0  0.1093
  N  N672  1  0.345900  0.730000  0.386300  1.0  0.1264
  N  N673  1  0.319500  0.641600  0.398100  1.0  -0.306
  N  N674  1  0.460200  0.750300  0.408700  1.0  -0.4131
  N  N675  1  0.659500  0.893800  0.395100  1.0  -0.4016
  N  N676  1  0.726600  0.935400  0.356600  1.0  0.1432
  N  N677  1  0.770200  0.016800  0.367200  1.0  -0.4065
  N  N678  1  0.782600  0.439900  0.238100  1.0  -0.39
  N  N679  1  0.839500  0.602000  0.236700  1.0  -0.4418
  N  N680  1  0.209600  0.082200  0.278600  1.0  0.141
  N  N681  1  0.745300  0.707100  0.225800  1.0  -0.4541
  N  N682  1  0.654800  0.713200  0.197600  1.0  -0.3373
  N  N683  1  0.594800  0.645300  0.217700  1.0  0.1314
  N  N684  1  0.211200  0.548000  0.044800  1.0  -0.381
  N  N685  1  0.138900  0.531600  0.011700  1.0  -0.3708
  N  N686  1  0.226300  0.616400  0.008100  1.0  0.1239
  N  N687  1  0.052200  0.643400  0.887000  1.0  -0.3916
  N  N688  1  0.044100  0.558000  0.897100  1.0  0.1235
  N  N689  1  0.100200  0.459400  0.092200  1.0  -0.3993
  N  N690  1  0.362400  0.522400  0.059600  1.0  -0.3664
  N  N691  1  0.468100  0.505700  0.032000  1.0  -0.2299
  N  N692  1  0.513700  0.570700  0.044600  1.0  -0.0974
  N  N693  1  0.072200  0.765000  0.976800  1.0  0.1464
  N  N694  1  0.080000  0.712200  0.958600  1.0  -0.4073
  N  N695  1  0.826400  0.125800  0.053000  1.0  -0.4351
  N  N696  1  0.271300  0.486100  0.110600  1.0  -0.4648
  N  N697  1  0.340900  0.460100  0.142600  1.0  -0.3977
  N  N698  1  0.275800  0.488100  0.150500  1.0  0.1494
  N  N699  1  0.872100  0.002200  0.247700  1.0  -0.3716
  N  N700  1  0.963100  0.029100  0.238400  1.0  0.1523
  N  N701  1  0.616400  0.133100  0.255700  1.0  -0.4165
  N  N702  1  0.513500  0.230100  0.237400  1.0  -0.44
  N  N703  1  0.534800  0.380700  0.230300  1.0  -0.3981
  N  N704  1  0.527700  0.338800  0.209500  1.0  0.1106
  N  N705  1  0.616300  0.732200  0.113700  1.0  0.1302
  N  N706  1  0.539700  0.717600  0.101900  1.0  -0.3005
  N  N707  1  0.659000  0.868900  0.091300  1.0  -0.4159
  N  N708  1  0.788900  0.054600  0.104900  1.0  -0.4038
  N  N709  1  0.792000  0.083200  0.143400  1.0  0.1413
  N  N710  1  0.884000  0.137400  0.132800  1.0  -0.4019
  N  N711  1  0.178000  0.020700  0.261900  1.0  -0.3901
  N  N712  1  0.338700  0.076200  0.263300  1.0  -0.4423
  N  N713  1  0.860800  0.488200  0.221400  1.0  0.1408
  N  N714  1  0.432900  0.971100  0.274200  1.0  -0.4515
  N  N715  1  0.410800  0.852400  0.302400  1.0  -0.3347
  N  N716  1  0.363000  0.812500  0.282300  1.0  0.1329
