# generated using pymatgen
data_ZnH10C9(NO2)2
_symmetry_space_group_name_H-M   'P 1'
_cell_length_a   39.07400000
_cell_length_b   9.96450000
_cell_length_c   38.84600000
_cell_angle_alpha   90.00000000
_cell_angle_beta   136.43800000
_cell_angle_gamma   90.00000000
_symmetry_Int_Tables_number   1
_chemical_formula_structural   ZnH10C9(NO2)2
_chemical_formula_sum   'Zn32 H320 C288 N64 O128'
_cell_volume   10423.09228175
_cell_formula_units_Z   32
loop_
 _symmetry_equiv_pos_site_id
 _symmetry_equiv_pos_as_xyz
  1  'x, y, z'
loop_
 _atom_site_type_symbol
 _atom_site_label
 _atom_site_symmetry_multiplicity
 _atom_site_fract_x
 _atom_site_fract_y
 _atom_site_fract_z
 _atom_site_occupancy
 _atom_site_charge
  Zn  Zn1  1  0.325020  0.319880  0.130350  1.0  1.069
  Zn  Zn2  1  0.384840  0.204350  0.254160  1.0  0.6898
  Zn  Zn3  1  0.446400  0.088080  0.377550  1.0  1.0291
  Zn  Zn4  1  0.825020  0.819880  0.130350  1.0  1.069
  Zn  Zn5  1  0.884840  0.704350  0.254160  1.0  0.6898
  Zn  Zn6  1  0.946400  0.588080  0.377550  1.0  1.0291
  Zn  Zn7  1  0.674980  0.680120  0.869650  1.0  1.0705
  Zn  Zn8  1  0.615160  0.795650  0.745840  1.0  0.6903
  Zn  Zn9  1  0.553600  0.911920  0.622450  1.0  1.0287
  Zn  Zn10  1  0.174980  0.180120  0.869650  1.0  1.0705
  Zn  Zn11  1  0.115160  0.295650  0.745840  1.0  0.6903
  Zn  Zn12  1  0.053600  0.411920  0.622450  1.0  1.0287
  Zn  Zn13  1  0.250000  0.250000  0.000000  1.0  0.983
  Zn  Zn14  1  0.750000  0.750000  0.000000  1.0  0.983
  Zn  Zn15  1  0.000000  0.500000  0.500000  1.0  0.6593
  Zn  Zn16  1  0.500000  0.000000  0.500000  1.0  0.6593
  Zn  Zn17  1  0.674980  0.319880  0.369650  1.0  1.0705
  Zn  Zn18  1  0.615160  0.204350  0.245840  1.0  0.6905
  Zn  Zn19  1  0.553600  0.088080  0.122450  1.0  1.0291
  Zn  Zn20  1  0.174980  0.819880  0.369650  1.0  1.0705
  Zn  Zn21  1  0.115160  0.704350  0.245840  1.0  0.6905
  Zn  Zn22  1  0.053600  0.588080  0.122450  1.0  1.0291
  Zn  Zn23  1  0.325020  0.680120  0.630350  1.0  1.0692
  Zn  Zn24  1  0.384840  0.795650  0.754160  1.0  0.6896
  Zn  Zn25  1  0.446400  0.911920  0.877550  1.0  1.0293
  Zn  Zn26  1  0.825020  0.180120  0.630350  1.0  1.0692
  Zn  Zn27  1  0.884840  0.295650  0.754160  1.0  0.6896
  Zn  Zn28  1  0.946400  0.411920  0.877550  1.0  1.0293
  Zn  Zn29  1  0.750000  0.250000  0.500000  1.0  0.983
  Zn  Zn30  1  0.250000  0.750000  0.500000  1.0  0.983
  Zn  Zn31  1  0.000000  0.500000  0.000000  1.0  0.6593
  Zn  Zn32  1  0.500000  0.000000  0.000000  1.0  0.6593
  H  H33  1  0.192800  0.339400  0.017200  1.0  0.2689
  H  H34  1  0.059200  0.367200  0.069400  1.0  0.2814
  H  H35  1  0.029200  0.305700  0.019500  1.0  0.3721
  H  H36  1  0.406500  0.099100  0.091100  1.0  0.1435
  H  H37  1  0.439000  0.186200  0.139700  1.0  0.1476
  H  H38  1  0.417100  0.250100  0.090200  1.0  0.1457
  H  H39  1  0.417800  0.461200  0.254600  1.0  0.3623
  H  H40  1  0.432800  0.141200  0.250200  1.0  0.3578
  H  H41  1  0.458800  0.087200  0.300000  1.0  0.2946
  H  H42  1  0.345400  0.953600  0.251200  1.0  0.3333
  H  H43  1  0.308900  0.319100  0.206500  1.0  0.3375
  H  H44  1  0.338300  0.268100  0.257700  1.0  0.3513
  H  H45  1  0.553000  0.889500  0.480500  1.0  0.3283
  H  H46  1  0.135200  0.265200  0.005200  1.0  0.1343
  H  H47  1  0.639800  0.533500  0.405500  1.0  0.3505
  H  H48  1  0.665200  0.495000  0.456600  1.0  0.3635
  H  H49  1  0.145500  0.417700  0.124600  1.0  0.1269
  H  H50  1  0.214100  0.424900  0.139400  1.0  0.1108
  H  H51  1  0.437200  0.637200  0.283600  1.0  0.1249
  H  H52  1  0.458800  0.852900  0.313600  1.0  0.113
  H  H53  1  0.393700  0.985500  0.180500  1.0  0.1172
  H  H54  1  0.369600  0.766600  0.149600  1.0  0.1207
  H  H55  1  0.245900  0.964600  0.143600  1.0  0.1498
  H  H56  1  0.256500  0.893500  0.116100  1.0  0.1581
  H  H57  1  0.222100  0.020300  0.092300  1.0  0.1572
  H  H58  1  0.488700  0.542000  0.383200  1.0  0.1452
  H  H59  1  0.510600  0.495800  0.363700  1.0  0.1401
  H  H60  1  0.535000  0.446600  0.415900  1.0  0.1507
  H  H61  1  0.319000  0.775900  0.219600  1.0  0.1246
  H  H62  1  0.298500  0.559200  0.189600  1.0  0.1271
  H  H63  1  0.377300  0.422400  0.326500  1.0  0.1298
  H  H64  1  0.398700  0.639500  0.356100  1.0  0.1103
  H  H65  1  0.539500  0.878500  0.360600  1.0  0.1078
  H  H66  1  0.580100  0.712100  0.361200  1.0  0.1162
  H  H67  1  0.645800  0.600400  0.497300  1.0  0.1426
  H  H68  1  0.599600  0.760100  0.492400  1.0  0.1298
  H  H69  1  0.387600  0.352100  0.433900  1.0  0.1602
  H  H70  1  0.353400  0.227300  0.415400  1.0  0.1469
  H  H71  1  0.347200  0.312700  0.377200  1.0  0.1593
  H  H72  1  0.066300  0.257900  0.990000  1.0  0.1282
  H  H73  1  0.692800  0.839400  0.017200  1.0  0.2689
  H  H74  1  0.559200  0.867200  0.069400  1.0  0.2814
  H  H75  1  0.529200  0.805700  0.019500  1.0  0.3721
  H  H76  1  0.906500  0.599100  0.091100  1.0  0.1435
  H  H77  1  0.939000  0.686200  0.139700  1.0  0.1476
  H  H78  1  0.917100  0.750100  0.090200  1.0  0.1457
  H  H79  1  0.917800  0.961200  0.254600  1.0  0.3623
  H  H80  1  0.932800  0.641200  0.250200  1.0  0.3578
  H  H81  1  0.958800  0.587200  0.300000  1.0  0.2946
  H  H82  1  0.845400  0.453600  0.251200  1.0  0.3333
  H  H83  1  0.808900  0.819100  0.206500  1.0  0.3375
  H  H84  1  0.838300  0.768100  0.257700  1.0  0.3513
  H  H85  1  0.053000  0.389500  0.480500  1.0  0.3283
  H  H86  1  0.635200  0.765200  0.005200  1.0  0.1343
  H  H87  1  0.139800  0.033500  0.405500  1.0  0.3505
  H  H88  1  0.165200  0.995000  0.456600  1.0  0.3635
  H  H89  1  0.645500  0.917700  0.124600  1.0  0.1269
  H  H90  1  0.714100  0.924900  0.139400  1.0  0.1108
  H  H91  1  0.937200  0.137200  0.283600  1.0  0.1249
  H  H92  1  0.958800  0.352900  0.313600  1.0  0.113
  H  H93  1  0.893700  0.485500  0.180500  1.0  0.1172
  H  H94  1  0.869600  0.266600  0.149600  1.0  0.1207
  H  H95  1  0.745900  0.464600  0.143600  1.0  0.1498
  H  H96  1  0.756500  0.393500  0.116100  1.0  0.1581
  H  H97  1  0.722100  0.520300  0.092300  1.0  0.1572
  H  H98  1  0.988700  0.042000  0.383200  1.0  0.1452
  H  H99  1  0.010600  0.995800  0.363700  1.0  0.1401
  H  H100  1  0.035000  0.946600  0.415900  1.0  0.1507
  H  H101  1  0.819000  0.275900  0.219600  1.0  0.1246
  H  H102  1  0.798500  0.059200  0.189600  1.0  0.1271
  H  H103  1  0.877300  0.922400  0.326500  1.0  0.1298
  H  H104  1  0.898700  0.139500  0.356100  1.0  0.1103
  H  H105  1  0.039500  0.378500  0.360600  1.0  0.1078
  H  H106  1  0.080100  0.212100  0.361200  1.0  0.1162
  H  H107  1  0.145800  0.100400  0.497300  1.0  0.1426
  H  H108  1  0.099600  0.260100  0.492400  1.0  0.1298
  H  H109  1  0.887600  0.852100  0.433900  1.0  0.1602
  H  H110  1  0.853400  0.727300  0.415400  1.0  0.1469
  H  H111  1  0.847200  0.812700  0.377200  1.0  0.1593
  H  H112  1  0.566300  0.757900  0.990000  1.0  0.1282
  H  H113  1  0.807200  0.660600  0.982800  1.0  0.2671
  H  H114  1  0.940800  0.632800  0.930600  1.0  0.2845
  H  H115  1  0.970800  0.694300  0.980500  1.0  0.3736
  H  H116  1  0.593500  0.900900  0.908900  1.0  0.1433
  H  H117  1  0.561000  0.813800  0.860300  1.0  0.1456
  H  H118  1  0.582900  0.749900  0.909800  1.0  0.1468
  H  H119  1  0.582200  0.538800  0.745400  1.0  0.3645
  H  H120  1  0.567200  0.858800  0.749800  1.0  0.3603
  H  H121  1  0.541200  0.912800  0.700000  1.0  0.2916
  H  H122  1  0.654600  0.046400  0.748800  1.0  0.333
  H  H123  1  0.691100  0.680900  0.793500  1.0  0.3398
  H  H124  1  0.661700  0.731900  0.742300  1.0  0.3534
  H  H125  1  0.447000  0.110500  0.519500  1.0  0.3281
  H  H126  1  0.864800  0.734800  0.994800  1.0  0.1358
  H  H127  1  0.360200  0.466500  0.594500  1.0  0.3501
  H  H128  1  0.334800  0.505000  0.543400  1.0  0.3626
  H  H129  1  0.854500  0.582300  0.875400  1.0  0.1281
  H  H130  1  0.785900  0.575100  0.860600  1.0  0.1104
  H  H131  1  0.562800  0.362800  0.716400  1.0  0.1249
  H  H132  1  0.541200  0.147100  0.686400  1.0  0.1126
  H  H133  1  0.606300  0.014500  0.819500  1.0  0.1175
  H  H134  1  0.630400  0.233400  0.850400  1.0  0.1215
  H  H135  1  0.754100  0.035400  0.856400  1.0  0.1495
  H  H136  1  0.743500  0.106500  0.883900  1.0  0.1577
  H  H137  1  0.777900  0.979700  0.907700  1.0  0.1564
  H  H138  1  0.511300  0.458000  0.616800  1.0  0.1462
  H  H139  1  0.489400  0.504200  0.636300  1.0  0.14
  H  H140  1  0.465000  0.553400  0.584100  1.0  0.1495
  H  H141  1  0.681000  0.224100  0.780400  1.0  0.1249
  H  H142  1  0.701500  0.440800  0.810400  1.0  0.1275
  H  H143  1  0.622700  0.577600  0.673500  1.0  0.1291
  H  H144  1  0.601300  0.360500  0.643900  1.0  0.1085
  H  H145  1  0.460500  0.121500  0.639400  1.0  0.1071
  H  H146  1  0.419900  0.287900  0.638800  1.0  0.1155
  H  H147  1  0.354200  0.399600  0.502700  1.0  0.1431
  H  H148  1  0.400400  0.239900  0.507600  1.0  0.1299
  H  H149  1  0.612400  0.647900  0.566100  1.0  0.1612
  H  H150  1  0.646600  0.772700  0.584600  1.0  0.1447
  H  H151  1  0.652800  0.687300  0.622800  1.0  0.1591
  H  H152  1  0.933700  0.742100  0.010000  1.0  0.1288
  H  H153  1  0.307200  0.160600  0.982800  1.0  0.2671
  H  H154  1  0.440800  0.132800  0.930600  1.0  0.2845
  H  H155  1  0.470800  0.194300  0.980500  1.0  0.3736
  H  H156  1  0.093500  0.400900  0.908900  1.0  0.1433
  H  H157  1  0.061000  0.313800  0.860300  1.0  0.1456
  H  H158  1  0.082900  0.249900  0.909800  1.0  0.1468
  H  H159  1  0.082200  0.038800  0.745400  1.0  0.3645
  H  H160  1  0.067200  0.358800  0.749800  1.0  0.3603
  H  H161  1  0.041200  0.412800  0.700000  1.0  0.2916
  H  H162  1  0.154600  0.546400  0.748800  1.0  0.333
  H  H163  1  0.191100  0.180900  0.793500  1.0  0.3398
  H  H164  1  0.161700  0.231900  0.742300  1.0  0.3534
  H  H165  1  0.947000  0.610500  0.519500  1.0  0.3281
  H  H166  1  0.364800  0.234800  0.994800  1.0  0.1358
  H  H167  1  0.860200  0.966500  0.594500  1.0  0.3501
  H  H168  1  0.834800  0.005000  0.543400  1.0  0.3626
  H  H169  1  0.354500  0.082300  0.875400  1.0  0.1281
  H  H170  1  0.285900  0.075100  0.860600  1.0  0.1104
  H  H171  1  0.062800  0.862800  0.716400  1.0  0.1249
  H  H172  1  0.041200  0.647100  0.686400  1.0  0.1126
  H  H173  1  0.106300  0.514500  0.819500  1.0  0.1175
  H  H174  1  0.130400  0.733400  0.850400  1.0  0.1215
  H  H175  1  0.254100  0.535400  0.856400  1.0  0.1495
  H  H176  1  0.243500  0.606500  0.883900  1.0  0.1577
  H  H177  1  0.277900  0.479700  0.907700  1.0  0.1564
  H  H178  1  0.011300  0.958000  0.616800  1.0  0.1462
  H  H179  1  0.989400  0.004200  0.636300  1.0  0.14
  H  H180  1  0.965000  0.053400  0.584100  1.0  0.1495
  H  H181  1  0.181000  0.724100  0.780400  1.0  0.1249
  H  H182  1  0.201500  0.940800  0.810400  1.0  0.1275
  H  H183  1  0.122700  0.077600  0.673500  1.0  0.1291
  H  H184  1  0.101300  0.860500  0.643900  1.0  0.1085
  H  H185  1  0.960500  0.621500  0.639400  1.0  0.1071
  H  H186  1  0.919900  0.787900  0.638800  1.0  0.1155
  H  H187  1  0.854200  0.899600  0.502700  1.0  0.1431
  H  H188  1  0.900400  0.739900  0.507600  1.0  0.1299
  H  H189  1  0.112400  0.147900  0.566100  1.0  0.1612
  H  H190  1  0.146600  0.272700  0.584600  1.0  0.1447
  H  H191  1  0.152800  0.187300  0.622800  1.0  0.1591
  H  H192  1  0.433700  0.242100  0.010000  1.0  0.1288
  H  H193  1  0.807200  0.339400  0.482800  1.0  0.2672
  H  H194  1  0.940800  0.367200  0.430600  1.0  0.2838
  H  H195  1  0.970800  0.305700  0.480500  1.0  0.3748
  H  H196  1  0.593500  0.099100  0.408900  1.0  0.1441
  H  H197  1  0.561000  0.186200  0.360300  1.0  0.1458
  H  H198  1  0.582900  0.250100  0.409800  1.0  0.1466
  H  H199  1  0.582200  0.461200  0.245400  1.0  0.3644
  H  H200  1  0.567200  0.141200  0.249800  1.0  0.3592
  H  H201  1  0.541200  0.087200  0.200000  1.0  0.292
  H  H202  1  0.654600  0.953600  0.248800  1.0  0.3325
  H  H203  1  0.691100  0.319100  0.293500  1.0  0.3395
  H  H204  1  0.661700  0.268100  0.242300  1.0  0.3529
  H  H205  1  0.447000  0.889500  0.019500  1.0  0.3271
  H  H206  1  0.864800  0.265200  0.494800  1.0  0.1363
  H  H207  1  0.360200  0.533500  0.094500  1.0  0.3501
  H  H208  1  0.334800  0.495000  0.043400  1.0  0.363
  H  H209  1  0.854500  0.417700  0.375400  1.0  0.1279
  H  H210  1  0.785900  0.424900  0.360600  1.0  0.1103
  H  H211  1  0.562800  0.637200  0.216400  1.0  0.1242
  H  H212  1  0.541200  0.852900  0.186400  1.0  0.1128
  H  H213  1  0.606300  0.985500  0.319500  1.0  0.1171
  H  H214  1  0.630400  0.766600  0.350400  1.0  0.1214
  H  H215  1  0.754100  0.964600  0.356400  1.0  0.1496
  H  H216  1  0.743500  0.893500  0.383900  1.0  0.159
  H  H217  1  0.777900  0.020300  0.407700  1.0  0.1568
  H  H218  1  0.511300  0.542000  0.116800  1.0  0.1463
  H  H219  1  0.489400  0.495800  0.136300  1.0  0.14
  H  H220  1  0.465000  0.446600  0.084100  1.0  0.1495
  H  H221  1  0.681000  0.775900  0.280400  1.0  0.1248
  H  H222  1  0.701500  0.559200  0.310400  1.0  0.1268
  H  H223  1  0.622700  0.422400  0.173500  1.0  0.1296
  H  H224  1  0.601300  0.639500  0.143900  1.0  0.1083
  H  H225  1  0.460500  0.878500  0.139400  1.0  0.1069
  H  H226  1  0.419900  0.712100  0.138800  1.0  0.1153
  H  H227  1  0.354200  0.600400  0.002700  1.0  0.1429
  H  H228  1  0.400400  0.760100  0.007600  1.0  0.1294
  H  H229  1  0.612400  0.352100  0.066100  1.0  0.1618
  H  H230  1  0.646600  0.227300  0.084600  1.0  0.1451
  H  H231  1  0.652800  0.312700  0.122800  1.0  0.1602
  H  H232  1  0.933700  0.257900  0.510000  1.0  0.1286
  H  H233  1  0.307200  0.839400  0.482800  1.0  0.2672
  H  H234  1  0.440800  0.867200  0.430600  1.0  0.2838
  H  H235  1  0.470800  0.805700  0.480500  1.0  0.3748
  H  H236  1  0.093500  0.599100  0.408900  1.0  0.1441
  H  H237  1  0.061000  0.686200  0.360300  1.0  0.1458
  H  H238  1  0.082900  0.750100  0.409800  1.0  0.1466
  H  H239  1  0.082200  0.961200  0.245400  1.0  0.3644
  H  H240  1  0.067200  0.641200  0.249800  1.0  0.3592
  H  H241  1  0.041200  0.587200  0.200000  1.0  0.292
  H  H242  1  0.154600  0.453600  0.248800  1.0  0.3325
  H  H243  1  0.191100  0.819100  0.293500  1.0  0.3395
  H  H244  1  0.161700  0.768100  0.242300  1.0  0.3529
  H  H245  1  0.947000  0.389500  0.019500  1.0  0.3271
  H  H246  1  0.364800  0.765200  0.494800  1.0  0.1363
  H  H247  1  0.860200  0.033500  0.094500  1.0  0.3501
  H  H248  1  0.834800  0.995000  0.043400  1.0  0.363
  H  H249  1  0.354500  0.917700  0.375400  1.0  0.1279
  H  H250  1  0.285900  0.924900  0.360600  1.0  0.1103
  H  H251  1  0.062800  0.137200  0.216400  1.0  0.1242
  H  H252  1  0.041200  0.352900  0.186400  1.0  0.1128
  H  H253  1  0.106300  0.485500  0.319500  1.0  0.1171
  H  H254  1  0.130400  0.266600  0.350400  1.0  0.1214
  H  H255  1  0.254100  0.464600  0.356400  1.0  0.1496
  H  H256  1  0.243500  0.393500  0.383900  1.0  0.159
  H  H257  1  0.277900  0.520300  0.407700  1.0  0.1568
  H  H258  1  0.011300  0.042000  0.116800  1.0  0.1463
  H  H259  1  0.989400  0.995800  0.136300  1.0  0.14
  H  H260  1  0.965000  0.946600  0.084100  1.0  0.1495
  H  H261  1  0.181000  0.275900  0.280400  1.0  0.1248
  H  H262  1  0.201500  0.059200  0.310400  1.0  0.1268
  H  H263  1  0.122700  0.922400  0.173500  1.0  0.1296
  H  H264  1  0.101300  0.139500  0.143900  1.0  0.1083
  H  H265  1  0.960500  0.378500  0.139400  1.0  0.1069
  H  H266  1  0.919900  0.212100  0.138800  1.0  0.1153
  H  H267  1  0.854200  0.100400  0.002700  1.0  0.1429
  H  H268  1  0.900400  0.260100  0.007600  1.0  0.1294
  H  H269  1  0.112400  0.852100  0.066100  1.0  0.1618
  H  H270  1  0.146600  0.727300  0.084600  1.0  0.1451
  H  H271  1  0.152800  0.812700  0.122800  1.0  0.1602
  H  H272  1  0.433700  0.757900  0.510000  1.0  0.1286
  H  H273  1  0.192800  0.660600  0.517200  1.0  0.2679
  H  H274  1  0.059200  0.632800  0.569400  1.0  0.2815
  H  H275  1  0.029200  0.694300  0.519500  1.0  0.3722
  H  H276  1  0.406500  0.900900  0.591100  1.0  0.1435
  H  H277  1  0.439000  0.813800  0.639700  1.0  0.1475
  H  H278  1  0.417100  0.749900  0.590200  1.0  0.145
  H  H279  1  0.417800  0.538800  0.754600  1.0  0.3617
  H  H280  1  0.432800  0.858800  0.750200  1.0  0.3584
  H  H281  1  0.458800  0.912800  0.800000  1.0  0.2944
  H  H282  1  0.345400  0.046400  0.751200  1.0  0.3333
  H  H283  1  0.308900  0.680900  0.706500  1.0  0.3377
  H  H284  1  0.338300  0.731900  0.757700  1.0  0.3498
  H  H285  1  0.553000  0.110500  0.980500  1.0  0.3282
  H  H286  1  0.135200  0.734800  0.505200  1.0  0.1343
  H  H287  1  0.639800  0.466500  0.905500  1.0  0.3506
  H  H288  1  0.665200  0.505000  0.956600  1.0  0.363
  H  H289  1  0.145500  0.582300  0.624600  1.0  0.1269
  H  H290  1  0.214100  0.575100  0.639400  1.0  0.1109
  H  H291  1  0.437200  0.362800  0.783600  1.0  0.1245
  H  H292  1  0.458800  0.147100  0.813600  1.0  0.1124
  H  H293  1  0.393700  0.014500  0.680500  1.0  0.1171
  H  H294  1  0.369600  0.233400  0.649600  1.0  0.1206
  H  H295  1  0.245900  0.035400  0.643600  1.0  0.1495
  H  H296  1  0.256500  0.106500  0.616100  1.0  0.1587
  H  H297  1  0.222100  0.979700  0.592300  1.0  0.1575
  H  H298  1  0.488700  0.458000  0.883200  1.0  0.1456
  H  H299  1  0.510600  0.504200  0.863700  1.0  0.1402
  H  H300  1  0.535000  0.553400  0.915900  1.0  0.1507
  H  H301  1  0.319000  0.224100  0.719600  1.0  0.1237
  H  H302  1  0.298500  0.440800  0.689600  1.0  0.1269
  H  H303  1  0.377300  0.577600  0.826500  1.0  0.1294
  H  H304  1  0.398700  0.360500  0.856100  1.0  0.1102
  H  H305  1  0.539500  0.121500  0.860600  1.0  0.1076
  H  H306  1  0.580100  0.287900  0.861200  1.0  0.116
  H  H307  1  0.645800  0.399600  0.997300  1.0  0.1423
  H  H308  1  0.599600  0.239900  0.992400  1.0  0.1296
  H  H309  1  0.387600  0.647900  0.933900  1.0  0.1607
  H  H310  1  0.353400  0.772700  0.915400  1.0  0.1471
  H  H311  1  0.347200  0.687300  0.877200  1.0  0.1584
  H  H312  1  0.066300  0.742100  0.490000  1.0  0.1289
  H  H313  1  0.692800  0.160600  0.517200  1.0  0.2679
  H  H314  1  0.559200  0.132800  0.569400  1.0  0.2815
  H  H315  1  0.529200  0.194300  0.519500  1.0  0.3722
  H  H316  1  0.906500  0.400900  0.591100  1.0  0.1435
  H  H317  1  0.939000  0.313800  0.639700  1.0  0.1475
  H  H318  1  0.917100  0.249900  0.590200  1.0  0.145
  H  H319  1  0.917800  0.038800  0.754600  1.0  0.3617
  H  H320  1  0.932800  0.358800  0.750200  1.0  0.3584
  H  H321  1  0.958800  0.412800  0.800000  1.0  0.2944
  H  H322  1  0.845400  0.546400  0.751200  1.0  0.3333
  H  H323  1  0.808900  0.180900  0.706500  1.0  0.3377
  H  H324  1  0.838300  0.231900  0.757700  1.0  0.3498
  H  H325  1  0.053000  0.610500  0.980500  1.0  0.3282
  H  H326  1  0.635200  0.234800  0.505200  1.0  0.1343
  H  H327  1  0.139800  0.966500  0.905500  1.0  0.3506
  H  H328  1  0.165200  0.005000  0.956600  1.0  0.363
  H  H329  1  0.645500  0.082300  0.624600  1.0  0.1269
  H  H330  1  0.714100  0.075100  0.639400  1.0  0.1109
  H  H331  1  0.937200  0.862800  0.783600  1.0  0.1245
  H  H332  1  0.958800  0.647100  0.813600  1.0  0.1124
  H  H333  1  0.893700  0.514500  0.680500  1.0  0.1171
  H  H334  1  0.869600  0.733400  0.649600  1.0  0.1206
  H  H335  1  0.745900  0.535400  0.643600  1.0  0.1495
  H  H336  1  0.756500  0.606500  0.616100  1.0  0.1587
  H  H337  1  0.722100  0.479700  0.592300  1.0  0.1575
  H  H338  1  0.988700  0.958000  0.883200  1.0  0.1456
  H  H339  1  0.010600  0.004200  0.863700  1.0  0.1402
  H  H340  1  0.035000  0.053400  0.915900  1.0  0.1507
  H  H341  1  0.819000  0.724100  0.719600  1.0  0.1237
  H  H342  1  0.798500  0.940800  0.689600  1.0  0.1269
  H  H343  1  0.877300  0.077600  0.826500  1.0  0.1294
  H  H344  1  0.898700  0.860500  0.856100  1.0  0.1102
  H  H345  1  0.039500  0.621500  0.860600  1.0  0.1076
  H  H346  1  0.080100  0.787900  0.861200  1.0  0.116
  H  H347  1  0.145800  0.899600  0.997300  1.0  0.1423
  H  H348  1  0.099600  0.739900  0.992400  1.0  0.1296
  H  H349  1  0.887600  0.147900  0.933900  1.0  0.1607
  H  H350  1  0.853400  0.272700  0.915400  1.0  0.1471
  H  H351  1  0.847200  0.187300  0.877200  1.0  0.1584
  H  H352  1  0.566300  0.242100  0.490000  1.0  0.1289
  C  C353  1  0.365100  0.227400  0.090000  1.0  0.774
  C  C354  1  0.411100  0.187000  0.104000  1.0  -0.457
  C  C355  1  0.227500  0.357900  0.084300  1.0  0.5855
  C  C356  1  0.182000  0.352200  0.073200  1.0  -0.0777
  C  C357  1  0.137300  0.298100  0.029100  1.0  -0.0757
  C  C358  1  0.098900  0.337900  0.056100  1.0  0.2684
  C  C359  1  0.143100  0.387500  0.100300  1.0  -0.1771
  C  C360  1  0.184200  0.393000  0.108900  1.0  -0.0204
  C  C361  1  0.381800  0.541400  0.192300  1.0  0.5568
  C  C362  1  0.400600  0.678700  0.213700  1.0  -0.0648
  C  C363  1  0.427700  0.707300  0.262200  1.0  -0.1484
  C  C364  1  0.441400  0.836400  0.280700  1.0  -0.2177
  C  C365  1  0.429000  0.941900  0.249800  1.0  0.3014
  C  C366  1  0.402400  0.915500  0.201500  1.0  -0.1201
  C  C367  1  0.387800  0.783400  0.182800  1.0  -0.0629
  C  C368  1  0.295200  0.066600  0.150000  1.0  0.7527
  C  C369  1  0.251000  0.978400  0.123100  1.0  -0.4548
  C  C370  1  0.470500  0.349700  0.358100  1.0  0.7548
  C  C371  1  0.504200  0.469300  0.382400  1.0  -0.4504
  C  C372  1  0.382700  0.866500  0.312900  1.0  0.5924
  C  C373  1  0.363100  0.731200  0.291400  1.0  -0.0101
  C  C374  1  0.332000  0.704800  0.241700  1.0  -0.0966
  C  C375  1  0.319300  0.574500  0.223400  1.0  -0.2055
  C  C376  1  0.337500  0.467900  0.255300  1.0  0.2599
  C  C377  1  0.366300  0.493100  0.304900  1.0  -0.1727
  C  C378  1  0.379000  0.623700  0.322500  1.0  -0.0053
  C  C379  1  0.530900  0.935500  0.418900  1.0  0.5444
  C  C380  1  0.563900  0.837200  0.425500  1.0  -0.0589
  C  C381  1  0.560200  0.820900  0.387900  1.0  -0.094
  C  C382  1  0.585600  0.723100  0.388700  1.0  -0.1767
  C  C383  1  0.618600  0.642700  0.429100  1.0  0.2506
  C  C384  1  0.624000  0.655700  0.469400  1.0  -0.2045
  C  C385  1  0.596400  0.752100  0.466300  1.0  -0.0762
  C  C386  1  0.408600  0.188400  0.420000  1.0  0.7334
  C  C387  1  0.370700  0.278600  0.410800  1.0  -0.4175
  C  C388  1  0.096100  0.292200  0.020100  1.0  -0.1898
  C  C389  1  0.865100  0.727400  0.090000  1.0  0.774
  C  C390  1  0.911100  0.687000  0.104000  1.0  -0.457
  C  C391  1  0.727500  0.857900  0.084300  1.0  0.5855
  C  C392  1  0.682000  0.852200  0.073200  1.0  -0.0777
  C  C393  1  0.637300  0.798100  0.029100  1.0  -0.0757
  C  C394  1  0.598900  0.837900  0.056100  1.0  0.2684
  C  C395  1  0.643100  0.887500  0.100300  1.0  -0.1771
  C  C396  1  0.684200  0.893000  0.108900  1.0  -0.0204
  C  C397  1  0.881800  0.041400  0.192300  1.0  0.5568
  C  C398  1  0.900600  0.178700  0.213700  1.0  -0.0648
  C  C399  1  0.927700  0.207300  0.262200  1.0  -0.1484
  C  C400  1  0.941400  0.336400  0.280700  1.0  -0.2177
  C  C401  1  0.929000  0.441900  0.249800  1.0  0.3014
  C  C402  1  0.902400  0.415500  0.201500  1.0  -0.1201
  C  C403  1  0.887800  0.283400  0.182800  1.0  -0.0629
  C  C404  1  0.795200  0.566600  0.150000  1.0  0.7527
  C  C405  1  0.751000  0.478400  0.123100  1.0  -0.4548
  C  C406  1  0.970500  0.849700  0.358100  1.0  0.7548
  C  C407  1  0.004200  0.969300  0.382400  1.0  -0.4504
  C  C408  1  0.882700  0.366500  0.312900  1.0  0.5924
  C  C409  1  0.863100  0.231200  0.291400  1.0  -0.0101
  C  C410  1  0.832000  0.204800  0.241700  1.0  -0.0966
  C  C411  1  0.819300  0.074500  0.223400  1.0  -0.2055
  C  C412  1  0.837500  0.967900  0.255300  1.0  0.2599
  C  C413  1  0.866300  0.993100  0.304900  1.0  -0.1727
  C  C414  1  0.879000  0.123700  0.322500  1.0  -0.0053
  C  C415  1  0.030900  0.435500  0.418900  1.0  0.5444
  C  C416  1  0.063900  0.337200  0.425500  1.0  -0.0589
  C  C417  1  0.060200  0.320900  0.387900  1.0  -0.094
  C  C418  1  0.085600  0.223100  0.388700  1.0  -0.1767
  C  C419  1  0.118600  0.142700  0.429100  1.0  0.2506
  C  C420  1  0.124000  0.155700  0.469400  1.0  -0.2045
  C  C421  1  0.096400  0.252100  0.466300  1.0  -0.0762
  C  C422  1  0.908600  0.688400  0.420000  1.0  0.7334
  C  C423  1  0.870700  0.778600  0.410800  1.0  -0.4175
  C  C424  1  0.596100  0.792200  0.020100  1.0  -0.1898
  C  C425  1  0.634900  0.772600  0.910000  1.0  0.7715
  C  C426  1  0.588900  0.813000  0.896000  1.0  -0.4558
  C  C427  1  0.772500  0.642100  0.915700  1.0  0.5877
  C  C428  1  0.818000  0.647800  0.926800  1.0  -0.079
  C  C429  1  0.862700  0.701900  0.970900  1.0  -0.0768
  C  C430  1  0.901100  0.662100  0.943900  1.0  0.2699
  C  C431  1  0.856900  0.612500  0.899700  1.0  -0.1796
  C  C432  1  0.815800  0.607000  0.891100  1.0  -0.0172
  C  C433  1  0.618200  0.458600  0.807700  1.0  0.5595
  C  C434  1  0.599400  0.321300  0.786300  1.0  -0.0627
  C  C435  1  0.572300  0.292700  0.737800  1.0  -0.1496
  C  C436  1  0.558600  0.163600  0.719300  1.0  -0.2186
  C  C437  1  0.571000  0.058100  0.750200  1.0  0.3034
  C  C438  1  0.597600  0.084500  0.798500  1.0  -0.1191
  C  C439  1  0.612200  0.216600  0.817200  1.0  -0.0632
  C  C440  1  0.704800  0.933400  0.850000  1.0  0.7517
  C  C441  1  0.749000  0.021600  0.876900  1.0  -0.4559
  C  C442  1  0.529500  0.650300  0.641900  1.0  0.7538
  C  C443  1  0.495800  0.530700  0.617600  1.0  -0.4508
  C  C444  1  0.617300  0.133500  0.687100  1.0  0.5921
  C  C445  1  0.636900  0.268800  0.708600  1.0  -0.0138
  C  C446  1  0.668000  0.295200  0.758300  1.0  -0.0951
  C  C447  1  0.680700  0.425500  0.776600  1.0  -0.2043
  C  C448  1  0.662500  0.532100  0.744700  1.0  0.2585
  C  C449  1  0.633700  0.506900  0.695100  1.0  -0.1681
  C  C450  1  0.621000  0.376300  0.677500  1.0  -0.0022
  C  C451  1  0.469100  0.064500  0.581100  1.0  0.5447
  C  C452  1  0.436100  0.162800  0.574500  1.0  -0.058
  C  C453  1  0.439800  0.179100  0.612100  1.0  -0.0961
  C  C454  1  0.414400  0.276900  0.611300  1.0  -0.179
  C  C455  1  0.381400  0.357300  0.570900  1.0  0.2513
  C  C456  1  0.376000  0.344300  0.530600  1.0  -0.2061
  C  C457  1  0.403600  0.247900  0.533700  1.0  -0.0751
  C  C458  1  0.591400  0.811600  0.580000  1.0  0.7333
  C  C459  1  0.629300  0.721400  0.589200  1.0  -0.4192
  C  C460  1  0.903900  0.707800  0.979900  1.0  -0.1889
  C  C461  1  0.134900  0.272600  0.910000  1.0  0.7715
  C  C462  1  0.088900  0.313000  0.896000  1.0  -0.4558
  C  C463  1  0.272500  0.142100  0.915700  1.0  0.5877
  C  C464  1  0.318000  0.147800  0.926800  1.0  -0.079
  C  C465  1  0.362700  0.201900  0.970900  1.0  -0.0768
  C  C466  1  0.401100  0.162100  0.943900  1.0  0.2699
  C  C467  1  0.356900  0.112500  0.899700  1.0  -0.1796
  C  C468  1  0.315800  0.107000  0.891100  1.0  -0.0172
  C  C469  1  0.118200  0.958600  0.807700  1.0  0.5595
  C  C470  1  0.099400  0.821300  0.786300  1.0  -0.0627
  C  C471  1  0.072300  0.792700  0.737800  1.0  -0.1496
  C  C472  1  0.058600  0.663600  0.719300  1.0  -0.2186
  C  C473  1  0.071000  0.558100  0.750200  1.0  0.3034
  C  C474  1  0.097600  0.584500  0.798500  1.0  -0.1191
  C  C475  1  0.112200  0.716600  0.817200  1.0  -0.0632
  C  C476  1  0.204800  0.433400  0.850000  1.0  0.7517
  C  C477  1  0.249000  0.521600  0.876900  1.0  -0.4559
  C  C478  1  0.029500  0.150300  0.641900  1.0  0.7538
  C  C479  1  0.995800  0.030700  0.617600  1.0  -0.4508
  C  C480  1  0.117300  0.633500  0.687100  1.0  0.5921
  C  C481  1  0.136900  0.768800  0.708600  1.0  -0.0138
  C  C482  1  0.168000  0.795200  0.758300  1.0  -0.0951
  C  C483  1  0.180700  0.925500  0.776600  1.0  -0.2043
  C  C484  1  0.162500  0.032100  0.744700  1.0  0.2585
  C  C485  1  0.133700  0.006900  0.695100  1.0  -0.1681
  C  C486  1  0.121000  0.876300  0.677500  1.0  -0.0022
  C  C487  1  0.969100  0.564500  0.581100  1.0  0.5447
  C  C488  1  0.936100  0.662800  0.574500  1.0  -0.058
  C  C489  1  0.939800  0.679100  0.612100  1.0  -0.0961
  C  C490  1  0.914400  0.776900  0.611300  1.0  -0.179
  C  C491  1  0.881400  0.857300  0.570900  1.0  0.2513
  C  C492  1  0.876000  0.844300  0.530600  1.0  -0.2061
  C  C493  1  0.903600  0.747900  0.533700  1.0  -0.0751
  C  C494  1  0.091400  0.311600  0.580000  1.0  0.7333
  C  C495  1  0.129300  0.221400  0.589200  1.0  -0.4192
  C  C496  1  0.403900  0.207800  0.979900  1.0  -0.1889
  C  C497  1  0.634900  0.227400  0.410000  1.0  0.7717
  C  C498  1  0.588900  0.187000  0.396000  1.0  -0.4558
  C  C499  1  0.772500  0.357900  0.415700  1.0  0.5877
  C  C500  1  0.818000  0.352200  0.426800  1.0  -0.0789
  C  C501  1  0.862700  0.298100  0.470900  1.0  -0.0765
  C  C502  1  0.901100  0.337900  0.443900  1.0  0.2685
  C  C503  1  0.856900  0.387500  0.399700  1.0  -0.1789
  C  C504  1  0.815800  0.393000  0.391100  1.0  -0.0177
  C  C505  1  0.618200  0.541400  0.307700  1.0  0.558
  C  C506  1  0.599400  0.678700  0.286300  1.0  -0.0621
  C  C507  1  0.572300  0.707300  0.237800  1.0  -0.1501
  C  C508  1  0.558600  0.836400  0.219300  1.0  -0.2186
  C  C509  1  0.571000  0.941900  0.250200  1.0  0.3038
  C  C510  1  0.597600  0.915500  0.298500  1.0  -0.1189
  C  C511  1  0.612200  0.783400  0.317200  1.0  -0.063
  C  C512  1  0.704800  0.066600  0.350000  1.0  0.7516
  C  C513  1  0.749000  0.978400  0.376900  1.0  -0.4563
  C  C514  1  0.529500  0.349700  0.141900  1.0  0.7536
  C  C515  1  0.495800  0.469300  0.117600  1.0  -0.4511
  C  C516  1  0.617300  0.866500  0.187100  1.0  0.5921
  C  C517  1  0.636900  0.731200  0.208600  1.0  -0.0129
  C  C518  1  0.668000  0.704800  0.258300  1.0  -0.0942
  C  C519  1  0.680700  0.574500  0.276600  1.0  -0.2043
  C  C520  1  0.662500  0.467900  0.244700  1.0  0.2584
  C  C521  1  0.633700  0.493100  0.195100  1.0  -0.1682
  C  C522  1  0.621000  0.623700  0.177500  1.0  -0.0024
  C  C523  1  0.469100  0.935500  0.081100  1.0  0.5447
  C  C524  1  0.436100  0.837200  0.074500  1.0  -0.0572
  C  C525  1  0.439800  0.820900  0.112100  1.0  -0.096
  C  C526  1  0.414400  0.723100  0.111300  1.0  -0.1791
  C  C527  1  0.381400  0.642700  0.070900  1.0  0.2504
  C  C528  1  0.376000  0.655700  0.030600  1.0  -0.2066
  C  C529  1  0.403600  0.752100  0.033700  1.0  -0.0744
  C  C530  1  0.591400  0.188400  0.080000  1.0  0.7332
  C  C531  1  0.629300  0.278600  0.089200  1.0  -0.4197
  C  C532  1  0.903900  0.292200  0.479900  1.0  -0.1895
  C  C533  1  0.134900  0.727400  0.410000  1.0  0.7717
  C  C534  1  0.088900  0.687000  0.396000  1.0  -0.4558
  C  C535  1  0.272500  0.857900  0.415700  1.0  0.5877
  C  C536  1  0.318000  0.852200  0.426800  1.0  -0.0789
  C  C537  1  0.362700  0.798100  0.470900  1.0  -0.0765
  C  C538  1  0.401100  0.837900  0.443900  1.0  0.2685
  C  C539  1  0.356900  0.887500  0.399700  1.0  -0.1789
  C  C540  1  0.315800  0.893000  0.391100  1.0  -0.0177
  C  C541  1  0.118200  0.041400  0.307700  1.0  0.558
  C  C542  1  0.099400  0.178700  0.286300  1.0  -0.0621
  C  C543  1  0.072300  0.207300  0.237800  1.0  -0.1501
  C  C544  1  0.058600  0.336400  0.219300  1.0  -0.2186
  C  C545  1  0.071000  0.441900  0.250200  1.0  0.3038
  C  C546  1  0.097600  0.415500  0.298500  1.0  -0.1189
  C  C547  1  0.112200  0.283400  0.317200  1.0  -0.063
  C  C548  1  0.204800  0.566600  0.350000  1.0  0.7516
  C  C549  1  0.249000  0.478400  0.376900  1.0  -0.4563
  C  C550  1  0.029500  0.849700  0.141900  1.0  0.7536
  C  C551  1  0.995800  0.969300  0.117600  1.0  -0.4511
  C  C552  1  0.117300  0.366500  0.187100  1.0  0.5921
  C  C553  1  0.136900  0.231200  0.208600  1.0  -0.0129
  C  C554  1  0.168000  0.204800  0.258300  1.0  -0.0942
  C  C555  1  0.180700  0.074500  0.276600  1.0  -0.2043
  C  C556  1  0.162500  0.967900  0.244700  1.0  0.2584
  C  C557  1  0.133700  0.993100  0.195100  1.0  -0.1682
  C  C558  1  0.121000  0.123700  0.177500  1.0  -0.0024
  C  C559  1  0.969100  0.435500  0.081100  1.0  0.5447
  C  C560  1  0.936100  0.337200  0.074500  1.0  -0.0572
  C  C561  1  0.939800  0.320900  0.112100  1.0  -0.096
  C  C562  1  0.914400  0.223100  0.111300  1.0  -0.1791
  C  C563  1  0.881400  0.142700  0.070900  1.0  0.2504
  C  C564  1  0.876000  0.155700  0.030600  1.0  -0.2066
  C  C565  1  0.903600  0.252100  0.033700  1.0  -0.0744
  C  C566  1  0.091400  0.688400  0.080000  1.0  0.7332
  C  C567  1  0.129300  0.778600  0.089200  1.0  -0.4197
  C  C568  1  0.403900  0.792200  0.479900  1.0  -0.1895
  C  C569  1  0.365100  0.772600  0.590000  1.0  0.7737
  C  C570  1  0.411100  0.813000  0.604000  1.0  -0.4567
  C  C571  1  0.227500  0.642100  0.584300  1.0  0.5856
  C  C572  1  0.182000  0.647800  0.573200  1.0  -0.0776
  C  C573  1  0.137300  0.701900  0.529100  1.0  -0.0765
  C  C574  1  0.098900  0.662100  0.556100  1.0  0.27
  C  C575  1  0.143100  0.612500  0.600300  1.0  -0.1775
  C  C576  1  0.184200  0.607000  0.608900  1.0  -0.0203
  C  C577  1  0.381800  0.458600  0.692300  1.0  0.5575
  C  C578  1  0.400600  0.321300  0.713700  1.0  -0.064
  C  C579  1  0.427700  0.292700  0.762200  1.0  -0.1482
  C  C580  1  0.441400  0.163600  0.780700  1.0  -0.2177
  C  C581  1  0.429000  0.058100  0.749800  1.0  0.3013
  C  C582  1  0.402400  0.084500  0.701500  1.0  -0.12
  C  C583  1  0.387800  0.216600  0.682800  1.0  -0.0628
  C  C584  1  0.295200  0.933400  0.650000  1.0  0.7527
  C  C585  1  0.251000  0.021600  0.623100  1.0  -0.4548
  C  C586  1  0.470500  0.650300  0.858100  1.0  0.7549
  C  C587  1  0.504200  0.530700  0.882400  1.0  -0.4509
  C  C588  1  0.382700  0.133500  0.812900  1.0  0.5914
  C  C589  1  0.363100  0.268800  0.791400  1.0  -0.0086
  C  C590  1  0.332000  0.295200  0.741700  1.0  -0.0974
  C  C591  1  0.319300  0.425500  0.723400  1.0  -0.2051
  C  C592  1  0.337500  0.532100  0.755300  1.0  0.2602
  C  C593  1  0.366300  0.506900  0.804900  1.0  -0.1731
  C  C594  1  0.379000  0.376300  0.822500  1.0  -0.0054
  C  C595  1  0.530900  0.064500  0.918900  1.0  0.5444
  C  C596  1  0.563900  0.162800  0.925500  1.0  -0.0594
  C  C597  1  0.560200  0.179100  0.887900  1.0  -0.0936
  C  C598  1  0.585600  0.276900  0.888700  1.0  -0.1765
  C  C599  1  0.618600  0.357300  0.929100  1.0  0.2509
  C  C600  1  0.624000  0.344300  0.969400  1.0  -0.2037
  C  C601  1  0.596400  0.247900  0.966300  1.0  -0.0763
  C  C602  1  0.408600  0.811600  0.920000  1.0  0.7342
  C  C603  1  0.370700  0.721400  0.910800  1.0  -0.4172
  C  C604  1  0.096100  0.707800  0.520100  1.0  -0.1903
  C  C605  1  0.865100  0.272600  0.590000  1.0  0.7737
  C  C606  1  0.911100  0.313000  0.604000  1.0  -0.4567
  C  C607  1  0.727500  0.142100  0.584300  1.0  0.5856
  C  C608  1  0.682000  0.147800  0.573200  1.0  -0.0776
  C  C609  1  0.637300  0.201900  0.529100  1.0  -0.0765
  C  C610  1  0.598900  0.162100  0.556100  1.0  0.27
  C  C611  1  0.643100  0.112500  0.600300  1.0  -0.1775
  C  C612  1  0.684200  0.107000  0.608900  1.0  -0.0203
  C  C613  1  0.881800  0.958600  0.692300  1.0  0.5575
  C  C614  1  0.900600  0.821300  0.713700  1.0  -0.064
  C  C615  1  0.927700  0.792700  0.762200  1.0  -0.1482
  C  C616  1  0.941400  0.663600  0.780700  1.0  -0.2177
  C  C617  1  0.929000  0.558100  0.749800  1.0  0.3013
  C  C618  1  0.902400  0.584500  0.701500  1.0  -0.12
  C  C619  1  0.887800  0.716600  0.682800  1.0  -0.0628
  C  C620  1  0.795200  0.433400  0.650000  1.0  0.7527
  C  C621  1  0.751000  0.521600  0.623100  1.0  -0.4548
  C  C622  1  0.970500  0.150300  0.858100  1.0  0.7549
  C  C623  1  0.004200  0.030700  0.882400  1.0  -0.4509
  C  C624  1  0.882700  0.633500  0.812900  1.0  0.5914
  C  C625  1  0.863100  0.768800  0.791400  1.0  -0.0086
  C  C626  1  0.832000  0.795200  0.741700  1.0  -0.0974
  C  C627  1  0.819300  0.925500  0.723400  1.0  -0.2051
  C  C628  1  0.837500  0.032100  0.755300  1.0  0.2602
  C  C629  1  0.866300  0.006900  0.804900  1.0  -0.1731
  C  C630  1  0.879000  0.876300  0.822500  1.0  -0.0054
  C  C631  1  0.030900  0.564500  0.918900  1.0  0.5444
  C  C632  1  0.063900  0.662800  0.925500  1.0  -0.0594
  C  C633  1  0.060200  0.679100  0.887900  1.0  -0.0936
  C  C634  1  0.085600  0.776900  0.888700  1.0  -0.1765
  C  C635  1  0.118600  0.857300  0.929100  1.0  0.2509
  C  C636  1  0.124000  0.844300  0.969400  1.0  -0.2037
  C  C637  1  0.096400  0.747900  0.966300  1.0  -0.0763
  C  C638  1  0.908600  0.311600  0.920000  1.0  0.7342
  C  C639  1  0.870700  0.221400  0.910800  1.0  -0.4172
  C  C640  1  0.596100  0.207800  0.520100  1.0  -0.1903
  N  N641  1  0.222100  0.346000  0.047200  1.0  -0.3388
  N  N642  1  0.057000  0.336800  0.047200  1.0  -0.5948
  N  N643  1  0.397000  0.444300  0.223200  1.0  -0.308
  N  N644  1  0.441900  0.074100  0.269200  1.0  -0.5915
  N  N645  1  0.368400  0.966100  0.283000  1.0  -0.2917
  N  N646  1  0.326800  0.334100  0.237500  1.0  -0.5679
  N  N647  1  0.532600  0.939900  0.454600  1.0  -0.2557
  N  N648  1  0.644400  0.544900  0.430600  1.0  -0.6646
  N  N649  1  0.722100  0.846000  0.047200  1.0  -0.3388
  N  N650  1  0.557000  0.836800  0.047200  1.0  -0.5948
  N  N651  1  0.897000  0.944300  0.223200  1.0  -0.308
  N  N652  1  0.941900  0.574100  0.269200  1.0  -0.5915
  N  N653  1  0.868400  0.466100  0.283000  1.0  -0.2917
  N  N654  1  0.826800  0.834100  0.237500  1.0  -0.5679
  N  N655  1  0.032600  0.439900  0.454600  1.0  -0.2557
  N  N656  1  0.144400  0.044900  0.430600  1.0  -0.6646
  N  N657  1  0.777900  0.654000  0.952800  1.0  -0.3381
  N  N658  1  0.943000  0.663200  0.952800  1.0  -0.5964
  N  N659  1  0.603000  0.555700  0.776800  1.0  -0.306
  N  N660  1  0.558100  0.925900  0.730800  1.0  -0.59
  N  N661  1  0.631600  0.033900  0.717000  1.0  -0.2955
  N  N662  1  0.673200  0.665900  0.762500  1.0  -0.5703
  N  N663  1  0.467400  0.060100  0.545400  1.0  -0.2554
  N  N664  1  0.355600  0.455100  0.569400  1.0  -0.6634
  N  N665  1  0.277900  0.154000  0.952800  1.0  -0.3381
  N  N666  1  0.443000  0.163200  0.952800  1.0  -0.5964
  N  N667  1  0.103000  0.055700  0.776800  1.0  -0.306
  N  N668  1  0.058100  0.425900  0.730800  1.0  -0.59
  N  N669  1  0.131600  0.533900  0.717000  1.0  -0.2955
  N  N670  1  0.173200  0.165900  0.762500  1.0  -0.5703
  N  N671  1  0.967400  0.560100  0.545400  1.0  -0.2554
  N  N672  1  0.855600  0.955100  0.569400  1.0  -0.6634
  N  N673  1  0.777900  0.346000  0.452800  1.0  -0.3381
  N  N674  1  0.943000  0.336800  0.452800  1.0  -0.5964
  N  N675  1  0.603000  0.444300  0.276800  1.0  -0.3053
  N  N676  1  0.558100  0.074100  0.230800  1.0  -0.5908
  N  N677  1  0.631600  0.966100  0.217000  1.0  -0.2957
  N  N678  1  0.673200  0.334100  0.262500  1.0  -0.5698
  N  N679  1  0.467400  0.939900  0.045400  1.0  -0.2551
  N  N680  1  0.355600  0.544900  0.069400  1.0  -0.6635
  N  N681  1  0.277900  0.846000  0.452800  1.0  -0.3381
  N  N682  1  0.443000  0.836800  0.452800  1.0  -0.5964
  N  N683  1  0.103000  0.944300  0.276800  1.0  -0.3053
  N  N684  1  0.058100  0.574100  0.230800  1.0  -0.5908
  N  N685  1  0.131600  0.466100  0.217000  1.0  -0.2957
  N  N686  1  0.173200  0.834100  0.262500  1.0  -0.5698
  N  N687  1  0.967400  0.439900  0.045400  1.0  -0.2551
  N  N688  1  0.855600  0.044900  0.069400  1.0  -0.6635
  N  N689  1  0.222100  0.654000  0.547200  1.0  -0.3389
  N  N690  1  0.057000  0.663200  0.547200  1.0  -0.5957
  N  N691  1  0.397000  0.555700  0.723200  1.0  -0.3082
  N  N692  1  0.441900  0.925900  0.769200  1.0  -0.5902
  N  N693  1  0.368400  0.033900  0.783000  1.0  -0.2911
  N  N694  1  0.326800  0.665900  0.737500  1.0  -0.5683
  N  N695  1  0.532600  0.060100  0.954600  1.0  -0.256
  N  N696  1  0.644400  0.455100  0.930600  1.0  -0.6651
  N  N697  1  0.722100  0.154000  0.547200  1.0  -0.3389
  N  N698  1  0.557000  0.163200  0.547200  1.0  -0.5957
  N  N699  1  0.897000  0.055700  0.723200  1.0  -0.3082
  N  N700  1  0.941900  0.425900  0.769200  1.0  -0.5902
  N  N701  1  0.868400  0.533900  0.783000  1.0  -0.2911
  N  N702  1  0.826800  0.165900  0.737500  1.0  -0.5683
  N  N703  1  0.032600  0.560100  0.954600  1.0  -0.256
  N  N704  1  0.144400  0.955100  0.930600  1.0  -0.6651
  O  O705  1  0.325800  0.240900  0.044300  1.0  -0.5741
  O  O706  1  0.369300  0.244300  0.124900  1.0  -0.5867
  O  O707  1  0.262840  0.343700  0.055500  1.0  -0.77
  O  O708  1  0.270100  0.374100  0.128300  1.0  -0.5617
  O  O709  1  0.380500  0.315800  0.206500  1.0  -0.7941
  O  O710  1  0.353100  0.517600  0.146700  1.0  -0.5771
  O  O711  1  0.302100  0.117400  0.126300  1.0  -0.6035
  O  O712  1  0.322700  0.081400  0.195200  1.0  -0.5685
  O  O713  1  0.444700  0.329000  0.312800  1.0  -0.5686
  O  O714  1  0.469400  0.280300  0.383900  1.0  -0.5866
  O  O715  1  0.389590  0.090500  0.301800  1.0  -0.7996
  O  O716  1  0.414100  0.886400  0.360100  1.0  -0.6221
  O  O717  1  0.501750  0.025300  0.449600  1.0  -0.7391
  O  O718  1  0.501300  0.008500  0.382300  1.0  -0.5932
  O  O719  1  0.402100  0.162000  0.384700  1.0  -0.5725
  O  O720  1  0.444200  0.149600  0.464600  1.0  -0.5915
  O  O721  1  0.825800  0.740900  0.044300  1.0  -0.5741
  O  O722  1  0.869300  0.744300  0.124900  1.0  -0.5867
  O  O723  1  0.762840  0.843700  0.055500  1.0  -0.77
  O  O724  1  0.770100  0.874100  0.128300  1.0  -0.5617
  O  O725  1  0.880500  0.815800  0.206500  1.0  -0.7941
  O  O726  1  0.853100  0.017600  0.146700  1.0  -0.5771
  O  O727  1  0.802100  0.617400  0.126300  1.0  -0.6035
  O  O728  1  0.822700  0.581400  0.195200  1.0  -0.5685
  O  O729  1  0.944700  0.829000  0.312800  1.0  -0.5686
  O  O730  1  0.969400  0.780300  0.383900  1.0  -0.5866
  O  O731  1  0.889590  0.590500  0.301800  1.0  -0.7996
  O  O732  1  0.914100  0.386400  0.360100  1.0  -0.6221
  O  O733  1  0.001750  0.525300  0.449600  1.0  -0.7391
  O  O734  1  0.001300  0.508500  0.382300  1.0  -0.5932
  O  O735  1  0.902100  0.662000  0.384700  1.0  -0.5725
  O  O736  1  0.944200  0.649600  0.464600  1.0  -0.5915
  O  O737  1  0.674200  0.759100  0.955700  1.0  -0.5738
  O  O738  1  0.630700  0.755700  0.875100  1.0  -0.5874
  O  O739  1  0.737160  0.656300  0.944500  1.0  -0.7698
  O  O740  1  0.729900  0.625900  0.871700  1.0  -0.5616
  O  O741  1  0.619500  0.684200  0.793500  1.0  -0.7949
  O  O742  1  0.646900  0.482400  0.853300  1.0  -0.5764
  O  O743  1  0.697900  0.882600  0.873700  1.0  -0.6048
  O  O744  1  0.677300  0.918600  0.804800  1.0  -0.5681
  O  O745  1  0.555300  0.671000  0.687200  1.0  -0.5702
  O  O746  1  0.530600  0.719700  0.616100  1.0  -0.5861
  O  O747  1  0.610410  0.909500  0.698200  1.0  -0.7987
  O  O748  1  0.585900  0.113600  0.639900  1.0  -0.6217
  O  O749  1  0.498250  0.974700  0.550400  1.0  -0.7385
  O  O750  1  0.498700  0.991500  0.617700  1.0  -0.5925
  O  O751  1  0.597900  0.838000  0.615300  1.0  -0.5721
  O  O752  1  0.555800  0.850400  0.535400  1.0  -0.5908
  O  O753  1  0.174200  0.259100  0.955700  1.0  -0.5738
  O  O754  1  0.130700  0.255700  0.875100  1.0  -0.5874
  O  O755  1  0.237160  0.156300  0.944500  1.0  -0.7698
  O  O756  1  0.229900  0.125900  0.871700  1.0  -0.5616
  O  O757  1  0.119500  0.184200  0.793500  1.0  -0.7949
  O  O758  1  0.146900  0.982400  0.853300  1.0  -0.5764
  O  O759  1  0.197900  0.382600  0.873700  1.0  -0.6048
  O  O760  1  0.177300  0.418600  0.804800  1.0  -0.5681
  O  O761  1  0.055300  0.171000  0.687200  1.0  -0.5702
  O  O762  1  0.030600  0.219700  0.616100  1.0  -0.5861
  O  O763  1  0.110410  0.409500  0.698200  1.0  -0.7987
  O  O764  1  0.085900  0.613600  0.639900  1.0  -0.6217
  O  O765  1  0.998250  0.474700  0.550400  1.0  -0.7385
  O  O766  1  0.998700  0.491500  0.617700  1.0  -0.5925
  O  O767  1  0.097900  0.338000  0.615300  1.0  -0.5721
  O  O768  1  0.055800  0.350400  0.535400  1.0  -0.5908
  O  O769  1  0.674200  0.240900  0.455700  1.0  -0.5738
  O  O770  1  0.630700  0.244300  0.375100  1.0  -0.5875
  O  O771  1  0.737160  0.343700  0.444500  1.0  -0.7691
  O  O772  1  0.729900  0.374100  0.371700  1.0  -0.5617
  O  O773  1  0.619500  0.315800  0.293500  1.0  -0.7951
  O  O774  1  0.646900  0.517600  0.353300  1.0  -0.5767
  O  O775  1  0.697900  0.117400  0.373700  1.0  -0.604
  O  O776  1  0.677300  0.081400  0.304800  1.0  -0.5676
  O  O777  1  0.555300  0.329000  0.187200  1.0  -0.5698
  O  O778  1  0.530600  0.280300  0.116100  1.0  -0.5868
  O  O779  1  0.610410  0.090500  0.198200  1.0  -0.7982
  O  O780  1  0.585900  0.886400  0.139900  1.0  -0.6214
  O  O781  1  0.498250  0.025300  0.050400  1.0  -0.7396
  O  O782  1  0.498700  0.008500  0.117700  1.0  -0.593
  O  O783  1  0.597900  0.162000  0.115300  1.0  -0.5727
  O  O784  1  0.555800  0.149600  0.035400  1.0  -0.5905
  O  O785  1  0.174200  0.740900  0.455700  1.0  -0.5738
  O  O786  1  0.130700  0.744300  0.375100  1.0  -0.5875
  O  O787  1  0.237160  0.843700  0.444500  1.0  -0.7691
  O  O788  1  0.229900  0.874100  0.371700  1.0  -0.5617
  O  O789  1  0.119500  0.815800  0.293500  1.0  -0.7951
  O  O790  1  0.146900  0.017600  0.353300  1.0  -0.5767
  O  O791  1  0.197900  0.617400  0.373700  1.0  -0.604
  O  O792  1  0.177300  0.581400  0.304800  1.0  -0.5676
  O  O793  1  0.055300  0.829000  0.187200  1.0  -0.5698
  O  O794  1  0.030600  0.780300  0.116100  1.0  -0.5868
  O  O795  1  0.110410  0.590500  0.198200  1.0  -0.7982
  O  O796  1  0.085900  0.386400  0.139900  1.0  -0.6214
  O  O797  1  0.998250  0.525300  0.050400  1.0  -0.7396
  O  O798  1  0.998700  0.508500  0.117700  1.0  -0.593
  O  O799  1  0.097900  0.662000  0.115300  1.0  -0.5727
  O  O800  1  0.055800  0.649600  0.035400  1.0  -0.5905
  O  O801  1  0.325800  0.759100  0.544300  1.0  -0.574
  O  O802  1  0.369300  0.755700  0.624900  1.0  -0.5868
  O  O803  1  0.262840  0.656300  0.555500  1.0  -0.7703
  O  O804  1  0.270100  0.625900  0.628300  1.0  -0.5618
  O  O805  1  0.380500  0.684200  0.706500  1.0  -0.7943
  O  O806  1  0.353100  0.482400  0.646700  1.0  -0.5771
  O  O807  1  0.302100  0.882600  0.626300  1.0  -0.6034
  O  O808  1  0.322700  0.918600  0.695200  1.0  -0.569
  O  O809  1  0.444700  0.671000  0.812800  1.0  -0.5684
  O  O810  1  0.469400  0.719700  0.883900  1.0  -0.5858
  O  O811  1  0.389590  0.909500  0.801800  1.0  -0.7991
  O  O812  1  0.414100  0.113600  0.860100  1.0  -0.6232
  O  O813  1  0.501750  0.974700  0.949600  1.0  -0.7387
  O  O814  1  0.501300  0.991500  0.882300  1.0  -0.5933
  O  O815  1  0.402100  0.838000  0.884700  1.0  -0.5723
  O  O816  1  0.444200  0.850400  0.964600  1.0  -0.5922
  O  O817  1  0.825800  0.259100  0.544300  1.0  -0.574
  O  O818  1  0.869300  0.255700  0.624900  1.0  -0.5868
  O  O819  1  0.762840  0.156300  0.555500  1.0  -0.7703
  O  O820  1  0.770100  0.125900  0.628300  1.0  -0.5618
  O  O821  1  0.880500  0.184200  0.706500  1.0  -0.7943
  O  O822  1  0.853100  0.982400  0.646700  1.0  -0.5771
  O  O823  1  0.802100  0.382600  0.626300  1.0  -0.6034
  O  O824  1  0.822700  0.418600  0.695200  1.0  -0.569
  O  O825  1  0.944700  0.171000  0.812800  1.0  -0.5684
  O  O826  1  0.969400  0.219700  0.883900  1.0  -0.5858
  O  O827  1  0.889590  0.409500  0.801800  1.0  -0.7991
  O  O828  1  0.914100  0.613600  0.860100  1.0  -0.6232
  O  O829  1  0.001750  0.474700  0.949600  1.0  -0.7387
  O  O830  1  0.001300  0.491500  0.882300  1.0  -0.5933
  O  O831  1  0.902100  0.338000  0.884700  1.0  -0.5723
  O  O832  1  0.944200  0.350400  0.964600  1.0  -0.5922
