# generated using pymatgen
data_Cu4H40C48N14O9
_symmetry_space_group_name_H-M   'P 1'
_cell_length_a   14.63150000
_cell_length_b   24.77600000
_cell_length_c   33.16900000
_cell_angle_alpha   90.00000000
_cell_angle_beta   90.00000000
_cell_angle_gamma   90.00000000
_symmetry_Int_Tables_number   1
_chemical_formula_structural   Cu4H40C48N14O9
_chemical_formula_sum   'Cu32 H320 C384 N112 O72'
_cell_volume   12024.09564944
_cell_formula_units_Z   8
loop_
 _symmetry_equiv_pos_site_id
 _symmetry_equiv_pos_as_xyz
  1  'x, y, z'
loop_
 _atom_site_type_symbol
 _atom_site_label
 _atom_site_symmetry_multiplicity
 _atom_site_fract_x
 _atom_site_fract_y
 _atom_site_fract_z
 _atom_site_occupancy
 _atom_site_charge
  Cu  Cu1  1  0.561130  0.175680  0.590360  1.0  0.8634
  Cu  Cu2  1  0.561130  0.675680  0.090360  1.0  0.8634
  Cu  Cu3  1  0.061130  0.175680  0.090360  1.0  0.8634
  Cu  Cu4  1  0.061130  0.675680  0.590360  1.0  0.8634
  Cu  Cu5  1  0.188870  0.574320  0.590360  1.0  0.863
  Cu  Cu6  1  0.188870  0.074320  0.090360  1.0  0.863
  Cu  Cu7  1  0.688870  0.574320  0.090360  1.0  0.863
  Cu  Cu8  1  0.688870  0.074320  0.590360  1.0  0.863
  Cu  Cu9  1  0.188870  0.175680  0.159640  1.0  0.8629
  Cu  Cu10  1  0.188870  0.675680  0.659640  1.0  0.8629
  Cu  Cu11  1  0.688870  0.175680  0.659640  1.0  0.8629
  Cu  Cu12  1  0.688870  0.675680  0.159640  1.0  0.8629
  Cu  Cu13  1  0.561130  0.574320  0.159640  1.0  0.8636
  Cu  Cu14  1  0.561130  0.074320  0.659640  1.0  0.8636
  Cu  Cu15  1  0.061130  0.574320  0.659640  1.0  0.8636
  Cu  Cu16  1  0.061130  0.074320  0.159640  1.0  0.8636
  Cu  Cu17  1  0.438870  0.824320  0.409640  1.0  0.8632
  Cu  Cu18  1  0.438870  0.324320  0.909640  1.0  0.8632
  Cu  Cu19  1  0.938870  0.824320  0.909640  1.0  0.8632
  Cu  Cu20  1  0.938870  0.324320  0.409640  1.0  0.8632
  Cu  Cu21  1  0.811130  0.425680  0.409640  1.0  0.8634
  Cu  Cu22  1  0.811130  0.925680  0.909640  1.0  0.8634
  Cu  Cu23  1  0.311130  0.425680  0.909640  1.0  0.8634
  Cu  Cu24  1  0.311130  0.925680  0.409640  1.0  0.8634
  Cu  Cu25  1  0.811130  0.824320  0.840360  1.0  0.8635
  Cu  Cu26  1  0.811130  0.324320  0.340360  1.0  0.8635
  Cu  Cu27  1  0.311130  0.824320  0.340360  1.0  0.8635
  Cu  Cu28  1  0.311130  0.324320  0.840360  1.0  0.8635
  Cu  Cu29  1  0.438870  0.425680  0.840360  1.0  0.8628
  Cu  Cu30  1  0.438870  0.925680  0.340360  1.0  0.8628
  Cu  Cu31  1  0.938870  0.425680  0.340360  1.0  0.8628
  Cu  Cu32  1  0.938870  0.925680  0.840360  1.0  0.8628
  H  H33  1  0.453900  0.033600  0.498500  1.0  0.0844
  H  H34  1  0.400100  0.026600  0.539000  1.0  0.1163
  H  H35  1  0.402300  0.090400  0.451200  1.0  0.1024
  H  H36  1  0.302300  0.104600  0.560000  1.0  0.1138
  H  H37  1  0.297400  0.151200  0.426600  1.0  0.106
  H  H38  1  0.195300  0.164600  0.537900  1.0  0.098
  H  H39  1  0.177300  0.183400  0.404800  1.0  0.1083
  H  H40  1  0.116900  0.232600  0.516200  1.0  0.0961
  H  H41  1  0.065700  0.239400  0.380900  1.0  0.0557
  H  H42  1  0.006300  0.287000  0.490000  1.0  0.0695
  H  H43  1  0.453900  0.533600  0.998500  1.0  0.0844
  H  H44  1  0.400100  0.526600  0.039000  1.0  0.1163
  H  H45  1  0.402300  0.590400  0.951200  1.0  0.1024
  H  H46  1  0.302300  0.604600  0.060000  1.0  0.1138
  H  H47  1  0.297400  0.651200  0.926600  1.0  0.106
  H  H48  1  0.195300  0.664600  0.037900  1.0  0.098
  H  H49  1  0.177300  0.683400  0.904800  1.0  0.1083
  H  H50  1  0.116900  0.732600  0.016200  1.0  0.0961
  H  H51  1  0.065700  0.739400  0.880900  1.0  0.0557
  H  H52  1  0.006300  0.787000  0.990000  1.0  0.0695
  H  H53  1  0.953900  0.033600  0.998500  1.0  0.0844
  H  H54  1  0.900100  0.026600  0.039000  1.0  0.1163
  H  H55  1  0.902300  0.090400  0.951200  1.0  0.1024
  H  H56  1  0.802300  0.104600  0.060000  1.0  0.1138
  H  H57  1  0.797400  0.151200  0.926600  1.0  0.106
  H  H58  1  0.695300  0.164600  0.037900  1.0  0.098
  H  H59  1  0.677300  0.183400  0.904800  1.0  0.1083
  H  H60  1  0.616900  0.232600  0.016200  1.0  0.0961
  H  H61  1  0.565700  0.239400  0.880900  1.0  0.0557
  H  H62  1  0.506300  0.287000  0.990000  1.0  0.0695
  H  H63  1  0.953900  0.533600  0.498500  1.0  0.0844
  H  H64  1  0.900100  0.526600  0.539000  1.0  0.1163
  H  H65  1  0.902300  0.590400  0.451200  1.0  0.1024
  H  H66  1  0.802300  0.604600  0.560000  1.0  0.1138
  H  H67  1  0.797400  0.651200  0.426600  1.0  0.106
  H  H68  1  0.695300  0.664600  0.537900  1.0  0.098
  H  H69  1  0.677300  0.683400  0.404800  1.0  0.1083
  H  H70  1  0.616900  0.732600  0.516200  1.0  0.0961
  H  H71  1  0.565700  0.739400  0.380900  1.0  0.0557
  H  H72  1  0.506300  0.787000  0.490000  1.0  0.0695
  H  H73  1  0.296100  0.716400  0.498500  1.0  0.0847
  H  H74  1  0.349900  0.723400  0.539000  1.0  0.1148
  H  H75  1  0.347700  0.659600  0.451200  1.0  0.1011
  H  H76  1  0.447700  0.645400  0.560000  1.0  0.1131
  H  H77  1  0.452600  0.598800  0.426600  1.0  0.1058
  H  H78  1  0.554700  0.585400  0.537900  1.0  0.0984
  H  H79  1  0.572700  0.566600  0.404800  1.0  0.1083
  H  H80  1  0.633100  0.517400  0.516200  1.0  0.0964
  H  H81  1  0.684300  0.510600  0.380900  1.0  0.0563
  H  H82  1  0.743700  0.463000  0.490000  1.0  0.0694
  H  H83  1  0.296100  0.216400  0.998500  1.0  0.0847
  H  H84  1  0.349900  0.223400  0.039000  1.0  0.1148
  H  H85  1  0.347700  0.159600  0.951200  1.0  0.1011
  H  H86  1  0.447700  0.145400  0.060000  1.0  0.1131
  H  H87  1  0.452600  0.098800  0.926600  1.0  0.1058
  H  H88  1  0.554700  0.085400  0.037900  1.0  0.0984
  H  H89  1  0.572700  0.066600  0.904800  1.0  0.1083
  H  H90  1  0.633100  0.017400  0.016200  1.0  0.0964
  H  H91  1  0.684300  0.010600  0.880900  1.0  0.0563
  H  H92  1  0.743700  0.963000  0.990000  1.0  0.0694
  H  H93  1  0.796100  0.716400  0.998500  1.0  0.0847
  H  H94  1  0.849900  0.723400  0.039000  1.0  0.1148
  H  H95  1  0.847700  0.659600  0.951200  1.0  0.1011
  H  H96  1  0.947700  0.645400  0.060000  1.0  0.1131
  H  H97  1  0.952600  0.598800  0.926600  1.0  0.1058
  H  H98  1  0.054700  0.585400  0.037900  1.0  0.0984
  H  H99  1  0.072700  0.566600  0.904800  1.0  0.1083
  H  H100  1  0.133100  0.517400  0.016200  1.0  0.0964
  H  H101  1  0.184300  0.510600  0.880900  1.0  0.0563
  H  H102  1  0.243700  0.463000  0.990000  1.0  0.0694
  H  H103  1  0.796100  0.216400  0.498500  1.0  0.0847
  H  H104  1  0.849900  0.223400  0.539000  1.0  0.1148
  H  H105  1  0.847700  0.159600  0.451200  1.0  0.1011
  H  H106  1  0.947700  0.145400  0.560000  1.0  0.1131
  H  H107  1  0.952600  0.098800  0.426600  1.0  0.1058
  H  H108  1  0.054700  0.085400  0.537900  1.0  0.0984
  H  H109  1  0.072700  0.066600  0.404800  1.0  0.1083
  H  H110  1  0.133100  0.017400  0.516200  1.0  0.0964
  H  H111  1  0.184300  0.010600  0.380900  1.0  0.0563
  H  H112  1  0.243700  0.963000  0.490000  1.0  0.0694
  H  H113  1  0.296100  0.033600  0.251500  1.0  0.0843
  H  H114  1  0.349900  0.026600  0.211000  1.0  0.1158
  H  H115  1  0.347700  0.090400  0.298800  1.0  0.1014
  H  H116  1  0.447700  0.104600  0.190000  1.0  0.1143
  H  H117  1  0.452600  0.151200  0.323400  1.0  0.1054
  H  H118  1  0.554700  0.164600  0.212100  1.0  0.0984
  H  H119  1  0.572700  0.183400  0.345200  1.0  0.1084
  H  H120  1  0.633100  0.232600  0.233800  1.0  0.096
  H  H121  1  0.684300  0.239400  0.369100  1.0  0.0562
  H  H122  1  0.743700  0.287000  0.260000  1.0  0.0693
  H  H123  1  0.296100  0.533600  0.751500  1.0  0.0843
  H  H124  1  0.349900  0.526600  0.711000  1.0  0.1158
  H  H125  1  0.347700  0.590400  0.798800  1.0  0.1014
  H  H126  1  0.447700  0.604600  0.690000  1.0  0.1143
  H  H127  1  0.452600  0.651200  0.823400  1.0  0.1054
  H  H128  1  0.554700  0.664600  0.712100  1.0  0.0984
  H  H129  1  0.572700  0.683400  0.845200  1.0  0.1084
  H  H130  1  0.633100  0.732600  0.733800  1.0  0.096
  H  H131  1  0.684300  0.739400  0.869100  1.0  0.0562
  H  H132  1  0.743700  0.787000  0.760000  1.0  0.0693
  H  H133  1  0.796100  0.033600  0.751500  1.0  0.0843
  H  H134  1  0.849900  0.026600  0.711000  1.0  0.1158
  H  H135  1  0.847700  0.090400  0.798800  1.0  0.1014
  H  H136  1  0.947700  0.104600  0.690000  1.0  0.1143
  H  H137  1  0.952600  0.151200  0.823400  1.0  0.1054
  H  H138  1  0.054700  0.164600  0.712100  1.0  0.0984
  H  H139  1  0.072700  0.183400  0.845200  1.0  0.1084
  H  H140  1  0.133100  0.232600  0.733800  1.0  0.096
  H  H141  1  0.184300  0.239400  0.869100  1.0  0.0562
  H  H142  1  0.243700  0.287000  0.760000  1.0  0.0693
  H  H143  1  0.796100  0.533600  0.251500  1.0  0.0843
  H  H144  1  0.849900  0.526600  0.211000  1.0  0.1158
  H  H145  1  0.847700  0.590400  0.298800  1.0  0.1014
  H  H146  1  0.947700  0.604600  0.190000  1.0  0.1143
  H  H147  1  0.952600  0.651200  0.323400  1.0  0.1054
  H  H148  1  0.054700  0.664600  0.212100  1.0  0.0984
  H  H149  1  0.072700  0.683400  0.345200  1.0  0.1084
  H  H150  1  0.133100  0.732600  0.233800  1.0  0.096
  H  H151  1  0.184300  0.739400  0.369100  1.0  0.0562
  H  H152  1  0.243700  0.787000  0.260000  1.0  0.0693
  H  H153  1  0.453900  0.716400  0.251500  1.0  0.0836
  H  H154  1  0.400100  0.723400  0.211000  1.0  0.1147
  H  H155  1  0.402300  0.659600  0.298800  1.0  0.1017
  H  H156  1  0.302300  0.645400  0.190000  1.0  0.1146
  H  H157  1  0.297400  0.598800  0.323400  1.0  0.1053
  H  H158  1  0.195300  0.585400  0.212100  1.0  0.0987
  H  H159  1  0.177300  0.566600  0.345200  1.0  0.1085
  H  H160  1  0.116900  0.517400  0.233800  1.0  0.0958
  H  H161  1  0.065700  0.510600  0.369100  1.0  0.0561
  H  H162  1  0.006300  0.463000  0.260000  1.0  0.0692
  H  H163  1  0.453900  0.216400  0.751500  1.0  0.0836
  H  H164  1  0.400100  0.223400  0.711000  1.0  0.1147
  H  H165  1  0.402300  0.159600  0.798800  1.0  0.1017
  H  H166  1  0.302300  0.145400  0.690000  1.0  0.1146
  H  H167  1  0.297400  0.098800  0.823400  1.0  0.1053
  H  H168  1  0.195300  0.085400  0.712100  1.0  0.0987
  H  H169  1  0.177300  0.066600  0.845200  1.0  0.1085
  H  H170  1  0.116900  0.017400  0.733800  1.0  0.0958
  H  H171  1  0.065700  0.010600  0.869100  1.0  0.0561
  H  H172  1  0.006300  0.963000  0.760000  1.0  0.0692
  H  H173  1  0.953900  0.716400  0.751500  1.0  0.0836
  H  H174  1  0.900100  0.723400  0.711000  1.0  0.1147
  H  H175  1  0.902300  0.659600  0.798800  1.0  0.1017
  H  H176  1  0.802300  0.645400  0.690000  1.0  0.1146
  H  H177  1  0.797400  0.598800  0.823400  1.0  0.1053
  H  H178  1  0.695300  0.585400  0.712100  1.0  0.0987
  H  H179  1  0.677300  0.566600  0.845200  1.0  0.1085
  H  H180  1  0.616900  0.517400  0.733800  1.0  0.0958
  H  H181  1  0.565700  0.510600  0.869100  1.0  0.0561
  H  H182  1  0.506300  0.463000  0.760000  1.0  0.0692
  H  H183  1  0.953900  0.216400  0.251500  1.0  0.0836
  H  H184  1  0.900100  0.223400  0.211000  1.0  0.1147
  H  H185  1  0.902300  0.159600  0.298800  1.0  0.1017
  H  H186  1  0.802300  0.145400  0.190000  1.0  0.1146
  H  H187  1  0.797400  0.098800  0.323400  1.0  0.1053
  H  H188  1  0.695300  0.085400  0.212100  1.0  0.0987
  H  H189  1  0.677300  0.066600  0.345200  1.0  0.1085
  H  H190  1  0.616900  0.017400  0.233800  1.0  0.0958
  H  H191  1  0.565700  0.010600  0.369100  1.0  0.0561
  H  H192  1  0.506300  0.963000  0.260000  1.0  0.0692
  H  H193  1  0.546100  0.966400  0.501500  1.0  0.0836
  H  H194  1  0.599900  0.973400  0.461000  1.0  0.1148
  H  H195  1  0.597700  0.909600  0.548800  1.0  0.1014
  H  H196  1  0.697700  0.895400  0.440000  1.0  0.1145
  H  H197  1  0.702600  0.848800  0.573400  1.0  0.1055
  H  H198  1  0.804700  0.835400  0.462100  1.0  0.0988
  H  H199  1  0.822700  0.816600  0.595200  1.0  0.1086
  H  H200  1  0.883100  0.767400  0.483800  1.0  0.096
  H  H201  1  0.934300  0.760600  0.619100  1.0  0.0565
  H  H202  1  0.993700  0.713000  0.510000  1.0  0.0692
  H  H203  1  0.546100  0.466400  0.001500  1.0  0.0836
  H  H204  1  0.599900  0.473400  0.961000  1.0  0.1148
  H  H205  1  0.597700  0.409600  0.048800  1.0  0.1014
  H  H206  1  0.697700  0.395400  0.940000  1.0  0.1145
  H  H207  1  0.702600  0.348800  0.073400  1.0  0.1055
  H  H208  1  0.804700  0.335400  0.962100  1.0  0.0988
  H  H209  1  0.822700  0.316600  0.095200  1.0  0.1086
  H  H210  1  0.883100  0.267400  0.983800  1.0  0.096
  H  H211  1  0.934300  0.260600  0.119100  1.0  0.0565
  H  H212  1  0.993700  0.213000  0.010000  1.0  0.0692
  H  H213  1  0.046100  0.966400  0.001500  1.0  0.0836
  H  H214  1  0.099900  0.973400  0.961000  1.0  0.1148
  H  H215  1  0.097700  0.909600  0.048800  1.0  0.1014
  H  H216  1  0.197700  0.895400  0.940000  1.0  0.1145
  H  H217  1  0.202600  0.848800  0.073400  1.0  0.1055
  H  H218  1  0.304700  0.835400  0.962100  1.0  0.0988
  H  H219  1  0.322700  0.816600  0.095200  1.0  0.1086
  H  H220  1  0.383100  0.767400  0.983800  1.0  0.096
  H  H221  1  0.434300  0.760600  0.119100  1.0  0.0565
  H  H222  1  0.493700  0.713000  0.010000  1.0  0.0692
  H  H223  1  0.046100  0.466400  0.501500  1.0  0.0836
  H  H224  1  0.099900  0.473400  0.461000  1.0  0.1148
  H  H225  1  0.097700  0.409600  0.548800  1.0  0.1014
  H  H226  1  0.197700  0.395400  0.440000  1.0  0.1145
  H  H227  1  0.202600  0.348800  0.573400  1.0  0.1055
  H  H228  1  0.304700  0.335400  0.462100  1.0  0.0988
  H  H229  1  0.322700  0.316600  0.595200  1.0  0.1086
  H  H230  1  0.383100  0.267400  0.483800  1.0  0.096
  H  H231  1  0.434300  0.260600  0.619100  1.0  0.0565
  H  H232  1  0.493700  0.213000  0.510000  1.0  0.0692
  H  H233  1  0.703900  0.283600  0.501500  1.0  0.0835
  H  H234  1  0.650100  0.276600  0.461000  1.0  0.1155
  H  H235  1  0.652300  0.340400  0.548800  1.0  0.1018
  H  H236  1  0.552300  0.354600  0.440000  1.0  0.1144
  H  H237  1  0.547400  0.401200  0.573400  1.0  0.1056
  H  H238  1  0.445300  0.414600  0.462100  1.0  0.0986
  H  H239  1  0.427300  0.433400  0.595200  1.0  0.1085
  H  H240  1  0.366900  0.482600  0.483800  1.0  0.0957
  H  H241  1  0.315700  0.489400  0.619100  1.0  0.056
  H  H242  1  0.256300  0.537000  0.510000  1.0  0.0694
  H  H243  1  0.703900  0.783600  0.001500  1.0  0.0835
  H  H244  1  0.650100  0.776600  0.961000  1.0  0.1155
  H  H245  1  0.652300  0.840400  0.048800  1.0  0.1018
  H  H246  1  0.552300  0.854600  0.940000  1.0  0.1144
  H  H247  1  0.547400  0.901200  0.073400  1.0  0.1056
  H  H248  1  0.445300  0.914600  0.962100  1.0  0.0986
  H  H249  1  0.427300  0.933400  0.095200  1.0  0.1085
  H  H250  1  0.366900  0.982600  0.983800  1.0  0.0957
  H  H251  1  0.315700  0.989400  0.119100  1.0  0.056
  H  H252  1  0.256300  0.037000  0.010000  1.0  0.0694
  H  H253  1  0.203900  0.283600  0.001500  1.0  0.0835
  H  H254  1  0.150100  0.276600  0.961000  1.0  0.1155
  H  H255  1  0.152300  0.340400  0.048800  1.0  0.1018
  H  H256  1  0.052300  0.354600  0.940000  1.0  0.1144
  H  H257  1  0.047400  0.401200  0.073400  1.0  0.1056
  H  H258  1  0.945300  0.414600  0.962100  1.0  0.0986
  H  H259  1  0.927300  0.433400  0.095200  1.0  0.1085
  H  H260  1  0.866900  0.482600  0.983800  1.0  0.0957
  H  H261  1  0.815700  0.489400  0.119100  1.0  0.056
  H  H262  1  0.756300  0.537000  0.010000  1.0  0.0694
  H  H263  1  0.203900  0.783600  0.501500  1.0  0.0835
  H  H264  1  0.150100  0.776600  0.461000  1.0  0.1155
  H  H265  1  0.152300  0.840400  0.548800  1.0  0.1018
  H  H266  1  0.052300  0.854600  0.440000  1.0  0.1144
  H  H267  1  0.047400  0.901200  0.573400  1.0  0.1056
  H  H268  1  0.945300  0.914600  0.462100  1.0  0.0986
  H  H269  1  0.927300  0.933400  0.595200  1.0  0.1085
  H  H270  1  0.866900  0.982600  0.483800  1.0  0.0957
  H  H271  1  0.815700  0.989400  0.619100  1.0  0.056
  H  H272  1  0.756300  0.037000  0.510000  1.0  0.0694
  H  H273  1  0.703900  0.966400  0.748500  1.0  0.0842
  H  H274  1  0.650100  0.973400  0.789000  1.0  0.1147
  H  H275  1  0.652300  0.909600  0.701200  1.0  0.1022
  H  H276  1  0.552300  0.895400  0.810000  1.0  0.1137
  H  H277  1  0.547400  0.848800  0.676600  1.0  0.1057
  H  H278  1  0.445300  0.835400  0.787900  1.0  0.0982
  H  H279  1  0.427300  0.816600  0.654800  1.0  0.108
  H  H280  1  0.366900  0.767400  0.766200  1.0  0.0963
  H  H281  1  0.315700  0.760600  0.630900  1.0  0.0558
  H  H282  1  0.256300  0.713000  0.740000  1.0  0.0695
  H  H283  1  0.703900  0.466400  0.248500  1.0  0.0842
  H  H284  1  0.650100  0.473400  0.289000  1.0  0.1147
  H  H285  1  0.652300  0.409600  0.201200  1.0  0.1022
  H  H286  1  0.552300  0.395400  0.310000  1.0  0.1137
  H  H287  1  0.547400  0.348800  0.176600  1.0  0.1057
  H  H288  1  0.445300  0.335400  0.287900  1.0  0.0982
  H  H289  1  0.427300  0.316600  0.154800  1.0  0.108
  H  H290  1  0.366900  0.267400  0.266200  1.0  0.0963
  H  H291  1  0.315700  0.260600  0.130900  1.0  0.0558
  H  H292  1  0.256300  0.213000  0.240000  1.0  0.0695
  H  H293  1  0.203900  0.966400  0.248500  1.0  0.0842
  H  H294  1  0.150100  0.973400  0.289000  1.0  0.1147
  H  H295  1  0.152300  0.909600  0.201200  1.0  0.1022
  H  H296  1  0.052300  0.895400  0.310000  1.0  0.1137
  H  H297  1  0.047400  0.848800  0.176600  1.0  0.1057
  H  H298  1  0.945300  0.835400  0.287900  1.0  0.0982
  H  H299  1  0.927300  0.816600  0.154800  1.0  0.108
  H  H300  1  0.866900  0.767400  0.266200  1.0  0.0963
  H  H301  1  0.815700  0.760600  0.130900  1.0  0.0558
  H  H302  1  0.756300  0.713000  0.240000  1.0  0.0695
  H  H303  1  0.203900  0.466400  0.748500  1.0  0.0842
  H  H304  1  0.150100  0.473400  0.789000  1.0  0.1147
  H  H305  1  0.152300  0.409600  0.701200  1.0  0.1022
  H  H306  1  0.052300  0.395400  0.810000  1.0  0.1137
  H  H307  1  0.047400  0.348800  0.676600  1.0  0.1057
  H  H308  1  0.945300  0.335400  0.787900  1.0  0.0982
  H  H309  1  0.927300  0.316600  0.654800  1.0  0.108
  H  H310  1  0.866900  0.267400  0.766200  1.0  0.0963
  H  H311  1  0.815700  0.260600  0.630900  1.0  0.0558
  H  H312  1  0.756300  0.213000  0.740000  1.0  0.0695
  H  H313  1  0.546100  0.283600  0.748500  1.0  0.0843
  H  H314  1  0.599900  0.276600  0.789000  1.0  0.1166
  H  H315  1  0.597700  0.340400  0.701200  1.0  0.1013
  H  H316  1  0.697700  0.354600  0.810000  1.0  0.1132
  H  H317  1  0.702600  0.401200  0.676600  1.0  0.106
  H  H318  1  0.804700  0.414600  0.787900  1.0  0.0982
  H  H319  1  0.822700  0.433400  0.654800  1.0  0.108
  H  H320  1  0.883100  0.482600  0.766200  1.0  0.0962
  H  H321  1  0.934300  0.489400  0.630900  1.0  0.0561
  H  H322  1  0.993700  0.537000  0.740000  1.0  0.0694
  H  H323  1  0.546100  0.783600  0.248500  1.0  0.0843
  H  H324  1  0.599900  0.776600  0.289000  1.0  0.1166
  H  H325  1  0.597700  0.840400  0.201200  1.0  0.1013
  H  H326  1  0.697700  0.854600  0.310000  1.0  0.1132
  H  H327  1  0.702600  0.901200  0.176600  1.0  0.106
  H  H328  1  0.804700  0.914600  0.287900  1.0  0.0982
  H  H329  1  0.822700  0.933400  0.154800  1.0  0.108
  H  H330  1  0.883100  0.982600  0.266200  1.0  0.0962
  H  H331  1  0.934300  0.989400  0.130900  1.0  0.0561
  H  H332  1  0.993700  0.037000  0.240000  1.0  0.0694
  H  H333  1  0.046100  0.283600  0.248500  1.0  0.0843
  H  H334  1  0.099900  0.276600  0.289000  1.0  0.1166
  H  H335  1  0.097700  0.340400  0.201200  1.0  0.1013
  H  H336  1  0.197700  0.354600  0.310000  1.0  0.1132
  H  H337  1  0.202600  0.401200  0.176600  1.0  0.106
  H  H338  1  0.304700  0.414600  0.287900  1.0  0.0982
  H  H339  1  0.322700  0.433400  0.154800  1.0  0.108
  H  H340  1  0.383100  0.482600  0.266200  1.0  0.0962
  H  H341  1  0.434300  0.489400  0.130900  1.0  0.0561
  H  H342  1  0.493700  0.537000  0.240000  1.0  0.0694
  H  H343  1  0.046100  0.783600  0.748500  1.0  0.0843
  H  H344  1  0.099900  0.776600  0.789000  1.0  0.1166
  H  H345  1  0.097700  0.840400  0.701200  1.0  0.1013
  H  H346  1  0.197700  0.854600  0.810000  1.0  0.1132
  H  H347  1  0.202600  0.901200  0.676600  1.0  0.106
  H  H348  1  0.304700  0.914600  0.787900  1.0  0.0982
  H  H349  1  0.322700  0.933400  0.654800  1.0  0.108
  H  H350  1  0.383100  0.982600  0.766200  1.0  0.0962
  H  H351  1  0.434300  0.989400  0.630900  1.0  0.0561
  H  H352  1  0.493700  0.037000  0.740000  1.0  0.0694
  C  C353  1  0.507800  0.079900  0.544420  1.0  0.6842
  C  C354  1  0.429300  0.052800  0.521500  1.0  -0.1738
  C  C355  1  0.359600  0.105700  0.468500  1.0  0.0121
  C  C356  1  0.300500  0.114000  0.532900  1.0  -0.0127
  C  C357  1  0.296900  0.142000  0.453700  1.0  -0.164
  C  C358  1  0.236900  0.149800  0.519710  1.0  -0.1544
  C  C359  1  0.233300  0.164700  0.479300  1.0  0.0171
  C  C360  1  0.161200  0.201600  0.463600  1.0  0.0422
  C  C361  1  0.143700  0.204400  0.422700  1.0  -0.2095
  C  C362  1  0.107800  0.233500  0.488440  1.0  -0.1716
  C  C363  1  0.076600  0.238200  0.408470  1.0  0.1587
  C  C364  1  0.041700  0.266300  0.472580  1.0  0.1492
  C  C365  1  0.507800  0.579900  0.044420  1.0  0.6842
  C  C366  1  0.429300  0.552800  0.021500  1.0  -0.1738
  C  C367  1  0.359600  0.605700  0.968500  1.0  0.0121
  C  C368  1  0.300500  0.614000  0.032900  1.0  -0.0127
  C  C369  1  0.296900  0.642000  0.953700  1.0  -0.164
  C  C370  1  0.236900  0.649800  0.019710  1.0  -0.1544
  C  C371  1  0.233300  0.664700  0.979300  1.0  0.0171
  C  C372  1  0.161200  0.701600  0.963600  1.0  0.0422
  C  C373  1  0.143700  0.704400  0.922700  1.0  -0.2095
  C  C374  1  0.107800  0.733500  0.988440  1.0  -0.1716
  C  C375  1  0.076600  0.738200  0.908470  1.0  0.1587
  C  C376  1  0.041700  0.766300  0.972580  1.0  0.1492
  C  C377  1  0.007800  0.079900  0.044420  1.0  0.6842
  C  C378  1  0.929300  0.052800  0.021500  1.0  -0.1738
  C  C379  1  0.859600  0.105700  0.968500  1.0  0.0121
  C  C380  1  0.800500  0.114000  0.032900  1.0  -0.0127
  C  C381  1  0.796900  0.142000  0.953700  1.0  -0.164
  C  C382  1  0.736900  0.149800  0.019710  1.0  -0.1544
  C  C383  1  0.733300  0.164700  0.979300  1.0  0.0171
  C  C384  1  0.661200  0.201600  0.963600  1.0  0.0422
  C  C385  1  0.643700  0.204400  0.922700  1.0  -0.2095
  C  C386  1  0.607800  0.233500  0.988440  1.0  -0.1716
  C  C387  1  0.576600  0.238200  0.908470  1.0  0.1587
  C  C388  1  0.541700  0.266300  0.972580  1.0  0.1492
  C  C389  1  0.007800  0.579900  0.544420  1.0  0.6842
  C  C390  1  0.929300  0.552800  0.521500  1.0  -0.1738
  C  C391  1  0.859600  0.605700  0.468500  1.0  0.0121
  C  C392  1  0.800500  0.614000  0.532900  1.0  -0.0127
  C  C393  1  0.796900  0.642000  0.453700  1.0  -0.164
  C  C394  1  0.736900  0.649800  0.519710  1.0  -0.1544
  C  C395  1  0.733300  0.664700  0.479300  1.0  0.0171
  C  C396  1  0.661200  0.701600  0.463600  1.0  0.0422
  C  C397  1  0.643700  0.704400  0.422700  1.0  -0.2095
  C  C398  1  0.607800  0.733500  0.488440  1.0  -0.1716
  C  C399  1  0.576600  0.738200  0.408470  1.0  0.1587
  C  C400  1  0.541700  0.766300  0.472580  1.0  0.1492
  C  C401  1  0.242200  0.670100  0.544420  1.0  0.6825
  C  C402  1  0.320700  0.697200  0.521500  1.0  -0.1729
  C  C403  1  0.390400  0.644300  0.468500  1.0  0.0132
  C  C404  1  0.449500  0.636000  0.532900  1.0  -0.0118
  C  C405  1  0.453100  0.608000  0.453700  1.0  -0.1608
  C  C406  1  0.513100  0.600200  0.519710  1.0  -0.1551
  C  C407  1  0.516700  0.585300  0.479300  1.0  0.017
  C  C408  1  0.588800  0.548400  0.463600  1.0  0.0421
  C  C409  1  0.606300  0.545600  0.422700  1.0  -0.2067
  C  C410  1  0.642200  0.516500  0.488440  1.0  -0.1725
  C  C411  1  0.673400  0.511800  0.408470  1.0  0.158
  C  C412  1  0.708300  0.483700  0.472580  1.0  0.149
  C  C413  1  0.242200  0.170100  0.044420  1.0  0.6825
  C  C414  1  0.320700  0.197200  0.021500  1.0  -0.1729
  C  C415  1  0.390400  0.144300  0.968500  1.0  0.0132
  C  C416  1  0.449500  0.136000  0.032900  1.0  -0.0118
  C  C417  1  0.453100  0.108000  0.953700  1.0  -0.1608
  C  C418  1  0.513100  0.100200  0.019710  1.0  -0.1551
  C  C419  1  0.516700  0.085300  0.979300  1.0  0.017
  C  C420  1  0.588800  0.048400  0.963600  1.0  0.0421
  C  C421  1  0.606300  0.045600  0.922700  1.0  -0.2067
  C  C422  1  0.642200  0.016500  0.988440  1.0  -0.1725
  C  C423  1  0.673400  0.011800  0.908470  1.0  0.158
  C  C424  1  0.708300  0.983700  0.972580  1.0  0.149
  C  C425  1  0.742200  0.670100  0.044420  1.0  0.6825
  C  C426  1  0.820700  0.697200  0.021500  1.0  -0.1729
  C  C427  1  0.890400  0.644300  0.968500  1.0  0.0132
  C  C428  1  0.949500  0.636000  0.032900  1.0  -0.0118
  C  C429  1  0.953100  0.608000  0.953700  1.0  -0.1608
  C  C430  1  0.013100  0.600200  0.019710  1.0  -0.1551
  C  C431  1  0.016700  0.585300  0.979300  1.0  0.017
  C  C432  1  0.088800  0.548400  0.963600  1.0  0.0421
  C  C433  1  0.106300  0.545600  0.922700  1.0  -0.2067
  C  C434  1  0.142200  0.516500  0.988440  1.0  -0.1725
  C  C435  1  0.173400  0.511800  0.908470  1.0  0.158
  C  C436  1  0.208300  0.483700  0.972580  1.0  0.149
  C  C437  1  0.742200  0.170100  0.544420  1.0  0.6825
  C  C438  1  0.820700  0.197200  0.521500  1.0  -0.1729
  C  C439  1  0.890400  0.144300  0.468500  1.0  0.0132
  C  C440  1  0.949500  0.136000  0.532900  1.0  -0.0118
  C  C441  1  0.953100  0.108000  0.453700  1.0  -0.1608
  C  C442  1  0.013100  0.100200  0.519710  1.0  -0.1551
  C  C443  1  0.016700  0.085300  0.479300  1.0  0.017
  C  C444  1  0.088800  0.048400  0.463600  1.0  0.0421
  C  C445  1  0.106300  0.045600  0.422700  1.0  -0.2067
  C  C446  1  0.142200  0.016500  0.488440  1.0  -0.1725
  C  C447  1  0.173400  0.011800  0.408470  1.0  0.158
  C  C448  1  0.208300  0.983700  0.472580  1.0  0.149
  C  C449  1  0.242200  0.079900  0.205580  1.0  0.6816
  C  C450  1  0.320700  0.052800  0.228500  1.0  -0.1755
  C  C451  1  0.390400  0.105700  0.281500  1.0  0.0134
  C  C452  1  0.449500  0.114000  0.217100  1.0  -0.0118
  C  C453  1  0.453100  0.142000  0.296300  1.0  -0.1607
  C  C454  1  0.513100  0.149800  0.230290  1.0  -0.1557
  C  C455  1  0.516700  0.164700  0.270700  1.0  0.0172
  C  C456  1  0.588800  0.201600  0.286400  1.0  0.0427
  C  C457  1  0.606300  0.204400  0.327300  1.0  -0.2111
  C  C458  1  0.642200  0.233500  0.261560  1.0  -0.1724
  C  C459  1  0.673400  0.238200  0.341530  1.0  0.1577
  C  C460  1  0.708300  0.266300  0.277420  1.0  0.1493
  C  C461  1  0.242200  0.579900  0.705580  1.0  0.6816
  C  C462  1  0.320700  0.552800  0.728500  1.0  -0.1755
  C  C463  1  0.390400  0.605700  0.781500  1.0  0.0134
  C  C464  1  0.449500  0.614000  0.717100  1.0  -0.0118
  C  C465  1  0.453100  0.642000  0.796300  1.0  -0.1607
  C  C466  1  0.513100  0.649800  0.730290  1.0  -0.1557
  C  C467  1  0.516700  0.664700  0.770700  1.0  0.0172
  C  C468  1  0.588800  0.701600  0.786400  1.0  0.0427
  C  C469  1  0.606300  0.704400  0.827300  1.0  -0.2111
  C  C470  1  0.642200  0.733500  0.761560  1.0  -0.1724
  C  C471  1  0.673400  0.738200  0.841530  1.0  0.1577
  C  C472  1  0.708300  0.766300  0.777420  1.0  0.1493
  C  C473  1  0.742200  0.079900  0.705580  1.0  0.6816
  C  C474  1  0.820700  0.052800  0.728500  1.0  -0.1755
  C  C475  1  0.890400  0.105700  0.781500  1.0  0.0134
  C  C476  1  0.949500  0.114000  0.717100  1.0  -0.0118
  C  C477  1  0.953100  0.142000  0.796300  1.0  -0.1607
  C  C478  1  0.013100  0.149800  0.730290  1.0  -0.1557
  C  C479  1  0.016700  0.164700  0.770700  1.0  0.0172
  C  C480  1  0.088800  0.201600  0.786400  1.0  0.0427
  C  C481  1  0.106300  0.204400  0.827300  1.0  -0.2111
  C  C482  1  0.142200  0.233500  0.761560  1.0  -0.1724
  C  C483  1  0.173400  0.238200  0.841530  1.0  0.1577
  C  C484  1  0.208300  0.266300  0.777420  1.0  0.1493
  C  C485  1  0.742200  0.579900  0.205580  1.0  0.6816
  C  C486  1  0.820700  0.552800  0.228500  1.0  -0.1755
  C  C487  1  0.890400  0.605700  0.281500  1.0  0.0134
  C  C488  1  0.949500  0.614000  0.217100  1.0  -0.0118
  C  C489  1  0.953100  0.642000  0.296300  1.0  -0.1607
  C  C490  1  0.013100  0.649800  0.230290  1.0  -0.1557
  C  C491  1  0.016700  0.664700  0.270700  1.0  0.0172
  C  C492  1  0.088800  0.701600  0.286400  1.0  0.0427
  C  C493  1  0.106300  0.704400  0.327300  1.0  -0.2111
  C  C494  1  0.142200  0.733500  0.261560  1.0  -0.1724
  C  C495  1  0.173400  0.738200  0.341530  1.0  0.1577
  C  C496  1  0.208300  0.766300  0.277420  1.0  0.1493
  C  C497  1  0.507800  0.670100  0.205580  1.0  0.6836
  C  C498  1  0.429300  0.697200  0.228500  1.0  -0.1753
  C  C499  1  0.359600  0.644300  0.281500  1.0  0.0125
  C  C500  1  0.300500  0.636000  0.217100  1.0  -0.0116
  C  C501  1  0.296900  0.608000  0.296300  1.0  -0.1621
  C  C502  1  0.236900  0.600200  0.230290  1.0  -0.1539
  C  C503  1  0.233300  0.585300  0.270700  1.0  0.0171
  C  C504  1  0.161200  0.548400  0.286400  1.0  0.0424
  C  C505  1  0.143700  0.545600  0.327300  1.0  -0.2093
  C  C506  1  0.107800  0.516500  0.261560  1.0  -0.1717
  C  C507  1  0.076600  0.511800  0.341530  1.0  0.1564
  C  C508  1  0.041700  0.483700  0.277420  1.0  0.1503
  C  C509  1  0.507800  0.170100  0.705580  1.0  0.6836
  C  C510  1  0.429300  0.197200  0.728500  1.0  -0.1753
  C  C511  1  0.359600  0.144300  0.781500  1.0  0.0125
  C  C512  1  0.300500  0.136000  0.717100  1.0  -0.0116
  C  C513  1  0.296900  0.108000  0.796300  1.0  -0.1621
  C  C514  1  0.236900  0.100200  0.730290  1.0  -0.1539
  C  C515  1  0.233300  0.085300  0.770700  1.0  0.0171
  C  C516  1  0.161200  0.048400  0.786400  1.0  0.0424
  C  C517  1  0.143700  0.045600  0.827300  1.0  -0.2093
  C  C518  1  0.107800  0.016500  0.761560  1.0  -0.1717
  C  C519  1  0.076600  0.011800  0.841530  1.0  0.1564
  C  C520  1  0.041700  0.983700  0.777420  1.0  0.1503
  C  C521  1  0.007800  0.670100  0.705580  1.0  0.6836
  C  C522  1  0.929300  0.697200  0.728500  1.0  -0.1753
  C  C523  1  0.859600  0.644300  0.781500  1.0  0.0125
  C  C524  1  0.800500  0.636000  0.717100  1.0  -0.0116
  C  C525  1  0.796900  0.608000  0.796300  1.0  -0.1621
  C  C526  1  0.736900  0.600200  0.730290  1.0  -0.1539
  C  C527  1  0.733300  0.585300  0.770700  1.0  0.0171
  C  C528  1  0.661200  0.548400  0.786400  1.0  0.0424
  C  C529  1  0.643700  0.545600  0.827300  1.0  -0.2093
  C  C530  1  0.607800  0.516500  0.761560  1.0  -0.1717
  C  C531  1  0.576600  0.511800  0.841530  1.0  0.1564
  C  C532  1  0.541700  0.483700  0.777420  1.0  0.1503
  C  C533  1  0.007800  0.170100  0.205580  1.0  0.6836
  C  C534  1  0.929300  0.197200  0.228500  1.0  -0.1753
  C  C535  1  0.859600  0.144300  0.281500  1.0  0.0125
  C  C536  1  0.800500  0.136000  0.217100  1.0  -0.0116
  C  C537  1  0.796900  0.108000  0.296300  1.0  -0.1621
  C  C538  1  0.736900  0.100200  0.230290  1.0  -0.1539
  C  C539  1  0.733300  0.085300  0.270700  1.0  0.0171
  C  C540  1  0.661200  0.048400  0.286400  1.0  0.0424
  C  C541  1  0.643700  0.045600  0.327300  1.0  -0.2093
  C  C542  1  0.607800  0.016500  0.261560  1.0  -0.1717
  C  C543  1  0.576600  0.011800  0.341530  1.0  0.1564
  C  C544  1  0.541700  0.983700  0.277420  1.0  0.1503
  C  C545  1  0.492200  0.920100  0.455580  1.0  0.6817
  C  C546  1  0.570700  0.947200  0.478500  1.0  -0.1752
  C  C547  1  0.640400  0.894300  0.531500  1.0  0.0135
  C  C548  1  0.699500  0.886000  0.467100  1.0  -0.0124
  C  C549  1  0.703100  0.858000  0.546300  1.0  -0.1609
  C  C550  1  0.763100  0.850200  0.480290  1.0  -0.1558
  C  C551  1  0.766700  0.835300  0.520700  1.0  0.0171
  C  C552  1  0.838800  0.798400  0.536400  1.0  0.0426
  C  C553  1  0.856300  0.795600  0.577300  1.0  -0.21
  C  C554  1  0.892200  0.766500  0.511560  1.0  -0.1717
  C  C555  1  0.923400  0.761800  0.591530  1.0  0.1574
  C  C556  1  0.958300  0.733700  0.527420  1.0  0.1493
  C  C557  1  0.492200  0.420100  0.955580  1.0  0.6817
  C  C558  1  0.570700  0.447200  0.978500  1.0  -0.1752
  C  C559  1  0.640400  0.394300  0.031500  1.0  0.0135
  C  C560  1  0.699500  0.386000  0.967100  1.0  -0.0124
  C  C561  1  0.703100  0.358000  0.046300  1.0  -0.1609
  C  C562  1  0.763100  0.350200  0.980290  1.0  -0.1558
  C  C563  1  0.766700  0.335300  0.020700  1.0  0.0171
  C  C564  1  0.838800  0.298400  0.036400  1.0  0.0426
  C  C565  1  0.856300  0.295600  0.077300  1.0  -0.21
  C  C566  1  0.892200  0.266500  0.011560  1.0  -0.1717
  C  C567  1  0.923400  0.261800  0.091530  1.0  0.1574
  C  C568  1  0.958300  0.233700  0.027420  1.0  0.1493
  C  C569  1  0.992200  0.920100  0.955580  1.0  0.6817
  C  C570  1  0.070700  0.947200  0.978500  1.0  -0.1752
  C  C571  1  0.140400  0.894300  0.031500  1.0  0.0135
  C  C572  1  0.199500  0.886000  0.967100  1.0  -0.0124
  C  C573  1  0.203100  0.858000  0.046300  1.0  -0.1609
  C  C574  1  0.263100  0.850200  0.980290  1.0  -0.1558
  C  C575  1  0.266700  0.835300  0.020700  1.0  0.0171
  C  C576  1  0.338800  0.798400  0.036400  1.0  0.0426
  C  C577  1  0.356300  0.795600  0.077300  1.0  -0.21
  C  C578  1  0.392200  0.766500  0.011560  1.0  -0.1717
  C  C579  1  0.423400  0.761800  0.091530  1.0  0.1574
  C  C580  1  0.458300  0.733700  0.027420  1.0  0.1493
  C  C581  1  0.992200  0.420100  0.455580  1.0  0.6817
  C  C582  1  0.070700  0.447200  0.478500  1.0  -0.1752
  C  C583  1  0.140400  0.394300  0.531500  1.0  0.0135
  C  C584  1  0.199500  0.386000  0.467100  1.0  -0.0124
  C  C585  1  0.203100  0.358000  0.546300  1.0  -0.1609
  C  C586  1  0.263100  0.350200  0.480290  1.0  -0.1558
  C  C587  1  0.266700  0.335300  0.520700  1.0  0.0171
  C  C588  1  0.338800  0.298400  0.536400  1.0  0.0426
  C  C589  1  0.356300  0.295600  0.577300  1.0  -0.21
  C  C590  1  0.392200  0.266500  0.511560  1.0  -0.1717
  C  C591  1  0.423400  0.261800  0.591530  1.0  0.1574
  C  C592  1  0.458300  0.233700  0.527420  1.0  0.1493
  C  C593  1  0.757800  0.329900  0.455580  1.0  0.6835
  C  C594  1  0.679300  0.302800  0.478500  1.0  -0.1752
  C  C595  1  0.609600  0.355700  0.531500  1.0  0.0124
  C  C596  1  0.550500  0.364000  0.467100  1.0  -0.0111
  C  C597  1  0.546900  0.392000  0.546300  1.0  -0.162
  C  C598  1  0.486900  0.399800  0.480290  1.0  -0.1543
  C  C599  1  0.483300  0.414700  0.520700  1.0  0.0174
  C  C600  1  0.411200  0.451600  0.536400  1.0  0.0423
  C  C601  1  0.393700  0.454400  0.577300  1.0  -0.21
  C  C602  1  0.357800  0.483500  0.511560  1.0  -0.1726
  C  C603  1  0.326600  0.488200  0.591530  1.0  0.1567
  C  C604  1  0.291700  0.516300  0.527420  1.0  0.15
  C  C605  1  0.757800  0.829900  0.955580  1.0  0.6835
  C  C606  1  0.679300  0.802800  0.978500  1.0  -0.1752
  C  C607  1  0.609600  0.855700  0.031500  1.0  0.0124
  C  C608  1  0.550500  0.864000  0.967100  1.0  -0.0111
  C  C609  1  0.546900  0.892000  0.046300  1.0  -0.162
  C  C610  1  0.486900  0.899800  0.980290  1.0  -0.1543
  C  C611  1  0.483300  0.914700  0.020700  1.0  0.0174
  C  C612  1  0.411200  0.951600  0.036400  1.0  0.0423
  C  C613  1  0.393700  0.954400  0.077300  1.0  -0.21
  C  C614  1  0.357800  0.983500  0.011560  1.0  -0.1726
  C  C615  1  0.326600  0.988200  0.091530  1.0  0.1567
  C  C616  1  0.291700  0.016300  0.027420  1.0  0.15
  C  C617  1  0.257800  0.329900  0.955580  1.0  0.6835
  C  C618  1  0.179300  0.302800  0.978500  1.0  -0.1752
  C  C619  1  0.109600  0.355700  0.031500  1.0  0.0124
  C  C620  1  0.050500  0.364000  0.967100  1.0  -0.0111
  C  C621  1  0.046900  0.392000  0.046300  1.0  -0.162
  C  C622  1  0.986900  0.399800  0.980290  1.0  -0.1543
  C  C623  1  0.983300  0.414700  0.020700  1.0  0.0174
  C  C624  1  0.911200  0.451600  0.036400  1.0  0.0423
  C  C625  1  0.893700  0.454400  0.077300  1.0  -0.21
  C  C626  1  0.857800  0.483500  0.011560  1.0  -0.1726
  C  C627  1  0.826600  0.488200  0.091530  1.0  0.1567
  C  C628  1  0.791700  0.516300  0.027420  1.0  0.15
  C  C629  1  0.257800  0.829900  0.455580  1.0  0.6835
  C  C630  1  0.179300  0.802800  0.478500  1.0  -0.1752
  C  C631  1  0.109600  0.855700  0.531500  1.0  0.0124
  C  C632  1  0.050500  0.864000  0.467100  1.0  -0.0111
  C  C633  1  0.046900  0.892000  0.546300  1.0  -0.162
  C  C634  1  0.986900  0.899800  0.480290  1.0  -0.1543
  C  C635  1  0.983300  0.914700  0.520700  1.0  0.0174
  C  C636  1  0.911200  0.951600  0.536400  1.0  0.0423
  C  C637  1  0.893700  0.954400  0.577300  1.0  -0.21
  C  C638  1  0.857800  0.983500  0.511560  1.0  -0.1726
  C  C639  1  0.826600  0.988200  0.591530  1.0  0.1567
  C  C640  1  0.791700  0.016300  0.527420  1.0  0.15
  C  C641  1  0.757800  0.920100  0.794420  1.0  0.6843
  C  C642  1  0.679300  0.947200  0.771500  1.0  -0.1733
  C  C643  1  0.609600  0.894300  0.718500  1.0  0.012
  C  C644  1  0.550500  0.886000  0.782900  1.0  -0.0128
  C  C645  1  0.546900  0.858000  0.703700  1.0  -0.162
  C  C646  1  0.486900  0.850200  0.769710  1.0  -0.1543
  C  C647  1  0.483300  0.835300  0.729300  1.0  0.0168
  C  C648  1  0.411200  0.798400  0.713600  1.0  0.0423
  C  C649  1  0.393700  0.795600  0.672700  1.0  -0.209
  C  C650  1  0.357800  0.766500  0.738440  1.0  -0.1723
  C  C651  1  0.326600  0.761800  0.658470  1.0  0.1584
  C  C652  1  0.291700  0.733700  0.722580  1.0  0.1498
  C  C653  1  0.757800  0.420100  0.294420  1.0  0.6843
  C  C654  1  0.679300  0.447200  0.271500  1.0  -0.1733
  C  C655  1  0.609600  0.394300  0.218500  1.0  0.012
  C  C656  1  0.550500  0.386000  0.282900  1.0  -0.0128
  C  C657  1  0.546900  0.358000  0.203700  1.0  -0.162
  C  C658  1  0.486900  0.350200  0.269710  1.0  -0.1543
  C  C659  1  0.483300  0.335300  0.229300  1.0  0.0168
  C  C660  1  0.411200  0.298400  0.213600  1.0  0.0423
  C  C661  1  0.393700  0.295600  0.172700  1.0  -0.209
  C  C662  1  0.357800  0.266500  0.238440  1.0  -0.1723
  C  C663  1  0.326600  0.261800  0.158470  1.0  0.1584
  C  C664  1  0.291700  0.233700  0.222580  1.0  0.1498
  C  C665  1  0.257800  0.920100  0.294420  1.0  0.6843
  C  C666  1  0.179300  0.947200  0.271500  1.0  -0.1733
  C  C667  1  0.109600  0.894300  0.218500  1.0  0.012
  C  C668  1  0.050500  0.886000  0.282900  1.0  -0.0128
  C  C669  1  0.046900  0.858000  0.203700  1.0  -0.162
  C  C670  1  0.986900  0.850200  0.269710  1.0  -0.1543
  C  C671  1  0.983300  0.835300  0.229300  1.0  0.0168
  C  C672  1  0.911200  0.798400  0.213600  1.0  0.0423
  C  C673  1  0.893700  0.795600  0.172700  1.0  -0.209
  C  C674  1  0.857800  0.766500  0.238440  1.0  -0.1723
  C  C675  1  0.826600  0.761800  0.158470  1.0  0.1584
  C  C676  1  0.791700  0.733700  0.222580  1.0  0.1498
  C  C677  1  0.257800  0.420100  0.794420  1.0  0.6843
  C  C678  1  0.179300  0.447200  0.771500  1.0  -0.1733
  C  C679  1  0.109600  0.394300  0.718500  1.0  0.012
  C  C680  1  0.050500  0.386000  0.782900  1.0  -0.0128
  C  C681  1  0.046900  0.358000  0.703700  1.0  -0.162
  C  C682  1  0.986900  0.350200  0.769710  1.0  -0.1543
  C  C683  1  0.983300  0.335300  0.729300  1.0  0.0168
  C  C684  1  0.911200  0.298400  0.713600  1.0  0.0423
  C  C685  1  0.893700  0.295600  0.672700  1.0  -0.209
  C  C686  1  0.857800  0.266500  0.738440  1.0  -0.1723
  C  C687  1  0.826600  0.261800  0.658470  1.0  0.1584
  C  C688  1  0.791700  0.233700  0.722580  1.0  0.1498
  C  C689  1  0.492200  0.329900  0.794420  1.0  0.6823
  C  C690  1  0.570700  0.302800  0.771500  1.0  -0.1739
  C  C691  1  0.640400  0.355700  0.718500  1.0  0.0131
  C  C692  1  0.699500  0.364000  0.782900  1.0  -0.0118
  C  C693  1  0.703100  0.392000  0.703700  1.0  -0.1626
  C  C694  1  0.763100  0.399800  0.769710  1.0  -0.1545
  C  C695  1  0.766700  0.414700  0.729300  1.0  0.0171
  C  C696  1  0.838800  0.451600  0.713600  1.0  0.0424
  C  C697  1  0.856300  0.454400  0.672700  1.0  -0.2076
  C  C698  1  0.892200  0.483500  0.738440  1.0  -0.1718
  C  C699  1  0.923400  0.488200  0.658470  1.0  0.1584
  C  C700  1  0.958300  0.516300  0.722580  1.0  0.149
  C  C701  1  0.492200  0.829900  0.294420  1.0  0.6823
  C  C702  1  0.570700  0.802800  0.271500  1.0  -0.1739
  C  C703  1  0.640400  0.855700  0.218500  1.0  0.0131
  C  C704  1  0.699500  0.864000  0.282900  1.0  -0.0118
  C  C705  1  0.703100  0.892000  0.203700  1.0  -0.1626
  C  C706  1  0.763100  0.899800  0.269710  1.0  -0.1545
  C  C707  1  0.766700  0.914700  0.229300  1.0  0.0171
  C  C708  1  0.838800  0.951600  0.213600  1.0  0.0424
  C  C709  1  0.856300  0.954400  0.172700  1.0  -0.2076
  C  C710  1  0.892200  0.983500  0.238440  1.0  -0.1718
  C  C711  1  0.923400  0.988200  0.158470  1.0  0.1584
  C  C712  1  0.958300  0.016300  0.222580  1.0  0.149
  C  C713  1  0.992200  0.329900  0.294420  1.0  0.6823
  C  C714  1  0.070700  0.302800  0.271500  1.0  -0.1739
  C  C715  1  0.140400  0.355700  0.218500  1.0  0.0131
  C  C716  1  0.199500  0.364000  0.282900  1.0  -0.0118
  C  C717  1  0.203100  0.392000  0.203700  1.0  -0.1626
  C  C718  1  0.263100  0.399800  0.269710  1.0  -0.1545
  C  C719  1  0.266700  0.414700  0.229300  1.0  0.0171
  C  C720  1  0.338800  0.451600  0.213600  1.0  0.0424
  C  C721  1  0.356300  0.454400  0.172700  1.0  -0.2076
  C  C722  1  0.392200  0.483500  0.238440  1.0  -0.1718
  C  C723  1  0.423400  0.488200  0.158470  1.0  0.1584
  C  C724  1  0.458300  0.516300  0.222580  1.0  0.149
  C  C725  1  0.992200  0.829900  0.794420  1.0  0.6823
  C  C726  1  0.070700  0.802800  0.771500  1.0  -0.1739
  C  C727  1  0.140400  0.855700  0.718500  1.0  0.0131
  C  C728  1  0.199500  0.864000  0.782900  1.0  -0.0118
  C  C729  1  0.203100  0.892000  0.703700  1.0  -0.1626
  C  C730  1  0.263100  0.899800  0.769710  1.0  -0.1545
  C  C731  1  0.266700  0.914700  0.729300  1.0  0.0171
  C  C732  1  0.338800  0.951600  0.713600  1.0  0.0424
  C  C733  1  0.356300  0.954400  0.672700  1.0  -0.2076
  C  C734  1  0.392200  0.983500  0.738440  1.0  -0.1718
  C  C735  1  0.423400  0.988200  0.658470  1.0  0.1584
  C  C736  1  0.458300  0.016300  0.722580  1.0  0.149
  N  N737  1  0.360000  0.092200  0.507430  1.0  0.0305
  N  N738  1  0.026100  0.269550  0.432730  1.0  -0.3427
  N  N739  1  0.360000  0.592200  0.007430  1.0  0.0305
  N  N740  1  0.026100  0.769550  0.932730  1.0  -0.3427
  N  N741  1  0.860000  0.092200  0.007430  1.0  0.0305
  N  N742  1  0.526100  0.269550  0.932730  1.0  -0.3427
  N  N743  1  0.860000  0.592200  0.507430  1.0  0.0305
  N  N744  1  0.526100  0.769550  0.432730  1.0  -0.3427
  N  N745  1  0.390000  0.657800  0.507430  1.0  0.0289
  N  N746  1  0.723900  0.480450  0.432730  1.0  -0.3433
  N  N747  1  0.390000  0.157800  0.007430  1.0  0.0289
  N  N748  1  0.723900  0.980450  0.932730  1.0  -0.3433
  N  N749  1  0.890000  0.657800  0.007430  1.0  0.0289
  N  N750  1  0.223900  0.480450  0.932730  1.0  -0.3433
  N  N751  1  0.890000  0.157800  0.507430  1.0  0.0289
  N  N752  1  0.223900  0.980450  0.432730  1.0  -0.3433
  N  N753  1  0.390000  0.092200  0.242570  1.0  0.0288
  N  N754  1  0.723900  0.269550  0.317270  1.0  -0.3443
  N  N755  1  0.390000  0.592200  0.742570  1.0  0.0288
  N  N756  1  0.723900  0.769550  0.817270  1.0  -0.3443
  N  N757  1  0.890000  0.092200  0.742570  1.0  0.0288
  N  N758  1  0.223900  0.269550  0.817270  1.0  -0.3443
  N  N759  1  0.890000  0.592200  0.242570  1.0  0.0288
  N  N760  1  0.223900  0.769550  0.317270  1.0  -0.3443
  N  N761  1  0.360000  0.657800  0.242570  1.0  0.0302
  N  N762  1  0.026100  0.480450  0.317270  1.0  -0.3422
  N  N763  1  0.360000  0.157800  0.742570  1.0  0.0302
  N  N764  1  0.026100  0.980450  0.817270  1.0  -0.3422
  N  N765  1  0.860000  0.657800  0.742570  1.0  0.0302
  N  N766  1  0.526100  0.480450  0.817270  1.0  -0.3422
  N  N767  1  0.860000  0.157800  0.242570  1.0  0.0302
  N  N768  1  0.526100  0.980450  0.317270  1.0  -0.3422
  N  N769  1  0.640000  0.907800  0.492570  1.0  0.0287
  N  N770  1  0.973900  0.730450  0.567270  1.0  -0.3423
  N  N771  1  0.640000  0.407800  0.992570  1.0  0.0287
  N  N772  1  0.973900  0.230450  0.067270  1.0  -0.3423
  N  N773  1  0.140000  0.907800  0.992570  1.0  0.0287
  N  N774  1  0.473900  0.730450  0.067270  1.0  -0.3423
  N  N775  1  0.140000  0.407800  0.492570  1.0  0.0287
  N  N776  1  0.473900  0.230450  0.567270  1.0  -0.3423
  N  N777  1  0.610000  0.342200  0.492570  1.0  0.0306
  N  N778  1  0.276100  0.519550  0.567270  1.0  -0.3433
  N  N779  1  0.610000  0.842200  0.992570  1.0  0.0306
  N  N780  1  0.276100  0.019550  0.067270  1.0  -0.3433
  N  N781  1  0.110000  0.342200  0.992570  1.0  0.0306
  N  N782  1  0.776100  0.519550  0.067270  1.0  -0.3433
  N  N783  1  0.110000  0.842200  0.492570  1.0  0.0306
  N  N784  1  0.776100  0.019550  0.567270  1.0  -0.3433
  N  N785  1  0.610000  0.907800  0.757430  1.0  0.0303
  N  N786  1  0.276100  0.730450  0.682730  1.0  -0.3428
  N  N787  1  0.610000  0.407800  0.257430  1.0  0.0303
  N  N788  1  0.276100  0.230450  0.182730  1.0  -0.3428
  N  N789  1  0.110000  0.907800  0.257430  1.0  0.0303
  N  N790  1  0.776100  0.730450  0.182730  1.0  -0.3428
  N  N791  1  0.110000  0.407800  0.757430  1.0  0.0303
  N  N792  1  0.776100  0.230450  0.682730  1.0  -0.3428
  N  N793  1  0.640000  0.342200  0.757430  1.0  0.029
  N  N794  1  0.973900  0.519550  0.682730  1.0  -0.3441
  N  N795  1  0.640000  0.842200  0.257430  1.0  0.029
  N  N796  1  0.973900  0.019550  0.182730  1.0  -0.3441
  N  N797  1  0.140000  0.342200  0.257430  1.0  0.029
  N  N798  1  0.473900  0.519550  0.182730  1.0  -0.3441
  N  N799  1  0.140000  0.842200  0.757430  1.0  0.029
  N  N800  1  0.473900  0.019550  0.682730  1.0  -0.3441
  N  N801  1  0.625000  0.228900  0.625000  1.0  -0.5089
  N  N802  1  0.625000  0.276700  0.625000  1.0  0.4918
  N  N803  1  0.625000  0.322800  0.625000  1.0  -0.4526
  N  N804  1  0.625000  0.728900  0.125000  1.0  -0.5089
  N  N805  1  0.625000  0.776700  0.125000  1.0  0.4918
  N  N806  1  0.625000  0.822800  0.125000  1.0  -0.4526
  N  N807  1  0.125000  0.521100  0.625000  1.0  -0.5073
  N  N808  1  0.125000  0.473300  0.625000  1.0  0.4917
  N  N809  1  0.125000  0.427200  0.625000  1.0  -0.452
  N  N810  1  0.125000  0.021100  0.125000  1.0  -0.5073
  N  N811  1  0.125000  0.973300  0.125000  1.0  0.4917
  N  N812  1  0.125000  0.927200  0.125000  1.0  -0.452
  N  N813  1  0.625000  0.021100  0.625000  1.0  -0.5073
  N  N814  1  0.625000  0.973300  0.625000  1.0  0.4917
  N  N815  1  0.625000  0.927200  0.625000  1.0  -0.452
  N  N816  1  0.125000  0.228900  0.125000  1.0  -0.5089
  N  N817  1  0.125000  0.276700  0.125000  1.0  0.4918
  N  N818  1  0.125000  0.322800  0.125000  1.0  -0.4526
  N  N819  1  0.125000  0.728900  0.625000  1.0  -0.5089
  N  N820  1  0.125000  0.776700  0.625000  1.0  0.4918
  N  N821  1  0.125000  0.822800  0.625000  1.0  -0.4526
  N  N822  1  0.625000  0.521100  0.125000  1.0  -0.5073
  N  N823  1  0.625000  0.473300  0.125000  1.0  0.4917
  N  N824  1  0.625000  0.427200  0.125000  1.0  -0.452
  N  N825  1  0.375000  0.771100  0.375000  1.0  -0.5073
  N  N826  1  0.375000  0.723300  0.375000  1.0  0.4918
  N  N827  1  0.375000  0.677200  0.375000  1.0  -0.452
  N  N828  1  0.375000  0.271100  0.875000  1.0  -0.5073
  N  N829  1  0.375000  0.223300  0.875000  1.0  0.4918
  N  N830  1  0.375000  0.177200  0.875000  1.0  -0.452
  N  N831  1  0.875000  0.478900  0.375000  1.0  -0.5089
  N  N832  1  0.875000  0.526700  0.375000  1.0  0.4917
  N  N833  1  0.875000  0.572800  0.375000  1.0  -0.4526
  N  N834  1  0.875000  0.978900  0.875000  1.0  -0.5089
  N  N835  1  0.875000  0.026700  0.875000  1.0  0.4917
  N  N836  1  0.875000  0.072800  0.875000  1.0  -0.4526
  N  N837  1  0.875000  0.771100  0.875000  1.0  -0.5073
  N  N838  1  0.875000  0.723300  0.875000  1.0  0.4918
  N  N839  1  0.875000  0.677200  0.875000  1.0  -0.452
  N  N840  1  0.875000  0.271100  0.375000  1.0  -0.5073
  N  N841  1  0.875000  0.223300  0.375000  1.0  0.4918
  N  N842  1  0.875000  0.177200  0.375000  1.0  -0.452
  N  N843  1  0.375000  0.478900  0.875000  1.0  -0.5089
  N  N844  1  0.375000  0.526700  0.875000  1.0  0.4917
  N  N845  1  0.375000  0.572800  0.875000  1.0  -0.4526
  N  N846  1  0.375000  0.978900  0.375000  1.0  -0.5089
  N  N847  1  0.375000  0.026700  0.375000  1.0  0.4917
  N  N848  1  0.375000  0.072800  0.375000  1.0  -0.4526
  O  O849  1  0.486100  0.122200  0.562700  1.0  -0.6102
  O  O850  1  0.581800  0.055920  0.544120  1.0  -0.5774
  O  O851  1  0.486100  0.622200  0.062700  1.0  -0.6102
  O  O852  1  0.581800  0.555920  0.044120  1.0  -0.5774
  O  O853  1  0.986100  0.122200  0.062700  1.0  -0.6102
  O  O854  1  0.081800  0.055920  0.044120  1.0  -0.5774
  O  O855  1  0.986100  0.622200  0.562700  1.0  -0.6102
  O  O856  1  0.081800  0.555920  0.544120  1.0  -0.5774
  O  O857  1  0.263900  0.627800  0.562700  1.0  -0.6103
  O  O858  1  0.168200  0.694080  0.544120  1.0  -0.578
  O  O859  1  0.263900  0.127800  0.062700  1.0  -0.6103
  O  O860  1  0.168200  0.194080  0.044120  1.0  -0.578
  O  O861  1  0.763900  0.627800  0.062700  1.0  -0.6103
  O  O862  1  0.668200  0.694080  0.044120  1.0  -0.578
  O  O863  1  0.763900  0.127800  0.562700  1.0  -0.6103
  O  O864  1  0.668200  0.194080  0.544120  1.0  -0.578
  O  O865  1  0.263900  0.122200  0.187300  1.0  -0.6103
  O  O866  1  0.168200  0.055920  0.205880  1.0  -0.5772
  O  O867  1  0.263900  0.622200  0.687300  1.0  -0.6103
  O  O868  1  0.168200  0.555920  0.705880  1.0  -0.5772
  O  O869  1  0.763900  0.122200  0.687300  1.0  -0.6103
  O  O870  1  0.668200  0.055920  0.705880  1.0  -0.5772
  O  O871  1  0.763900  0.622200  0.187300  1.0  -0.6103
  O  O872  1  0.668200  0.555920  0.205880  1.0  -0.5772
  O  O873  1  0.486100  0.627800  0.187300  1.0  -0.6097
  O  O874  1  0.581800  0.694080  0.205880  1.0  -0.5768
  O  O875  1  0.486100  0.127800  0.687300  1.0  -0.6097
  O  O876  1  0.581800  0.194080  0.705880  1.0  -0.5768
  O  O877  1  0.986100  0.627800  0.687300  1.0  -0.6097
  O  O878  1  0.081800  0.694080  0.705880  1.0  -0.5768
  O  O879  1  0.986100  0.127800  0.187300  1.0  -0.6097
  O  O880  1  0.081800  0.194080  0.205880  1.0  -0.5768
  O  O881  1  0.513900  0.877800  0.437300  1.0  -0.6105
  O  O882  1  0.418200  0.944080  0.455880  1.0  -0.5772
  O  O883  1  0.513900  0.377800  0.937300  1.0  -0.6105
  O  O884  1  0.418200  0.444080  0.955880  1.0  -0.5772
  O  O885  1  0.013900  0.877800  0.937300  1.0  -0.6105
  O  O886  1  0.918200  0.944080  0.955880  1.0  -0.5772
  O  O887  1  0.013900  0.377800  0.437300  1.0  -0.6105
  O  O888  1  0.918200  0.444080  0.455880  1.0  -0.5772
  O  O889  1  0.736100  0.372200  0.437300  1.0  -0.6095
  O  O890  1  0.831800  0.305920  0.455880  1.0  -0.5767
  O  O891  1  0.736100  0.872200  0.937300  1.0  -0.6095
  O  O892  1  0.831800  0.805920  0.955880  1.0  -0.5767
  O  O893  1  0.236100  0.372200  0.937300  1.0  -0.6095
  O  O894  1  0.331800  0.305920  0.955880  1.0  -0.5767
  O  O895  1  0.236100  0.872200  0.437300  1.0  -0.6095
  O  O896  1  0.331800  0.805920  0.455880  1.0  -0.5767
  O  O897  1  0.736100  0.877800  0.812700  1.0  -0.61
  O  O898  1  0.831800  0.944080  0.794120  1.0  -0.5774
  O  O899  1  0.736100  0.377800  0.312700  1.0  -0.61
  O  O900  1  0.831800  0.444080  0.294120  1.0  -0.5774
  O  O901  1  0.236100  0.877800  0.312700  1.0  -0.61
  O  O902  1  0.331800  0.944080  0.294120  1.0  -0.5774
  O  O903  1  0.236100  0.377800  0.812700  1.0  -0.61
  O  O904  1  0.331800  0.444080  0.794120  1.0  -0.5774
  O  O905  1  0.513900  0.372200  0.812700  1.0  -0.6106
  O  O906  1  0.418200  0.305920  0.794120  1.0  -0.5779
  O  O907  1  0.513900  0.872200  0.312700  1.0  -0.6106
  O  O908  1  0.418200  0.805920  0.294120  1.0  -0.5779
  O  O909  1  0.013900  0.372200  0.312700  1.0  -0.6106
  O  O910  1  0.918200  0.305920  0.294120  1.0  -0.5779
  O  O911  1  0.013900  0.872200  0.812700  1.0  -0.6106
  O  O912  1  0.918200  0.805920  0.794120  1.0  -0.5779
  O  O913  1  0.625000  0.125000  0.625000  1.0  -1.0203
  O  O914  1  0.125000  0.625000  0.625000  1.0  -1.0203
  O  O915  1  0.125000  0.125000  0.125000  1.0  -1.0203
  O  O916  1  0.625000  0.625000  0.125000  1.0  -1.0203
  O  O917  1  0.375000  0.875000  0.375000  1.0  -1.0203
  O  O918  1  0.875000  0.375000  0.375000  1.0  -1.0203
  O  O919  1  0.875000  0.875000  0.875000  1.0  -1.0203
  O  O920  1  0.375000  0.375000  0.875000  1.0  -1.0203
