# generated using pymatgen
data_AgH8(C4N)4
_symmetry_space_group_name_H-M   'P 1'
_cell_length_a   32.22300000
_cell_length_b   32.22300000
_cell_length_c   20.82730000
_cell_angle_alpha   90.00000000
_cell_angle_beta   90.00000000
_cell_angle_gamma   120.00000000
_symmetry_Int_Tables_number   1
_chemical_formula_structural   AgH8(C4N)4
_chemical_formula_sum   'Ag36 H288 C576 N144'
_cell_volume   18728.17880275
_cell_formula_units_Z   36
loop_
 _symmetry_equiv_pos_site_id
 _symmetry_equiv_pos_as_xyz
  1  'x, y, z'
loop_
 _atom_site_type_symbol
 _atom_site_label
 _atom_site_symmetry_multiplicity
 _atom_site_fract_x
 _atom_site_fract_y
 _atom_site_fract_z
 _atom_site_occupancy
 _atom_site_charge
  Ag  Ag1  1  0.149320  0.045900  0.231130  1.0  0.3129
  Ag  Ag2  1  0.370390  0.047750  0.330300  1.0  0.273
  Ag  Ag3  1  0.815990  0.379230  0.564460  1.0  0.3129
  Ag  Ag4  1  0.037060  0.381080  0.663630  1.0  0.273
  Ag  Ag5  1  0.482650  0.712570  0.897800  1.0  0.3129
  Ag  Ag6  1  0.703720  0.714420  0.996970  1.0  0.273
  Ag  Ag7  1  0.954100  0.103420  0.231130  1.0  0.3121
  Ag  Ag8  1  0.952250  0.322640  0.330300  1.0  0.2741
  Ag  Ag9  1  0.620770  0.436750  0.564460  1.0  0.3121
  Ag  Ag10  1  0.618920  0.655970  0.663630  1.0  0.2742
  Ag  Ag11  1  0.287430  0.770090  0.897800  1.0  0.3121
  Ag  Ag12  1  0.285580  0.989310  0.996970  1.0  0.2741
  Ag  Ag13  1  0.896580  0.850680  0.231130  1.0  0.3129
  Ag  Ag14  1  0.677360  0.629610  0.330300  1.0  0.2743
  Ag  Ag15  1  0.563250  0.184010  0.564460  1.0  0.3129
  Ag  Ag16  1  0.344030  0.962940  0.663630  1.0  0.2743
  Ag  Ag17  1  0.229910  0.517350  0.897800  1.0  0.3129
  Ag  Ag18  1  0.010690  0.296280  0.996970  1.0  0.2743
  Ag  Ag19  1  0.850680  0.954100  0.768870  1.0  0.3125
  Ag  Ag20  1  0.629610  0.952250  0.669700  1.0  0.2733
  Ag  Ag21  1  0.517350  0.287430  0.102200  1.0  0.3125
  Ag  Ag22  1  0.296280  0.285580  0.003030  1.0  0.2733
  Ag  Ag23  1  0.184010  0.620770  0.435540  1.0  0.3125
  Ag  Ag24  1  0.962940  0.618920  0.336370  1.0  0.2733
  Ag  Ag25  1  0.045900  0.896580  0.768870  1.0  0.3117
  Ag  Ag26  1  0.047750  0.677360  0.669700  1.0  0.2742
  Ag  Ag27  1  0.712570  0.229910  0.102200  1.0  0.3117
  Ag  Ag28  1  0.714420  0.010690  0.003030  1.0  0.2742
  Ag  Ag29  1  0.379230  0.563250  0.435540  1.0  0.3117
  Ag  Ag30  1  0.381080  0.344030  0.336370  1.0  0.2744
  Ag  Ag31  1  0.103420  0.149320  0.768870  1.0  0.3122
  Ag  Ag32  1  0.322640  0.370390  0.669700  1.0  0.2737
  Ag  Ag33  1  0.770090  0.482650  0.102200  1.0  0.3122
  Ag  Ag34  1  0.989310  0.703720  0.003030  1.0  0.2737
  Ag  Ag35  1  0.436750  0.815990  0.435540  1.0  0.3122
  Ag  Ag36  1  0.655970  0.037060  0.336370  1.0  0.2736
  H  H37  1  0.324100  0.085300  0.427900  1.0  0.1109
  H  H38  1  0.280300  0.102400  0.499000  1.0  0.0961
  H  H39  1  0.212200  0.105700  0.465200  1.0  0.1088
  H  H40  1  0.182500  0.082500  0.359100  1.0  0.1324
  H  H41  1  0.113400  0.026400  0.094100  1.0  0.1241
  H  H42  1  0.088900  0.008500  0.988400  1.0  0.0922
  H  H43  1  0.132200  0.993700  0.914400  1.0  0.0906
  H  H44  1  0.202900  0.994700  0.943200  1.0  0.1263
  H  H45  1  0.376500  0.990200  0.032000  1.0  0.1213
  H  H46  1  0.444400  0.988500  0.067800  1.0  0.0979
  H  H47  1  0.468800  0.004600  0.174200  1.0  0.1037
  H  H48  1  0.426900  0.023700  0.247200  1.0  0.126
  H  H49  1  0.128600  0.941100  0.227700  1.0  0.1142
  H  H50  1  0.106900  0.862500  0.212800  1.0  0.0982
  H  H51  1  0.027600  0.802100  0.217600  1.0  0.0961
  H  H52  1  0.966300  0.819800  0.228300  1.0  0.1328
  H  H53  1  0.990770  0.418630  0.761230  1.0  0.111
  H  H54  1  0.946970  0.435730  0.832330  1.0  0.096
  H  H55  1  0.878870  0.439030  0.798530  1.0  0.1088
  H  H56  1  0.849170  0.415830  0.692430  1.0  0.1324
  H  H57  1  0.780070  0.359730  0.427430  1.0  0.1241
  H  H58  1  0.755570  0.341830  0.321730  1.0  0.0922
  H  H59  1  0.798870  0.327030  0.247730  1.0  0.0906
  H  H60  1  0.869570  0.328030  0.276530  1.0  0.1263
  H  H61  1  0.043170  0.323530  0.365330  1.0  0.1213
  H  H62  1  0.111070  0.321830  0.401130  1.0  0.0979
  H  H63  1  0.135470  0.337930  0.507530  1.0  0.1037
  H  H64  1  0.093570  0.357030  0.580530  1.0  0.1259
  H  H65  1  0.795270  0.274430  0.561030  1.0  0.1142
  H  H66  1  0.773570  0.195830  0.546130  1.0  0.0982
  H  H67  1  0.694270  0.135430  0.550930  1.0  0.0962
  H  H68  1  0.632970  0.153130  0.561630  1.0  0.1328
  H  H69  1  0.657430  0.751970  0.094570  1.0  0.1109
  H  H70  1  0.613630  0.769070  0.165670  1.0  0.0961
  H  H71  1  0.545530  0.772370  0.131870  1.0  0.1088
  H  H72  1  0.515830  0.749170  0.025770  1.0  0.1324
  H  H73  1  0.446730  0.693070  0.760770  1.0  0.1241
  H  H74  1  0.422230  0.675170  0.655070  1.0  0.0922
  H  H75  1  0.465530  0.660370  0.581070  1.0  0.0906
  H  H76  1  0.536230  0.661370  0.609870  1.0  0.1263
  H  H77  1  0.709830  0.656870  0.698670  1.0  0.1213
  H  H78  1  0.777730  0.655170  0.734470  1.0  0.0979
  H  H79  1  0.802130  0.671270  0.840870  1.0  0.1037
  H  H80  1  0.760230  0.690370  0.913870  1.0  0.126
  H  H81  1  0.461930  0.607770  0.894370  1.0  0.1143
  H  H82  1  0.440230  0.529170  0.879470  1.0  0.0982
  H  H83  1  0.360930  0.468770  0.884270  1.0  0.0961
  H  H84  1  0.299630  0.486470  0.894970  1.0  0.1328
  H  H85  1  0.914700  0.238800  0.427900  1.0  0.1115
  H  H86  1  0.897600  0.177900  0.499000  1.0  0.0957
  H  H87  1  0.894300  0.106500  0.465200  1.0  0.1108
  H  H88  1  0.917500  0.100000  0.359100  1.0  0.1318
  H  H89  1  0.973600  0.087000  0.094100  1.0  0.125
  H  H90  1  0.991500  0.080400  0.988400  1.0  0.0929
  H  H91  1  0.006300  0.138500  0.914400  1.0  0.0911
  H  H92  1  0.005300  0.208200  0.943200  1.0  0.1263
  H  H93  1  0.009800  0.386300  0.032000  1.0  0.1216
  H  H94  1  0.011500  0.455900  0.067800  1.0  0.0997
  H  H95  1  0.995400  0.464200  0.174200  1.0  0.1043
  H  H96  1  0.976300  0.403200  0.247200  1.0  0.1259
  H  H97  1  0.058900  0.187500  0.227700  1.0  0.114
  H  H98  1  0.137500  0.244400  0.212800  1.0  0.0977
  H  H99  1  0.197900  0.225500  0.217600  1.0  0.0946
  H  H100  1  0.180200  0.146500  0.228300  1.0  0.1333
  H  H101  1  0.581370  0.572130  0.761230  1.0  0.1115
  H  H102  1  0.564270  0.511230  0.832330  1.0  0.0958
  H  H103  1  0.560970  0.439830  0.798530  1.0  0.1108
  H  H104  1  0.584170  0.433330  0.692430  1.0  0.1318
  H  H105  1  0.640270  0.420330  0.427430  1.0  0.125
  H  H106  1  0.658170  0.413730  0.321730  1.0  0.0929
  H  H107  1  0.672970  0.471830  0.247730  1.0  0.0911
  H  H108  1  0.671970  0.541530  0.276530  1.0  0.1263
  H  H109  1  0.676470  0.719630  0.365330  1.0  0.1216
  H  H110  1  0.678170  0.789230  0.401130  1.0  0.0997
  H  H111  1  0.662070  0.797530  0.507530  1.0  0.1043
  H  H112  1  0.642970  0.736530  0.580530  1.0  0.1259
  H  H113  1  0.725570  0.520830  0.561030  1.0  0.114
  H  H114  1  0.804170  0.577730  0.546130  1.0  0.0977
  H  H115  1  0.864570  0.558830  0.550930  1.0  0.0945
  H  H116  1  0.846870  0.479830  0.561630  1.0  0.1333
  H  H117  1  0.248030  0.905470  0.094570  1.0  0.1115
  H  H118  1  0.230930  0.844570  0.165670  1.0  0.0958
  H  H119  1  0.227630  0.773170  0.131870  1.0  0.1107
  H  H120  1  0.250830  0.766670  0.025770  1.0  0.1318
  H  H121  1  0.306930  0.753670  0.760770  1.0  0.125
  H  H122  1  0.324830  0.747070  0.655070  1.0  0.0929
  H  H123  1  0.339630  0.805170  0.581070  1.0  0.0911
  H  H124  1  0.338630  0.874870  0.609870  1.0  0.1263
  H  H125  1  0.343130  0.052970  0.698670  1.0  0.1216
  H  H126  1  0.344830  0.122570  0.734470  1.0  0.0997
  H  H127  1  0.328730  0.130870  0.840870  1.0  0.1043
  H  H128  1  0.309630  0.069870  0.913870  1.0  0.1259
  H  H129  1  0.392230  0.854170  0.894370  1.0  0.114
  H  H130  1  0.470830  0.911070  0.879470  1.0  0.0977
  H  H131  1  0.531230  0.892170  0.884270  1.0  0.0946
  H  H132  1  0.513530  0.813170  0.894970  1.0  0.1333
  H  H133  1  0.761200  0.675900  0.427900  1.0  0.1116
  H  H134  1  0.822100  0.719700  0.499000  1.0  0.0956
  H  H135  1  0.893500  0.787800  0.465200  1.0  0.1098
  H  H136  1  0.900000  0.817500  0.359100  1.0  0.1318
  H  H137  1  0.913000  0.886600  0.094100  1.0  0.1248
  H  H138  1  0.919600  0.911100  0.988400  1.0  0.0931
  H  H139  1  0.861500  0.867800  0.914400  1.0  0.0909
  H  H140  1  0.791800  0.797100  0.943200  1.0  0.1263
  H  H141  1  0.613700  0.623500  0.032000  1.0  0.1214
  H  H142  1  0.544100  0.555600  0.067800  1.0  0.0975
  H  H143  1  0.535800  0.531200  0.174200  1.0  0.1036
  H  H144  1  0.596800  0.573100  0.247200  1.0  0.1265
  H  H145  1  0.812500  0.871400  0.227700  1.0  0.1147
  H  H146  1  0.755600  0.893100  0.212800  1.0  0.0984
  H  H147  1  0.774500  0.972400  0.217600  1.0  0.0943
  H  H148  1  0.853500  0.033700  0.228300  1.0  0.1327
  H  H149  1  0.427870  0.009230  0.761230  1.0  0.1116
  H  H150  1  0.488770  0.053030  0.832330  1.0  0.0956
  H  H151  1  0.560170  0.121130  0.798530  1.0  0.1098
  H  H152  1  0.566670  0.150830  0.692430  1.0  0.1318
  H  H153  1  0.579670  0.219930  0.427430  1.0  0.1248
  H  H154  1  0.586270  0.244430  0.321730  1.0  0.0931
  H  H155  1  0.528170  0.201130  0.247730  1.0  0.0909
  H  H156  1  0.458470  0.130430  0.276530  1.0  0.1263
  H  H157  1  0.280370  0.956830  0.365330  1.0  0.1214
  H  H158  1  0.210770  0.888930  0.401130  1.0  0.0975
  H  H159  1  0.202470  0.864530  0.507530  1.0  0.1036
  H  H160  1  0.263470  0.906430  0.580530  1.0  0.1265
  H  H161  1  0.479170  0.204730  0.561030  1.0  0.1146
  H  H162  1  0.422270  0.226430  0.546130  1.0  0.0984
  H  H163  1  0.441170  0.305730  0.550930  1.0  0.0943
  H  H164  1  0.520170  0.367030  0.561630  1.0  0.1327
  H  H165  1  0.094530  0.342570  0.094570  1.0  0.1116
  H  H166  1  0.155430  0.386370  0.165670  1.0  0.0956
  H  H167  1  0.226830  0.454470  0.131870  1.0  0.1098
  H  H168  1  0.233330  0.484170  0.025770  1.0  0.1318
  H  H169  1  0.246330  0.553270  0.760770  1.0  0.1248
  H  H170  1  0.252930  0.577770  0.655070  1.0  0.0931
  H  H171  1  0.194830  0.534470  0.581070  1.0  0.0909
  H  H172  1  0.125130  0.463770  0.609870  1.0  0.1263
  H  H173  1  0.947030  0.290170  0.698670  1.0  0.1214
  H  H174  1  0.877430  0.222270  0.734470  1.0  0.0975
  H  H175  1  0.869130  0.197870  0.840870  1.0  0.1036
  H  H176  1  0.930130  0.239770  0.913870  1.0  0.1265
  H  H177  1  0.145830  0.538070  0.894370  1.0  0.1146
  H  H178  1  0.088930  0.559770  0.879470  1.0  0.0984
  H  H179  1  0.107830  0.639070  0.884270  1.0  0.0943
  H  H180  1  0.186830  0.700370  0.894970  1.0  0.1327
  H  H181  1  0.675900  0.914700  0.572100  1.0  0.1107
  H  H182  1  0.719700  0.897600  0.501000  1.0  0.0971
  H  H183  1  0.787800  0.894300  0.534800  1.0  0.1096
  H  H184  1  0.817500  0.917500  0.640900  1.0  0.1316
  H  H185  1  0.886600  0.973600  0.905900  1.0  0.1249
  H  H186  1  0.911100  0.991500  0.011600  1.0  0.0928
  H  H187  1  0.867800  0.006300  0.085600  1.0  0.0905
  H  H188  1  0.797100  0.005300  0.056800  1.0  0.1258
  H  H189  1  0.623500  0.009800  0.968000  1.0  0.1214
  H  H190  1  0.555600  0.011500  0.932200  1.0  0.0979
  H  H191  1  0.531200  0.995400  0.825800  1.0  0.1039
  H  H192  1  0.573100  0.976300  0.752800  1.0  0.1274
  H  H193  1  0.871400  0.058900  0.772300  1.0  0.1135
  H  H194  1  0.893100  0.137500  0.787200  1.0  0.0977
  H  H195  1  0.972400  0.197900  0.782400  1.0  0.0964
  H  H196  1  0.033700  0.180200  0.771700  1.0  0.133
  H  H197  1  0.342570  0.248030  0.905430  1.0  0.1107
  H  H198  1  0.386370  0.230930  0.834330  1.0  0.0971
  H  H199  1  0.454470  0.227630  0.868130  1.0  0.1096
  H  H200  1  0.484170  0.250830  0.974230  1.0  0.1316
  H  H201  1  0.553270  0.306930  0.239230  1.0  0.1249
  H  H202  1  0.577770  0.324830  0.344930  1.0  0.0928
  H  H203  1  0.534470  0.339630  0.418930  1.0  0.0905
  H  H204  1  0.463770  0.338630  0.390130  1.0  0.1258
  H  H205  1  0.290170  0.343130  0.301330  1.0  0.1214
  H  H206  1  0.222270  0.344830  0.265530  1.0  0.0979
  H  H207  1  0.197870  0.328730  0.159130  1.0  0.1039
  H  H208  1  0.239770  0.309630  0.086130  1.0  0.1274
  H  H209  1  0.538070  0.392230  0.105630  1.0  0.1136
  H  H210  1  0.559770  0.470830  0.120530  1.0  0.0977
  H  H211  1  0.639070  0.531230  0.115730  1.0  0.0964
  H  H212  1  0.700370  0.513530  0.105030  1.0  0.133
  H  H213  1  0.009230  0.581370  0.238770  1.0  0.1108
  H  H214  1  0.053030  0.564270  0.167670  1.0  0.097
  H  H215  1  0.121130  0.560970  0.201470  1.0  0.1096
  H  H216  1  0.150830  0.584170  0.307570  1.0  0.1316
  H  H217  1  0.219930  0.640270  0.572570  1.0  0.1249
  H  H218  1  0.244430  0.658170  0.678270  1.0  0.0928
  H  H219  1  0.201130  0.672970  0.752270  1.0  0.0905
  H  H220  1  0.130430  0.671970  0.723470  1.0  0.1258
  H  H221  1  0.956830  0.676470  0.634670  1.0  0.1214
  H  H222  1  0.888930  0.678170  0.598870  1.0  0.0979
  H  H223  1  0.864530  0.662070  0.492470  1.0  0.1039
  H  H224  1  0.906430  0.642970  0.419470  1.0  0.1273
  H  H225  1  0.204730  0.725570  0.438970  1.0  0.1135
  H  H226  1  0.226430  0.804170  0.453870  1.0  0.0978
  H  H227  1  0.305730  0.864570  0.449070  1.0  0.0965
  H  H228  1  0.367030  0.846870  0.438370  1.0  0.133
  H  H229  1  0.085300  0.761200  0.572100  1.0  0.1107
  H  H230  1  0.102400  0.822100  0.501000  1.0  0.0973
  H  H231  1  0.105700  0.893500  0.534800  1.0  0.1109
  H  H232  1  0.082500  0.900000  0.640900  1.0  0.1323
  H  H233  1  0.026400  0.913000  0.905900  1.0  0.1248
  H  H234  1  0.008500  0.919600  0.011600  1.0  0.0928
  H  H235  1  0.993700  0.861500  0.085600  1.0  0.0904
  H  H236  1  0.994700  0.791800  0.056800  1.0  0.1256
  H  H237  1  0.990200  0.613700  0.968000  1.0  0.1214
  H  H238  1  0.988500  0.544100  0.932200  1.0  0.1
  H  H239  1  0.004600  0.535800  0.825800  1.0  0.1038
  H  H240  1  0.023700  0.596800  0.752800  1.0  0.127
  H  H241  1  0.941100  0.812500  0.772300  1.0  0.1133
  H  H242  1  0.862500  0.755600  0.787200  1.0  0.097
  H  H243  1  0.802100  0.774500  0.782400  1.0  0.0947
  H  H244  1  0.819800  0.853500  0.771700  1.0  0.1316
  H  H245  1  0.751970  0.094530  0.905430  1.0  0.1107
  H  H246  1  0.769070  0.155430  0.834330  1.0  0.0973
  H  H247  1  0.772370  0.226830  0.868130  1.0  0.1108
  H  H248  1  0.749170  0.233330  0.974230  1.0  0.1322
  H  H249  1  0.693070  0.246330  0.239230  1.0  0.1248
  H  H250  1  0.675170  0.252930  0.344930  1.0  0.0928
  H  H251  1  0.660370  0.194830  0.418930  1.0  0.0904
  H  H252  1  0.661370  0.125130  0.390130  1.0  0.1256
  H  H253  1  0.656870  0.947030  0.301330  1.0  0.1214
  H  H254  1  0.655170  0.877430  0.265530  1.0  0.1
  H  H255  1  0.671270  0.869130  0.159130  1.0  0.1038
  H  H256  1  0.690370  0.930130  0.086130  1.0  0.127
  H  H257  1  0.607770  0.145830  0.105630  1.0  0.1133
  H  H258  1  0.529170  0.088930  0.120530  1.0  0.097
  H  H259  1  0.468770  0.107830  0.115730  1.0  0.0947
  H  H260  1  0.486470  0.186830  0.105030  1.0  0.1316
  H  H261  1  0.418630  0.427870  0.238770  1.0  0.1107
  H  H262  1  0.435730  0.488770  0.167670  1.0  0.0973
  H  H263  1  0.439030  0.560170  0.201470  1.0  0.1109
  H  H264  1  0.415830  0.566670  0.307570  1.0  0.1323
  H  H265  1  0.359730  0.579670  0.572570  1.0  0.1248
  H  H266  1  0.341830  0.586270  0.678270  1.0  0.0928
  H  H267  1  0.327030  0.528170  0.752270  1.0  0.0904
  H  H268  1  0.328030  0.458470  0.723470  1.0  0.1256
  H  H269  1  0.323530  0.280370  0.634670  1.0  0.1214
  H  H270  1  0.321830  0.210770  0.598870  1.0  0.1
  H  H271  1  0.337930  0.202470  0.492470  1.0  0.1038
  H  H272  1  0.357030  0.263470  0.419470  1.0  0.127
  H  H273  1  0.274430  0.479170  0.438970  1.0  0.1133
  H  H274  1  0.195830  0.422270  0.453870  1.0  0.097
  H  H275  1  0.135430  0.441170  0.449070  1.0  0.0946
  H  H276  1  0.153130  0.520170  0.438370  1.0  0.1316
  H  H277  1  0.238800  0.324100  0.572100  1.0  0.1121
  H  H278  1  0.177900  0.280300  0.501000  1.0  0.0976
  H  H279  1  0.106500  0.212200  0.534800  1.0  0.1092
  H  H280  1  0.100000  0.182500  0.640900  1.0  0.1313
  H  H281  1  0.087000  0.113400  0.905900  1.0  0.1251
  H  H282  1  0.080400  0.088900  0.011600  1.0  0.0932
  H  H283  1  0.138500  0.132200  0.085600  1.0  0.0911
  H  H284  1  0.208200  0.202900  0.056800  1.0  0.126
  H  H285  1  0.386300  0.376500  0.968000  1.0  0.1211
  H  H286  1  0.455900  0.444400  0.932200  1.0  0.0981
  H  H287  1  0.464200  0.468800  0.825800  1.0  0.1038
  H  H288  1  0.403200  0.426900  0.752800  1.0  0.1266
  H  H289  1  0.187500  0.128600  0.772300  1.0  0.1144
  H  H290  1  0.244400  0.106900  0.787200  1.0  0.0979
  H  H291  1  0.225500  0.027600  0.782400  1.0  0.0948
  H  H292  1  0.146500  0.966300  0.771700  1.0  0.132
  H  H293  1  0.905470  0.657430  0.905430  1.0  0.1121
  H  H294  1  0.844570  0.613630  0.834330  1.0  0.0976
  H  H295  1  0.773170  0.545530  0.868130  1.0  0.1092
  H  H296  1  0.766670  0.515830  0.974230  1.0  0.1314
  H  H297  1  0.753670  0.446730  0.239230  1.0  0.1251
  H  H298  1  0.747070  0.422230  0.344930  1.0  0.0932
  H  H299  1  0.805170  0.465530  0.418930  1.0  0.0911
  H  H300  1  0.874870  0.536230  0.390130  1.0  0.126
  H  H301  1  0.052970  0.709830  0.301330  1.0  0.1211
  H  H302  1  0.122570  0.777730  0.265530  1.0  0.0981
  H  H303  1  0.130870  0.802130  0.159130  1.0  0.1038
  H  H304  1  0.069870  0.760230  0.086130  1.0  0.1266
  H  H305  1  0.854170  0.461930  0.105630  1.0  0.1143
  H  H306  1  0.911070  0.440230  0.120530  1.0  0.0979
  H  H307  1  0.892170  0.360930  0.115730  1.0  0.0948
  H  H308  1  0.813170  0.299630  0.105030  1.0  0.132
  H  H309  1  0.572130  0.990770  0.238770  1.0  0.1121
  H  H310  1  0.511230  0.946970  0.167670  1.0  0.0976
  H  H311  1  0.439830  0.878870  0.201470  1.0  0.1092
  H  H312  1  0.433330  0.849170  0.307570  1.0  0.1314
  H  H313  1  0.420330  0.780070  0.572570  1.0  0.1251
  H  H314  1  0.413730  0.755570  0.678270  1.0  0.0932
  H  H315  1  0.471830  0.798870  0.752270  1.0  0.0911
  H  H316  1  0.541530  0.869570  0.723470  1.0  0.126
  H  H317  1  0.719630  0.043170  0.634670  1.0  0.1211
  H  H318  1  0.789230  0.111070  0.598870  1.0  0.0982
  H  H319  1  0.797530  0.135470  0.492470  1.0  0.1038
  H  H320  1  0.736530  0.093570  0.419470  1.0  0.1265
  H  H321  1  0.520830  0.795270  0.438970  1.0  0.1144
  H  H322  1  0.577730  0.773570  0.453870  1.0  0.0979
  H  H323  1  0.558830  0.694270  0.449070  1.0  0.0948
  H  H324  1  0.479830  0.632970  0.438370  1.0  0.132
  C  C325  1  0.245900  0.047300  0.228300  1.0  0.1869
  C  C326  1  0.287600  0.047400  0.249300  1.0  0.1578
  C  C327  1  0.278900  0.070900  0.349400  1.0  0.1625
  C  C328  1  0.295500  0.084200  0.414200  1.0  -0.1577
  C  C329  1  0.270000  0.095200  0.455600  1.0  -0.1086
  C  C330  1  0.228400  0.096100  0.435800  1.0  -0.0852
  C  C331  1  0.210800  0.082900  0.372600  1.0  -0.1607
  C  C332  1  0.237000  0.070200  0.330300  1.0  0.196
  C  C333  1  0.256500  0.024400  0.117200  1.0  0.1388
  C  C334  1  0.229200  0.035200  0.163200  1.0  0.1603
  C  C335  1  0.173700  0.022300  0.082900  1.0  0.187
  C  C336  1  0.132000  0.020400  0.064200  1.0  -0.1952
  C  C337  1  0.117800  0.009700  0.001500  1.0  -0.105
  C  C338  1  0.143300  0.000700  0.957500  1.0  -0.1199
  C  C339  1  0.185400  0.001400  0.974100  1.0  -0.1586
  C  C340  1  0.201600  0.012500  0.038600  1.0  0.1635
  C  C341  1  0.314600  0.034400  0.204800  1.0  0.1619
  C  C342  1  0.299600  0.023200  0.139000  1.0  0.1809
  C  C343  1  0.361600  0.010300  0.118200  1.0  0.1619
  C  C344  1  0.386600  0.997700  0.075400  1.0  -0.1581
  C  C345  1  0.426800  0.996200  0.097100  1.0  -0.1089
  C  C346  1  0.441400  0.005900  0.160600  1.0  -0.1398
  C  C347  1  0.416900  0.017300  0.203600  1.0  -0.1263
  C  C348  1  0.376400  0.019500  0.183000  1.0  0.1898
  C  C349  1  0.987700  0.950500  0.240000  1.0  0.199
  C  C350  1  0.036600  0.986600  0.240700  1.0  0.1822
  C  C351  1  0.059400  0.930400  0.233200  1.0  0.1589
  C  C352  1  0.095600  0.917200  0.226700  1.0  -0.1551
  C  C353  1  0.082700  0.870700  0.219300  1.0  -0.1202
  C  C354  1  0.035200  0.834600  0.221000  1.0  -0.1206
  C  C355  1  0.998800  0.844800  0.227400  1.0  -0.16
  C  C356  1  0.010800  0.893600  0.232600  1.0  0.1503
  C  C357  1  0.912570  0.380630  0.561630  1.0  0.1869
  C  C358  1  0.954270  0.380730  0.582630  1.0  0.1578
  C  C359  1  0.945570  0.404230  0.682730  1.0  0.1625
  C  C360  1  0.962170  0.417530  0.747530  1.0  -0.1577
  C  C361  1  0.936670  0.428530  0.788930  1.0  -0.1085
  C  C362  1  0.895070  0.429430  0.769130  1.0  -0.0852
  C  C363  1  0.877470  0.416230  0.705930  1.0  -0.1608
  C  C364  1  0.903670  0.403530  0.663630  1.0  0.1961
  C  C365  1  0.923170  0.357730  0.450530  1.0  0.1388
  C  C366  1  0.895870  0.368530  0.496530  1.0  0.1606
  C  C367  1  0.840370  0.355630  0.416230  1.0  0.187
  C  C368  1  0.798670  0.353730  0.397530  1.0  -0.1952
  C  C369  1  0.784470  0.343030  0.334830  1.0  -0.105
  C  C370  1  0.809970  0.334030  0.290830  1.0  -0.1199
  C  C371  1  0.852070  0.334730  0.307430  1.0  -0.1586
  C  C372  1  0.868270  0.345830  0.371930  1.0  0.1635
  C  C373  1  0.981270  0.367730  0.538130  1.0  0.1614
  C  C374  1  0.966270  0.356530  0.472330  1.0  0.1809
  C  C375  1  0.028270  0.343630  0.451530  1.0  0.1619
  C  C376  1  0.053270  0.331030  0.408730  1.0  -0.1581
  C  C377  1  0.093470  0.329530  0.430430  1.0  -0.1089
  C  C378  1  0.108070  0.339230  0.493930  1.0  -0.1398
  C  C379  1  0.083570  0.350630  0.536930  1.0  -0.1263
  C  C380  1  0.043070  0.352830  0.516330  1.0  0.1898
  C  C381  1  0.654370  0.283830  0.573330  1.0  0.199
  C  C382  1  0.703270  0.319930  0.574030  1.0  0.1822
  C  C383  1  0.726070  0.263730  0.566530  1.0  0.1589
  C  C384  1  0.762270  0.250530  0.560030  1.0  -0.1551
  C  C385  1  0.749370  0.204030  0.552630  1.0  -0.1197
  C  C386  1  0.701870  0.167930  0.554330  1.0  -0.1206
  C  C387  1  0.665470  0.178130  0.560730  1.0  -0.1601
  C  C388  1  0.677470  0.226930  0.565930  1.0  0.1503
  C  C389  1  0.579230  0.713970  0.894970  1.0  0.1869
  C  C390  1  0.620930  0.714070  0.915970  1.0  0.1578
  C  C391  1  0.612230  0.737570  0.016070  1.0  0.1625
  C  C392  1  0.628830  0.750870  0.080870  1.0  -0.1577
  C  C393  1  0.603330  0.761870  0.122270  1.0  -0.1084
  C  C394  1  0.561730  0.762770  0.102470  1.0  -0.0851
  C  C395  1  0.544130  0.749570  0.039270  1.0  -0.1607
  C  C396  1  0.570330  0.736870  0.996970  1.0  0.196
  C  C397  1  0.589830  0.691070  0.783870  1.0  0.1388
  C  C398  1  0.562530  0.701870  0.829870  1.0  0.1603
  C  C399  1  0.507030  0.688970  0.749570  1.0  0.187
  C  C400  1  0.465330  0.687070  0.730870  1.0  -0.1952
  C  C401  1  0.451130  0.676370  0.668170  1.0  -0.105
  C  C402  1  0.476630  0.667370  0.624170  1.0  -0.1199
  C  C403  1  0.518730  0.668070  0.640770  1.0  -0.1586
  C  C404  1  0.534930  0.679170  0.705270  1.0  0.1637
  C  C405  1  0.647930  0.701070  0.871470  1.0  0.1619
  C  C406  1  0.632930  0.689870  0.805670  1.0  0.1809
  C  C407  1  0.694930  0.676970  0.784870  1.0  0.1619
  C  C408  1  0.719930  0.664370  0.742070  1.0  -0.1581
  C  C409  1  0.760130  0.662870  0.763770  1.0  -0.1089
  C  C410  1  0.774730  0.672570  0.827270  1.0  -0.1398
  C  C411  1  0.750230  0.683970  0.870270  1.0  -0.1264
  C  C412  1  0.709730  0.686170  0.849670  1.0  0.1899
  C  C413  1  0.321030  0.617170  0.906670  1.0  0.2062
  C  C414  1  0.369930  0.653270  0.907370  1.0  0.1828
  C  C415  1  0.392730  0.597070  0.899870  1.0  0.1589
  C  C416  1  0.428930  0.583870  0.893370  1.0  -0.1551
  C  C417  1  0.416030  0.537370  0.885970  1.0  -0.1202
  C  C418  1  0.368530  0.501270  0.887670  1.0  -0.1206
  C  C419  1  0.332130  0.511470  0.894070  1.0  -0.16
  C  C420  1  0.344130  0.560270  0.899270  1.0  0.1503
  C  C421  1  0.952700  0.198600  0.228300  1.0  0.1863
  C  C422  1  0.952600  0.240200  0.249300  1.0  0.1571
  C  C423  1  0.929100  0.208000  0.349400  1.0  0.1631
  C  C424  1  0.915800  0.211300  0.414200  1.0  -0.1579
  C  C425  1  0.904800  0.174800  0.455600  1.0  -0.1086
  C  C426  1  0.903900  0.132300  0.435800  1.0  -0.0836
  C  C427  1  0.917100  0.127900  0.372600  1.0  -0.1582
  C  C428  1  0.929800  0.166800  0.330300  1.0  0.1947
  C  C429  1  0.975600  0.232100  0.117200  1.0  0.1373
  C  C430  1  0.964800  0.194000  0.163200  1.0  0.1601
  C  C431  1  0.977700  0.151400  0.082900  1.0  0.1874
  C  C432  1  0.979600  0.111600  0.064200  1.0  -0.1959
  C  C433  1  0.990300  0.108100  0.001500  1.0  -0.1035
  C  C434  1  0.999300  0.142600  0.957500  1.0  -0.1179
  C  C435  1  0.998600  0.184000  0.974100  1.0  -0.1603
  C  C436  1  0.987500  0.189100  0.038600  1.0  0.1646
  C  C437  1  0.965600  0.280200  0.204800  1.0  0.1614
  C  C438  1  0.976800  0.276400  0.139000  1.0  0.1814
  C  C439  1  0.989700  0.351300  0.118200  1.0  0.1617
  C  C440  1  0.002300  0.388900  0.075400  1.0  -0.1574
  C  C441  1  0.003800  0.430600  0.097100  1.0  -0.1091
  C  C442  1  0.994100  0.435500  0.160600  1.0  -0.139
  C  C443  1  0.982700  0.399600  0.203600  1.0  -0.1265
  C  C444  1  0.980500  0.356900  0.183000  1.0  0.1891
  C  C445  1  0.049500  0.037200  0.240000  1.0  0.2001
  C  C446  1  0.013400  0.050000  0.240700  1.0  0.1809
  C  C447  1  0.069600  0.129000  0.233200  1.0  0.1587
  C  C448  1  0.082800  0.178400  0.226700  1.0  -0.158
  C  C449  1  0.129300  0.212000  0.219300  1.0  -0.1209
  C  C450  1  0.165400  0.200600  0.221000  1.0  -0.1208
  C  C451  1  0.155200  0.154000  0.227400  1.0  -0.1594
  C  C452  1  0.106400  0.117200  0.232600  1.0  0.1498
  C  C453  1  0.619370  0.531930  0.561630  1.0  0.1863
  C  C454  1  0.619270  0.573530  0.582630  1.0  0.157
  C  C455  1  0.595770  0.541330  0.682730  1.0  0.1631
  C  C456  1  0.582470  0.544630  0.747530  1.0  -0.1579
  C  C457  1  0.571470  0.508130  0.788930  1.0  -0.1086
  C  C458  1  0.570570  0.465630  0.769130  1.0  -0.0836
  C  C459  1  0.583770  0.461230  0.705930  1.0  -0.1581
  C  C460  1  0.596470  0.500130  0.663630  1.0  0.1948
  C  C461  1  0.642270  0.565430  0.450530  1.0  0.1373
  C  C462  1  0.631470  0.527330  0.496530  1.0  0.16
  C  C463  1  0.644370  0.484730  0.416230  1.0  0.1874
  C  C464  1  0.646270  0.444930  0.397530  1.0  -0.1959
  C  C465  1  0.656970  0.441430  0.334830  1.0  -0.1035
  C  C466  1  0.665970  0.475930  0.290830  1.0  -0.1179
  C  C467  1  0.665270  0.517330  0.307430  1.0  -0.1603
  C  C468  1  0.654170  0.522430  0.371930  1.0  0.1646
  C  C469  1  0.632270  0.613530  0.538130  1.0  0.1613
  C  C470  1  0.643470  0.609730  0.472330  1.0  0.1814
  C  C471  1  0.656370  0.684630  0.451530  1.0  0.1617
  C  C472  1  0.668970  0.722230  0.408730  1.0  -0.1574
  C  C473  1  0.670470  0.763930  0.430430  1.0  -0.1091
  C  C474  1  0.660770  0.768830  0.493930  1.0  -0.139
  C  C475  1  0.649370  0.732930  0.536930  1.0  -0.1265
  C  C476  1  0.647170  0.690230  0.516330  1.0  0.1892
  C  C477  1  0.716170  0.370530  0.573330  1.0  0.2001
  C  C478  1  0.680070  0.383330  0.574030  1.0  0.1809
  C  C479  1  0.736270  0.462330  0.566530  1.0  0.1587
  C  C480  1  0.749470  0.511730  0.560030  1.0  -0.158
  C  C481  1  0.795970  0.545330  0.552630  1.0  -0.1209
  C  C482  1  0.832070  0.533930  0.554330  1.0  -0.1208
  C  C483  1  0.821870  0.487330  0.560730  1.0  -0.1593
  C  C484  1  0.773070  0.450530  0.565930  1.0  0.1498
  C  C485  1  0.286030  0.865270  0.894970  1.0  0.1863
  C  C486  1  0.285930  0.906870  0.915970  1.0  0.1571
  C  C487  1  0.262430  0.874670  0.016070  1.0  0.1631
  C  C488  1  0.249130  0.877970  0.080870  1.0  -0.1579
  C  C489  1  0.238130  0.841470  0.122270  1.0  -0.1084
  C  C490  1  0.237230  0.798970  0.102470  1.0  -0.0835
  C  C491  1  0.250430  0.794570  0.039270  1.0  -0.1582
  C  C492  1  0.263130  0.833470  0.996970  1.0  0.1947
  C  C493  1  0.308930  0.898770  0.783870  1.0  0.1373
  C  C494  1  0.298130  0.860670  0.829870  1.0  0.1601
  C  C495  1  0.311030  0.818070  0.749570  1.0  0.1874
  C  C496  1  0.312930  0.778270  0.730870  1.0  -0.1959
  C  C497  1  0.323630  0.774770  0.668170  1.0  -0.1035
  C  C498  1  0.332630  0.809270  0.624170  1.0  -0.1179
  C  C499  1  0.331930  0.850670  0.640770  1.0  -0.1603
  C  C500  1  0.320830  0.855770  0.705270  1.0  0.1646
  C  C501  1  0.298930  0.946870  0.871470  1.0  0.1614
  C  C502  1  0.310130  0.943070  0.805670  1.0  0.1813
  C  C503  1  0.323030  0.017970  0.784870  1.0  0.1616
  C  C504  1  0.335630  0.055570  0.742070  1.0  -0.1575
  C  C505  1  0.337130  0.097270  0.763770  1.0  -0.1092
  C  C506  1  0.327430  0.102170  0.827270  1.0  -0.1389
  C  C507  1  0.316030  0.066270  0.870270  1.0  -0.1265
  C  C508  1  0.313830  0.023570  0.849670  1.0  0.1891
  C  C509  1  0.382830  0.703870  0.906670  1.0  0.2071
  C  C510  1  0.346730  0.716670  0.907370  1.0  0.1816
  C  C511  1  0.402930  0.795670  0.899870  1.0  0.1587
  C  C512  1  0.416130  0.845070  0.893370  1.0  -0.158
  C  C513  1  0.462630  0.878670  0.885970  1.0  -0.1209
  C  C514  1  0.498730  0.867270  0.887670  1.0  -0.1208
  C  C515  1  0.488530  0.820670  0.894070  1.0  -0.1594
  C  C516  1  0.439730  0.783870  0.899270  1.0  0.1498
  C  C517  1  0.801400  0.754100  0.228300  1.0  0.1866
  C  C518  1  0.759800  0.712400  0.249300  1.0  0.1576
  C  C519  1  0.792000  0.721100  0.349400  1.0  0.163
  C  C520  1  0.788700  0.704500  0.414200  1.0  -0.16
  C  C521  1  0.825200  0.730000  0.455600  1.0  -0.1071
  C  C522  1  0.867700  0.771600  0.435800  1.0  -0.0818
  C  C523  1  0.872100  0.789200  0.372600  1.0  -0.1565
  C  C524  1  0.833200  0.763000  0.330300  1.0  0.1953
  C  C525  1  0.767900  0.743500  0.117200  1.0  0.1386
  C  C526  1  0.806000  0.770800  0.163200  1.0  0.1605
  C  C527  1  0.848600  0.826300  0.082900  1.0  0.1876
  C  C528  1  0.888400  0.868000  0.064200  1.0  -0.1958
  C  C529  1  0.891900  0.882200  0.001500  1.0  -0.1029
  C  C530  1  0.857400  0.856700  0.957500  1.0  -0.1191
  C  C531  1  0.816000  0.814600  0.974100  1.0  -0.1591
  C  C532  1  0.810900  0.798400  0.038600  1.0  0.1644
  C  C533  1  0.719800  0.685400  0.204800  1.0  0.162
  C  C534  1  0.723600  0.700400  0.139000  1.0  0.1806
  C  C535  1  0.648700  0.638400  0.118200  1.0  0.1616
  C  C536  1  0.611100  0.613400  0.075400  1.0  -0.155
  C  C537  1  0.569400  0.573200  0.097100  1.0  -0.1095
  C  C538  1  0.564500  0.558600  0.160600  1.0  -0.1395
  C  C539  1  0.600400  0.583100  0.203600  1.0  -0.127
  C  C540  1  0.643100  0.623600  0.183000  1.0  0.189
  C  C541  1  0.962800  0.012300  0.240000  1.0  0.2001
  C  C542  1  0.950000  0.963400  0.240700  1.0  0.1812
  C  C543  1  0.871000  0.940600  0.233200  1.0  0.1581
  C  C544  1  0.821600  0.904400  0.226700  1.0  -0.1602
  C  C545  1  0.788000  0.917300  0.219300  1.0  -0.1211
  C  C546  1  0.799400  0.964800  0.221000  1.0  -0.1219
  C  C547  1  0.846000  0.001200  0.227400  1.0  -0.1624
  C  C548  1  0.882800  0.989200  0.232600  1.0  0.1502
  C  C549  1  0.468070  0.087430  0.561630  1.0  0.1866
  C  C550  1  0.426470  0.045730  0.582630  1.0  0.1576
  C  C551  1  0.458670  0.054430  0.682730  1.0  0.163
  C  C552  1  0.455370  0.037830  0.747530  1.0  -0.16
  C  C553  1  0.491870  0.063330  0.788930  1.0  -0.1071
  C  C554  1  0.534370  0.104930  0.769130  1.0  -0.0818
  C  C555  1  0.538770  0.122530  0.705930  1.0  -0.1564
  C  C556  1  0.499870  0.096330  0.663630  1.0  0.1952
  C  C557  1  0.434570  0.076830  0.450530  1.0  0.1386
  C  C558  1  0.472670  0.104130  0.496530  1.0  0.1604
  C  C559  1  0.515270  0.159630  0.416230  1.0  0.1876
  C  C560  1  0.555070  0.201330  0.397530  1.0  -0.1958
  C  C561  1  0.558570  0.215530  0.334830  1.0  -0.1029
  C  C562  1  0.524070  0.190030  0.290830  1.0  -0.1191
  C  C563  1  0.482670  0.147930  0.307430  1.0  -0.1592
  C  C564  1  0.477570  0.131730  0.371930  1.0  0.1644
  C  C565  1  0.386470  0.018730  0.538130  1.0  0.162
  C  C566  1  0.390270  0.033730  0.472330  1.0  0.1806
  C  C567  1  0.315370  0.971730  0.451530  1.0  0.1616
  C  C568  1  0.277770  0.946730  0.408730  1.0  -0.155
  C  C569  1  0.236070  0.906530  0.430430  1.0  -0.1096
  C  C570  1  0.231170  0.891930  0.493930  1.0  -0.1394
  C  C571  1  0.267070  0.916430  0.536930  1.0  -0.1271
  C  C572  1  0.309770  0.956930  0.516330  1.0  0.1889
  C  C573  1  0.629470  0.345630  0.573330  1.0  0.2001
  C  C574  1  0.616670  0.296730  0.574030  1.0  0.1812
  C  C575  1  0.537670  0.273930  0.566530  1.0  0.1581
  C  C576  1  0.488270  0.237730  0.560030  1.0  -0.1601
  C  C577  1  0.454670  0.250630  0.552630  1.0  -0.1218
  C  C578  1  0.466070  0.298130  0.554330  1.0  -0.1218
  C  C579  1  0.512670  0.334530  0.560730  1.0  -0.1621
  C  C580  1  0.549470  0.322530  0.565930  1.0  0.1502
  C  C581  1  0.134730  0.420770  0.894970  1.0  0.1866
  C  C582  1  0.093130  0.379070  0.915970  1.0  0.1576
  C  C583  1  0.125330  0.387770  0.016070  1.0  0.163
  C  C584  1  0.122030  0.371170  0.080870  1.0  -0.1601
  C  C585  1  0.158530  0.396670  0.122270  1.0  -0.1073
  C  C586  1  0.201030  0.438270  0.102470  1.0  -0.0818
  C  C587  1  0.205430  0.455870  0.039270  1.0  -0.1565
  C  C588  1  0.166530  0.429670  0.996970  1.0  0.1953
  C  C589  1  0.101230  0.410170  0.783870  1.0  0.1386
  C  C590  1  0.139330  0.437470  0.829870  1.0  0.1605
  C  C591  1  0.181930  0.492970  0.749570  1.0  0.1876
  C  C592  1  0.221730  0.534670  0.730870  1.0  -0.1958
  C  C593  1  0.225230  0.548870  0.668170  1.0  -0.1029
  C  C594  1  0.190730  0.523370  0.624170  1.0  -0.1191
  C  C595  1  0.149330  0.481270  0.640770  1.0  -0.1591
  C  C596  1  0.144230  0.465070  0.705270  1.0  0.1644
  C  C597  1  0.053130  0.352070  0.871470  1.0  0.162
  C  C598  1  0.056930  0.367070  0.805670  1.0  0.1806
  C  C599  1  0.982030  0.305070  0.784870  1.0  0.1618
  C  C600  1  0.944430  0.280070  0.742070  1.0  -0.155
  C  C601  1  0.902730  0.239870  0.763770  1.0  -0.1096
  C  C602  1  0.897830  0.225270  0.827270  1.0  -0.1395
  C  C603  1  0.933730  0.249770  0.870270  1.0  -0.127
  C  C604  1  0.976430  0.290270  0.849670  1.0  0.1889
  C  C605  1  0.296130  0.678970  0.906670  1.0  0.2071
  C  C606  1  0.283330  0.630070  0.907370  1.0  0.1824
  C  C607  1  0.204330  0.607270  0.899870  1.0  0.1581
  C  C608  1  0.154930  0.571070  0.893370  1.0  -0.1602
  C  C609  1  0.121330  0.583970  0.885970  1.0  -0.1211
  C  C610  1  0.132730  0.631470  0.887670  1.0  -0.1219
  C  C611  1  0.179330  0.667870  0.894070  1.0  -0.1624
  C  C612  1  0.216130  0.655870  0.899270  1.0  0.1502
  C  C613  1  0.754100  0.952700  0.771700  1.0  0.1861
  C  C614  1  0.712400  0.952600  0.750700  1.0  0.1571
  C  C615  1  0.721100  0.929100  0.650600  1.0  0.1631
  C  C616  1  0.704500  0.915800  0.585800  1.0  -0.1589
  C  C617  1  0.730000  0.904800  0.544400  1.0  -0.1071
  C  C618  1  0.771600  0.903900  0.564200  1.0  -0.0839
  C  C619  1  0.789200  0.917100  0.627400  1.0  -0.1579
  C  C620  1  0.763000  0.929800  0.669700  1.0  0.1951
  C  C621  1  0.743500  0.975600  0.882800  1.0  0.1367
  C  C622  1  0.770800  0.964800  0.836800  1.0  0.1584
  C  C623  1  0.826300  0.977700  0.917100  1.0  0.1869
  C  C624  1  0.868000  0.979600  0.935800  1.0  -0.1962
  C  C625  1  0.882200  0.990300  0.998500  1.0  -0.1032
  C  C626  1  0.856700  0.999300  0.042500  1.0  -0.1199
  C  C627  1  0.814600  0.998600  0.025900  1.0  -0.1596
  C  C628  1  0.798400  0.987500  0.961400  1.0  0.1644
  C  C629  1  0.685400  0.965600  0.795200  1.0  0.162
  C  C630  1  0.700400  0.976800  0.861000  1.0  0.1814
  C  C631  1  0.638400  0.989700  0.881800  1.0  0.1618
  C  C632  1  0.613400  0.002300  0.924600  1.0  -0.1597
  C  C633  1  0.573200  0.003800  0.902900  1.0  -0.1085
  C  C634  1  0.558600  0.994100  0.839400  1.0  -0.1411
  C  C635  1  0.583100  0.982700  0.796400  1.0  -0.1242
  C  C636  1  0.623600  0.980500  0.817000  1.0  0.1905
  C  C637  1  0.012300  0.049500  0.760000  1.0  0.1997
  C  C638  1  0.963400  0.013400  0.759300  1.0  0.18
  C  C639  1  0.940600  0.069600  0.766800  1.0  0.1579
  C  C640  1  0.904400  0.082800  0.773300  1.0  -0.1556
  C  C641  1  0.917300  0.129300  0.780700  1.0  -0.1222
  C  C642  1  0.964800  0.165400  0.779000  1.0  -0.1232
  C  C643  1  0.001200  0.155200  0.772600  1.0  -0.1586
  C  C644  1  0.989200  0.106400  0.767400  1.0  0.1497
  C  C645  1  0.420770  0.286030  0.105030  1.0  0.1861
  C  C646  1  0.379070  0.285930  0.084030  1.0  0.1571
  C  C647  1  0.387770  0.262430  0.983930  1.0  0.1631
  C  C648  1  0.371170  0.249130  0.919130  1.0  -0.1588
  C  C649  1  0.396670  0.238130  0.877730  1.0  -0.1069
  C  C650  1  0.438270  0.237230  0.897530  1.0  -0.0839
  C  C651  1  0.455870  0.250430  0.960730  1.0  -0.1579
  C  C652  1  0.429670  0.263130  0.003030  1.0  0.1952
  C  C653  1  0.410170  0.308930  0.216130  1.0  0.1367
  C  C654  1  0.437470  0.298130  0.170130  1.0  0.1584
  C  C655  1  0.492970  0.311030  0.250430  1.0  0.1869
  C  C656  1  0.534670  0.312930  0.269130  1.0  -0.1962
  C  C657  1  0.548870  0.323630  0.331830  1.0  -0.1032
  C  C658  1  0.523370  0.332630  0.375830  1.0  -0.1199
  C  C659  1  0.481270  0.331930  0.359230  1.0  -0.1595
  C  C660  1  0.465070  0.320830  0.294730  1.0  0.1645
  C  C661  1  0.352070  0.298930  0.128530  1.0  0.162
  C  C662  1  0.367070  0.310130  0.194330  1.0  0.1815
  C  C663  1  0.305070  0.323030  0.215130  1.0  0.1618
  C  C664  1  0.280070  0.335630  0.257930  1.0  -0.1597
  C  C665  1  0.239870  0.337130  0.236230  1.0  -0.1085
  C  C666  1  0.225270  0.327430  0.172730  1.0  -0.1411
  C  C667  1  0.249770  0.316030  0.129730  1.0  -0.1243
  C  C668  1  0.290270  0.313830  0.150330  1.0  0.1906
  C  C669  1  0.678970  0.382830  0.093330  1.0  0.2066
  C  C670  1  0.630070  0.346730  0.092630  1.0  0.1799
  C  C671  1  0.607270  0.402930  0.100130  1.0  0.1579
  C  C672  1  0.571070  0.416130  0.106630  1.0  -0.1556
  C  C673  1  0.583970  0.462630  0.114030  1.0  -0.1222
  C  C674  1  0.631470  0.498730  0.112330  1.0  -0.1232
  C  C675  1  0.667870  0.488530  0.105930  1.0  -0.1586
  C  C676  1  0.655870  0.439730  0.100730  1.0  0.1497
  C  C677  1  0.087430  0.619370  0.438370  1.0  0.1861
  C  C678  1  0.045730  0.619270  0.417370  1.0  0.1571
  C  C679  1  0.054430  0.595770  0.317270  1.0  0.1631
  C  C680  1  0.037830  0.582470  0.252470  1.0  -0.1589
  C  C681  1  0.063330  0.571470  0.211070  1.0  -0.1071
  C  C682  1  0.104930  0.570570  0.230870  1.0  -0.0839
  C  C683  1  0.122530  0.583770  0.294070  1.0  -0.158
  C  C684  1  0.096330  0.596470  0.336370  1.0  0.1952
  C  C685  1  0.076830  0.642270  0.549470  1.0  0.1367
  C  C686  1  0.104130  0.631470  0.503470  1.0  0.1586
  C  C687  1  0.159630  0.644370  0.583770  1.0  0.1869
  C  C688  1  0.201330  0.646270  0.602470  1.0  -0.1962
  C  C689  1  0.215530  0.656970  0.665170  1.0  -0.1032
  C  C690  1  0.190030  0.665970  0.709170  1.0  -0.1199
  C  C691  1  0.147930  0.665270  0.692570  1.0  -0.1596
  C  C692  1  0.131730  0.654170  0.628070  1.0  0.1644
  C  C693  1  0.018730  0.632270  0.461870  1.0  0.1616
  C  C694  1  0.033730  0.643470  0.527670  1.0  0.1814
  C  C695  1  0.971730  0.656370  0.548470  1.0  0.1618
  C  C696  1  0.946730  0.668970  0.591270  1.0  -0.1597
  C  C697  1  0.906530  0.670470  0.569570  1.0  -0.1085
  C  C698  1  0.891930  0.660770  0.506070  1.0  -0.1411
  C  C699  1  0.916430  0.649370  0.463070  1.0  -0.1242
  C  C700  1  0.956930  0.647170  0.483670  1.0  0.1905
  C  C701  1  0.345630  0.716170  0.426670  1.0  0.1997
  C  C702  1  0.296730  0.680070  0.425970  1.0  0.18
  C  C703  1  0.273930  0.736270  0.433470  1.0  0.1579
  C  C704  1  0.237730  0.749470  0.439970  1.0  -0.1556
  C  C705  1  0.250630  0.795970  0.447370  1.0  -0.1217
  C  C706  1  0.298130  0.832070  0.445670  1.0  -0.1232
  C  C707  1  0.334530  0.821870  0.439270  1.0  -0.1588
  C  C708  1  0.322530  0.773070  0.434070  1.0  0.1497
  C  C709  1  0.047300  0.801400  0.771700  1.0  0.1868
  C  C710  1  0.047400  0.759800  0.750700  1.0  0.1575
  C  C711  1  0.070900  0.792000  0.650600  1.0  0.1623
  C  C712  1  0.084200  0.788700  0.585800  1.0  -0.1583
  C  C713  1  0.095200  0.825200  0.544400  1.0  -0.1064
  C  C714  1  0.096100  0.867700  0.564200  1.0  -0.0831
  C  C715  1  0.082900  0.872100  0.627400  1.0  -0.1575
  C  C716  1  0.070200  0.833200  0.669700  1.0  0.1947
  C  C717  1  0.024400  0.767900  0.882800  1.0  0.1376
  C  C718  1  0.035200  0.806000  0.836800  1.0  0.161
  C  C719  1  0.022300  0.848600  0.917100  1.0  0.1861
  C  C720  1  0.020400  0.888400  0.935800  1.0  -0.1976
  C  C721  1  0.009700  0.891900  0.998500  1.0  -0.1038
  C  C722  1  0.000700  0.857400  0.042500  1.0  -0.1183
  C  C723  1  0.001400  0.816000  0.025900  1.0  -0.1605
  C  C724  1  0.012500  0.810900  0.961400  1.0  0.1635
  C  C725  1  0.034400  0.719800  0.795200  1.0  0.1617
  C  C726  1  0.023200  0.723600  0.861000  1.0  0.181
  C  C727  1  0.010300  0.648700  0.881800  1.0  0.1618
  C  C728  1  0.997700  0.611100  0.924600  1.0  -0.1605
  C  C729  1  0.996200  0.569400  0.902900  1.0  -0.1122
  C  C730  1  0.005900  0.564500  0.839400  1.0  -0.14
  C  C731  1  0.017300  0.600400  0.796400  1.0  -0.1252
  C  C732  1  0.019500  0.643100  0.817000  1.0  0.1901
  C  C733  1  0.950500  0.962800  0.760000  1.0  0.1992
  C  C734  1  0.986600  0.950000  0.759300  1.0  0.18
  C  C735  1  0.930400  0.871000  0.766800  1.0  0.1584
  C  C736  1  0.917200  0.821600  0.773300  1.0  -0.1564
  C  C737  1  0.870700  0.788000  0.780700  1.0  -0.1186
  C  C738  1  0.834600  0.799400  0.779000  1.0  -0.1208
  C  C739  1  0.844800  0.846000  0.772600  1.0  -0.1602
  C  C740  1  0.893600  0.882800  0.767400  1.0  0.1504
  C  C741  1  0.713970  0.134730  0.105030  1.0  0.1868
  C  C742  1  0.714070  0.093130  0.084030  1.0  0.1575
  C  C743  1  0.737570  0.125330  0.983930  1.0  0.1623
  C  C744  1  0.750870  0.122030  0.919130  1.0  -0.1582
  C  C745  1  0.761870  0.158530  0.877730  1.0  -0.1062
  C  C746  1  0.762770  0.201030  0.897530  1.0  -0.083
  C  C747  1  0.749570  0.205430  0.960730  1.0  -0.1576
  C  C748  1  0.736870  0.166530  0.003030  1.0  0.1947
  C  C749  1  0.691070  0.101230  0.216130  1.0  0.1376
  C  C750  1  0.701870  0.139330  0.170130  1.0  0.161
  C  C751  1  0.688970  0.181930  0.250430  1.0  0.1861
  C  C752  1  0.687070  0.221730  0.269130  1.0  -0.1976
  C  C753  1  0.676370  0.225230  0.331830  1.0  -0.1038
  C  C754  1  0.667370  0.190730  0.375830  1.0  -0.1183
  C  C755  1  0.668070  0.149330  0.359230  1.0  -0.1605
  C  C756  1  0.679170  0.144230  0.294730  1.0  0.1635
  C  C757  1  0.701070  0.053130  0.128530  1.0  0.1617
  C  C758  1  0.689870  0.056930  0.194330  1.0  0.181
  C  C759  1  0.676970  0.982030  0.215130  1.0  0.1617
  C  C760  1  0.664370  0.944430  0.257930  1.0  -0.1605
  C  C761  1  0.662870  0.902730  0.236230  1.0  -0.1122
  C  C762  1  0.672570  0.897830  0.172730  1.0  -0.1399
  C  C763  1  0.683970  0.933730  0.129730  1.0  -0.1252
  C  C764  1  0.686170  0.976430  0.150330  1.0  0.19
  C  C765  1  0.617170  0.296130  0.093330  1.0  0.206
  C  C766  1  0.653270  0.283330  0.092630  1.0  0.1802
  C  C767  1  0.597070  0.204330  0.100130  1.0  0.1584
  C  C768  1  0.583870  0.154930  0.106630  1.0  -0.1564
  C  C769  1  0.537370  0.121330  0.114030  1.0  -0.1186
  C  C770  1  0.501270  0.132730  0.112330  1.0  -0.1208
  C  C771  1  0.511470  0.179330  0.105930  1.0  -0.1602
  C  C772  1  0.560270  0.216130  0.100730  1.0  0.1504
  C  C773  1  0.380630  0.468070  0.438370  1.0  0.1868
  C  C774  1  0.380730  0.426470  0.417370  1.0  0.1573
  C  C775  1  0.404230  0.458670  0.317270  1.0  0.1623
  C  C776  1  0.417530  0.455370  0.252470  1.0  -0.1583
  C  C777  1  0.428530  0.491870  0.211070  1.0  -0.1064
  C  C778  1  0.429430  0.534370  0.230870  1.0  -0.0831
  C  C779  1  0.416230  0.538770  0.294070  1.0  -0.1575
  C  C780  1  0.403530  0.499870  0.336370  1.0  0.1947
  C  C781  1  0.357730  0.434570  0.549470  1.0  0.1376
  C  C782  1  0.368530  0.472670  0.503470  1.0  0.1609
  C  C783  1  0.355630  0.515270  0.583770  1.0  0.1861
  C  C784  1  0.353730  0.555070  0.602470  1.0  -0.1976
  C  C785  1  0.343030  0.558570  0.665170  1.0  -0.1038
  C  C786  1  0.334030  0.524070  0.709170  1.0  -0.1183
  C  C787  1  0.334730  0.482670  0.692570  1.0  -0.1604
  C  C788  1  0.345830  0.477570  0.628070  1.0  0.1635
  C  C789  1  0.367730  0.386470  0.461870  1.0  0.1617
  C  C790  1  0.356530  0.390270  0.527670  1.0  0.181
  C  C791  1  0.343630  0.315370  0.548470  1.0  0.1618
  C  C792  1  0.331030  0.277770  0.591270  1.0  -0.1605
  C  C793  1  0.329530  0.236070  0.569570  1.0  -0.1122
  C  C794  1  0.339230  0.231170  0.506070  1.0  -0.14
  C  C795  1  0.350630  0.267070  0.463070  1.0  -0.1252
  C  C796  1  0.352830  0.309770  0.483670  1.0  0.1901
  C  C797  1  0.283830  0.629470  0.426670  1.0  0.1992
  C  C798  1  0.319930  0.616670  0.425970  1.0  0.18
  C  C799  1  0.263730  0.537670  0.433470  1.0  0.1584
  C  C800  1  0.250530  0.488270  0.439970  1.0  -0.1564
  C  C801  1  0.204030  0.454670  0.447370  1.0  -0.1186
  C  C802  1  0.167930  0.466070  0.445670  1.0  -0.1208
  C  C803  1  0.178130  0.512670  0.439270  1.0  -0.1602
  C  C804  1  0.226930  0.549470  0.434070  1.0  0.1504
  C  C805  1  0.198600  0.245900  0.771700  1.0  0.1865
  C  C806  1  0.240200  0.287600  0.750700  1.0  0.1577
  C  C807  1  0.208000  0.278900  0.650600  1.0  0.1634
  C  C808  1  0.211300  0.295500  0.585800  1.0  -0.1585
  C  C809  1  0.174800  0.270000  0.544400  1.0  -0.1049
  C  C810  1  0.132300  0.228400  0.564200  1.0  -0.0839
  C  C811  1  0.127900  0.210800  0.627400  1.0  -0.1572
  C  C812  1  0.166800  0.237000  0.669700  1.0  0.195
  C  C813  1  0.232100  0.256500  0.882800  1.0  0.1378
  C  C814  1  0.194000  0.229200  0.836800  1.0  0.1608
  C  C815  1  0.151400  0.173700  0.917100  1.0  0.1872
  C  C816  1  0.111600  0.132000  0.935800  1.0  -0.1971
  C  C817  1  0.108100  0.117800  0.998500  1.0  -0.1046
  C  C818  1  0.142600  0.143300  0.042500  1.0  -0.1189
  C  C819  1  0.184000  0.185400  0.025900  1.0  -0.1591
  C  C820  1  0.189100  0.201600  0.961400  1.0  0.165
  C  C821  1  0.280200  0.314600  0.795200  1.0  0.1617
  C  C822  1  0.276400  0.299600  0.861000  1.0  0.1801
  C  C823  1  0.351300  0.361600  0.881800  1.0  0.1616
  C  C824  1  0.388900  0.386600  0.924600  1.0  -0.1577
  C  C825  1  0.430600  0.426800  0.902900  1.0  -0.1095
  C  C826  1  0.435500  0.441400  0.839400  1.0  -0.1397
  C  C827  1  0.399600  0.416900  0.796400  1.0  -0.127
  C  C828  1  0.356900  0.376400  0.817000  1.0  0.1899
  C  C829  1  0.037200  0.987700  0.760000  1.0  0.1989
  C  C830  1  0.050000  0.036600  0.759300  1.0  0.1794
  C  C831  1  0.129000  0.059400  0.766800  1.0  0.1591
  C  C832  1  0.178400  0.095600  0.773300  1.0  -0.1593
  C  C833  1  0.212000  0.082700  0.780700  1.0  -0.1199
  C  C834  1  0.200600  0.035200  0.779000  1.0  -0.1191
  C  C835  1  0.154000  0.998800  0.772600  1.0  -0.1613
  C  C836  1  0.117200  0.010800  0.767400  1.0  0.1503
  C  C837  1  0.865270  0.579230  0.105030  1.0  0.1865
  C  C838  1  0.906870  0.620930  0.084030  1.0  0.1577
  C  C839  1  0.874670  0.612230  0.983930  1.0  0.1634
  C  C840  1  0.877970  0.628830  0.919130  1.0  -0.1585
  C  C841  1  0.841470  0.603330  0.877730  1.0  -0.105
  C  C842  1  0.798970  0.561730  0.897530  1.0  -0.084
  C  C843  1  0.794570  0.544130  0.960730  1.0  -0.1571
  C  C844  1  0.833470  0.570330  0.003030  1.0  0.195
  C  C845  1  0.898770  0.589830  0.216130  1.0  0.1378
  C  C846  1  0.860670  0.562530  0.170130  1.0  0.1608
  C  C847  1  0.818070  0.507030  0.250430  1.0  0.1872
  C  C848  1  0.778270  0.465330  0.269130  1.0  -0.1971
  C  C849  1  0.774770  0.451130  0.331830  1.0  -0.1046
  C  C850  1  0.809270  0.476630  0.375830  1.0  -0.1189
  C  C851  1  0.850670  0.518730  0.359230  1.0  -0.1591
  C  C852  1  0.855770  0.534930  0.294730  1.0  0.165
  C  C853  1  0.946870  0.647930  0.128530  1.0  0.1617
  C  C854  1  0.943070  0.632930  0.194330  1.0  0.1801
  C  C855  1  0.017970  0.694930  0.215130  1.0  0.1617
  C  C856  1  0.055570  0.719930  0.257930  1.0  -0.1577
  C  C857  1  0.097270  0.760130  0.236230  1.0  -0.1095
  C  C858  1  0.102170  0.774730  0.172730  1.0  -0.1398
  C  C859  1  0.066270  0.750230  0.129730  1.0  -0.127
  C  C860  1  0.023570  0.709730  0.150330  1.0  0.1898
  C  C861  1  0.703870  0.321030  0.093330  1.0  0.2056
  C  C862  1  0.716670  0.369930  0.092630  1.0  0.1796
  C  C863  1  0.795670  0.392730  0.100130  1.0  0.1591
  C  C864  1  0.845070  0.428930  0.106630  1.0  -0.1593
  C  C865  1  0.878670  0.416030  0.114030  1.0  -0.1199
  C  C866  1  0.867270  0.368530  0.112330  1.0  -0.1191
  C  C867  1  0.820670  0.332130  0.105930  1.0  -0.1613
  C  C868  1  0.783870  0.344130  0.100730  1.0  0.1503
  C  C869  1  0.531930  0.912570  0.438370  1.0  0.1865
  C  C870  1  0.573530  0.954270  0.417370  1.0  0.1577
  C  C871  1  0.541330  0.945570  0.317270  1.0  0.1634
  C  C872  1  0.544630  0.962170  0.252470  1.0  -0.1586
  C  C873  1  0.508130  0.936670  0.211070  1.0  -0.1049
  C  C874  1  0.465630  0.895070  0.230870  1.0  -0.0839
  C  C875  1  0.461230  0.877470  0.294070  1.0  -0.1571
  C  C876  1  0.500130  0.903670  0.336370  1.0  0.195
  C  C877  1  0.565430  0.923170  0.549470  1.0  0.1378
  C  C878  1  0.527330  0.895870  0.503470  1.0  0.1607
  C  C879  1  0.484730  0.840370  0.583770  1.0  0.1872
  C  C880  1  0.444930  0.798670  0.602470  1.0  -0.1971
  C  C881  1  0.441430  0.784470  0.665170  1.0  -0.1046
  C  C882  1  0.475930  0.809970  0.709170  1.0  -0.1189
  C  C883  1  0.517330  0.852070  0.692570  1.0  -0.1591
  C  C884  1  0.522430  0.868270  0.628070  1.0  0.165
  C  C885  1  0.613530  0.981270  0.461870  1.0  0.1617
  C  C886  1  0.609730  0.966270  0.527670  1.0  0.1801
  C  C887  1  0.684630  0.028270  0.548470  1.0  0.1616
  C  C888  1  0.722230  0.053270  0.591270  1.0  -0.1577
  C  C889  1  0.763930  0.093470  0.569570  1.0  -0.1095
  C  C890  1  0.768830  0.108070  0.506070  1.0  -0.1397
  C  C891  1  0.732930  0.083570  0.463070  1.0  -0.1272
  C  C892  1  0.690230  0.043070  0.483670  1.0  0.1898
  C  C893  1  0.370530  0.654370  0.426670  1.0  0.1989
  C  C894  1  0.383330  0.703270  0.425970  1.0  0.1794
  C  C895  1  0.462330  0.726070  0.433470  1.0  0.1591
  C  C896  1  0.511730  0.762270  0.439970  1.0  -0.1593
  C  C897  1  0.545330  0.749370  0.447370  1.0  -0.1206
  C  C898  1  0.533930  0.701870  0.445670  1.0  -0.1191
  C  C899  1  0.487330  0.665470  0.439270  1.0  -0.1609
  C  C900  1  0.450530  0.677470  0.434070  1.0  0.1503
  N  N901  1  0.303900  0.058500  0.309400  1.0  -0.4151
  N  N902  1  0.220500  0.057400  0.268600  1.0  -0.3801
  N  N903  1  0.189000  0.033300  0.145600  1.0  -0.3769
  N  N904  1  0.242100  0.012600  0.057600  1.0  -0.3694
  N  N905  1  0.322300  0.011900  0.097900  1.0  -0.3341
  N  N906  1  0.352200  0.032000  0.225900  1.0  -0.3808
  N  N907  1  0.071500  0.976600  0.236900  1.0  -0.3593
  N  N908  1  0.975600  0.904400  0.236400  1.0  -0.3067
  N  N909  1  0.970570  0.391830  0.642730  1.0  -0.4152
  N  N910  1  0.887170  0.390730  0.601930  1.0  -0.3799
  N  N911  1  0.855670  0.366630  0.478930  1.0  -0.3769
  N  N912  1  0.908770  0.345930  0.390930  1.0  -0.3694
  N  N913  1  0.988970  0.345230  0.431230  1.0  -0.3341
  N  N914  1  0.018870  0.365330  0.559230  1.0  -0.3808
  N  N915  1  0.738170  0.309930  0.570230  1.0  -0.3593
  N  N916  1  0.642270  0.237730  0.569730  1.0  -0.3067
  N  N917  1  0.637230  0.725170  0.976070  1.0  -0.4151
  N  N918  1  0.553830  0.724070  0.935270  1.0  -0.3801
  N  N919  1  0.522330  0.699970  0.812270  1.0  -0.3769
  N  N920  1  0.575430  0.679270  0.724270  1.0  -0.3694
  N  N921  1  0.655630  0.678570  0.764570  1.0  -0.3339
  N  N922  1  0.685530  0.698670  0.892570  1.0  -0.3808
  N  N923  1  0.404830  0.643270  0.903570  1.0  -0.3593
  N  N924  1  0.308930  0.571070  0.903070  1.0  -0.3067
  N  N925  1  0.941500  0.245400  0.309400  1.0  -0.4154
  N  N926  1  0.942600  0.163100  0.268600  1.0  -0.3781
  N  N927  1  0.966700  0.155700  0.145600  1.0  -0.3783
  N  N928  1  0.987400  0.229500  0.057600  1.0  -0.3698
  N  N929  1  0.988100  0.310400  0.097900  1.0  -0.3346
  N  N930  1  0.968000  0.320200  0.225900  1.0  -0.3797
  N  N931  1  0.023400  0.094900  0.236900  1.0  -0.3578
  N  N932  1  0.095600  0.071200  0.236400  1.0  -0.3073
  N  N933  1  0.608170  0.578730  0.642730  1.0  -0.4154
  N  N934  1  0.609270  0.496430  0.601930  1.0  -0.3781
  N  N935  1  0.633370  0.489030  0.478930  1.0  -0.3783
  N  N936  1  0.654070  0.562830  0.390930  1.0  -0.3698
  N  N937  1  0.654770  0.643730  0.431230  1.0  -0.3347
  N  N938  1  0.634670  0.653530  0.559230  1.0  -0.3797
  N  N939  1  0.690070  0.428230  0.570230  1.0  -0.3578
  N  N940  1  0.762270  0.404530  0.569730  1.0  -0.3073
  N  N941  1  0.274830  0.912070  0.976070  1.0  -0.4154
  N  N942  1  0.275930  0.829770  0.935270  1.0  -0.3781
  N  N943  1  0.300030  0.822370  0.812270  1.0  -0.3783
  N  N944  1  0.320730  0.896170  0.724270  1.0  -0.3699
  N  N945  1  0.321430  0.977070  0.764570  1.0  -0.3348
  N  N946  1  0.301330  0.986870  0.892570  1.0  -0.3797
  N  N947  1  0.356730  0.761570  0.903570  1.0  -0.3578
  N  N948  1  0.428930  0.737870  0.903070  1.0  -0.3073
  N  N949  1  0.754600  0.696100  0.309400  1.0  -0.4153
  N  N950  1  0.836900  0.779500  0.268600  1.0  -0.3797
  N  N951  1  0.844300  0.811000  0.145600  1.0  -0.3756
  N  N952  1  0.770500  0.757900  0.057600  1.0  -0.3693
  N  N953  1  0.689600  0.677700  0.097900  1.0  -0.3345
  N  N954  1  0.679800  0.647800  0.225900  1.0  -0.3799
  N  N955  1  0.905100  0.928500  0.236900  1.0  -0.3482
  N  N956  1  0.928800  0.024400  0.236400  1.0  -0.3088
  N  N957  1  0.421270  0.029430  0.642730  1.0  -0.4155
  N  N958  1  0.503570  0.112830  0.601930  1.0  -0.3797
  N  N959  1  0.510970  0.144330  0.478930  1.0  -0.3756
  N  N960  1  0.437170  0.091230  0.390930  1.0  -0.3693
  N  N961  1  0.356270  0.011030  0.431230  1.0  -0.3344
  N  N962  1  0.346470  0.981130  0.559230  1.0  -0.3799
  N  N963  1  0.571770  0.261830  0.570230  1.0  -0.3482
  N  N964  1  0.595470  0.357730  0.569730  1.0  -0.3088
  N  N965  1  0.087930  0.362770  0.976070  1.0  -0.4153
  N  N966  1  0.170230  0.446170  0.935270  1.0  -0.3797
  N  N967  1  0.177630  0.477670  0.812270  1.0  -0.3756
  N  N968  1  0.103830  0.424570  0.724270  1.0  -0.3693
  N  N969  1  0.022930  0.344370  0.764570  1.0  -0.3347
  N  N970  1  0.013130  0.314470  0.892570  1.0  -0.3799
  N  N971  1  0.238430  0.595170  0.903570  1.0  -0.3482
  N  N972  1  0.262130  0.691070  0.903070  1.0  -0.3088
  N  N973  1  0.696100  0.941500  0.690600  1.0  -0.4167
  N  N974  1  0.779500  0.942600  0.731400  1.0  -0.3804
  N  N975  1  0.811000  0.966700  0.854400  1.0  -0.3765
  N  N976  1  0.757900  0.987400  0.942400  1.0  -0.3699
  N  N977  1  0.677700  0.988100  0.902100  1.0  -0.3312
  N  N978  1  0.647800  0.968000  0.774100  1.0  -0.381
  N  N979  1  0.928500  0.023400  0.763100  1.0  -0.3591
  N  N980  1  0.024400  0.095600  0.763600  1.0  -0.3097
  N  N981  1  0.362770  0.274830  0.023930  1.0  -0.4167
  N  N982  1  0.446170  0.275930  0.064730  1.0  -0.3804
  N  N983  1  0.477670  0.300030  0.187730  1.0  -0.3765
  N  N984  1  0.424570  0.320730  0.275730  1.0  -0.3699
  N  N985  1  0.344370  0.321430  0.235430  1.0  -0.331
  N  N986  1  0.314470  0.301330  0.107430  1.0  -0.3811
  N  N987  1  0.595170  0.356730  0.096430  1.0  -0.3591
  N  N988  1  0.691070  0.428930  0.096930  1.0  -0.3097
  N  N989  1  0.029430  0.608170  0.357270  1.0  -0.4168
  N  N990  1  0.112830  0.609270  0.398070  1.0  -0.3804
  N  N991  1  0.144330  0.633370  0.521070  1.0  -0.3765
  N  N992  1  0.091230  0.654070  0.609070  1.0  -0.3699
  N  N993  1  0.011030  0.654770  0.568770  1.0  -0.3313
  N  N994  1  0.981130  0.634670  0.440770  1.0  -0.381
  N  N995  1  0.261830  0.690070  0.429770  1.0  -0.3591
  N  N996  1  0.357730  0.762270  0.430270  1.0  -0.3097
  N  N997  1  0.058500  0.754600  0.690600  1.0  -0.413
  N  N998  1  0.057400  0.836900  0.731400  1.0  -0.3791
  N  N999  1  0.033300  0.844300  0.854400  1.0  -0.3784
  N  N1000  1  0.012600  0.770500  0.942400  1.0  -0.3702
  N  N1001  1  0.011900  0.689600  0.902100  1.0  -0.3313
  N  N1002  1  0.032000  0.679800  0.774100  1.0  -0.3809
  N  N1003  1  0.976600  0.905100  0.763100  1.0  -0.3597
  N  N1004  1  0.904400  0.928800  0.763600  1.0  -0.3073
  N  N1005  1  0.725170  0.087930  0.023930  1.0  -0.413
  N  N1006  1  0.724070  0.170230  0.064730  1.0  -0.3791
  N  N1007  1  0.699970  0.177630  0.187730  1.0  -0.3784
  N  N1008  1  0.679270  0.103830  0.275730  1.0  -0.3702
  N  N1009  1  0.678570  0.022930  0.235430  1.0  -0.3315
  N  N1010  1  0.698670  0.013130  0.107430  1.0  -0.3809
  N  N1011  1  0.643270  0.238430  0.096430  1.0  -0.3597
  N  N1012  1  0.571070  0.262130  0.096930  1.0  -0.3073
  N  N1013  1  0.391830  0.421270  0.357270  1.0  -0.4129
  N  N1014  1  0.390730  0.503570  0.398070  1.0  -0.3791
  N  N1015  1  0.366630  0.510970  0.521070  1.0  -0.3784
  N  N1016  1  0.345930  0.437170  0.609070  1.0  -0.3702
  N  N1017  1  0.345230  0.356270  0.568770  1.0  -0.3313
  N  N1018  1  0.365330  0.346470  0.440770  1.0  -0.3809
  N  N1019  1  0.309930  0.571770  0.429770  1.0  -0.3597
  N  N1020  1  0.237730  0.595470  0.430270  1.0  -0.3073
  N  N1021  1  0.245400  0.303900  0.690600  1.0  -0.4149
  N  N1022  1  0.163100  0.220500  0.731400  1.0  -0.3787
  N  N1023  1  0.155700  0.189000  0.854400  1.0  -0.3756
  N  N1024  1  0.229500  0.242100  0.942400  1.0  -0.3688
  N  N1025  1  0.310400  0.322300  0.902100  1.0  -0.3313
  N  N1026  1  0.320200  0.352200  0.774100  1.0  -0.3802
  N  N1027  1  0.094900  0.071500  0.763100  1.0  -0.3486
  N  N1028  1  0.071200  0.975600  0.763600  1.0  -0.3093
  N  N1029  1  0.912070  0.637230  0.023930  1.0  -0.4149
  N  N1030  1  0.829770  0.553830  0.064730  1.0  -0.3787
  N  N1031  1  0.822370  0.522330  0.187730  1.0  -0.3756
  N  N1032  1  0.896170  0.575430  0.275730  1.0  -0.3688
  N  N1033  1  0.977070  0.655630  0.235430  1.0  -0.3315
  N  N1034  1  0.986870  0.685530  0.107430  1.0  -0.3802
  N  N1035  1  0.761570  0.404830  0.096430  1.0  -0.3486
  N  N1036  1  0.737870  0.308930  0.096930  1.0  -0.3093
  N  N1037  1  0.578730  0.970570  0.357270  1.0  -0.4151
  N  N1038  1  0.496430  0.887170  0.398070  1.0  -0.3787
  N  N1039  1  0.489030  0.855670  0.521070  1.0  -0.3756
  N  N1040  1  0.562830  0.908770  0.609070  1.0  -0.3688
  N  N1041  1  0.643730  0.988970  0.568770  1.0  -0.3313
  N  N1042  1  0.653530  0.018870  0.440770  1.0  -0.3802
  N  N1043  1  0.428230  0.738170  0.429770  1.0  -0.3486
  N  N1044  1  0.404530  0.642270  0.430270  1.0  -0.3093
