# generated using pymatgen
data_Co3H14C28(NO2)6
_symmetry_space_group_name_H-M   'P 1'
_cell_length_a   44.99800000
_cell_length_b   20.61300000
_cell_length_c   16.16940000
_cell_angle_alpha   90.00000000
_cell_angle_beta   94.77700000
_cell_angle_gamma   90.00000000
_symmetry_Int_Tables_number   1
_chemical_formula_structural   Co3H14C28(NO2)6
_chemical_formula_sum   'Co48 H224 C448 N96 O192'
_cell_volume   14945.72939093
_cell_formula_units_Z   16
loop_
 _symmetry_equiv_pos_site_id
 _symmetry_equiv_pos_as_xyz
  1  'x, y, z'
loop_
 _atom_site_type_symbol
 _atom_site_label
 _atom_site_symmetry_multiplicity
 _atom_site_fract_x
 _atom_site_fract_y
 _atom_site_fract_z
 _atom_site_occupancy
 _atom_site_charge
  Co  Co1  1  0.078710  0.177700  0.537150  1.0  0.9825
  Co  Co2  1  0.136670  0.259630  0.455120  1.0  1.1375
  Co  Co3  1  0.213860  0.308180  0.447570  1.0  1.0402
  Co  Co4  1  0.926810  0.321380  0.111570  1.0  1.0052
  Co  Co5  1  0.133090  0.241900  0.999560  1.0  1.1109
  Co  Co6  1  0.208170  0.187690  0.051710  1.0  0.9682
  Co  Co7  1  0.578710  0.677700  0.537150  1.0  0.9825
  Co  Co8  1  0.636670  0.759630  0.455120  1.0  1.1375
  Co  Co9  1  0.713860  0.808180  0.447570  1.0  1.0402
  Co  Co10  1  0.426810  0.821380  0.111570  1.0  1.0052
  Co  Co11  1  0.633090  0.741900  0.999560  1.0  1.1109
  Co  Co12  1  0.708170  0.687690  0.051710  1.0  0.9682
  Co  Co13  1  0.921290  0.177700  0.462850  1.0  0.9813
  Co  Co14  1  0.863330  0.259630  0.544880  1.0  1.1395
  Co  Co15  1  0.786140  0.308180  0.552430  1.0  1.0398
  Co  Co16  1  0.073190  0.321380  0.888430  1.0  1.0028
  Co  Co17  1  0.866910  0.241900  0.000440  1.0  1.1109
  Co  Co18  1  0.791830  0.187690  0.948290  1.0  0.9671
  Co  Co19  1  0.421290  0.677700  0.462850  1.0  0.9813
  Co  Co20  1  0.363330  0.759630  0.544880  1.0  1.1395
  Co  Co21  1  0.286140  0.808180  0.552430  1.0  1.0398
  Co  Co22  1  0.573190  0.821380  0.888430  1.0  1.0028
  Co  Co23  1  0.366910  0.741900  0.000440  1.0  1.1109
  Co  Co24  1  0.291830  0.687690  0.948290  1.0  0.9671
  Co  Co25  1  0.921290  0.822300  0.462850  1.0  0.9869
  Co  Co26  1  0.863330  0.740370  0.544880  1.0  1.1392
  Co  Co27  1  0.786140  0.691820  0.552430  1.0  1.039
  Co  Co28  1  0.073190  0.678620  0.888430  1.0  0.9972
  Co  Co29  1  0.866910  0.758100  0.000440  1.0  1.112
  Co  Co30  1  0.791830  0.812310  0.948290  1.0  0.9683
  Co  Co31  1  0.421290  0.322300  0.462850  1.0  0.9869
  Co  Co32  1  0.363330  0.240370  0.544880  1.0  1.1392
  Co  Co33  1  0.286140  0.191820  0.552430  1.0  1.039
  Co  Co34  1  0.573190  0.178620  0.888430  1.0  0.9972
  Co  Co35  1  0.366910  0.258100  0.000440  1.0  1.112
  Co  Co36  1  0.291830  0.312310  0.948290  1.0  0.9683
  Co  Co37  1  0.078710  0.822300  0.537150  1.0  0.985
  Co  Co38  1  0.136670  0.740370  0.455120  1.0  1.137
  Co  Co39  1  0.213860  0.691820  0.447570  1.0  1.0391
  Co  Co40  1  0.926810  0.678620  0.111570  1.0  1.0005
  Co  Co41  1  0.133090  0.758100  0.999560  1.0  1.1121
  Co  Co42  1  0.208170  0.812310  0.051710  1.0  0.9689
  Co  Co43  1  0.578710  0.322300  0.537150  1.0  0.985
  Co  Co44  1  0.636670  0.240370  0.455120  1.0  1.137
  Co  Co45  1  0.713860  0.191820  0.447570  1.0  1.0391
  Co  Co46  1  0.426810  0.178620  0.111570  1.0  1.0005
  Co  Co47  1  0.633090  0.258100  0.999560  1.0  1.1121
  Co  Co48  1  0.708170  0.312310  0.051710  1.0  0.9689
  H  H49  1  0.056300  0.313300  0.637000  1.0  0.1068
  H  H50  1  0.112900  0.406000  0.509300  1.0  0.0976
  H  H51  1  0.021500  0.246400  0.332300  1.0  0.1084
  H  H52  1  0.097100  0.249700  0.217500  1.0  0.1018
  H  H53  1  0.149800  0.116100  0.377800  1.0  0.0993
  H  H54  1  0.141500  0.171700  0.777800  1.0  0.1025
  H  H55  1  0.185100  0.164500  0.570400  1.0  0.1016
  H  H56  1  0.051400  0.402100  0.716300  1.0  0.1226
  H  H57  1  0.233500  0.168200  0.376600  1.0  0.1061
  H  H58  1  0.020400  0.310400  0.098500  1.0  0.1082
  H  H59  1  0.126400  0.402100  0.232100  1.0  0.1021
  H  H60  1  0.139800  0.324400  0.680100  1.0  0.0919
  H  H61  1  0.229000  0.332400  0.721400  1.0  0.0921
  H  H62  1  0.230500  0.182400  0.791700  1.0  0.0932
  H  H63  1  0.223300  0.098100  0.238100  1.0  0.1247
  H  H64  1  0.177500  0.352900  0.910800  1.0  0.098
  H  H65  1  0.113700  0.096900  0.927400  1.0  0.1004
  H  H66  1  0.148100  0.385200  0.081700  1.0  0.1019
  H  H67  1  0.231800  0.330100  0.113700  1.0  0.1034
  H  H68  1  0.052700  0.184200  0.780400  1.0  0.1018
  H  H69  1  0.121200  0.097700  0.231100  1.0  0.1136
  H  H70  1  0.055000  0.097900  0.692100  1.0  0.1224
  H  H71  1  0.226800  0.402800  0.243600  1.0  0.1113
  H  H72  1  0.556300  0.813300  0.637000  1.0  0.1068
  H  H73  1  0.612900  0.906000  0.509300  1.0  0.0976
  H  H74  1  0.521500  0.746400  0.332300  1.0  0.1084
  H  H75  1  0.597100  0.749700  0.217500  1.0  0.1018
  H  H76  1  0.649800  0.616100  0.377800  1.0  0.0993
  H  H77  1  0.641500  0.671700  0.777800  1.0  0.1025
  H  H78  1  0.685100  0.664500  0.570400  1.0  0.1016
  H  H79  1  0.551400  0.902100  0.716300  1.0  0.1226
  H  H80  1  0.733500  0.668200  0.376600  1.0  0.1061
  H  H81  1  0.520400  0.810400  0.098500  1.0  0.1082
  H  H82  1  0.626400  0.902100  0.232100  1.0  0.1021
  H  H83  1  0.639800  0.824400  0.680100  1.0  0.0919
  H  H84  1  0.729000  0.832400  0.721400  1.0  0.0921
  H  H85  1  0.730500  0.682400  0.791700  1.0  0.0932
  H  H86  1  0.723300  0.598100  0.238100  1.0  0.1247
  H  H87  1  0.677500  0.852900  0.910800  1.0  0.098
  H  H88  1  0.613700  0.596900  0.927400  1.0  0.1004
  H  H89  1  0.648100  0.885200  0.081700  1.0  0.1019
  H  H90  1  0.731800  0.830100  0.113700  1.0  0.1034
  H  H91  1  0.552700  0.684200  0.780400  1.0  0.1018
  H  H92  1  0.621200  0.597700  0.231100  1.0  0.1136
  H  H93  1  0.555000  0.597900  0.692100  1.0  0.1224
  H  H94  1  0.726800  0.902800  0.243600  1.0  0.1113
  H  H95  1  0.943700  0.313300  0.363000  1.0  0.1068
  H  H96  1  0.887100  0.406000  0.490700  1.0  0.0984
  H  H97  1  0.978500  0.246400  0.667700  1.0  0.1083
  H  H98  1  0.902900  0.249700  0.782500  1.0  0.1023
  H  H99  1  0.850200  0.116100  0.622200  1.0  0.0984
  H  H100  1  0.858500  0.171700  0.222200  1.0  0.102
  H  H101  1  0.814900  0.164500  0.429600  1.0  0.1014
  H  H102  1  0.948600  0.402100  0.283700  1.0  0.1224
  H  H103  1  0.766500  0.168200  0.623400  1.0  0.106
  H  H104  1  0.979600  0.310400  0.901500  1.0  0.1082
  H  H105  1  0.873600  0.402100  0.767900  1.0  0.1019
  H  H106  1  0.860200  0.324400  0.319900  1.0  0.0918
  H  H107  1  0.771000  0.332400  0.278600  1.0  0.0927
  H  H108  1  0.769500  0.182400  0.208300  1.0  0.0937
  H  H109  1  0.776700  0.098100  0.761900  1.0  0.1246
  H  H110  1  0.822500  0.352900  0.089200  1.0  0.0988
  H  H111  1  0.886300  0.096900  0.072600  1.0  0.0995
  H  H112  1  0.851900  0.385200  0.918300  1.0  0.1011
  H  H113  1  0.768200  0.330100  0.886300  1.0  0.1043
  H  H114  1  0.947300  0.184200  0.219600  1.0  0.1012
  H  H115  1  0.878800  0.097700  0.768900  1.0  0.1136
  H  H116  1  0.945000  0.097900  0.307900  1.0  0.1216
  H  H117  1  0.773200  0.402800  0.756400  1.0  0.1115
  H  H118  1  0.443700  0.813300  0.363000  1.0  0.1068
  H  H119  1  0.387100  0.906000  0.490700  1.0  0.0984
  H  H120  1  0.478500  0.746400  0.667700  1.0  0.1083
  H  H121  1  0.402900  0.749700  0.782500  1.0  0.1023
  H  H122  1  0.350200  0.616100  0.622200  1.0  0.0984
  H  H123  1  0.358500  0.671700  0.222200  1.0  0.102
  H  H124  1  0.314900  0.664500  0.429600  1.0  0.1014
  H  H125  1  0.448600  0.902100  0.283700  1.0  0.1224
  H  H126  1  0.266500  0.668200  0.623400  1.0  0.106
  H  H127  1  0.479600  0.810400  0.901500  1.0  0.1082
  H  H128  1  0.373600  0.902100  0.767900  1.0  0.1019
  H  H129  1  0.360200  0.824400  0.319900  1.0  0.0918
  H  H130  1  0.271000  0.832400  0.278600  1.0  0.0927
  H  H131  1  0.269500  0.682400  0.208300  1.0  0.0937
  H  H132  1  0.276700  0.598100  0.761900  1.0  0.1246
  H  H133  1  0.322500  0.852900  0.089200  1.0  0.0988
  H  H134  1  0.386300  0.596900  0.072600  1.0  0.0995
  H  H135  1  0.351900  0.885200  0.918300  1.0  0.1011
  H  H136  1  0.268200  0.830100  0.886300  1.0  0.1043
  H  H137  1  0.447300  0.684200  0.219600  1.0  0.1012
  H  H138  1  0.378800  0.597700  0.768900  1.0  0.1136
  H  H139  1  0.445000  0.597900  0.307900  1.0  0.1216
  H  H140  1  0.273200  0.902800  0.756400  1.0  0.1115
  H  H141  1  0.943700  0.686700  0.363000  1.0  0.1068
  H  H142  1  0.887100  0.594000  0.490700  1.0  0.0982
  H  H143  1  0.978500  0.753600  0.667700  1.0  0.1083
  H  H144  1  0.902900  0.750300  0.782500  1.0  0.1028
  H  H145  1  0.850200  0.883900  0.622200  1.0  0.0983
  H  H146  1  0.858500  0.828300  0.222200  1.0  0.1016
  H  H147  1  0.814900  0.835500  0.429600  1.0  0.1017
  H  H148  1  0.948600  0.597900  0.283700  1.0  0.1223
  H  H149  1  0.766500  0.831800  0.623400  1.0  0.1063
  H  H150  1  0.979600  0.689600  0.901500  1.0  0.1085
  H  H151  1  0.873600  0.597900  0.767900  1.0  0.102
  H  H152  1  0.860200  0.675600  0.319900  1.0  0.0916
  H  H153  1  0.771000  0.667600  0.278600  1.0  0.0924
  H  H154  1  0.769500  0.817600  0.208300  1.0  0.0937
  H  H155  1  0.776700  0.901900  0.761900  1.0  0.1249
  H  H156  1  0.822500  0.647100  0.089200  1.0  0.0986
  H  H157  1  0.886300  0.903100  0.072600  1.0  0.1
  H  H158  1  0.851900  0.614800  0.918300  1.0  0.1014
  H  H159  1  0.768200  0.669900  0.886300  1.0  0.104
  H  H160  1  0.947300  0.815800  0.219600  1.0  0.1016
  H  H161  1  0.878800  0.902300  0.768900  1.0  0.1133
  H  H162  1  0.945000  0.902100  0.307900  1.0  0.1224
  H  H163  1  0.773200  0.597200  0.756400  1.0  0.1113
  H  H164  1  0.443700  0.186700  0.363000  1.0  0.1068
  H  H165  1  0.387100  0.094000  0.490700  1.0  0.0982
  H  H166  1  0.478500  0.253600  0.667700  1.0  0.1083
  H  H167  1  0.402900  0.250300  0.782500  1.0  0.1028
  H  H168  1  0.350200  0.383900  0.622200  1.0  0.0983
  H  H169  1  0.358500  0.328300  0.222200  1.0  0.1016
  H  H170  1  0.314900  0.335500  0.429600  1.0  0.1017
  H  H171  1  0.448600  0.097900  0.283700  1.0  0.1223
  H  H172  1  0.266500  0.331800  0.623400  1.0  0.1063
  H  H173  1  0.479600  0.189600  0.901500  1.0  0.1085
  H  H174  1  0.373600  0.097900  0.767900  1.0  0.102
  H  H175  1  0.360200  0.175600  0.319900  1.0  0.0916
  H  H176  1  0.271000  0.167600  0.278600  1.0  0.0924
  H  H177  1  0.269500  0.317600  0.208300  1.0  0.0937
  H  H178  1  0.276700  0.401900  0.761900  1.0  0.1249
  H  H179  1  0.322500  0.147100  0.089200  1.0  0.0986
  H  H180  1  0.386300  0.403100  0.072600  1.0  0.1
  H  H181  1  0.351900  0.114800  0.918300  1.0  0.1014
  H  H182  1  0.268200  0.169900  0.886300  1.0  0.104
  H  H183  1  0.447300  0.315800  0.219600  1.0  0.1016
  H  H184  1  0.378800  0.402300  0.768900  1.0  0.1133
  H  H185  1  0.445000  0.402100  0.307900  1.0  0.1224
  H  H186  1  0.273200  0.097200  0.756400  1.0  0.1113
  H  H187  1  0.056300  0.686700  0.637000  1.0  0.1067
  H  H188  1  0.112900  0.594000  0.509300  1.0  0.0978
  H  H189  1  0.021500  0.753600  0.332300  1.0  0.1085
  H  H190  1  0.097100  0.750300  0.217500  1.0  0.1018
  H  H191  1  0.149800  0.883900  0.377800  1.0  0.0987
  H  H192  1  0.141500  0.828300  0.777800  1.0  0.1018
  H  H193  1  0.185100  0.835500  0.570400  1.0  0.1022
  H  H194  1  0.051400  0.597900  0.716300  1.0  0.1223
  H  H195  1  0.233500  0.831800  0.376600  1.0  0.1063
  H  H196  1  0.020400  0.689600  0.098500  1.0  0.1084
  H  H197  1  0.126400  0.597900  0.232100  1.0  0.1025
  H  H198  1  0.139800  0.675600  0.680100  1.0  0.0917
  H  H199  1  0.229000  0.667600  0.721400  1.0  0.0919
  H  H200  1  0.230500  0.817600  0.791700  1.0  0.0928
  H  H201  1  0.223300  0.901900  0.238100  1.0  0.1247
  H  H202  1  0.177500  0.647100  0.910800  1.0  0.0984
  H  H203  1  0.113700  0.903100  0.927400  1.0  0.1001
  H  H204  1  0.148100  0.614800  0.081700  1.0  0.1015
  H  H205  1  0.231800  0.669900  0.113700  1.0  0.1033
  H  H206  1  0.052700  0.815800  0.780400  1.0  0.102
  H  H207  1  0.121200  0.902300  0.231100  1.0  0.1132
  H  H208  1  0.055000  0.902100  0.692100  1.0  0.1219
  H  H209  1  0.226800  0.597200  0.243600  1.0  0.1111
  H  H210  1  0.556300  0.186700  0.637000  1.0  0.1067
  H  H211  1  0.612900  0.094000  0.509300  1.0  0.0978
  H  H212  1  0.521500  0.253600  0.332300  1.0  0.1085
  H  H213  1  0.597100  0.250300  0.217500  1.0  0.1018
  H  H214  1  0.649800  0.383900  0.377800  1.0  0.0987
  H  H215  1  0.641500  0.328300  0.777800  1.0  0.1018
  H  H216  1  0.685100  0.335500  0.570400  1.0  0.1022
  H  H217  1  0.551400  0.097900  0.716300  1.0  0.1223
  H  H218  1  0.733500  0.331800  0.376600  1.0  0.1063
  H  H219  1  0.520400  0.189600  0.098500  1.0  0.1084
  H  H220  1  0.626400  0.097900  0.232100  1.0  0.1025
  H  H221  1  0.639800  0.175600  0.680100  1.0  0.0917
  H  H222  1  0.729000  0.167600  0.721400  1.0  0.0919
  H  H223  1  0.730500  0.317600  0.791700  1.0  0.0928
  H  H224  1  0.723300  0.401900  0.238100  1.0  0.1247
  H  H225  1  0.677500  0.147100  0.910800  1.0  0.0984
  H  H226  1  0.613700  0.403100  0.927400  1.0  0.1001
  H  H227  1  0.648100  0.114800  0.081700  1.0  0.1015
  H  H228  1  0.731800  0.169900  0.113700  1.0  0.1033
  H  H229  1  0.552700  0.315800  0.780400  1.0  0.102
  H  H230  1  0.621200  0.402300  0.231100  1.0  0.1132
  H  H231  1  0.555000  0.402100  0.692100  1.0  0.1219
  H  H232  1  0.726800  0.097200  0.243600  1.0  0.1111
  H  H233  1  0.088800  0.500000  0.536600  1.0  0.1217
  H  H234  1  0.040300  0.500000  0.777000  1.0  0.098
  H  H235  1  0.176700  0.500000  0.404400  1.0  0.1109
  H  H236  1  0.180700  0.500000  0.060000  1.0  0.1297
  H  H237  1  0.240900  0.500000  0.307300  1.0  0.1116
  H  H238  1  0.588800  0.000000  0.536600  1.0  0.1217
  H  H239  1  0.540300  0.000000  0.777000  1.0  0.098
  H  H240  1  0.676700  0.000000  0.404400  1.0  0.1109
  H  H241  1  0.680700  0.000000  0.060000  1.0  0.1297
  H  H242  1  0.740900  0.000000  0.307300  1.0  0.1116
  H  H243  1  0.911200  0.500000  0.463400  1.0  0.1218
  H  H244  1  0.959700  0.500000  0.223000  1.0  0.0977
  H  H245  1  0.823300  0.500000  0.595600  1.0  0.1103
  H  H246  1  0.819300  0.500000  0.940000  1.0  0.1303
  H  H247  1  0.759100  0.500000  0.692700  1.0  0.1126
  H  H248  1  0.411200  0.000000  0.463400  1.0  0.1218
  H  H249  1  0.459700  0.000000  0.223000  1.0  0.0977
  H  H250  1  0.323300  0.000000  0.595600  1.0  0.1103
  H  H251  1  0.319300  0.000000  0.940000  1.0  0.1303
  H  H252  1  0.259100  0.000000  0.692700  1.0  0.1126
  H  H253  1  0.181700  0.000000  0.408800  1.0  0.1293
  H  H254  1  0.238100  0.000000  0.182300  1.0  0.1026
  H  H255  1  0.168900  0.000000  0.074500  1.0  0.1094
  H  H256  1  0.088500  0.000000  0.892100  1.0  0.1231
  H  H257  1  0.042800  0.000000  0.625900  1.0  0.1025
  H  H258  1  0.681700  0.500000  0.408800  1.0  0.1293
  H  H259  1  0.738100  0.500000  0.182300  1.0  0.1026
  H  H260  1  0.668900  0.500000  0.074500  1.0  0.1094
  H  H261  1  0.588500  0.500000  0.892100  1.0  0.1231
  H  H262  1  0.542800  0.500000  0.625900  1.0  0.1025
  H  H263  1  0.818300  0.000000  0.591200  1.0  0.1289
  H  H264  1  0.761900  0.000000  0.817700  1.0  0.103
  H  H265  1  0.831100  0.000000  0.925500  1.0  0.1102
  H  H266  1  0.911500  0.000000  0.107900  1.0  0.1228
  H  H267  1  0.957200  0.000000  0.374100  1.0  0.1041
  H  H268  1  0.318300  0.500000  0.591200  1.0  0.1289
  H  H269  1  0.261900  0.500000  0.817700  1.0  0.103
  H  H270  1  0.331100  0.500000  0.925500  1.0  0.1102
  H  H271  1  0.411500  0.500000  0.107900  1.0  0.1228
  H  H272  1  0.457200  0.500000  0.374100  1.0  0.1041
  C  C273  1  0.070570  0.322700  0.600300  1.0  0.1209
  C  C274  1  0.078780  0.218200  0.363500  1.0  0.6964
  C  C275  1  0.129140  0.169000  0.616000  1.0  0.6709
  C  C276  1  0.101550  0.373300  0.530700  1.0  0.1175
  C  C277  1  0.061990  0.243400  0.286000  1.0  -0.1432
  C  C278  1  0.158670  0.168120  0.665500  1.0  -0.1513
  C  C279  1  0.072170  0.442350  0.621700  1.0  0.1575
  C  C280  1  0.031420  0.255900  0.285600  1.0  0.0316
  C  C281  1  0.076640  0.257000  0.216700  1.0  0.0255
  C  C282  1  0.167330  0.140200  0.383900  1.0  0.1579
  C  C283  1  0.161630  0.380000  0.369900  1.0  0.7159
  C  C284  1  0.187700  0.316800  0.595200  1.0  0.6869
  C  C285  1  0.159320  0.172210  0.752300  1.0  -0.0261
  C  C286  1  0.185360  0.168450  0.627800  1.0  -0.0453
  C  C287  1  0.056850  0.441200  0.693000  1.0  -0.2084
  C  C288  1  0.015870  0.282300  0.216000  1.0  -0.1561
  C  C289  1  0.061340  0.281500  0.145800  1.0  -0.1535
  C  C290  1  0.213150  0.168660  0.383300  1.0  0.1644
  C  C291  1  0.151600  0.441700  0.327800  1.0  -0.0815
  C  C292  1  0.184700  0.328400  0.685900  1.0  -0.1562
  C  C293  1  0.186110  0.176950  0.800100  1.0  -0.1701
  C  C294  1  0.212230  0.174580  0.674900  1.0  -0.1483
  C  C295  1  0.030830  0.294000  0.146100  1.0  0.0393
  C  C296  1  0.982710  0.294500  0.217600  1.0  0.6929
  C  C297  1  0.076910  0.290800  0.068800  1.0  0.7149
  C  C298  1  0.201950  0.057140  0.328600  1.0  0.1318
  C  C299  1  0.133360  0.441400  0.254500  1.0  -0.0417
  C  C300  1  0.156840  0.329020  0.716500  1.0  -0.0182
  C  C301  1  0.210180  0.334770  0.741000  1.0  -0.0407
  C  C302  1  0.212400  0.178540  0.760000  1.0  -0.0534
  C  C303  1  0.187200  0.184720  0.892200  1.0  0.6662
  C  C304  1  0.241090  0.182400  0.636700  1.0  0.6589
  C  C305  1  0.218100  0.058800  0.261200  1.0  -0.2248
  C  C306  1  0.153960  0.336440  0.801100  1.0  -0.1409
  C  C307  1  0.207410  0.344680  0.825400  1.0  -0.1165
  C  C308  1  0.179360  0.345780  0.854600  1.0  -0.0596
  C  C309  1  0.124110  0.332800  0.834800  1.0  0.6592
  C  C310  1  0.234590  0.350100  0.885900  1.0  0.6976
  C  C311  1  0.101090  0.128300  0.902400  1.0  0.1364
  C  C312  1  0.165390  0.360200  0.083100  1.0  0.1694
  C  C313  1  0.155210  0.119800  0.104000  1.0  0.698
  C  C314  1  0.211300  0.330200  0.100600  1.0  0.155
  C  C315  1  0.067720  0.176200  0.822000  1.0  0.1318
  C  C316  1  0.145430  0.058720  0.143900  1.0  -0.0999
  C  C317  1  0.073480  0.057500  0.797000  1.0  0.1942
  C  C318  1  0.201980  0.442960  0.147000  1.0  0.1423
  C  C319  1  0.127920  0.058700  0.210600  1.0  -0.0245
  C  C320  1  0.059610  0.058700  0.718600  1.0  -0.1813
  C  C321  1  0.220410  0.442000  0.219900  1.0  -0.172
  C  C322  1  0.570570  0.822700  0.600300  1.0  0.1209
  C  C323  1  0.578780  0.718200  0.363500  1.0  0.6964
  C  C324  1  0.629140  0.669000  0.616000  1.0  0.6709
  C  C325  1  0.601550  0.873300  0.530700  1.0  0.1175
  C  C326  1  0.561990  0.743400  0.286000  1.0  -0.1432
  C  C327  1  0.658670  0.668120  0.665500  1.0  -0.1513
  C  C328  1  0.572170  0.942350  0.621700  1.0  0.1575
  C  C329  1  0.531420  0.755900  0.285600  1.0  0.0316
  C  C330  1  0.576640  0.757000  0.216700  1.0  0.0255
  C  C331  1  0.667330  0.640200  0.383900  1.0  0.1579
  C  C332  1  0.661630  0.880000  0.369900  1.0  0.7159
  C  C333  1  0.687700  0.816800  0.595200  1.0  0.6869
  C  C334  1  0.659320  0.672210  0.752300  1.0  -0.0261
  C  C335  1  0.685360  0.668450  0.627800  1.0  -0.0453
  C  C336  1  0.556850  0.941200  0.693000  1.0  -0.2084
  C  C337  1  0.515870  0.782300  0.216000  1.0  -0.1561
  C  C338  1  0.561340  0.781500  0.145800  1.0  -0.1535
  C  C339  1  0.713150  0.668660  0.383300  1.0  0.1644
  C  C340  1  0.651600  0.941700  0.327800  1.0  -0.0815
  C  C341  1  0.684700  0.828400  0.685900  1.0  -0.1562
  C  C342  1  0.686110  0.676950  0.800100  1.0  -0.1701
  C  C343  1  0.712230  0.674580  0.674900  1.0  -0.1483
  C  C344  1  0.530830  0.794000  0.146100  1.0  0.0393
  C  C345  1  0.482710  0.794500  0.217600  1.0  0.6929
  C  C346  1  0.576910  0.790800  0.068800  1.0  0.7149
  C  C347  1  0.701950  0.557140  0.328600  1.0  0.1318
  C  C348  1  0.633360  0.941400  0.254500  1.0  -0.0417
  C  C349  1  0.656840  0.829020  0.716500  1.0  -0.0182
  C  C350  1  0.710180  0.834770  0.741000  1.0  -0.0407
  C  C351  1  0.712400  0.678540  0.760000  1.0  -0.0534
  C  C352  1  0.687200  0.684720  0.892200  1.0  0.6662
  C  C353  1  0.741090  0.682400  0.636700  1.0  0.6589
  C  C354  1  0.718100  0.558800  0.261200  1.0  -0.2248
  C  C355  1  0.653960  0.836440  0.801100  1.0  -0.1409
  C  C356  1  0.707410  0.844680  0.825400  1.0  -0.1165
  C  C357  1  0.679360  0.845780  0.854600  1.0  -0.0596
  C  C358  1  0.624110  0.832800  0.834800  1.0  0.6592
  C  C359  1  0.734590  0.850100  0.885900  1.0  0.6976
  C  C360  1  0.601090  0.628300  0.902400  1.0  0.1364
  C  C361  1  0.665390  0.860200  0.083100  1.0  0.1694
  C  C362  1  0.655210  0.619800  0.104000  1.0  0.698
  C  C363  1  0.711300  0.830200  0.100600  1.0  0.155
  C  C364  1  0.567720  0.676200  0.822000  1.0  0.1318
  C  C365  1  0.645430  0.558720  0.143900  1.0  -0.0999
  C  C366  1  0.573480  0.557500  0.797000  1.0  0.1942
  C  C367  1  0.701980  0.942960  0.147000  1.0  0.1423
  C  C368  1  0.627920  0.558700  0.210600  1.0  -0.0245
  C  C369  1  0.559610  0.558700  0.718600  1.0  -0.1813
  C  C370  1  0.720410  0.942000  0.219900  1.0  -0.172
  C  C371  1  0.929430  0.322700  0.399700  1.0  0.12
  C  C372  1  0.921220  0.218200  0.636500  1.0  0.6971
  C  C373  1  0.870860  0.169000  0.384000  1.0  0.6735
  C  C374  1  0.898450  0.373300  0.469300  1.0  0.1177
  C  C375  1  0.938010  0.243400  0.714000  1.0  -0.1444
  C  C376  1  0.841330  0.168120  0.334500  1.0  -0.1513
  C  C377  1  0.927830  0.442350  0.378300  1.0  0.1576
  C  C378  1  0.968580  0.255900  0.714400  1.0  0.0321
  C  C379  1  0.923360  0.257000  0.783300  1.0  0.026
  C  C380  1  0.832670  0.140200  0.616100  1.0  0.1578
  C  C381  1  0.838370  0.380000  0.630100  1.0  0.7162
  C  C382  1  0.812300  0.316800  0.404800  1.0  0.6865
  C  C383  1  0.840680  0.172210  0.247700  1.0  -0.0273
  C  C384  1  0.814640  0.168450  0.372200  1.0  -0.0456
  C  C385  1  0.943150  0.441200  0.307000  1.0  -0.2069
  C  C386  1  0.984130  0.282300  0.784000  1.0  -0.1559
  C  C387  1  0.938660  0.281500  0.854200  1.0  -0.1533
  C  C388  1  0.786850  0.168660  0.616700  1.0  0.1645
  C  C389  1  0.848400  0.441700  0.672200  1.0  -0.081
  C  C390  1  0.815300  0.328400  0.314100  1.0  -0.1567
  C  C391  1  0.813890  0.176950  0.199900  1.0  -0.1697
  C  C392  1  0.787770  0.174580  0.325100  1.0  -0.1475
  C  C393  1  0.969170  0.294000  0.853900  1.0  0.0396
  C  C394  1  0.017290  0.294500  0.782400  1.0  0.6929
  C  C395  1  0.923090  0.290800  0.931200  1.0  0.7148
  C  C396  1  0.798050  0.057140  0.671400  1.0  0.132
  C  C397  1  0.866640  0.441400  0.745500  1.0  -0.041
  C  C398  1  0.843160  0.329020  0.283500  1.0  -0.0171
  C  C399  1  0.789820  0.334770  0.259000  1.0  -0.0408
  C  C400  1  0.787600  0.178540  0.240000  1.0  -0.0542
  C  C401  1  0.812800  0.184720  0.107800  1.0  0.6652
  C  C402  1  0.758910  0.182400  0.363300  1.0  0.6556
  C  C403  1  0.781900  0.058800  0.738800  1.0  -0.2248
  C  C404  1  0.846040  0.336440  0.198900  1.0  -0.141
  C  C405  1  0.792590  0.344680  0.174600  1.0  -0.1167
  C  C406  1  0.820640  0.345780  0.145400  1.0  -0.0579
  C  C407  1  0.875890  0.332800  0.165200  1.0  0.6603
  C  C408  1  0.765410  0.350100  0.114100  1.0  0.698
  C  C409  1  0.898910  0.128300  0.097600  1.0  0.136
  C  C410  1  0.834610  0.360200  0.916900  1.0  0.17
  C  C411  1  0.844790  0.119800  0.896000  1.0  0.6995
  C  C412  1  0.788700  0.330200  0.899400  1.0  0.1555
  C  C413  1  0.932280  0.176200  0.178000  1.0  0.132
  C  C414  1  0.854570  0.058720  0.856100  1.0  -0.1005
  C  C415  1  0.926520  0.057500  0.203000  1.0  0.1939
  C  C416  1  0.798020  0.442960  0.853000  1.0  0.1422
  C  C417  1  0.872080  0.058700  0.789400  1.0  -0.0244
  C  C418  1  0.940390  0.058700  0.281400  1.0  -0.1799
  C  C419  1  0.779590  0.442000  0.780100  1.0  -0.1712
  C  C420  1  0.429430  0.822700  0.399700  1.0  0.12
  C  C421  1  0.421220  0.718200  0.636500  1.0  0.6971
  C  C422  1  0.370860  0.669000  0.384000  1.0  0.6735
  C  C423  1  0.398450  0.873300  0.469300  1.0  0.1177
  C  C424  1  0.438010  0.743400  0.714000  1.0  -0.1444
  C  C425  1  0.341330  0.668120  0.334500  1.0  -0.1513
  C  C426  1  0.427830  0.942350  0.378300  1.0  0.1576
  C  C427  1  0.468580  0.755900  0.714400  1.0  0.0321
  C  C428  1  0.423360  0.757000  0.783300  1.0  0.026
  C  C429  1  0.332670  0.640200  0.616100  1.0  0.1578
  C  C430  1  0.338370  0.880000  0.630100  1.0  0.7162
  C  C431  1  0.312300  0.816800  0.404800  1.0  0.6865
  C  C432  1  0.340680  0.672210  0.247700  1.0  -0.0273
  C  C433  1  0.314640  0.668450  0.372200  1.0  -0.0456
  C  C434  1  0.443150  0.941200  0.307000  1.0  -0.2069
  C  C435  1  0.484130  0.782300  0.784000  1.0  -0.1559
  C  C436  1  0.438660  0.781500  0.854200  1.0  -0.1533
  C  C437  1  0.286850  0.668660  0.616700  1.0  0.1645
  C  C438  1  0.348400  0.941700  0.672200  1.0  -0.081
  C  C439  1  0.315300  0.828400  0.314100  1.0  -0.1567
  C  C440  1  0.313890  0.676950  0.199900  1.0  -0.1697
  C  C441  1  0.287770  0.674580  0.325100  1.0  -0.1475
  C  C442  1  0.469170  0.794000  0.853900  1.0  0.0396
  C  C443  1  0.517290  0.794500  0.782400  1.0  0.6929
  C  C444  1  0.423090  0.790800  0.931200  1.0  0.7148
  C  C445  1  0.298050  0.557140  0.671400  1.0  0.132
  C  C446  1  0.366640  0.941400  0.745500  1.0  -0.041
  C  C447  1  0.343160  0.829020  0.283500  1.0  -0.0171
  C  C448  1  0.289820  0.834770  0.259000  1.0  -0.0408
  C  C449  1  0.287600  0.678540  0.240000  1.0  -0.0542
  C  C450  1  0.312800  0.684720  0.107800  1.0  0.6652
  C  C451  1  0.258910  0.682400  0.363300  1.0  0.6556
  C  C452  1  0.281900  0.558800  0.738800  1.0  -0.2248
  C  C453  1  0.346040  0.836440  0.198900  1.0  -0.141
  C  C454  1  0.292590  0.844680  0.174600  1.0  -0.1167
  C  C455  1  0.320640  0.845780  0.145400  1.0  -0.0579
  C  C456  1  0.375890  0.832800  0.165200  1.0  0.6603
  C  C457  1  0.265410  0.850100  0.114100  1.0  0.698
  C  C458  1  0.398910  0.628300  0.097600  1.0  0.136
  C  C459  1  0.334610  0.860200  0.916900  1.0  0.17
  C  C460  1  0.344790  0.619800  0.896000  1.0  0.6995
  C  C461  1  0.288700  0.830200  0.899400  1.0  0.1555
  C  C462  1  0.432280  0.676200  0.178000  1.0  0.132
  C  C463  1  0.354570  0.558720  0.856100  1.0  -0.1005
  C  C464  1  0.426520  0.557500  0.203000  1.0  0.1939
  C  C465  1  0.298020  0.942960  0.853000  1.0  0.1422
  C  C466  1  0.372080  0.558700  0.789400  1.0  -0.0244
  C  C467  1  0.440390  0.558700  0.281400  1.0  -0.1799
  C  C468  1  0.279590  0.942000  0.780100  1.0  -0.1712
  C  C469  1  0.929430  0.677300  0.399700  1.0  0.1203
  C  C470  1  0.921220  0.781800  0.636500  1.0  0.6971
  C  C471  1  0.870860  0.831000  0.384000  1.0  0.6747
  C  C472  1  0.898450  0.626700  0.469300  1.0  0.1167
  C  C473  1  0.938010  0.756600  0.714000  1.0  -0.1441
  C  C474  1  0.841330  0.831880  0.334500  1.0  -0.1505
  C  C475  1  0.927830  0.557650  0.378300  1.0  0.1572
  C  C476  1  0.968580  0.744100  0.714400  1.0  0.0324
  C  C477  1  0.923360  0.743000  0.783300  1.0  0.0261
  C  C478  1  0.832670  0.859800  0.616100  1.0  0.1579
  C  C479  1  0.838370  0.620000  0.630100  1.0  0.7168
  C  C480  1  0.812300  0.683200  0.404800  1.0  0.6867
  C  C481  1  0.840680  0.827790  0.247700  1.0  -0.0272
  C  C482  1  0.814640  0.831550  0.372200  1.0  -0.0462
  C  C483  1  0.943150  0.558800  0.307000  1.0  -0.2078
  C  C484  1  0.984130  0.717700  0.784000  1.0  -0.1554
  C  C485  1  0.938660  0.718500  0.854200  1.0  -0.1535
  C  C486  1  0.786850  0.831340  0.616700  1.0  0.1648
  C  C487  1  0.848400  0.558300  0.672200  1.0  -0.081
  C  C488  1  0.815300  0.671600  0.314100  1.0  -0.1568
  C  C489  1  0.813890  0.823050  0.199900  1.0  -0.1712
  C  C490  1  0.787770  0.825420  0.325100  1.0  -0.1468
  C  C491  1  0.969170  0.706000  0.853900  1.0  0.0402
  C  C492  1  0.017290  0.705500  0.782400  1.0  0.693
  C  C493  1  0.923090  0.709200  0.931200  1.0  0.7152
  C  C494  1  0.798050  0.942860  0.671400  1.0  0.1306
  C  C495  1  0.866640  0.558600  0.745500  1.0  -0.0442
  C  C496  1  0.843160  0.670980  0.283500  1.0  -0.0175
  C  C497  1  0.789820  0.665230  0.259000  1.0  -0.0417
  C  C498  1  0.787600  0.821460  0.240000  1.0  -0.055
  C  C499  1  0.812800  0.815280  0.107800  1.0  0.6668
  C  C500  1  0.758910  0.817600  0.363300  1.0  0.655
  C  C501  1  0.781900  0.941200  0.738800  1.0  -0.2242
  C  C502  1  0.846040  0.663560  0.198900  1.0  -0.1414
  C  C503  1  0.792590  0.655320  0.174600  1.0  -0.1162
  C  C504  1  0.820640  0.654220  0.145400  1.0  -0.0583
  C  C505  1  0.875890  0.667200  0.165200  1.0  0.6595
  C  C506  1  0.765410  0.649900  0.114100  1.0  0.6971
  C  C507  1  0.898910  0.871700  0.097600  1.0  0.1361
  C  C508  1  0.834610  0.639800  0.916900  1.0  0.17
  C  C509  1  0.844790  0.880200  0.896000  1.0  0.6986
  C  C510  1  0.788700  0.669800  0.899400  1.0  0.1554
  C  C511  1  0.932280  0.823800  0.178000  1.0  0.1321
  C  C512  1  0.854570  0.941280  0.856100  1.0  -0.0997
  C  C513  1  0.926520  0.942500  0.203000  1.0  0.1939
  C  C514  1  0.798020  0.557040  0.853000  1.0  0.1419
  C  C515  1  0.872080  0.941300  0.789400  1.0  -0.0243
  C  C516  1  0.940390  0.941300  0.281400  1.0  -0.1813
  C  C517  1  0.779590  0.558000  0.780100  1.0  -0.1697
  C  C518  1  0.429430  0.177300  0.399700  1.0  0.1203
  C  C519  1  0.421220  0.281800  0.636500  1.0  0.6971
  C  C520  1  0.370860  0.331000  0.384000  1.0  0.6747
  C  C521  1  0.398450  0.126700  0.469300  1.0  0.1167
  C  C522  1  0.438010  0.256600  0.714000  1.0  -0.1441
  C  C523  1  0.341330  0.331880  0.334500  1.0  -0.1505
  C  C524  1  0.427830  0.057650  0.378300  1.0  0.1572
  C  C525  1  0.468580  0.244100  0.714400  1.0  0.0324
  C  C526  1  0.423360  0.243000  0.783300  1.0  0.0261
  C  C527  1  0.332670  0.359800  0.616100  1.0  0.1579
  C  C528  1  0.338370  0.120000  0.630100  1.0  0.7168
  C  C529  1  0.312300  0.183200  0.404800  1.0  0.6867
  C  C530  1  0.340680  0.327790  0.247700  1.0  -0.0272
  C  C531  1  0.314640  0.331550  0.372200  1.0  -0.0462
  C  C532  1  0.443150  0.058800  0.307000  1.0  -0.2078
  C  C533  1  0.484130  0.217700  0.784000  1.0  -0.1554
  C  C534  1  0.438660  0.218500  0.854200  1.0  -0.1535
  C  C535  1  0.286850  0.331340  0.616700  1.0  0.1648
  C  C536  1  0.348400  0.058300  0.672200  1.0  -0.081
  C  C537  1  0.315300  0.171600  0.314100  1.0  -0.1568
  C  C538  1  0.313890  0.323050  0.199900  1.0  -0.1712
  C  C539  1  0.287770  0.325420  0.325100  1.0  -0.1468
  C  C540  1  0.469170  0.206000  0.853900  1.0  0.0402
  C  C541  1  0.517290  0.205500  0.782400  1.0  0.693
  C  C542  1  0.423090  0.209200  0.931200  1.0  0.7152
  C  C543  1  0.298050  0.442860  0.671400  1.0  0.1306
  C  C544  1  0.366640  0.058600  0.745500  1.0  -0.0442
  C  C545  1  0.343160  0.170980  0.283500  1.0  -0.0175
  C  C546  1  0.289820  0.165230  0.259000  1.0  -0.0417
  C  C547  1  0.287600  0.321460  0.240000  1.0  -0.055
  C  C548  1  0.312800  0.315280  0.107800  1.0  0.6668
  C  C549  1  0.258910  0.317600  0.363300  1.0  0.655
  C  C550  1  0.281900  0.441200  0.738800  1.0  -0.2242
  C  C551  1  0.346040  0.163560  0.198900  1.0  -0.1414
  C  C552  1  0.292590  0.155320  0.174600  1.0  -0.1162
  C  C553  1  0.320640  0.154220  0.145400  1.0  -0.0583
  C  C554  1  0.375890  0.167200  0.165200  1.0  0.6595
  C  C555  1  0.265410  0.149900  0.114100  1.0  0.6971
  C  C556  1  0.398910  0.371700  0.097600  1.0  0.1361
  C  C557  1  0.334610  0.139800  0.916900  1.0  0.17
  C  C558  1  0.344790  0.380200  0.896000  1.0  0.6986
  C  C559  1  0.288700  0.169800  0.899400  1.0  0.1554
  C  C560  1  0.432280  0.323800  0.178000  1.0  0.1321
  C  C561  1  0.354570  0.441280  0.856100  1.0  -0.0997
  C  C562  1  0.426520  0.442500  0.203000  1.0  0.1939
  C  C563  1  0.298020  0.057040  0.853000  1.0  0.1419
  C  C564  1  0.372080  0.441300  0.789400  1.0  -0.0243
  C  C565  1  0.440390  0.441300  0.281400  1.0  -0.1813
  C  C566  1  0.279590  0.058000  0.780100  1.0  -0.1697
  C  C567  1  0.070570  0.677300  0.600300  1.0  0.1205
  C  C568  1  0.078780  0.781800  0.363500  1.0  0.6965
  C  C569  1  0.129140  0.831000  0.616000  1.0  0.673
  C  C570  1  0.101550  0.626700  0.530700  1.0  0.1165
  C  C571  1  0.061990  0.756600  0.286000  1.0  -0.1428
  C  C572  1  0.158670  0.831880  0.665500  1.0  -0.1506
  C  C573  1  0.072170  0.557650  0.621700  1.0  0.1577
  C  C574  1  0.031420  0.744100  0.285600  1.0  0.0313
  C  C575  1  0.076640  0.743000  0.216700  1.0  0.0262
  C  C576  1  0.167330  0.859800  0.383900  1.0  0.158
  C  C577  1  0.161630  0.620000  0.369900  1.0  0.7166
  C  C578  1  0.187700  0.683200  0.595200  1.0  0.6862
  C  C579  1  0.159320  0.827790  0.752300  1.0  -0.0274
  C  C580  1  0.185360  0.831550  0.627800  1.0  -0.0461
  C  C581  1  0.056850  0.558800  0.693000  1.0  -0.2082
  C  C582  1  0.015870  0.717700  0.216000  1.0  -0.1561
  C  C583  1  0.061340  0.718500  0.145800  1.0  -0.1539
  C  C584  1  0.213150  0.831340  0.383300  1.0  0.1643
  C  C585  1  0.151600  0.558300  0.327800  1.0  -0.0828
  C  C586  1  0.184700  0.671600  0.685900  1.0  -0.156
  C  C587  1  0.186110  0.823050  0.800100  1.0  -0.1708
  C  C588  1  0.212230  0.825420  0.674900  1.0  -0.1473
  C  C589  1  0.030830  0.706000  0.146100  1.0  0.0395
  C  C590  1  0.982710  0.705500  0.217600  1.0  0.6931
  C  C591  1  0.076910  0.709200  0.068800  1.0  0.7151
  C  C592  1  0.201950  0.942860  0.328600  1.0  0.1306
  C  C593  1  0.133360  0.558600  0.254500  1.0  -0.0449
  C  C594  1  0.156840  0.670980  0.716500  1.0  -0.0177
  C  C595  1  0.210180  0.665230  0.741000  1.0  -0.0417
  C  C596  1  0.212400  0.821460  0.760000  1.0  -0.0529
  C  C597  1  0.187200  0.815280  0.892200  1.0  0.6667
  C  C598  1  0.241090  0.817600  0.636700  1.0  0.658
  C  C599  1  0.218100  0.941200  0.261200  1.0  -0.2235
  C  C600  1  0.153960  0.663560  0.801100  1.0  -0.1409
  C  C601  1  0.207410  0.655320  0.825400  1.0  -0.1161
  C  C602  1  0.179360  0.654220  0.854600  1.0  -0.0591
  C  C603  1  0.124110  0.667200  0.834800  1.0  0.6588
  C  C604  1  0.234590  0.649900  0.885900  1.0  0.6974
  C  C605  1  0.101090  0.871700  0.902400  1.0  0.1359
  C  C606  1  0.165390  0.639800  0.083100  1.0  0.1695
  C  C607  1  0.155210  0.880200  0.104000  1.0  0.6969
  C  C608  1  0.211300  0.669800  0.100600  1.0  0.1553
  C  C609  1  0.067720  0.823800  0.822000  1.0  0.1317
  C  C610  1  0.145430  0.941280  0.143900  1.0  -0.1011
  C  C611  1  0.073480  0.942500  0.797000  1.0  0.1937
  C  C612  1  0.201980  0.557040  0.147000  1.0  0.1423
  C  C613  1  0.127920  0.941300  0.210600  1.0  -0.0226
  C  C614  1  0.059610  0.941300  0.718600  1.0  -0.1802
  C  C615  1  0.220410  0.558000  0.219900  1.0  -0.1701
  C  C616  1  0.570570  0.177300  0.600300  1.0  0.1205
  C  C617  1  0.578780  0.281800  0.363500  1.0  0.6965
  C  C618  1  0.629140  0.331000  0.616000  1.0  0.673
  C  C619  1  0.601550  0.126700  0.530700  1.0  0.1165
  C  C620  1  0.561990  0.256600  0.286000  1.0  -0.1428
  C  C621  1  0.658670  0.331880  0.665500  1.0  -0.1506
  C  C622  1  0.572170  0.057650  0.621700  1.0  0.1577
  C  C623  1  0.531420  0.244100  0.285600  1.0  0.0313
  C  C624  1  0.576640  0.243000  0.216700  1.0  0.0262
  C  C625  1  0.667330  0.359800  0.383900  1.0  0.158
  C  C626  1  0.661630  0.120000  0.369900  1.0  0.7166
  C  C627  1  0.687700  0.183200  0.595200  1.0  0.6862
  C  C628  1  0.659320  0.327790  0.752300  1.0  -0.0274
  C  C629  1  0.685360  0.331550  0.627800  1.0  -0.0461
  C  C630  1  0.556850  0.058800  0.693000  1.0  -0.2082
  C  C631  1  0.515870  0.217700  0.216000  1.0  -0.1561
  C  C632  1  0.561340  0.218500  0.145800  1.0  -0.1539
  C  C633  1  0.713150  0.331340  0.383300  1.0  0.1643
  C  C634  1  0.651600  0.058300  0.327800  1.0  -0.0828
  C  C635  1  0.684700  0.171600  0.685900  1.0  -0.156
  C  C636  1  0.686110  0.323050  0.800100  1.0  -0.1708
  C  C637  1  0.712230  0.325420  0.674900  1.0  -0.1473
  C  C638  1  0.530830  0.206000  0.146100  1.0  0.0395
  C  C639  1  0.482710  0.205500  0.217600  1.0  0.6931
  C  C640  1  0.576910  0.209200  0.068800  1.0  0.7151
  C  C641  1  0.701950  0.442860  0.328600  1.0  0.1306
  C  C642  1  0.633360  0.058600  0.254500  1.0  -0.0449
  C  C643  1  0.656840  0.170980  0.716500  1.0  -0.0177
  C  C644  1  0.710180  0.165230  0.741000  1.0  -0.0417
  C  C645  1  0.712400  0.321460  0.760000  1.0  -0.0529
  C  C646  1  0.687200  0.315280  0.892200  1.0  0.6667
  C  C647  1  0.741090  0.317600  0.636700  1.0  0.658
  C  C648  1  0.718100  0.441200  0.261200  1.0  -0.2235
  C  C649  1  0.653960  0.163560  0.801100  1.0  -0.1409
  C  C650  1  0.707410  0.155320  0.825400  1.0  -0.1161
  C  C651  1  0.679360  0.154220  0.854600  1.0  -0.0591
  C  C652  1  0.624110  0.167200  0.834800  1.0  0.6588
  C  C653  1  0.734590  0.149900  0.885900  1.0  0.6974
  C  C654  1  0.601090  0.371700  0.902400  1.0  0.1359
  C  C655  1  0.665390  0.139800  0.083100  1.0  0.1695
  C  C656  1  0.655210  0.380200  0.104000  1.0  0.6969
  C  C657  1  0.711300  0.169800  0.100600  1.0  0.1553
  C  C658  1  0.567720  0.323800  0.822000  1.0  0.1317
  C  C659  1  0.645430  0.441280  0.143900  1.0  -0.1011
  C  C660  1  0.573480  0.442500  0.797000  1.0  0.1937
  C  C661  1  0.701980  0.057040  0.147000  1.0  0.1423
  C  C662  1  0.627920  0.441300  0.210600  1.0  -0.0226
  C  C663  1  0.559610  0.441300  0.718600  1.0  -0.1802
  C  C664  1  0.720410  0.058000  0.219900  1.0  -0.1701
  C  C665  1  0.079270  0.500000  0.585400  1.0  -0.1357
  C  C666  1  0.049900  0.500000  0.728300  1.0  -0.121
  C  C667  1  0.162170  0.500000  0.360000  1.0  -0.0214
  C  C668  1  0.125030  0.500000  0.212900  1.0  -0.1333
  C  C669  1  0.109300  0.500000  0.126200  1.0  0.7422
  C  C670  1  0.192810  0.500000  0.109500  1.0  -0.2465
  C  C671  1  0.229150  0.500000  0.257200  1.0  -0.1024
  C  C672  1  0.579270  0.000000  0.585400  1.0  -0.1357
  C  C673  1  0.549900  0.000000  0.728300  1.0  -0.121
  C  C674  1  0.662170  0.000000  0.360000  1.0  -0.0214
  C  C675  1  0.625030  0.000000  0.212900  1.0  -0.1333
  C  C676  1  0.609300  0.000000  0.126200  1.0  0.7422
  C  C677  1  0.692810  0.000000  0.109500  1.0  -0.2465
  C  C678  1  0.729150  0.000000  0.257200  1.0  -0.1024
  C  C679  1  0.920730  0.500000  0.414600  1.0  -0.1364
  C  C680  1  0.950100  0.500000  0.271700  1.0  -0.1207
  C  C681  1  0.837830  0.500000  0.640000  1.0  -0.0186
  C  C682  1  0.874970  0.500000  0.787100  1.0  -0.1331
  C  C683  1  0.890700  0.500000  0.873800  1.0  0.7402
  C  C684  1  0.807190  0.500000  0.890500  1.0  -0.2455
  C  C685  1  0.770850  0.500000  0.742800  1.0  -0.105
  C  C686  1  0.420730  0.000000  0.414600  1.0  -0.1364
  C  C687  1  0.450100  0.000000  0.271700  1.0  -0.1207
  C  C688  1  0.337830  0.000000  0.640000  1.0  -0.0186
  C  C689  1  0.374970  0.000000  0.787100  1.0  -0.1331
  C  C690  1  0.390700  0.000000  0.873800  1.0  0.7402
  C  C691  1  0.307190  0.000000  0.890500  1.0  -0.2455
  C  C692  1  0.270850  0.000000  0.742800  1.0  -0.105
  C  C693  1  0.193120  0.000000  0.363500  1.0  -0.1977
  C  C694  1  0.226640  0.000000  0.227500  1.0  -0.1202
  C  C695  1  0.155290  0.000000  0.114700  1.0  -0.0384
  C  C696  1  0.079940  0.000000  0.837700  1.0  -0.2071
  C  C697  1  0.120400  0.000000  0.247000  1.0  -0.1407
  C  C698  1  0.052450  0.000000  0.679000  1.0  -0.1153
  C  C699  1  0.105880  0.000000  0.329200  1.0  0.7718
  C  C700  1  0.693120  0.500000  0.363500  1.0  -0.1977
  C  C701  1  0.726640  0.500000  0.227500  1.0  -0.1202
  C  C702  1  0.655290  0.500000  0.114700  1.0  -0.0384
  C  C703  1  0.579940  0.500000  0.837700  1.0  -0.2071
  C  C704  1  0.620400  0.500000  0.247000  1.0  -0.1407
  C  C705  1  0.552450  0.500000  0.679000  1.0  -0.1153
  C  C706  1  0.605880  0.500000  0.329200  1.0  0.7718
  C  C707  1  0.806880  0.000000  0.636500  1.0  -0.1968
  C  C708  1  0.773360  0.000000  0.772500  1.0  -0.1194
  C  C709  1  0.844710  0.000000  0.885300  1.0  -0.0392
  C  C710  1  0.920060  0.000000  0.162300  1.0  -0.2078
  C  C711  1  0.879600  0.000000  0.753000  1.0  -0.1402
  C  C712  1  0.947550  0.000000  0.321000  1.0  -0.1144
  C  C713  1  0.894120  0.000000  0.670800  1.0  0.7691
  C  C714  1  0.306880  0.500000  0.636500  1.0  -0.1968
  C  C715  1  0.273360  0.500000  0.772500  1.0  -0.1194
  C  C716  1  0.344710  0.500000  0.885300  1.0  -0.0392
  C  C717  1  0.420060  0.500000  0.162300  1.0  -0.2078
  C  C718  1  0.379600  0.500000  0.753000  1.0  -0.1402
  C  C719  1  0.447550  0.500000  0.321000  1.0  -0.1144
  C  C720  1  0.394120  0.500000  0.670800  1.0  0.7691
  N  N721  1  0.083240  0.279830  0.556800  1.0  -0.206
  N  N722  1  0.103310  0.312290  0.512300  1.0  -0.2164
  N  N723  1  0.080720  0.382660  0.585700  1.0  0.0355
  N  N724  1  0.169190  0.199210  0.411580  1.0  -0.2022
  N  N725  1  0.198840  0.217610  0.411800  1.0  -0.2208
  N  N726  1  0.194300  0.118200  0.364900  1.0  0.0305
  N  N727  1  0.920410  0.219700  0.127700  1.0  -0.2597
  N  N728  1  0.101040  0.189080  0.924100  1.0  -0.2709
  N  N729  1  0.166340  0.300530  0.059160  1.0  -0.2138
  N  N730  1  0.195860  0.281030  0.069900  1.0  -0.2109
  N  N731  1  0.080360  0.117050  0.838700  1.0  0.0392
  N  N732  1  0.193110  0.381490  0.110500  1.0  0.0412
  N  N733  1  0.583240  0.779830  0.556800  1.0  -0.206
  N  N734  1  0.603310  0.812290  0.512300  1.0  -0.2164
  N  N735  1  0.580720  0.882660  0.585700  1.0  0.0355
  N  N736  1  0.669190  0.699210  0.411580  1.0  -0.2022
  N  N737  1  0.698840  0.717610  0.411800  1.0  -0.2208
  N  N738  1  0.694300  0.618200  0.364900  1.0  0.0305
  N  N739  1  0.420410  0.719700  0.127700  1.0  -0.2597
  N  N740  1  0.601040  0.689080  0.924100  1.0  -0.2709
  N  N741  1  0.666340  0.800530  0.059160  1.0  -0.2138
  N  N742  1  0.695860  0.781030  0.069900  1.0  -0.2109
  N  N743  1  0.580360  0.617050  0.838700  1.0  0.0392
  N  N744  1  0.693110  0.881490  0.110500  1.0  0.0412
  N  N745  1  0.916760  0.279830  0.443200  1.0  -0.205
  N  N746  1  0.896690  0.312290  0.487700  1.0  -0.2149
  N  N747  1  0.919280  0.382660  0.414300  1.0  0.0338
  N  N748  1  0.830810  0.199210  0.588420  1.0  -0.2023
  N  N749  1  0.801160  0.217610  0.588200  1.0  -0.22
  N  N750  1  0.805700  0.118200  0.635100  1.0  0.0304
  N  N751  1  0.079590  0.219700  0.872300  1.0  -0.2599
  N  N752  1  0.898960  0.189080  0.075900  1.0  -0.2713
  N  N753  1  0.833660  0.300530  0.940840  1.0  -0.2138
  N  N754  1  0.804140  0.281030  0.930100  1.0  -0.2118
  N  N755  1  0.919640  0.117050  0.161300  1.0  0.0399
  N  N756  1  0.806890  0.381490  0.889500  1.0  0.0416
  N  N757  1  0.416760  0.779830  0.443200  1.0  -0.205
  N  N758  1  0.396690  0.812290  0.487700  1.0  -0.2149
  N  N759  1  0.419280  0.882660  0.414300  1.0  0.0338
  N  N760  1  0.330810  0.699210  0.588420  1.0  -0.2023
  N  N761  1  0.301160  0.717610  0.588200  1.0  -0.22
  N  N762  1  0.305700  0.618200  0.635100  1.0  0.0304
  N  N763  1  0.579590  0.719700  0.872300  1.0  -0.2599
  N  N764  1  0.398960  0.689080  0.075900  1.0  -0.2713
  N  N765  1  0.333660  0.800530  0.940840  1.0  -0.2138
  N  N766  1  0.304140  0.781030  0.930100  1.0  -0.2118
  N  N767  1  0.419640  0.617050  0.161300  1.0  0.0399
  N  N768  1  0.306890  0.881490  0.889500  1.0  0.0416
  N  N769  1  0.916760  0.720170  0.443200  1.0  -0.2056
  N  N770  1  0.896690  0.687710  0.487700  1.0  -0.2147
  N  N771  1  0.919280  0.617340  0.414300  1.0  0.0345
  N  N772  1  0.830810  0.800790  0.588420  1.0  -0.2013
  N  N773  1  0.801160  0.782390  0.588200  1.0  -0.2199
  N  N774  1  0.805700  0.881800  0.635100  1.0  0.0303
  N  N775  1  0.079590  0.780300  0.872300  1.0  -0.2568
  N  N776  1  0.898960  0.810920  0.075900  1.0  -0.272
  N  N777  1  0.833660  0.699470  0.940840  1.0  -0.2152
  N  N778  1  0.804140  0.718970  0.930100  1.0  -0.2114
  N  N779  1  0.919640  0.882950  0.161300  1.0  0.0395
  N  N780  1  0.806890  0.618510  0.889500  1.0  0.0418
  N  N781  1  0.416760  0.220170  0.443200  1.0  -0.2056
  N  N782  1  0.396690  0.187710  0.487700  1.0  -0.2147
  N  N783  1  0.419280  0.117340  0.414300  1.0  0.0345
  N  N784  1  0.330810  0.300790  0.588420  1.0  -0.2013
  N  N785  1  0.301160  0.282390  0.588200  1.0  -0.2199
  N  N786  1  0.305700  0.381800  0.635100  1.0  0.0303
  N  N787  1  0.579590  0.280300  0.872300  1.0  -0.2568
  N  N788  1  0.398960  0.310920  0.075900  1.0  -0.272
  N  N789  1  0.333660  0.199470  0.940840  1.0  -0.2152
  N  N790  1  0.304140  0.218970  0.930100  1.0  -0.2114
  N  N791  1  0.419640  0.382950  0.161300  1.0  0.0395
  N  N792  1  0.306890  0.118510  0.889500  1.0  0.0418
  N  N793  1  0.083240  0.720170  0.556800  1.0  -0.2073
  N  N794  1  0.103310  0.687710  0.512300  1.0  -0.2158
  N  N795  1  0.080720  0.617340  0.585700  1.0  0.0359
  N  N796  1  0.169190  0.800790  0.411580  1.0  -0.2019
  N  N797  1  0.198840  0.782390  0.411800  1.0  -0.2205
  N  N798  1  0.194300  0.881800  0.364900  1.0  0.0303
  N  N799  1  0.920410  0.780300  0.127700  1.0  -0.2595
  N  N800  1  0.101040  0.810920  0.924100  1.0  -0.2712
  N  N801  1  0.166340  0.699470  0.059160  1.0  -0.2149
  N  N802  1  0.195860  0.718970  0.069900  1.0  -0.2107
  N  N803  1  0.080360  0.882950  0.838700  1.0  0.0389
  N  N804  1  0.193110  0.618510  0.110500  1.0  0.0414
  N  N805  1  0.583240  0.220170  0.556800  1.0  -0.2073
  N  N806  1  0.603310  0.187710  0.512300  1.0  -0.2158
  N  N807  1  0.580720  0.117340  0.585700  1.0  0.0359
  N  N808  1  0.669190  0.300790  0.411580  1.0  -0.2019
  N  N809  1  0.698840  0.282390  0.411800  1.0  -0.2205
  N  N810  1  0.694300  0.381800  0.364900  1.0  0.0303
  N  N811  1  0.420410  0.280300  0.127700  1.0  -0.2595
  N  N812  1  0.601040  0.310920  0.924100  1.0  -0.2712
  N  N813  1  0.666340  0.199470  0.059160  1.0  -0.2149
  N  N814  1  0.695860  0.218970  0.069900  1.0  -0.2107
  N  N815  1  0.580360  0.382950  0.838700  1.0  0.0389
  N  N816  1  0.693110  0.118510  0.110500  1.0  0.0414
  O  O817  1  0.063320  0.197360  0.420240  1.0  -0.6184
  O  O818  1  0.127820  0.180890  0.537960  1.0  -0.6747
  O  O819  1  0.105750  0.158200  0.650150  1.0  -0.5607
  O  O820  1  0.106770  0.220520  0.368360  1.0  -0.6249
  O  O821  1  0.143080  0.334940  0.374640  1.0  -0.6151
  O  O822  1  0.165180  0.302040  0.549680  1.0  -0.6352
  O  O823  1  0.188580  0.378890  0.399490  1.0  -0.6108
  O  O824  1  0.213460  0.322820  0.569710  1.0  -0.5929
  O  O825  1  0.235850  0.304910  0.318360  1.0  -0.5875
  O  O826  1  0.258050  0.323030  0.441630  1.0  -0.5766
  O  O827  1  0.970040  0.273260  0.277400  1.0  -0.5748
  O  O828  1  0.970110  0.325320  0.156870  1.0  -0.6155
  O  O829  1  0.104630  0.281940  0.074100  1.0  -0.6253
  O  O830  1  0.061230  0.306440  0.003600  1.0  -0.6138
  O  O831  1  0.164190  0.198440  0.925650  1.0  -0.6385
  O  O832  1  0.212540  0.176620  0.931980  1.0  -0.5926
  O  O833  1  0.899060  0.340310  0.211390  1.0  -0.5619
  O  O834  1  0.877160  0.319840  0.087720  1.0  -0.6616
  O  O835  1  0.103160  0.447500  0.091700  1.0  -0.4658
  O  O836  1  0.234730  0.389490  0.943700  1.0  -0.5619
  O  O837  1  0.256190  0.313230  0.871870  1.0  -0.5924
  O  O838  1  0.136640  0.163110  0.083710  1.0  -0.6159
  O  O839  1  0.182670  0.121230  0.092090  1.0  -0.6122
  O  O840  1  0.101050  0.053330  0.360900  1.0  -0.5281
  O  O841  1  0.563320  0.697360  0.420240  1.0  -0.6184
  O  O842  1  0.627820  0.680890  0.537960  1.0  -0.6747
  O  O843  1  0.605750  0.658200  0.650150  1.0  -0.5607
  O  O844  1  0.606770  0.720520  0.368360  1.0  -0.6249
  O  O845  1  0.643080  0.834940  0.374640  1.0  -0.6151
  O  O846  1  0.665180  0.802040  0.549680  1.0  -0.6352
  O  O847  1  0.688580  0.878890  0.399490  1.0  -0.6108
  O  O848  1  0.713460  0.822820  0.569710  1.0  -0.5929
  O  O849  1  0.735850  0.804910  0.318360  1.0  -0.5875
  O  O850  1  0.758050  0.823030  0.441630  1.0  -0.5766
  O  O851  1  0.470040  0.773260  0.277400  1.0  -0.5748
  O  O852  1  0.470110  0.825320  0.156870  1.0  -0.6155
  O  O853  1  0.604630  0.781940  0.074100  1.0  -0.6253
  O  O854  1  0.561230  0.806440  0.003600  1.0  -0.6138
  O  O855  1  0.664190  0.698440  0.925650  1.0  -0.6385
  O  O856  1  0.712540  0.676620  0.931980  1.0  -0.5926
  O  O857  1  0.399060  0.840310  0.211390  1.0  -0.5619
  O  O858  1  0.377160  0.819840  0.087720  1.0  -0.6616
  O  O859  1  0.603160  0.947500  0.091700  1.0  -0.4658
  O  O860  1  0.734730  0.889490  0.943700  1.0  -0.5619
  O  O861  1  0.756190  0.813230  0.871870  1.0  -0.5924
  O  O862  1  0.636640  0.663110  0.083710  1.0  -0.6159
  O  O863  1  0.682670  0.621230  0.092090  1.0  -0.6122
  O  O864  1  0.601050  0.553330  0.360900  1.0  -0.5281
  O  O865  1  0.936680  0.197360  0.579760  1.0  -0.6187
  O  O866  1  0.872180  0.180890  0.462040  1.0  -0.6748
  O  O867  1  0.894250  0.158200  0.349850  1.0  -0.5602
  O  O868  1  0.893230  0.220520  0.631640  1.0  -0.6232
  O  O869  1  0.856920  0.334940  0.625360  1.0  -0.614
  O  O870  1  0.834820  0.302040  0.450320  1.0  -0.6339
  O  O871  1  0.811420  0.378890  0.600510  1.0  -0.6101
  O  O872  1  0.786540  0.322820  0.430290  1.0  -0.592
  O  O873  1  0.764150  0.304910  0.681640  1.0  -0.5876
  O  O874  1  0.741950  0.323030  0.558370  1.0  -0.5773
  O  O875  1  0.029960  0.273260  0.722600  1.0  -0.5744
  O  O876  1  0.029890  0.325320  0.843130  1.0  -0.6162
  O  O877  1  0.895370  0.281940  0.925900  1.0  -0.6245
  O  O878  1  0.938770  0.306440  0.996400  1.0  -0.6142
  O  O879  1  0.835810  0.198440  0.074350  1.0  -0.6393
  O  O880  1  0.787460  0.176620  0.068020  1.0  -0.5927
  O  O881  1  0.100940  0.340310  0.788610  1.0  -0.5619
  O  O882  1  0.122840  0.319840  0.912280  1.0  -0.6627
  O  O883  1  0.896840  0.447500  0.908300  1.0  -0.4642
  O  O884  1  0.765270  0.389490  0.056300  1.0  -0.5624
  O  O885  1  0.743810  0.313230  0.128130  1.0  -0.5937
  O  O886  1  0.863360  0.163110  0.916290  1.0  -0.6159
  O  O887  1  0.817330  0.121230  0.907910  1.0  -0.6138
  O  O888  1  0.898950  0.053330  0.639100  1.0  -0.5306
  O  O889  1  0.436680  0.697360  0.579760  1.0  -0.6187
  O  O890  1  0.372180  0.680890  0.462040  1.0  -0.6748
  O  O891  1  0.394250  0.658200  0.349850  1.0  -0.5602
  O  O892  1  0.393230  0.720520  0.631640  1.0  -0.6232
  O  O893  1  0.356920  0.834940  0.625360  1.0  -0.614
  O  O894  1  0.334820  0.802040  0.450320  1.0  -0.6339
  O  O895  1  0.311420  0.878890  0.600510  1.0  -0.6101
  O  O896  1  0.286540  0.822820  0.430290  1.0  -0.592
  O  O897  1  0.264150  0.804910  0.681640  1.0  -0.5876
  O  O898  1  0.241950  0.823030  0.558370  1.0  -0.5773
  O  O899  1  0.529960  0.773260  0.722600  1.0  -0.5744
  O  O900  1  0.529890  0.825320  0.843130  1.0  -0.6162
  O  O901  1  0.395370  0.781940  0.925900  1.0  -0.6245
  O  O902  1  0.438770  0.806440  0.996400  1.0  -0.6142
  O  O903  1  0.335810  0.698440  0.074350  1.0  -0.6393
  O  O904  1  0.287460  0.676620  0.068020  1.0  -0.5927
  O  O905  1  0.600940  0.840310  0.788610  1.0  -0.5619
  O  O906  1  0.622840  0.819840  0.912280  1.0  -0.6627
  O  O907  1  0.396840  0.947500  0.908300  1.0  -0.4642
  O  O908  1  0.265270  0.889490  0.056300  1.0  -0.5624
  O  O909  1  0.243810  0.813230  0.128130  1.0  -0.5937
  O  O910  1  0.363360  0.663110  0.916290  1.0  -0.6159
  O  O911  1  0.317330  0.621230  0.907910  1.0  -0.6138
  O  O912  1  0.398950  0.553330  0.639100  1.0  -0.5306
  O  O913  1  0.936680  0.802640  0.579760  1.0  -0.6195
  O  O914  1  0.872180  0.819110  0.462040  1.0  -0.6752
  O  O915  1  0.894250  0.841800  0.349850  1.0  -0.5606
  O  O916  1  0.893230  0.779480  0.631640  1.0  -0.6234
  O  O917  1  0.856920  0.665060  0.625360  1.0  -0.6141
  O  O918  1  0.834820  0.697960  0.450320  1.0  -0.6348
  O  O919  1  0.811420  0.621110  0.600510  1.0  -0.6097
  O  O920  1  0.786540  0.677180  0.430290  1.0  -0.5917
  O  O921  1  0.764150  0.695090  0.681640  1.0  -0.5872
  O  O922  1  0.741950  0.676970  0.558370  1.0  -0.5769
  O  O923  1  0.029960  0.726740  0.722600  1.0  -0.5749
  O  O924  1  0.029890  0.674680  0.843130  1.0  -0.6167
  O  O925  1  0.895370  0.718060  0.925900  1.0  -0.6246
  O  O926  1  0.938770  0.693560  0.996400  1.0  -0.6143
  O  O927  1  0.835810  0.801560  0.074350  1.0  -0.6383
  O  O928  1  0.787460  0.823380  0.068020  1.0  -0.5931
  O  O929  1  0.100940  0.659690  0.788610  1.0  -0.5622
  O  O930  1  0.122840  0.680160  0.912280  1.0  -0.6622
  O  O931  1  0.896840  0.552500  0.908300  1.0  -0.4647
  O  O932  1  0.765270  0.610510  0.056300  1.0  -0.561
  O  O933  1  0.743810  0.686770  0.128130  1.0  -0.5938
  O  O934  1  0.863360  0.836890  0.916290  1.0  -0.6156
  O  O935  1  0.817330  0.878770  0.907910  1.0  -0.6139
  O  O936  1  0.898950  0.946670  0.639100  1.0  -0.5303
  O  O937  1  0.436680  0.302640  0.579760  1.0  -0.6195
  O  O938  1  0.372180  0.319110  0.462040  1.0  -0.6752
  O  O939  1  0.394250  0.341800  0.349850  1.0  -0.5606
  O  O940  1  0.393230  0.279480  0.631640  1.0  -0.6234
  O  O941  1  0.356920  0.165060  0.625360  1.0  -0.6141
  O  O942  1  0.334820  0.197960  0.450320  1.0  -0.6348
  O  O943  1  0.311420  0.121110  0.600510  1.0  -0.6097
  O  O944  1  0.286540  0.177180  0.430290  1.0  -0.5917
  O  O945  1  0.264150  0.195090  0.681640  1.0  -0.5872
  O  O946  1  0.241950  0.176970  0.558370  1.0  -0.5769
  O  O947  1  0.529960  0.226740  0.722600  1.0  -0.5749
  O  O948  1  0.529890  0.174680  0.843130  1.0  -0.6167
  O  O949  1  0.395370  0.218060  0.925900  1.0  -0.6246
  O  O950  1  0.438770  0.193560  0.996400  1.0  -0.6143
  O  O951  1  0.335810  0.301560  0.074350  1.0  -0.6383
  O  O952  1  0.287460  0.323380  0.068020  1.0  -0.5931
  O  O953  1  0.600940  0.159690  0.788610  1.0  -0.5622
  O  O954  1  0.622840  0.180160  0.912280  1.0  -0.6622
  O  O955  1  0.396840  0.052500  0.908300  1.0  -0.4647
  O  O956  1  0.265270  0.110510  0.056300  1.0  -0.561
  O  O957  1  0.243810  0.186770  0.128130  1.0  -0.5938
  O  O958  1  0.363360  0.336890  0.916290  1.0  -0.6156
  O  O959  1  0.317330  0.378770  0.907910  1.0  -0.6139
  O  O960  1  0.398950  0.446670  0.639100  1.0  -0.5303
  O  O961  1  0.063320  0.802640  0.420240  1.0  -0.6198
  O  O962  1  0.127820  0.819110  0.537960  1.0  -0.6759
  O  O963  1  0.105750  0.841800  0.650150  1.0  -0.561
  O  O964  1  0.106770  0.779480  0.368360  1.0  -0.6254
  O  O965  1  0.143080  0.665060  0.374640  1.0  -0.6151
  O  O966  1  0.165180  0.697960  0.549680  1.0  -0.636
  O  O967  1  0.188580  0.621110  0.399490  1.0  -0.6103
  O  O968  1  0.213460  0.677180  0.569710  1.0  -0.5923
  O  O969  1  0.235850  0.695090  0.318360  1.0  -0.5873
  O  O970  1  0.258050  0.676970  0.441630  1.0  -0.5774
  O  O971  1  0.970040  0.726740  0.277400  1.0  -0.5753
  O  O972  1  0.970110  0.674680  0.156870  1.0  -0.6162
  O  O973  1  0.104630  0.718060  0.074100  1.0  -0.6254
  O  O974  1  0.061230  0.693560  0.003600  1.0  -0.6137
  O  O975  1  0.164190  0.801560  0.925650  1.0  -0.638
  O  O976  1  0.212540  0.823380  0.931980  1.0  -0.5924
  O  O977  1  0.899060  0.659690  0.211390  1.0  -0.5621
  O  O978  1  0.877160  0.680160  0.087720  1.0  -0.6628
  O  O979  1  0.103160  0.552500  0.091700  1.0  -0.4679
  O  O980  1  0.234730  0.610510  0.943700  1.0  -0.5593
  O  O981  1  0.256190  0.686770  0.871870  1.0  -0.5923
  O  O982  1  0.136640  0.836890  0.083710  1.0  -0.6156
  O  O983  1  0.182670  0.878770  0.092090  1.0  -0.6123
  O  O984  1  0.101050  0.946670  0.360900  1.0  -0.528
  O  O985  1  0.563320  0.302640  0.420240  1.0  -0.6198
  O  O986  1  0.627820  0.319110  0.537960  1.0  -0.6759
  O  O987  1  0.605750  0.341800  0.650150  1.0  -0.561
  O  O988  1  0.606770  0.279480  0.368360  1.0  -0.6254
  O  O989  1  0.643080  0.165060  0.374640  1.0  -0.6151
  O  O990  1  0.665180  0.197960  0.549680  1.0  -0.636
  O  O991  1  0.688580  0.121110  0.399490  1.0  -0.6103
  O  O992  1  0.713460  0.177180  0.569710  1.0  -0.5923
  O  O993  1  0.735850  0.195090  0.318360  1.0  -0.5873
  O  O994  1  0.758050  0.176970  0.441630  1.0  -0.5774
  O  O995  1  0.470040  0.226740  0.277400  1.0  -0.5753
  O  O996  1  0.470110  0.174680  0.156870  1.0  -0.6162
  O  O997  1  0.604630  0.218060  0.074100  1.0  -0.6254
  O  O998  1  0.561230  0.193560  0.003600  1.0  -0.6137
  O  O999  1  0.664190  0.301560  0.925650  1.0  -0.638
  O  O1000  1  0.712540  0.323380  0.931980  1.0  -0.5924
  O  O1001  1  0.399060  0.159690  0.211390  1.0  -0.5621
  O  O1002  1  0.377160  0.180160  0.087720  1.0  -0.6628
  O  O1003  1  0.603160  0.052500  0.091700  1.0  -0.4679
  O  O1004  1  0.734730  0.110510  0.943700  1.0  -0.5593
  O  O1005  1  0.756190  0.186770  0.871870  1.0  -0.5923
  O  O1006  1  0.636640  0.336890  0.083710  1.0  -0.6156
  O  O1007  1  0.682670  0.378770  0.092090  1.0  -0.6123
  O  O1008  1  0.601050  0.446670  0.360900  1.0  -0.528
