# generated using pymatgen
data_Dy52Zn3H220C320(N23O114)2
_symmetry_space_group_name_H-M   'P 1'
_cell_length_a   21.10700000
_cell_length_b   21.18500000
_cell_length_c   36.32300000
_cell_angle_alpha   89.00100000
_cell_angle_beta   82.48600000
_cell_angle_gamma   68.35900000
_symmetry_Int_Tables_number   1
_chemical_formula_structural   Dy52Zn3H220C320(N23O114)2
_chemical_formula_sum   'Dy52 Zn3 H220 C320 N46 O228'
_cell_volume   14959.05270595
_cell_formula_units_Z   1
loop_
 _symmetry_equiv_pos_site_id
 _symmetry_equiv_pos_as_xyz
  1  'x, y, z'
loop_
 _atom_site_type_symbol
 _atom_site_label
 _atom_site_symmetry_multiplicity
 _atom_site_fract_x
 _atom_site_fract_y
 _atom_site_fract_z
 _atom_site_occupancy
 _atom_site_charge
  Dy  Dy1  1  0.677710  0.314900  0.099880  1.0  2.2349
  Dy  Dy2  1  0.528620  0.563180  0.722850  1.0  2.2489
  Dy  Dy3  1  0.522550  0.860100  0.792840  1.0  2.2593
  Dy  Dy4  1  0.677510  0.255340  0.378920  1.0  2.2411
  Dy  Dy5  1  0.860360  0.207750  0.144640  1.0  2.2117
  Dy  Dy6  1  0.458770  0.761960  0.862570  1.0  2.2297
  Dy  Dy7  1  0.355900  0.950030  0.851660  1.0  2.2362
  Dy  Dy8  1  0.215590  0.064600  0.794000  1.0  2.2517
  Dy  Dy9  1  0.728070  0.404480  0.321090  1.0  2.2725
  Dy  Dy10  1  0.887850  0.989210  0.268050  1.0  2.2568
  Dy  Dy11  1  0.077110  0.851750  0.764560  1.0  2.2518
  Dy  Dy12  1  0.546000  0.405050  0.776050  1.0  2.0696
  Dy  Dy13  1  0.994930  0.746750  0.819870  1.0  2.2401
  Dy  Dy14  1  0.454000  0.594950  0.223950  1.0  2.0703
  Dy  Dy15  1  0.322490  0.744660  0.621080  1.0  2.2409
  Dy  Dy16  1  0.644100  0.049970  0.148340  1.0  2.2326
  Dy  Dy17  1  0.500100  0.690380  0.644250  1.0  2.2115
  Dy  Dy18  1  0.274590  0.039400  0.691370  1.0  2.2768
  Dy  Dy19  1  0.477450  0.139900  0.207160  1.0  2.2597
  Dy  Dy20  1  0.109940  0.187190  0.729460  1.0  2.2826
  Dy  Dy21  1  0.394840  0.876820  0.630780  1.0  2.2609
  Dy  Dy22  1  0.820190  0.334640  0.222510  1.0  2.2142
  Dy  Dy23  1  0.139640  0.792250  0.855360  1.0  2.215
  Dy  Dy24  1  0.005070  0.253250  0.180130  1.0  2.2392
  Dy  Dy25  1  0.322290  0.685100  0.900120  1.0  2.2345
  Dy  Dy26  1  0.890060  0.812810  0.270540  1.0  2.2831
  Dy  Dy27  1  0.468660  0.964290  0.698410  1.0  2.2441
  Dy  Dy28  1  0.833370  0.029550  0.119890  1.0  2.2296
  Dy  Dy29  1  0.618300  0.693910  0.716090  1.0  2.2538
  Dy  Dy30  1  0.271930  0.595520  0.678910  1.0  2.2685
  Dy  Dy31  1  0.471380  0.436820  0.277150  1.0  2.2476
  Dy  Dy32  1  0.541230  0.238040  0.137430  1.0  2.228
  Dy  Dy33  1  0.524040  0.417880  0.173280  1.0  2.2537
  Dy  Dy34  1  0.511250  0.895480  0.900060  1.0  2.229
  Dy  Dy35  1  0.725410  0.960600  0.308630  1.0  2.2765
  Dy  Dy36  1  0.922890  0.148250  0.235440  1.0  2.2507
  Dy  Dy37  1  0.784410  0.935400  0.206000  1.0  2.2518
  Dy  Dy38  1  0.166630  0.970450  0.880110  1.0  2.234
  Dy  Dy39  1  0.368840  0.535910  0.766030  1.0  2.271
  Dy  Dy40  1  0.475960  0.582120  0.826720  1.0  2.2549
  Dy  Dy41  1  0.112150  0.010790  0.731950  1.0  2.2563
  Dy  Dy42  1  0.873530  0.126550  0.340870  1.0  2.2148
  Dy  Dy43  1  0.488750  0.104520  0.099940  1.0  2.2275
  Dy  Dy44  1  0.605160  0.123180  0.369220  1.0  2.2623
  Dy  Dy45  1  0.631160  0.464090  0.233970  1.0  2.2732
  Dy  Dy46  1  0.381700  0.306090  0.283910  1.0  2.2544
  Dy  Dy47  1  0.179810  0.665360  0.777490  1.0  2.2155
  Dy  Dy48  1  0.530000  0.241060  0.451420  1.0  2.1619
  Dy  Dy49  1  0.499900  0.309620  0.355750  1.0  2.2137
  Dy  Dy50  1  0.126470  0.873450  0.659130  1.0  2.2154
  Dy  Dy51  1  0.470000  0.758940  0.548580  1.0  2.1885
  Dy  Dy52  1  0.531340  0.035710  0.301590  1.0  2.2439
  Zn  Zn53  1  0.892340  0.284340  0.572330  1.0  0.5084
  Zn  Zn54  1  0.107660  0.715660  0.427670  1.0  0.5164
  Zn  Zn55  1  0.000000  0.500000  0.000000  1.0  0.7783
  H  H56  1  0.559300  0.053000  0.820800  1.0  0.0775
  H  H57  1  0.965800  0.300500  0.069100  1.0  0.1023
  H  H58  1  0.291300  0.345000  0.463100  1.0  0.14
  H  H59  1  0.125400  0.921500  0.009000  1.0  0.0546
  H  H60  1  0.416600  0.107000  0.504900  1.0  0.102
  H  H61  1  0.034200  0.699500  0.930900  1.0  0.1023
  H  H62  1  0.530800  0.209000  0.607300  1.0  0.0767
  H  H63  1  0.871500  0.161700  0.593500  1.0  0.0649
  H  H64  1  0.726000  0.606300  0.570200  1.0  0.1349
  H  H65  1  0.600600  0.645600  0.966300  1.0  0.1377
  H  H66  1  0.263500  0.710700  0.516400  1.0  0.0903
  H  H67  1  0.911200  0.148800  0.806100  1.0  0.1109
  H  H68  1  0.567300  0.877200  0.137400  1.0  0.1077
  H  H69  1  0.823900  0.776300  0.853500  1.0  0.0488
  H  H70  1  0.289100  0.374600  0.735100  1.0  0.0899
  H  H71  1  0.578700  0.847900  0.250900  1.0  0.0448
  H  H72  1  0.564900  0.462000  0.454800  1.0  0.1072
  H  H73  1  0.372400  0.371000  0.076100  1.0  0.114
  H  H74  1  0.653400  0.780400  0.010500  1.0  0.0676
  H  H75  1  0.977600  0.426000  0.867000  1.0  0.059
  H  H76  1  0.530300  0.766700  0.243400  1.0  0.1004
  H  H77  1  0.852700  0.770700  0.110000  1.0  0.1079
  H  H78  1  0.291300  0.315700  0.423800  1.0  0.1435
  H  H79  1  0.752700  0.712900  0.265000  1.0  0.0608
  H  H80  1  0.796200  0.859200  0.414500  1.0  0.0672
  H  H81  1  0.767300  0.893300  0.060200  1.0  0.0784
  H  H82  1  0.033200  0.838000  0.073300  1.0  0.1174
  H  H83  1  0.378700  0.831900  0.273900  1.0  0.0487
  H  H84  1  0.707800  0.661000  0.161400  1.0  0.0501
  H  H85  1  0.321700  0.184800  0.613300  1.0  0.0963
  H  H86  1  0.082500  0.478400  0.904500  1.0  0.0519
  H  H87  1  0.501900  0.016000  0.584300  1.0  0.095
  H  H88  1  0.418900  0.372400  0.658900  1.0  0.1023
  H  H89  1  0.088800  0.851200  0.193900  1.0  0.1107
  H  H90  1  0.976600  0.807600  0.070200  1.0  0.1297
  H  H91  1  0.739900  0.473000  0.769400  1.0  0.1027
  H  H92  1  0.754000  0.286400  0.546800  1.0  0.0826
  H  H93  1  0.357300  0.588200  0.477800  1.0  0.0555
  H  H94  1  0.642700  0.411800  0.522200  1.0  0.0553
  H  H95  1  0.821400  0.692700  0.738000  1.0  0.1078
  H  H96  1  0.176100  0.223700  0.146500  1.0  0.0487
  H  H97  1  0.023300  0.959500  0.047800  1.0  0.1054
  H  H98  1  0.972100  0.653800  0.180000  1.0  0.0923
  H  H99  1  0.506900  0.851300  0.342400  1.0  0.0862
  H  H100  1  0.196400  0.581600  0.398000  1.0  0.0624
  H  H101  1  0.312000  0.440100  0.879700  1.0  0.1008
  H  H102  1  0.247300  0.287100  0.735000  1.0  0.0602
  H  H103  1  0.742600  0.605800  0.378700  1.0  0.0893
  H  H104  1  0.469700  0.233300  0.756600  1.0  0.1012
  H  H105  1  0.586500  0.148500  0.832000  1.0  0.0837
  H  H106  1  0.710900  0.625400  0.264900  1.0  0.0897
  H  H107  1  0.029400  0.208000  0.596700  1.0  0.0552
  H  H108  1  0.202700  0.130200  0.227700  1.0  0.0518
  H  H109  1  0.548100  0.777600  0.122800  1.0  0.0512
  H  H110  1  0.970600  0.792000  0.403300  1.0  0.0551
  H  H111  1  0.797900  0.429300  0.031900  1.0  0.0876
  H  H112  1  0.175500  0.207800  0.973300  1.0  0.0814
  H  H113  1  0.440700  0.947000  0.179200  1.0  0.0766
  H  H114  1  0.246000  0.713600  0.453200  1.0  0.0831
  H  H115  1  0.033300  0.146600  0.042500  1.0  0.1045
  H  H116  1  0.882800  0.258100  0.722900  1.0  0.0594
  H  H117  1  0.446800  0.681500  0.414800  1.0  0.037
  H  H118  1  0.261200  0.509900  0.579000  1.0  0.1116
  H  H119  1  0.731500  0.470400  0.656500  1.0  0.0958
  H  H120  1  0.234000  0.703700  0.268700  1.0  0.0823
  H  H121  1  0.399400  0.354400  0.033700  1.0  0.1352
  H  H122  1  0.474600  0.435100  0.513700  1.0  0.0412
  H  H123  1  0.583400  0.893000  0.495100  1.0  0.1022
  H  H124  1  0.186900  0.013400  0.490500  1.0  0.1206
  H  H125  1  0.225200  0.887200  0.289700  1.0  0.0744
  H  H126  1  0.451900  0.222400  0.877200  1.0  0.0517
  H  H127  1  0.977000  0.632800  0.959300  1.0  0.0552
  H  H128  1  0.151600  0.474400  0.740500  1.0  0.1013
  H  H129  1  0.869800  0.808500  0.457500  1.0  0.0922
  H  H130  1  0.204500  0.787600  0.179500  1.0  0.0789
  H  H131  1  0.955200  0.207200  0.505000  1.0  0.0968
  H  H132  1  0.549300  0.089400  0.556300  1.0  0.0426
  H  H133  1  0.734300  0.609500  0.069000  1.0  0.0568
  H  H134  1  0.688200  0.593900  0.451500  1.0  0.047
  H  H135  1  0.057100  0.537200  0.221400  1.0  0.0466
  H  H136  1  0.708700  0.655000  0.536900  1.0  0.1411
  H  H137  1  0.023400  0.192400  0.929800  1.0  0.128
  H  H138  1  0.848400  0.525600  0.259500  1.0  0.1034
  H  H139  1  0.421300  0.152100  0.749100  1.0  0.0445
  H  H140  1  0.557000  0.525900  0.041300  1.0  0.1468
  H  H141  1  0.803600  0.418400  0.602000  1.0  0.0628
  H  H142  1  0.068200  0.595300  0.317100  1.0  0.0543
  H  H143  1  0.581100  0.627600  0.341100  1.0  0.1024
  H  H144  1  0.907000  0.920400  0.691000  1.0  0.1018
  H  H145  1  0.069800  0.832500  0.554400  1.0  0.0988
  H  H146  1  0.599400  0.075800  0.712000  1.0  0.1125
  H  H147  1  0.203800  0.140800  0.585500  1.0  0.0665
  H  H148  1  0.081500  0.110000  0.625200  1.0  0.0875
  H  H149  1  0.257400  0.394200  0.621300  1.0  0.089
  H  H150  1  0.635200  0.968100  0.473500  1.0  0.0442
  H  H151  1  0.450700  0.910600  0.443700  1.0  0.0424
  H  H152  1  0.443000  0.474100  0.958700  1.0  0.1483
  H  H153  1  0.027900  0.346200  0.820000  1.0  0.0927
  H  H154  1  0.250900  0.947500  0.173600  1.0  0.0524
  H  H155  1  0.435100  0.538000  0.545200  1.0  0.1072
  H  H156  1  0.733300  0.753400  0.182400  1.0  0.0986
  H  H157  1  0.066100  0.950500  0.391000  1.0  0.0899
  H  H158  1  0.650600  0.639800  0.336200  1.0  0.0972
  H  H159  1  0.859500  0.985200  0.804800  1.0  0.0909
  H  H160  1  0.274000  0.393700  0.429800  1.0  0.1317
  H  H161  1  0.117200  0.741900  0.277100  1.0  0.0593
  H  H162  1  0.859400  0.489300  0.004000  1.0  0.0874
  H  H163  1  0.140600  0.510700  0.996000  1.0  0.0877
  H  H164  1  0.126100  0.380500  0.728400  1.0  0.0434
  H  H165  1  0.513900  0.453800  0.933300  1.0  0.153
  H  H166  1  0.377000  0.381500  0.625300  1.0  0.0893
  H  H167  1  0.364100  0.241700  0.565600  1.0  0.0558
  H  H168  1  0.738800  0.490100  0.421000  1.0  0.1124
  H  H169  1  0.525400  0.564900  0.486300  1.0  0.0412
  H  H170  1  0.961500  0.559100  0.793200  1.0  0.0856
  H  H171  1  0.486100  0.546200  0.066700  1.0  0.1474
  H  H172  1  0.933900  0.049500  0.609000  1.0  0.09
  H  H173  1  0.023000  0.367200  0.040700  1.0  0.0538
  H  H174  1  0.873900  0.619500  0.271600  1.0  0.0426
  H  H175  1  0.251200  0.958600  0.542000  1.0  0.0825
  H  H176  1  0.736500  0.289300  0.483600  1.0  0.0905
  H  H177  1  0.493100  0.148700  0.657600  1.0  0.086
  H  H178  1  0.795500  0.212400  0.820500  1.0  0.0785
  H  H179  1  0.286900  0.419000  0.178500  1.0  0.1383
  H  H180  1  0.364800  0.031900  0.526500  1.0  0.0438
  H  H181  1  0.150200  0.334900  0.555200  1.0  0.0891
  H  H182  1  0.311800  0.406100  0.548500  1.0  0.0473
  H  H183  1  0.268500  0.529600  0.343500  1.0  0.0951
  H  H184  1  0.708700  0.684300  0.576200  1.0  0.1448
  H  H185  1  0.171500  0.635600  0.232400  1.0  0.0645
  H  H186  1  0.586600  0.888500  0.042600  1.0  0.1104
  H  H187  1  0.130200  0.191500  0.542500  1.0  0.0924
  H  H188  1  0.413500  0.851500  0.168000  1.0  0.0841
  H  H189  1  0.202100  0.570700  0.968100  1.0  0.0869
  H  H190  1  0.265700  0.390500  0.931000  1.0  0.0567
  H  H191  1  0.010500  0.799800  0.106800  1.0  0.1358
  H  H192  1  0.387400  0.501600  0.435900  1.0  0.0887
  H  H193  1  0.482700  0.524100  0.955000  1.0  0.145
  H  H194  1  0.400600  0.924200  0.288000  1.0  0.1123
  H  H195  1  0.102000  0.927200  0.302200  1.0  0.0951
  H  H196  1  0.774800  0.112800  0.710300  1.0  0.0742
  H  H197  1  0.349400  0.360200  0.663800  1.0  0.0971
  H  H198  1  0.128500  0.838300  0.406500  1.0  0.0649
  H  H199  1  0.147300  0.229300  0.890000  1.0  0.1072
  H  H200  1  0.192100  0.032000  0.335300  1.0  0.0539
  H  H201  1  0.290300  0.438700  0.136700  1.0  0.1181
  H  H202  1  0.022400  0.574000  0.133000  1.0  0.0593
  H  H203  1  0.807900  0.968000  0.664700  1.0  0.0528
  H  H204  1  0.874600  0.078500  0.991000  1.0  0.0562
  H  H205  1  0.749100  0.052500  0.826400  1.0  0.0533
  H  H206  1  0.345900  0.325400  0.053600  1.0  0.1342
  H  H207  1  0.917500  0.521600  0.095500  1.0  0.0516
  H  H208  1  0.966800  0.162000  0.926700  1.0  0.1165
  H  H209  1  0.635900  0.758300  0.434400  1.0  0.0558
  H  H210  1  0.623000  0.618500  0.374700  1.0  0.0892
  H  H211  1  0.942900  0.462800  0.778600  1.0  0.047
  H  H212  1  0.931800  0.404700  0.682900  1.0  0.0523
  H  H213  1  0.654100  0.674600  0.946400  1.0  0.1379
  H  H214  1  0.780000  0.251300  0.617500  1.0  0.0617
  H  H215  1  0.883100  0.726200  0.395900  1.0  0.0827
  H  H216  1  0.116900  0.273800  0.604100  1.0  0.0818
  H  H217  1  0.093000  0.079600  0.309000  1.0  0.1017
  H  H218  1  0.621300  0.168100  0.726100  1.0  0.0491
  H  H219  1  0.678300  0.815200  0.386700  1.0  0.0948
  H  H220  1  0.156600  0.490800  0.323500  1.0  0.1042
  H  H221  1  0.685900  0.303400  0.665600  1.0  0.1014
  H  H222  1  0.553200  0.318500  0.585200  1.0  0.0363
  H  H223  1  0.498100  0.984000  0.415700  1.0  0.0947
  H  H224  1  0.989500  0.200200  0.893200  1.0  0.1379
  H  H225  1  0.280800  0.201500  0.165700  1.0  0.1058
  H  H226  1  0.797300  0.869800  0.772300  1.0  0.0521
  H  H227  1  0.517300  0.475900  0.045000  1.0  0.1445
  H  H228  1  0.220000  0.748700  0.382500  1.0  0.0612
  H  H229  1  0.469200  0.791000  0.392700  1.0  0.0761
  H  H230  1  0.432700  0.122800  0.862600  1.0  0.1079
  H  H231  1  0.266700  0.246600  0.817600  1.0  0.0988
  H  H232  1  0.849800  0.665100  0.444800  1.0  0.0908
  H  H233  1  0.292200  0.339000  0.838600  1.0  0.0513
  H  H234  1  0.766000  0.296300  0.731300  1.0  0.0812
  H  H235  1  0.688000  0.559900  0.120300  1.0  0.1008
  H  H236  1  0.976700  0.040500  0.952200  1.0  0.1056
  H  H237  1  0.702400  0.635500  0.852700  1.0  0.1216
  H  H238  1  0.178600  0.307300  0.262000  1.0  0.1084
  H  H239  1  0.612600  0.498400  0.564100  1.0  0.089
  H  H240  1  0.297700  0.080200  0.254900  1.0  0.0446
  H  H241  1  0.920800  0.679000  0.760700  1.0  0.0674
  H  H242  1  0.079200  0.321000  0.239300  1.0  0.0677
  H  H243  1  0.719200  0.798500  0.834300  1.0  0.1055
  H  H244  1  0.824500  0.792200  0.026700  1.0  0.0812
  H  H245  1  0.828500  0.364400  0.767600  1.0  0.065
  H  H246  1  0.930200  0.167500  0.445600  1.0  0.099
  H  H247  1  0.096400  0.312600  0.933600  1.0  0.0657
  H  H248  1  0.813100  0.986600  0.509500  1.0  0.1233
  H  H249  1  0.314100  0.696600  0.334400  1.0  0.1018
  H  H250  1  0.121300  0.531800  0.855500  1.0  0.0986
  H  H251  1  0.709700  0.561300  0.863300  1.0  0.1202
  H  H252  1  0.713100  0.581000  0.821500  1.0  0.1378
  H  H253  1  0.123500  0.104200  0.997200  1.0  0.0856
  H  H254  1  0.479200  0.600800  0.368700  1.0  0.1121
  H  H255  1  0.903600  0.687400  0.066400  1.0  0.0652
  H  H256  1  0.898000  0.072800  0.697800  1.0  0.0947
  H  H257  1  0.966700  0.853400  0.957500  1.0  0.1048
  H  H258  1  0.520800  0.399200  0.631300  1.0  0.1131
  H  H259  1  0.232700  0.106700  0.939800  1.0  0.0787
  H  H260  1  0.702300  0.919800  0.745100  1.0  0.0442
  H  H261  1  0.627600  0.629000  0.923900  1.0  0.1135
  H  H262  1  0.876500  0.895800  0.002800  1.0  0.0853
  H  H263  1  0.918500  0.890000  0.374800  1.0  0.0872
  H  H264  1  0.346600  0.219600  0.989500  1.0  0.0673
  H  H265  1  0.038500  0.440900  0.206800  1.0  0.0856
  H  H266  1  0.782300  0.662000  0.331000  1.0  0.0647
  H  H267  1  0.297600  0.364500  0.147300  1.0  0.1223
  H  H268  1  0.413400  0.111500  0.957400  1.0  0.1096
  H  H269  1  0.843400  0.509200  0.676500  1.0  0.1037
  H  H270  1  0.140500  0.014800  0.195200  1.0  0.0919
  H  H271  1  0.217700  0.338000  0.669000  1.0  0.0646
  H  H272  1  0.260100  0.527000  0.230600  1.0  0.1023
  H  H273  1  0.748800  0.041400  0.458000  1.0  0.0835
  H  H274  1  0.878700  0.468200  0.144500  1.0  0.0985
  H  H275  1  0.044800  0.792800  0.495000  1.0  0.0953
  C  C276  1  0.190300  0.807200  0.574600  1.0  0.7084
  C  C277  1  0.625600  0.025800  0.236800  1.0  0.866
  C  C278  1  0.685500  0.398500  0.410000  1.0  0.6846
  C  C279  1  0.676800  0.705100  0.159300  1.0  0.1474
  C  C280  1  0.563600  0.991400  0.757900  1.0  0.6879
  C  C281  1  0.823200  0.760400  0.829900  1.0  0.1495
  C  C282  1  0.809100  0.165300  0.818700  1.0  0.1249
  C  C283  1  0.176800  0.239600  0.170100  1.0  0.1533
  C  C284  1  0.166000  0.297600  0.640300  1.0  -0.1052
  C  C285  1  0.606700  0.978700  0.496100  1.0  0.1682
  C  C286  1  0.575100  0.753800  0.248800  1.0  -0.1573
  C  C287  1  0.623900  0.932600  0.873900  1.0  0.7017
  C  C288  1  0.108200  0.473600  0.748500  1.0  -0.2007
  C  C289  1  0.136100  0.111800  0.265100  1.0  -0.0384
  C  C290  1  0.863900  0.888200  0.734900  1.0  -0.0356
  C  C291  1  0.896200  0.924500  0.990800  1.0  0.1243
  C  C292  1  0.692100  0.596900  0.846400  1.0  -0.4168
  C  C293  1  0.735000  0.551000  0.115700  1.0  -0.1377
  C  C294  1  0.954300  0.081800  0.607700  1.0  -0.1449
  C  C295  1  0.929600  0.410900  0.225000  1.0  0.683
  C  C296  1  0.976200  0.380100  0.039400  1.0  0.1376
  C  C297  1  0.791400  0.250400  0.726100  1.0  0.1094
  C  C298  1  0.870700  0.530100  0.100200  1.0  0.1603
  C  C299  1  0.366300  0.029600  0.923900  1.0  0.6933
  C  C300  1  0.198500  0.113700  0.567100  1.0  -0.1335
  C  C301  1  0.726500  0.569900  0.720400  1.0  0.6572
  C  C302  1  0.265000  0.449000  0.884300  1.0  -0.1368
  C  C303  1  0.055900  0.529000  0.767700  1.0  -0.0695
  C  C304  1  0.896000  0.032300  0.985100  1.0  0.1939
  C  C305  1  0.393300  0.021300  0.503900  1.0  0.1681
  C  C306  1  0.616900  0.684100  0.252300  1.0  -0.1183
  C  C307  1  0.741800  0.872200  0.049900  1.0  -0.0403
  C  C308  1  0.974300  0.012600  0.790300  1.0  0.6389
  C  C309  1  0.573600  0.075000  0.800900  1.0  -0.1198
  C  C310  1  0.809100  0.960100  0.490400  1.0  0.1339
  C  C311  1  0.663300  0.542500  0.337400  1.0  0.6538
  C  C312  1  0.317300  0.330300  0.739300  1.0  -0.1531
  C  C313  1  0.769200  0.956200  0.431100  1.0  0.0144
  C  C314  1  0.461500  0.479500  0.369100  1.0  0.6942
  C  C315  1  0.576100  0.931900  0.509100  1.0  -0.203
  C  C316  1  0.899800  0.058700  0.804400  1.0  -0.0955
  C  C317  1  0.404700  0.158800  0.639600  1.0  -0.0762
  C  C318  1  0.527900  0.509200  0.057900  1.0  -0.4183
  C  C319  1  0.190900  0.834700  0.181300  1.0  0.125
  C  C320  1  0.383400  0.590400  0.455500  1.0  0.17
  C  C321  1  0.384900  0.337000  0.056500  1.0  -0.3719
  C  C322  1  0.554800  0.727900  0.933500  1.0  0.1109
  C  C323  1  0.778900  0.261900  0.490300  1.0  -0.0786
  C  C324  1  0.917300  0.149600  0.597000  1.0  0.1246
  C  C325  1  0.903000  0.161100  0.713600  1.0  -0.0911
  C  C326  1  0.866000  0.918100  0.702700  1.0  -0.1698
  C  C327  1  0.211500  0.728600  0.473400  1.0  -1e-04
  C  C328  1  0.441300  0.536400  0.397400  1.0  -0.0546
  C  C329  1  0.390600  0.855800  0.254200  1.0  0.157
  C  C330  1  0.848500  0.031300  0.809400  1.0  -0.1718
  C  C331  1  0.223300  0.189300  0.969800  1.0  0.1157
  C  C332  1  0.057900  0.661200  0.943500  1.0  -0.1635
  C  C333  1  0.694800  0.760800  0.170600  1.0  -0.1394
  C  C334  1  0.675700  0.805100  0.020700  1.0  0.1216
  C  C335  1  0.744200  0.918400  0.732700  1.0  0.1614
  C  C336  1  0.663400  0.565500  0.452600  1.0  0.1581
  C  C337  1  0.558600  0.048100  0.544100  1.0  0.1742
  C  C338  1  0.003700  0.476400  0.220600  1.0  -0.1479
  C  C339  1  0.788500  0.271400  0.526600  1.0  -0.0005
  C  C340  1  0.784100  0.392900  0.617400  1.0  0.1506
  C  C341  1  0.827000  0.213900  0.460300  1.0  -0.1519
  C  C342  1  0.416100  0.226900  0.863700  1.0  0.1577
  C  C343  1  0.015900  0.058800  0.050800  1.0  -0.0932
  C  C344  1  0.770600  0.994400  0.458200  1.0  -0.1086
  C  C345  1  0.942100  0.338800  0.056500  1.0  -0.1622
  C  C346  1  0.835100  0.665500  0.421700  1.0  0.1173
  C  C347  1  0.273500  0.430100  0.279600  1.0  0.6574
  C  C348  1  0.152100  0.502700  0.870000  1.0  -0.1422
  C  C349  1  0.118000  0.219600  0.819200  1.0  0.6737
  C  C350  1  0.588300  0.631800  0.247300  1.0  0.6711
  C  C351  1  0.892200  0.418700  0.700100  1.0  0.1291
  C  C352  1  0.928500  0.858000  0.752300  1.0  0.7077
  C  C353  1  0.127400  0.643600  0.945900  1.0  -0.1579
  C  C354  1  0.583900  0.773100  0.136300  1.0  0.1574
  C  C355  1  0.756200  0.099500  0.330200  1.0  0.7192
  C  C356  1  0.609400  0.144200  0.745800  1.0  0.1564
  C  C357  1  0.768500  0.296400  0.624800  1.0  0.1218
  C  C358  1  0.374400  0.974200  0.763200  1.0  0.8656
  C  C359  1  0.198500  0.110400  0.250500  1.0  -0.1215
  C  C360  1  0.465800  0.166500  0.639000  1.0  -0.0909
  C  C361  1  0.314500  0.601500  0.590000  1.0  0.6859
  C  C362  1  0.879400  0.702800  0.775400  1.0  0.137
  C  C363  1  0.794200  0.664100  0.354600  1.0  -0.0641
  C  C364  1  0.701700  0.390300  0.666667  1.0  -0.0883
  C  C365  1  0.385800  0.116800  0.668600  1.0  0.6657
  C  C366  1  0.329800  0.096600  0.945000  1.0  -0.0913
  C  C367  1  0.202400  0.857800  0.286800  1.0  0.1263
  C  C368  1  0.221300  0.490700  0.862900  1.0  -0.1186
  C  C369  1  0.388900  0.630200  0.687000  1.0  0.8397
  C  C370  1  0.431000  0.449700  0.527400  1.0  0.1714
  C  C371  1  0.651400  0.826600  0.162900  1.0  -0.1171
  C  C372  1  0.534200  0.833500  0.361000  1.0  -0.0941
  C  C373  1  0.082700  0.850400  0.403000  1.0  0.1256
  C  C374  1  0.841300  0.854100  0.460300  1.0  0.1039
  C  C375  1  0.635200  0.812500  0.387000  1.0  -0.0966
  C  C376  1  0.944100  0.471000  0.232300  1.0  -0.0698
  C  C377  1  0.872300  0.117100  0.706500  1.0  -0.1124
  C  C378  1  0.194500  0.054100  0.313100  1.0  0.1579
  C  C379  1  0.498300  0.901000  0.555900  1.0  0.6846
  C  C380  1  0.614200  0.883200  0.331400  1.0  0.6654
  C  C381  1  0.287300  0.673100  0.345100  1.0  -0.1473
  C  C382  1  0.376700  0.337800  0.427200  1.0  0.655
  C  C383  1  0.612100  0.617800  0.848900  1.0  0.7236
  C  C384  1  0.424900  0.246200  0.751200  1.0  -0.1575
  C  C385  1  0.797600  0.142200  0.713200  1.0  0.1252
  C  C386  1  0.070400  0.589100  0.775000  1.0  0.6849
  C  C387  1  0.190900  0.039900  0.509600  1.0  0.1327
  C  C388  1  0.482100  0.300900  0.220500  1.0  0.8323
  C  C389  1  0.910300  0.726300  0.149300  1.0  -0.089
  C  C390  1  0.411200  0.866200  0.192300  1.0  0.1151
  C  C391  1  0.119200  0.547900  0.982000  1.0  0.065
  C  C392  1  0.373600  0.387000  0.651700  1.0  -0.4067
  C  C393  1  0.323200  0.294900  0.840700  1.0  0.148
  C  C394  1  0.218900  0.926800  0.178800  1.0  0.1636
  C  C395  1  0.092100  0.417000  0.741900  1.0  0.1822
  C  C396  1  0.298300  0.609700  0.333333  1.0  -0.0881
  C  C397  1  0.240400  0.226200  0.180900  1.0  -0.1782
  C  C398  1  0.104000  0.967700  0.014900  1.0  0.1955
  C  C399  1  0.805500  0.945900  0.686900  1.0  0.159
  C  C400  1  0.758900  0.748500  0.784400  1.0  -0.1594
  C  C401  1  0.834000  0.702400  0.359700  1.0  -0.1059
  C  C402  1  0.464200  0.055100  0.457500  1.0  -0.0229
  C  C403  1  0.712700  0.326900  0.654900  1.0  -0.1454
  C  C404  1  0.144900  0.297700  0.607800  1.0  -0.0943
  C  C405  1  0.305500  0.496100  0.566300  1.0  -0.1983
  C  C406  1  0.777900  0.460800  0.751100  1.0  -0.1431
  C  C407  1  0.282000  0.830700  0.873100  1.0  0.8487
  C  C408  1  0.426400  0.925000  0.199100  1.0  -0.1179
  C  C409  1  0.801500  0.889600  0.749500  1.0  -0.1168
  C  C410  1  0.046200  0.914300  0.920900  1.0  0.7008
  C  C411  1  0.307900  0.403100  0.153600  1.0  -0.4152
  C  C412  1  0.151500  0.968700  0.190600  1.0  -0.1754
  C  C413  1  0.569000  0.550300  0.472600  1.0  0.1715
  C  C414  1  0.208600  0.749600  0.273900  1.0  0.1078
  C  C415  1  0.120600  0.297200  0.224600  1.0  0.1376
  C  C416  1  0.004900  0.170900  0.913400  1.0  -0.4104
  C  C417  1  0.544300  0.405100  0.608800  1.0  -0.2183
  C  C418  1  0.120700  0.872400  0.190800  1.0  -0.2027
  C  C419  1  0.014000  0.535400  0.228900  1.0  0.1379
  C  C420  1  0.888600  0.731800  0.115400  1.0  -0.2326
  C  C421  1  0.850700  0.066800  0.192700  1.0  0.7806
  C  C422  1  0.407400  0.512500  0.546000  1.0  -0.2061
  C  C423  1  0.229400  0.005600  0.541800  1.0  -0.1073
  C  C424  1  0.626400  0.613000  0.348300  1.0  -0.405
  C  C425  1  0.829700  0.319200  0.073000  1.0  0.7487
  C  C426  1  0.596700  0.088200  0.736700  1.0  -0.193
  C  C427  1  0.763600  0.582000  0.084800  1.0  0.1223
  C  C428  1  0.718000  0.169300  0.126900  1.0  0.8491
  C  C429  1  0.395100  0.197600  0.746300  1.0  0.1665
  C  C430  1  0.759600  0.773800  0.819100  1.0  -0.1812
  C  C431  1  0.423900  0.068100  0.490900  1.0  -0.2003
  C  C432  1  0.150000  0.256900  0.671500  1.0  0.68
  C  C433  1  0.682700  0.669700  0.260700  1.0  -0.152
  C  C434  1  0.041100  0.116900  0.615200  1.0  -0.1448
  C  C435  1  0.016300  0.066000  0.615300  1.0  0.0181
  C  C436  1  0.301500  0.349100  0.436900  1.0  -0.4071
  C  C437  1  0.579700  0.050300  0.764900  1.0  -0.0121
  C  C438  1  0.100200  0.941300  0.195600  1.0  -0.0957
  C  C439  1  0.501700  0.099000  0.444100  1.0  0.6852
  C  C440  1  0.007500  0.177100  0.600700  1.0  0.1534
  C  C441  1  0.592600  0.487500  0.454000  1.0  -0.2069
  C  C442  1  0.348600  0.173400  0.837100  1.0  -0.1157
  C  C443  1  0.104500  0.806400  0.536200  1.0  -0.1269
  C  C444  1  0.946500  0.001500  0.368700  1.0  0.65
  C  C445  1  0.850000  0.743100  0.328500  1.0  0.6816
  C  C446  1  0.958900  0.883100  0.384800  1.0  -0.1465
  C  C447  1  0.216000  0.496600  0.275700  1.0  -0.1027
  C  C448  1  0.127700  0.882900  0.293500  1.0  -0.1143
  C  C449  1  0.501600  0.819100  0.699400  1.0  0.8399
  C  C450  1  0.221100  0.738100  0.509700  1.0  -0.0775
  C  C451  1  0.138200  0.773300  0.278900  1.0  -0.0694
  C  C452  1  0.089700  0.273700  0.850700  1.0  -0.0877
  C  C453  1  0.670200  0.903400  0.055000  1.0  -0.0902
  C  C454  1  0.159700  0.517800  0.303400  1.0  -0.1278
  C  C455  1  0.694500  0.503900  0.433700  1.0  -0.1982
  C  C456  1  0.988000  0.614600  0.128200  1.0  0.1354
  C  C457  1  0.778700  0.509300  0.137100  1.0  -0.1176
  C  C458  1  0.511300  0.796200  0.391800  1.0  0.1103
  C  C459  1  0.995100  0.829100  0.086600  1.0  -0.4129
  C  C460  1  0.784000  0.503400  0.724300  1.0  -0.1041
  C  C461  1  0.986000  0.464600  0.771100  1.0  0.1372
  C  C462  1  0.134000  0.081900  0.297300  1.0  -0.1722
  C  C463  1  0.062100  0.102000  0.897400  1.0  0.5683
  C  C464  1  0.441400  0.951900  0.455900  1.0  0.1731
  C  C465  1  0.734000  0.984300  0.398600  1.0  0.7144
  C  C466  1  0.803000  0.254300  0.303400  1.0  0.6952
  C  C467  1  0.776700  0.810700  0.030200  1.0  0.1151
  C  C468  1  0.996300  0.523600  0.779400  1.0  -0.1504
  C  C469  1  0.538500  0.520500  0.630900  1.0  0.6942
  C  C470  1  0.907900  0.583000  0.258100  1.0  0.1815
  C  C471  1  0.376100  0.067400  0.126100  1.0  0.7021
  C  C472  1  0.266000  0.015700  0.601400  1.0  0.7148
  C  C473  1  0.498400  0.180900  0.300600  1.0  0.84
  C  C474  1  0.959200  0.663000  0.156400  1.0  -0.1614
  C  C475  1  0.297400  0.657400  0.827200  1.0  0.7699
  C  C476  1  0.655700  0.464300  0.434700  1.0  -0.0644
  C  C477  1  0.983700  0.934000  0.384700  1.0  0.0227
  C  C478  1  0.040800  0.337000  0.843600  1.0  -0.1619
  C  C479  1  0.472100  0.490800  0.942100  1.0  -0.415
  C  C480  1  0.781100  0.073200  0.821200  1.0  0.1628
  C  C481  1  0.012000  0.385400  0.871800  1.0  0.1347
  C  C482  1  0.598000  0.462400  0.569600  1.0  -0.2154
  C  C483  1  0.347900  0.577400  0.299600  1.0  0.6816
  C  C484  1  0.895500  0.193600  0.463800  1.0  -0.1257
  C  C485  1  0.840300  0.482200  0.696600  1.0  -0.1271
  C  C486  1  0.527700  0.004700  0.560900  1.0  -0.2185
  C  C487  1  0.149300  0.933200  0.807300  1.0  0.7812
  C  C488  1  0.706500  0.723500  0.262900  1.0  0.1537
  C  C489  1  0.365600  0.129400  0.959600  1.0  -0.1091
  C  C490  1  0.090200  0.782000  0.499100  1.0  0.1423
  C  C491  1  0.809700  0.192800  0.425400  1.0  0.7085
  C  C492  1  0.215900  0.607100  0.382600  1.0  0.1502
  C  C493  1  0.411700  0.368200  0.752700  1.0  0.6704
  C  C494  1  0.244700  0.527600  0.831000  1.0  0.6856
  C  C495  1  0.158700  0.145900  0.539700  1.0  0.1065
  C  C496  1  0.847900  0.497300  0.130000  1.0  -0.1434
  C  C497  1  0.383100  0.315900  0.747700  1.0  -0.1173
  C  C498  1  0.387900  0.382200  0.151100  1.0  0.7231
  C  C499  1  0.937900  0.898000  0.102600  1.0  0.568
  C  C500  1  0.434600  0.523700  0.908800  1.0  0.5579
  C  C501  1  0.992500  0.822900  0.399300  1.0  0.1522
  C  C502  1  0.071500  0.142000  0.247700  1.0  0.7059
  C  C503  1  0.623300  0.662200  0.572800  1.0  0.6559
  C  C504  1  0.565400  0.476300  0.091200  1.0  0.5612
  C  C505  1  0.178900  0.289300  0.238800  1.0  -0.1353
  C  C506  1  0.801500  0.886300  0.432900  1.0  -0.1319
  C  C507  1  0.103800  0.075500  0.009200  1.0  0.1251
  C  C508  1  0.262600  0.573200  0.351300  1.0  -0.1882
  C  C509  1  0.755300  0.472400  0.169000  1.0  0.6842
  C  C510  1  0.880800  0.452100  0.018000  1.0  0.0659
  C  C511  1  0.019600  0.865300  0.288400  1.0  0.6772
  C  C512  1  0.258200  0.127800  0.950100  1.0  -0.0414
  C  C513  1  0.909800  0.218000  0.500900  1.0  0.1447
  C  C514  1  0.205800  0.335900  0.645400  1.0  -0.0647
  C  C515  1  0.652100  0.422600  0.700400  1.0  0.6823
  C  C516  1  0.953800  0.085700  0.079100  1.0  0.7017
  C  C517  1  0.855100  0.702300  0.392200  1.0  -0.0938
  C  C518  1  0.255800  0.081600  0.267300  1.0  0.1608
  C  C519  1  0.107800  0.581300  0.299900  1.0  0.1303
  C  C520  1  0.170300  0.680800  0.927000  1.0  0.7482
  C  C521  1  0.872600  0.356400  0.054100  1.0  -0.1573
  C  C522  1  0.053500  0.998500  0.631300  1.0  0.6465
  C  C523  1  0.455700  0.594900  0.391200  1.0  -0.2189
  C  C524  1  0.045700  0.918200  0.392300  1.0  -0.1423
  C  C525  1  0.049200  0.101000  0.035000  1.0  -0.0553
  C  C526  1  0.771300  0.628800  0.382500  1.0  0.0961
  C  C527  1  0.336600  0.434500  0.547400  1.0  0.1595
  C  C528  1  0.434400  0.644100  0.419300  1.0  0.1907
  C  C529  1  0.445200  0.272100  0.066500  1.0  0.1159
  C  C530  1  0.698500  0.650900  0.563100  1.0  -0.4085
  C  C531  1  0.023800  0.619900  0.960600  1.0  0.1368
  C  C532  1  0.615100  0.663000  0.943500  1.0  -0.3713
  C  C533  1  0.950800  0.899000  0.965000  1.0  -0.0524
  C  C534  1  0.129300  0.469900  0.899800  1.0  0.1608
  C  C535  1  0.980400  0.134700  0.711600  1.0  0.6797
  C  C536  1  0.535800  0.944900  0.542500  1.0  -0.0248
  C  C537  1  0.236400  0.418000  0.915200  1.0  0.1213
  C  C538  1  0.634400  0.870600  0.040400  1.0  -0.1083
  C  C539  1  0.604900  0.802400  0.253700  1.0  0.1652
  C  C540  1  0.404400  0.165300  0.855600  1.0  -0.1487
  C  C541  1  0.595300  0.841200  0.360400  1.0  -0.0756
  C  C542  1  0.882000  0.780400  0.180800  1.0  0.6737
  C  C543  1  0.611100  0.369800  0.313000  1.0  0.8389
  C  C544  1  0.081100  0.318700  0.910400  1.0  0.1488
  C  C545  1  0.241100  0.251500  0.215600  1.0  -0.1583
  C  C546  1  0.044500  0.989400  0.039200  1.0  -0.182
  C  C547  1  0.436400  0.008600  0.242100  1.0  0.686
  C  C548  1  0.164900  0.334500  0.578300  1.0  0.1182
  C  C549  1  0.821100  0.710700  0.761200  1.0  -0.133
  C  C550  1  0.633700  0.970400  0.076100  1.0  0.6958
  C  C551  1  0.197000  0.745700  0.696600  1.0  0.6955
  C  C552  1  0.918900  0.681300  0.089600  1.0  0.1488
  C  C553  1  0.609100  0.777400  0.415800  1.0  0.153
  C  C554  1  0.588800  0.133800  0.807700  1.0  0.1148
  C  C555  1  0.891800  0.526400  0.251500  1.0  -0.2013
  C  C556  1  0.403300  0.911800  0.263300  1.0  -0.1926
  C  C557  1  0.293500  0.276500  0.737100  1.0  0.1525
  C  C558  1  0.844400  0.414700  0.034300  1.0  -0.0567
  C  C559  1  0.488700  0.203800  0.608200  1.0  0.1112
  C  C560  1  0.879300  0.127600  0.809200  1.0  -0.202
  C  C561  1  0.228700  0.371200  0.617500  1.0  0.0955
  C  C562  1  0.173000  0.786100  0.539700  1.0  -0.1505
  C  C563  1  0.402000  0.537600  0.430400  1.0  -0.2143
  C  C564  1  0.097000  0.838900  0.286400  1.0  -0.0945
  C  C565  1  0.155600  0.585300  0.965700  1.0  -0.0597
  C  C566  1  0.565600  0.355900  0.580700  1.0  0.1908
  C  C567  1  0.230800  0.043800  0.568900  1.0  0.0132
  C  C568  1  0.025700  0.987400  0.209700  1.0  0.6408
  C  C569  1  0.420300  0.949700  0.235100  1.0  -0.0104
  C  C570  1  0.222100  0.539200  0.248900  1.0  -0.1432
  C  C571  1  0.390900  0.222600  0.584200  1.0  0.1532
  C  C572  1  0.558700  0.463600  0.602600  1.0  -0.0518
  C  C573  1  0.243800  0.900500  0.669800  1.0  0.7206
  C  C574  1  0.307400  0.237800  0.230300  1.0  0.6901
  C  C575  1  0.336700  0.457500  0.662600  1.0  0.6558
  C  C576  1  0.231500  0.703600  0.375200  1.0  0.1209
  C  C577  1  0.331000  0.114200  0.828100  1.0  0.6983
  C  C578  1  0.472300  0.995300  0.439100  1.0  -0.217
  C  C579  1  0.517900  0.699100  0.779500  1.0  0.8314
  C  C580  1  0.669000  0.885800  0.171900  1.0  0.6997
  C  C581  1  0.955500  0.010600  0.960800  1.0  -0.1843
  C  C582  1  0.984100  0.941200  0.949200  1.0  -0.0915
  C  C583  1  0.692600  0.762200  0.769700  1.0  0.6915
  C  C584  1  0.167300  0.604200  0.249900  1.0  0.134
  C  C585  1  0.344300  0.535700  0.565300  1.0  -0.0626
  C  C586  1  0.111400  0.268200  0.884600  1.0  -0.233
  C  C587  1  0.616600  0.409600  0.544500  1.0  0.1685
  C  C588  1  0.595600  0.834700  0.144400  1.0  -0.1508
  C  C589  1  0.364800  0.187500  0.613000  1.0  -0.0982
  C  C590  1  0.324300  0.194900  0.979300  1.0  0.1215
  C  C591  1  0.305200  0.239200  0.829400  1.0  -0.1393
  C  C592  1  0.832700  0.395800  0.750100  1.0  0.1325
  C  C593  1  0.861800  0.226700  0.721100  1.0  -0.0702
  C  C594  1  0.702600  0.342600  0.172800  1.0  0.7704
  C  C595  1  0.737400  0.426800  0.648700  1.0  -0.1913
  N  N596  1  0.666900  0.787300  0.262100  1.0  -0.4013
  N  N597  1  0.141900  0.745400  0.472500  1.0  -0.3156
  N  N598  1  0.944900  0.194000  0.592100  1.0  -0.3036
  N  N599  1  0.241300  0.861300  0.174400  1.0  -0.4087
  N  N600  1  0.333100  0.212700  0.737900  1.0  -0.4018
  N  N601  1  0.946000  0.435300  0.022000  1.0  -0.2976
  N  N602  1  0.054000  0.564700  0.978000  1.0  -0.2992
  N  N603  1  0.600200  0.356000  0.549700  1.0  -0.3439
  N  N604  1  0.970000  0.622400  0.095100  1.0  -0.4517
  N  N605  1  0.030000  0.377600  0.904900  1.0  -0.4555
  N  N606  1  0.239200  0.791400  0.276400  1.0  -0.3987
  N  N607  1  0.830400  0.572200  0.078400  1.0  -0.4016
  N  N608  1  0.257100  0.219100  0.982600  1.0  -0.3249
  N  N609  1  0.882900  0.727500  0.810200  1.0  -0.3888
  N  N610  1  0.793400  0.630100  0.415600  1.0  -0.4726
  N  N611  1  0.034000  0.410800  0.753000  1.0  -0.4354
  N  N612  1  0.601800  0.588300  0.472300  1.0  -0.2974
  N  N613  1  0.450100  0.229000  0.582900  1.0  -0.3969
  N  N614  1  0.055100  0.806000  0.407900  1.0  -0.3029
  N  N615  1  0.742900  0.780900  0.017400  1.0  -0.3223
  N  N616  1  0.198400  0.669700  0.391500  1.0  -0.2933
  N  N617  1  0.598400  0.035700  0.513200  1.0  -0.3934
  N  N618  1  0.117100  0.272500  0.189800  1.0  -0.3901
  N  N619  1  0.837700  0.890900  0.491500  1.0  -0.4438
  N  N620  1  0.393400  0.832100  0.220800  1.0  -0.4471
  N  N621  1  0.966000  0.589200  0.247000  1.0  -0.4383
  N  N622  1  0.868700  0.992700  0.999800  1.0  -0.3756
  N  N623  1  0.858100  0.254600  0.527500  1.0  -0.3172
  N  N624  1  0.114000  0.621000  0.273100  1.0  -0.3207
  N  N625  1  0.618400  0.713600  0.146300  1.0  -0.3892
  N  N626  1  0.169600  0.427800  0.921600  1.0  -0.4029
  N  N627  1  0.401600  0.964300  0.486800  1.0  -0.3901
  N  N628  1  0.381600  0.286400  0.853700  1.0  -0.3914
  N  N629  1  0.398200  0.411700  0.527700  1.0  -0.2954
  N  N630  1  0.549900  0.771000  0.417100  1.0  -0.3929
  N  N631  1  0.745200  0.944000  0.700100  1.0  -0.3614
  N  N632  1  0.760800  0.208600  0.723600  1.0  -0.3955
  N  N633  1  0.801600  0.330300  0.608500  1.0  -0.2954
  N  N634  1  0.606600  0.167900  0.779200  1.0  -0.4509
  N  N635  1  0.758700  0.138700  0.825600  1.0  -0.4071
  N  N636  1  0.162300  0.109100  0.508500  1.0  -0.4435
  N  N637  1  0.886000  0.379000  0.726900  1.0  -0.3185
  N  N638  1  0.254800  0.056000  0.299900  1.0  -0.3642
  N  N639  1  0.399800  0.644000  0.450300  1.0  -0.3484
  N  N640  1  0.206600  0.369900  0.584400  1.0  -0.4718
  N  N641  1  0.131300  0.007300  0.000200  1.0  -0.3791
  O  O642  1  0.480800  0.479900  0.733730  1.0  -0.8451
  O  O643  1  0.566900  0.396600  0.229560  1.0  -0.8065
  O  O644  1  0.707100  0.077300  0.326800  1.0  -0.7052
  O  O645  1  0.623600  0.424600  0.080600  1.0  -0.6899
  O  O646  1  0.946000  0.135800  0.098500  1.0  -0.7014
  O  O647  1  0.585900  0.130400  0.106680  1.0  -0.8355
  O  O648  1  0.478700  0.694700  0.807900  1.0  -0.6599
  O  O649  1  0.187800  0.924700  0.691500  1.0  -0.7402
  O  O650  1  0.441800  0.487400  0.220220  1.0  -0.8242
  O  O651  1  0.457200  0.921200  0.586100  1.0  -0.7558
  O  O652  1  0.018100  0.137400  0.264600  1.0  -0.7019
  O  O653  1  0.370000  0.126900  0.121800  1.0  -0.6375
  O  O654  1  0.307100  0.269100  0.258500  1.0  -0.7132
  O  O655  1  0.039800  0.832700  0.826010  1.0  -0.7959
  O  O656  1  0.355800  0.629200  0.840800  1.0  -0.7644
  O  O657  1  0.173200  0.775600  0.791560  1.0  -0.7651
  O  O658  1  0.292900  0.922700  0.673200  1.0  -0.7067
  O  O659  1  0.563600  0.950200  0.783900  1.0  -0.7209
  O  O660  1  0.116100  0.219800  0.664400  1.0  -0.6873
  O  O661  1  0.274400  0.396500  0.308000  1.0  -0.6479
  O  O662  1  0.546400  0.743600  0.776670  1.0  -0.7383
  O  O663  1  0.135300  0.902000  0.836300  1.0  -0.7244
  O  O664  1  0.692900  0.730900  0.741500  1.0  -0.7144
  O  O665  1  0.438500  0.663200  0.879130  1.0  -0.8651
  O  O666  1  0.729200  0.392700  0.383800  1.0  -0.6614
  O  O667  1  0.112100  0.234700  0.785700  1.0  -0.7046
  O  O668  1  0.320900  0.408700  0.252400  1.0  -0.6597
  O  O669  1  0.639800  0.809400  0.786700  1.0  -0.721
  O  O670  1  0.282200  0.890700  0.863850  1.0  -0.7253
  O  O671  1  0.927900  0.257900  0.234400  1.0  -0.7838
  O  O672  1  0.531800  0.506400  0.665300  1.0  -0.7268
  O  O673  1  0.936700  0.935900  0.131600  1.0  -0.6213
  O  O674  1  0.138800  0.921000  0.774970  1.0  -0.7326
  O  O675  1  0.542900  0.134700  0.317100  1.0  -0.6678
  O  O676  1  0.891500  0.899300  0.229550  1.0  -0.7509
  O  O677  1  0.276300  0.479500  0.670900  1.0  -0.6256
  O  O678  1  0.549200  0.986300  0.727300  1.0  -0.7054
  O  O679  1  0.139600  0.842800  0.598300  1.0  -0.7227
  O  O680  1  0.483500  0.741400  0.925600  1.0  -0.7679
  O  O681  1  0.434400  0.020100  0.116800  1.0  -0.6757
  O  O682  1  0.419600  0.320100  0.448500  1.0  -0.6701
  O  O683  1  0.738600  0.433300  0.258570  1.0  -0.8584
  O  O684  1  0.689700  0.042300  0.402900  1.0  -0.658
  O  O685  1  0.198800  0.579200  0.820800  1.0  -0.6991
  O  O686  1  0.252100  0.051600  0.630300  1.0  -0.6994
  O  O687  1  0.087800  0.946100  0.919000  1.0  -0.7317
  O  O688  1  0.466100  0.161800  0.278200  1.0  -0.7836
  O  O689  1  0.356400  0.000300  0.732100  1.0  -0.742
  O  O690  1  0.775600  0.003800  0.257750  1.0  -0.8451
  O  O691  1  0.634700  0.940800  0.159400  1.0  -0.6539
  O  O692  1  0.488600  0.153700  0.462000  1.0  -0.6726
  O  O693  1  0.528800  0.061100  0.156000  1.0  -0.7744
  O  O694  1  0.752100  0.142700  0.354190  1.0  -0.7289
  O  O695  1  0.565600  0.979900  0.883200  1.0  -0.6737
  O  O696  1  0.960200  0.167300  0.173990  1.0  -0.7972
  O  O697  1  0.224400  0.996200  0.742250  1.0  -0.8448
  O  O698  1  0.414100  0.869600  0.893320  1.0  -0.8346
  O  O699  1  0.643600  0.999700  0.267900  1.0  -0.742
  O  O700  1  0.416800  0.378600  0.318580  1.0  -0.8908
  O  O701  1  0.108500  0.100700  0.770450  1.0  -0.751
  O  O702  1  0.389000  0.979600  0.656190  1.0  -0.8236
  O  O703  1  0.115700  0.984400  0.635400  1.0  -0.6298
  O  O704  1  0.833900  0.739500  0.298600  1.0  -0.5794
  O  O705  1  0.441900  0.642300  0.691210  1.0  -0.6903
  O  O706  1  0.364200  0.597600  0.711100  1.0  -0.7293
  O  O707  1  0.634400  0.181600  0.414700  1.0  -0.7456
  O  O708  1  0.429600  0.004400  0.922500  1.0  -0.7043
  O  O709  1  0.511400  0.846300  0.538000  1.0  -0.6717
  O  O710  1  0.433100  0.603400  0.770440  1.0  -0.8065
  O  O711  1  0.662200  0.219400  0.128000  1.0  -0.6947
  O  O712  1  0.775300  0.177500  0.117000  1.0  -0.7913
  O  O713  1  0.521300  0.305300  0.192100  1.0  -0.6584
  O  O714  1  0.676000  0.948300  0.857500  1.0  -0.5627
  O  O715  1  0.552600  0.513000  0.190900  1.0  -0.7811
  O  O716  1  0.747900  0.948400  0.369700  1.0  -0.6996
  O  O717  1  0.580400  0.679900  0.551500  1.0  -0.6687
  O  O718  1  0.310300  0.957700  0.597100  1.0  -0.6574
  O  O719  1  0.261400  0.566700  0.741430  1.0  -0.8593
  O  O720  1  0.635800  0.402400  0.288900  1.0  -0.7291
  O  O721  1  0.392300  0.342500  0.391900  1.0  -0.679
  O  O722  1  0.370700  0.429800  0.750000  1.0  -0.727
  O  O723  1  0.912200  0.053900  0.081000  1.0  -0.7313
  O  O724  1  0.861200  0.079000  0.225030  1.0  -0.7322
  O  O725  1  0.373400  0.494500  0.661100  1.0  -0.6936
  O  O726  1  0.630000  0.873100  0.878200  1.0  -0.6376
  O  O727  1  0.526200  0.577900  0.619900  1.0  -0.6699
  O  O728  1  0.145300  0.160100  0.831100  1.0  -0.6863
  O  O729  1  0.673400  0.993700  0.090200  1.0  -0.6802
  O  O730  1  0.473500  0.352000  0.759800  1.0  -0.7271
  O  O731  1  0.848000  0.195500  0.289500  1.0  -0.7038
  O  O732  1  0.670800  0.023600  0.209460  1.0  -0.7048
  O  O733  1  0.270800  0.607300  0.616200  1.0  -0.6601
  O  O734  1  0.714700  0.875700  0.191900  1.0  -0.6645
  O  O735  1  0.812200  0.075300  0.308500  1.0  -0.7392
  O  O736  1  0.519200  0.520100  0.266270  1.0  -0.8437
  O  O737  1  0.854700  0.839900  0.168900  1.0  -0.686
  O  O738  1  0.516500  0.258600  0.074400  1.0  -0.765
  O  O739  1  0.640300  0.483600  0.707100  1.0  -0.6619
  O  O740  1  0.225600  0.125600  0.738640  1.0  -0.7769
  O  O741  1  0.420800  0.846300  0.818120  1.0  -0.763
  O  O742  1  0.072100  0.742100  0.765600  1.0  -0.7821
  O  O743  1  0.306200  0.506500  0.819300  1.0  -0.6622
  O  O744  1  0.558200  0.512600  0.779780  1.0  -0.8221
  O  O745  1  0.247900  0.857300  0.645810  1.0  -0.7293
  O  O746  1  0.024100  0.956700  0.639700  1.0  -0.6371
  O  O747  1  0.324000  0.051700  0.142500  1.0  -0.5632
  O  O748  1  0.981900  0.862600  0.735400  1.0  -0.7012
  O  O749  1  0.936100  0.066300  0.284630  1.0  -0.8432
  O  O750  1  0.987200  0.955700  0.221800  1.0  -0.7172
  O  O751  1  0.505600  0.215100  0.391940  1.0  -0.841
  O  O752  1  0.483900  0.244100  0.307340  1.0  -0.673
  O  O753  1  0.624800  0.387600  0.721100  1.0  -0.7519
  O  O754  1  0.453600  0.256400  0.223330  1.0  -0.7385
  O  O755  1  0.570400  0.995600  0.077500  1.0  -0.7058
  O  O756  1  0.574800  0.677800  0.859300  1.0  -0.7381
  O  O757  1  0.063900  0.933700  0.715370  1.0  -0.8391
  O  O758  1  0.644700  0.349000  0.340690  1.0  -0.7549
  O  O759  1  0.433800  0.078400  0.685400  1.0  -0.7204
  O  O760  1  0.761400  0.971600  0.144560  1.0  -0.8901
  O  O761  1  0.436400  0.049800  0.216100  1.0  -0.7217
  O  O762  1  0.326600  0.006300  0.909800  1.0  -0.6829
  O  O763  1  0.473800  0.422100  0.380100  1.0  -0.6704
  O  O764  1  0.325600  0.119700  0.673400  1.0  -0.6939
  O  O765  1  0.579200  0.153700  0.181880  1.0  -0.762
  O  O766  1  0.988000  0.950800  0.790900  1.0  -0.6874
  O  O767  1  0.473100  0.521100  0.880000  1.0  -0.6692
  O  O768  1  0.285300  0.124300  0.808100  1.0  -0.665
  O  O769  1  0.993900  0.823000  0.279500  1.0  -0.7227
  O  O770  1  0.845200  0.918200  0.306310  1.0  -0.7559
  O  O771  1  0.607700  0.657500  0.608100  1.0  -0.6796
  O  O772  1  0.112600  0.080600  0.914000  1.0  -0.6266
  O  O773  1  0.516100  0.755900  0.692660  1.0  -0.6733
  O  O774  1  0.801200  0.420800  0.179200  1.0  -0.6998
  O  O775  1  0.778700  0.258500  0.337000  1.0  -0.7241
  O  O776  1  0.566200  0.921600  0.314600  1.0  -0.7195
  O  O777  1  0.526500  0.648000  0.240200  1.0  -0.7263
  O  O778  1  0.012000  0.049200  0.209100  1.0  -0.6887
  O  O779  1  0.415000  0.425300  0.158600  1.0  -0.7277
  O  O780  1  0.725600  0.603500  0.692000  1.0  -0.6472
  O  O781  1  0.154800  0.081800  0.693690  1.0  -0.7574
  O  O782  1  0.468200  0.493600  0.334700  1.0  -0.7248
  O  O783  1  0.644200  0.370800  0.159200  1.0  -0.7649
  O  O784  1  0.457100  0.865300  0.682900  1.0  -0.6676
  O  O785  1  0.224700  0.822500  0.883000  1.0  -0.7907
  O  O786  1  0.450800  0.013700  0.272700  1.0  -0.7097
  O  O787  1  0.175000  0.978400  0.814800  1.0  -0.7886
  O  O788  1  0.774400  0.874400  0.261360  1.0  -0.7769
  O  O789  1  0.139000  0.730100  0.909600  1.0  -0.7102
  O  O790  1  0.387800  0.775300  0.658120  1.0  -0.7564
  O  O791  1  0.458600  0.187400  0.149210  1.0  -0.7613
  O  O792  1  0.012800  0.044300  0.778200  1.0  -0.7157
  O  O793  1  0.541400  0.812600  0.850790  1.0  -0.7636
  O  O794  1  0.125400  0.594000  0.759100  1.0  -0.6471
  O  O795  1  0.365600  0.818400  0.585300  1.0  -0.7462
  O  O796  1  0.006100  0.177000  0.720500  1.0  -0.7237
  O  O797  1  0.751000  0.299200  0.149900  1.0  -0.7403
  O  O798  1  0.861000  0.269900  0.090400  1.0  -0.7108
  O  O799  1  0.024900  0.636400  0.795400  1.0  -0.7248
  O  O800  1  0.230500  0.661100  0.929400  1.0  -0.6675
  O  O801  1  0.440500  0.690300  0.594930  1.0  -0.7696
  O  O802  1  0.583200  0.621400  0.681420  1.0  -0.8917
  O  O803  1  0.166100  0.260500  0.701400  1.0  -0.584
  O  O804  1  0.337800  0.780600  0.872000  1.0  -0.6968
  O  O805  1  0.693800  0.493500  0.180700  1.0  -0.6618
  O  O806  1  0.221300  0.741500  0.663000  1.0  -0.7248
  O  O807  1  0.985400  0.927500  0.296800  1.0  -0.6443
  O  O808  1  0.561500  0.336800  0.120870  1.0  -0.863
  O  O809  1  0.063300  0.064100  0.868400  1.0  -0.6213
  O  O810  1  0.152000  0.804500  0.710500  1.0  -0.7054
  O  O811  1  0.238600  0.028400  0.855440  1.0  -0.8898
  O  O812  1  0.709100  0.354600  0.204570  1.0  -0.6794
  O  O813  1  0.376400  0.575400  0.919400  1.0  -0.6906
  O  O814  1  0.425200  0.322200  0.140700  1.0  -0.7375
  O  O815  1  0.339600  0.646800  0.580600  1.0  -0.6509
  O  O816  1  0.883900  0.780200  0.335600  1.0  -0.6873
  O  O817  1  0.887900  0.765300  0.214300  1.0  -0.7056
  O  O818  1  0.723700  0.520500  0.329100  1.0  -0.6245
  O  O819  1  0.526900  0.478900  0.120000  1.0  -0.6706
  O  O820  1  0.558100  0.357700  0.308790  1.0  -0.6897
  O  O821  1  0.359700  0.516400  0.292900  1.0  -0.6618
  O  O822  1  0.769500  0.338900  0.070600  1.0  -0.6666
  O  O823  1  0.674400  0.880300  0.326600  1.0  -0.6935
  O  O824  1  0.290900  0.645400  0.795430  1.0  -0.6835
  O  O825  1  0.679100  0.591300  0.747600  1.0  -0.6595
  O  O826  1  0.585000  0.574700  0.841400  1.0  -0.7238
  O  O827  1  0.462900  0.343600  0.247800  1.0  -0.7379
  O  O828  1  0.014600  0.072500  0.703200  1.0  -0.6444
  O  O829  1  0.054000  0.864200  0.901500  1.0  -0.7028
  O  O830  1  0.884300  0.015600  0.364600  1.0  -0.6311
  O  O831  1  0.360200  0.190600  0.213300  1.0  -0.7212
  O  O832  1  0.612200  0.224700  0.341880  1.0  -0.7581
  O  O833  1  0.559500  0.309700  0.405070  1.0  -0.7697
  O  O834  1  0.785000  0.305400  0.283610  1.0  -0.7177
  O  O835  1  0.537100  0.656400  0.752200  1.0  -0.7327
  O  O836  1  0.864700  0.098000  0.163700  1.0  -0.7239
  O  O837  1  0.355300  0.651000  0.659310  1.0  -0.7544
  O  O838  1  0.249200  0.779200  0.578500  1.0  -0.6965
  O  O839  1  0.975100  0.363600  0.204600  1.0  -0.7252
  O  O840  1  0.975900  0.043300  0.360300  1.0  -0.633
  O  O841  1  0.750800  0.220800  0.421500  1.0  -0.697
  O  O842  1  0.561500  0.054600  0.236060  1.0  -0.7053
  O  O843  1  0.892600  0.296100  0.163800  1.0  -0.7456
  O  O844  1  0.375200  0.612400  0.278900  1.0  -0.7531
  O  O845  1  0.874600  0.406000  0.240900  1.0  -0.645
  O  O846  1  0.660400  0.353200  0.419400  1.0  -0.6516
  O  O847  1  0.717800  0.109300  0.136150  1.0  -0.7264
  O  O848  1  0.249000  0.700800  0.850100  1.0  -0.7404
  O  O849  1  0.075600  0.169800  0.217000  1.0  -0.7887
  O  O850  1  0.444600  0.205000  0.071900  1.0  -0.6758
  O  O851  1  0.533900  0.838200  0.721800  1.0  -0.7829
  O  O852  1  0.365300  0.059200  0.840600  1.0  -0.6558
  O  O853  1  0.825000  0.021600  0.185200  1.0  -0.7906
  O  O854  1  0.860400  0.157200  0.401700  1.0  -0.7244
  O  O855  1  0.626600  0.505500  0.338900  1.0  -0.6915
  O  O856  1  0.447400  0.487000  0.809100  1.0  -0.7826
  O  O857  1  0.471200  0.938900  0.844000  1.0  -0.7746
  O  O858  1  0.107400  0.703900  0.836200  1.0  -0.7457
  O  O859  1  0.329200  0.976400  0.790540  1.0  -0.7066
  O  O860  1  0.629300  0.570200  0.250000  1.0  -0.7264
  O  O861  1  0.924400  0.830200  0.783000  1.0  -0.7873
  O  O862  1  0.555400  0.795000  0.928100  1.0  -0.6734
  O  O863  1  0.887400  0.919400  0.086000  1.0  -0.6285
  O  O864  1  0.826800  0.224400  0.208440  1.0  -0.7658
  O  O865  1  0.438500  0.945400  0.763940  1.0  -0.7066
  O  O866  1  0.494400  0.784900  0.608060  1.0  -0.8392
  O  O867  1  0.542800  0.078800  0.413900  1.0  -0.7559
  O  O868  1  0.215000  0.694600  0.716390  1.0  -0.7145
  O  O869  1  0.611000  0.020400  0.343810  1.0  -0.8228
