# generated using pymatgen
data_Al3H51C87O13
_symmetry_space_group_name_H-M   'P 1'
_cell_length_a   35.73160000
_cell_length_b   35.73160000
_cell_length_c   35.73160000
_cell_angle_alpha   90.00000000
_cell_angle_beta   90.00000000
_cell_angle_gamma   90.00000000
_symmetry_Int_Tables_number   1
_chemical_formula_structural   Al3H51C87O13
_chemical_formula_sum   'Al24 H408 C696 O104'
_cell_volume   45620.22162933
_cell_formula_units_Z   8
loop_
 _symmetry_equiv_pos_site_id
 _symmetry_equiv_pos_as_xyz
  1  'x, y, z'
loop_
 _atom_site_type_symbol
 _atom_site_label
 _atom_site_symmetry_multiplicity
 _atom_site_fract_x
 _atom_site_fract_y
 _atom_site_fract_z
 _atom_site_occupancy
 _atom_site_charge
  Al  Al1  1  0.250000  0.286200  0.213800  1.0  1.765
  Al  Al2  1  0.750000  0.713800  0.213800  1.0  1.7653
  Al  Al3  1  0.750000  0.286200  0.786200  1.0  1.7627
  Al  Al4  1  0.250000  0.713800  0.786200  1.0  1.7631
  Al  Al5  1  0.213800  0.250000  0.286200  1.0  1.761
  Al  Al6  1  0.213800  0.750000  0.713800  1.0  1.7647
  Al  Al7  1  0.786200  0.750000  0.286200  1.0  1.7592
  Al  Al8  1  0.786200  0.250000  0.713800  1.0  1.7607
  Al  Al9  1  0.286200  0.213800  0.250000  1.0  1.7638
  Al  Al10  1  0.713800  0.213800  0.750000  1.0  1.7662
  Al  Al11  1  0.286200  0.786200  0.750000  1.0  1.7633
  Al  Al12  1  0.713800  0.786200  0.250000  1.0  1.7659
  Al  Al13  1  0.750000  0.713800  0.786200  1.0  1.7631
  Al  Al14  1  0.250000  0.286200  0.786200  1.0  1.7627
  Al  Al15  1  0.250000  0.713800  0.213800  1.0  1.7653
  Al  Al16  1  0.750000  0.286200  0.213800  1.0  1.765
  Al  Al17  1  0.786200  0.750000  0.713800  1.0  1.7607
  Al  Al18  1  0.786200  0.250000  0.286200  1.0  1.7592
  Al  Al19  1  0.213800  0.250000  0.713800  1.0  1.7647
  Al  Al20  1  0.213800  0.750000  0.286200  1.0  1.761
  Al  Al21  1  0.713800  0.786200  0.750000  1.0  1.7659
  Al  Al22  1  0.286200  0.786200  0.250000  1.0  1.7633
  Al  Al23  1  0.713800  0.213800  0.250000  1.0  1.7662
  Al  Al24  1  0.286200  0.213800  0.750000  1.0  1.7638
  H  H25  1  0.153500  0.294700  0.155100  1.0  0.0902
  H  H26  1  0.108100  0.236400  0.238300  1.0  0.0728
  H  H27  1  0.052400  0.231700  0.205900  1.0  0.0992
  H  H28  1  0.099200  0.287300  0.120700  1.0  0.0874
  H  H29  1  0.056300  0.255100  0.087300  1.0  0.0843
  H  H30  1  0.041200  0.190000  0.063300  1.0  0.09
  H  H31  1  0.049500  0.127900  0.036300  1.0  0.1509
  H  H32  1  0.040300  0.277400  0.033100  1.0  0.0902
  H  H33  1  0.846500  0.705300  0.155100  1.0  0.0897
  H  H34  1  0.891900  0.763600  0.238300  1.0  0.0728
  H  H35  1  0.947600  0.768300  0.205900  1.0  0.0993
  H  H36  1  0.900800  0.712700  0.120700  1.0  0.0875
  H  H37  1  0.943700  0.744900  0.087300  1.0  0.0828
  H  H38  1  0.958800  0.810000  0.063300  1.0  0.0907
  H  H39  1  0.950500  0.872100  0.036300  1.0  0.1521
  H  H40  1  0.959700  0.722600  0.033100  1.0  0.0843
  H  H41  1  0.846500  0.294700  0.844900  1.0  0.0903
  H  H42  1  0.891900  0.236400  0.761700  1.0  0.0728
  H  H43  1  0.947600  0.231700  0.794100  1.0  0.0989
  H  H44  1  0.900800  0.287300  0.879300  1.0  0.0872
  H  H45  1  0.943700  0.255100  0.912700  1.0  0.0835
  H  H46  1  0.958800  0.190000  0.936700  1.0  0.0924
  H  H47  1  0.950500  0.127900  0.963700  1.0  0.1502
  H  H48  1  0.959700  0.277400  0.966900  1.0  0.0858
  H  H49  1  0.153500  0.705300  0.844900  1.0  0.0899
  H  H50  1  0.108100  0.763600  0.761700  1.0  0.0724
  H  H51  1  0.052400  0.768300  0.794100  1.0  0.0991
  H  H52  1  0.099200  0.712700  0.879300  1.0  0.0878
  H  H53  1  0.056300  0.744900  0.912700  1.0  0.0853
  H  H54  1  0.041200  0.810000  0.936700  1.0  0.0921
  H  H55  1  0.049500  0.872100  0.963700  1.0  0.1518
  H  H56  1  0.040300  0.722600  0.966900  1.0  0.0919
  H  H57  1  0.155100  0.153500  0.294700  1.0  0.0889
  H  H58  1  0.238300  0.108100  0.236400  1.0  0.0729
  H  H59  1  0.205900  0.052400  0.231700  1.0  0.0988
  H  H60  1  0.120700  0.099200  0.287300  1.0  0.0881
  H  H61  1  0.087300  0.056300  0.255100  1.0  0.0838
  H  H62  1  0.063300  0.041200  0.190000  1.0  0.0922
  H  H63  1  0.036300  0.049500  0.127900  1.0  0.1507
  H  H64  1  0.033100  0.040300  0.277400  1.0  0.0838
  H  H65  1  0.155100  0.846500  0.705300  1.0  0.0879
  H  H66  1  0.238300  0.891900  0.763600  1.0  0.0727
  H  H67  1  0.205900  0.947600  0.768300  1.0  0.0982
  H  H68  1  0.120700  0.900800  0.712700  1.0  0.0877
  H  H69  1  0.087300  0.943700  0.744900  1.0  0.0839
  H  H70  1  0.063300  0.958800  0.810000  1.0  0.0903
  H  H71  1  0.036300  0.950500  0.872100  1.0  0.1489
  H  H72  1  0.033100  0.959700  0.722600  1.0  0.0833
  H  H73  1  0.844900  0.846500  0.294700  1.0  0.0883
  H  H74  1  0.761700  0.891900  0.236400  1.0  0.0729
  H  H75  1  0.794100  0.947600  0.231700  1.0  0.099
  H  H76  1  0.879300  0.900800  0.287300  1.0  0.0882
  H  H77  1  0.912700  0.943700  0.255100  1.0  0.0841
  H  H78  1  0.936700  0.958800  0.190000  1.0  0.0911
  H  H79  1  0.963700  0.950500  0.127900  1.0  0.1495
  H  H80  1  0.966900  0.959700  0.277400  1.0  0.0824
  H  H81  1  0.844900  0.153500  0.705300  1.0  0.0887
  H  H82  1  0.761700  0.108100  0.763600  1.0  0.0733
  H  H83  1  0.794100  0.052400  0.768300  1.0  0.0992
  H  H84  1  0.879300  0.099200  0.712700  1.0  0.0879
  H  H85  1  0.912700  0.056300  0.744900  1.0  0.0831
  H  H86  1  0.936700  0.041200  0.810000  1.0  0.0916
  H  H87  1  0.963700  0.049500  0.872100  1.0  0.1501
  H  H88  1  0.966900  0.040300  0.722600  1.0  0.0861
  H  H89  1  0.294700  0.155100  0.153500  1.0  0.0899
  H  H90  1  0.236400  0.238300  0.108100  1.0  0.0743
  H  H91  1  0.231700  0.205900  0.052400  1.0  0.0988
  H  H92  1  0.287300  0.120700  0.099200  1.0  0.0886
  H  H93  1  0.255100  0.087300  0.056300  1.0  0.0835
  H  H94  1  0.190000  0.063300  0.041200  1.0  0.0885
  H  H95  1  0.127900  0.036300  0.049500  1.0  0.1513
  H  H96  1  0.277400  0.033100  0.040300  1.0  0.084
  H  H97  1  0.705300  0.155100  0.846500  1.0  0.0893
  H  H98  1  0.763600  0.238300  0.891900  1.0  0.0738
  H  H99  1  0.768300  0.205900  0.947600  1.0  0.0985
  H  H100  1  0.712700  0.120700  0.900800  1.0  0.0883
  H  H101  1  0.744900  0.087300  0.943700  1.0  0.0843
  H  H102  1  0.810000  0.063300  0.958800  1.0  0.0888
  H  H103  1  0.872100  0.036300  0.950500  1.0  0.1504
  H  H104  1  0.722600  0.033100  0.959700  1.0  0.0857
  H  H105  1  0.294700  0.844900  0.846500  1.0  0.0896
  H  H106  1  0.236400  0.761700  0.891900  1.0  0.074
  H  H107  1  0.231700  0.794100  0.947600  1.0  0.0992
  H  H108  1  0.287300  0.879300  0.900800  1.0  0.0888
  H  H109  1  0.255100  0.912700  0.943700  1.0  0.0841
  H  H110  1  0.190000  0.936700  0.958800  1.0  0.0897
  H  H111  1  0.127900  0.963700  0.950500  1.0  0.1493
  H  H112  1  0.277400  0.966900  0.959700  1.0  0.0875
  H  H113  1  0.705300  0.844900  0.153500  1.0  0.0897
  H  H114  1  0.763600  0.761700  0.108100  1.0  0.0746
  H  H115  1  0.768300  0.794100  0.052400  1.0  0.0982
  H  H116  1  0.712700  0.879300  0.099200  1.0  0.0883
  H  H117  1  0.744900  0.912700  0.056300  1.0  0.0835
  H  H118  1  0.810000  0.936700  0.041200  1.0  0.0902
  H  H119  1  0.872100  0.963700  0.049500  1.0  0.1498
  H  H120  1  0.722600  0.966900  0.040300  1.0  0.0852
  H  H121  1  0.794700  0.653500  0.344900  1.0  0.089
  H  H122  1  0.736400  0.608100  0.261700  1.0  0.0729
  H  H123  1  0.731700  0.552400  0.294100  1.0  0.0985
  H  H124  1  0.787300  0.599200  0.379300  1.0  0.0881
  H  H125  1  0.755100  0.556300  0.412700  1.0  0.083
  H  H126  1  0.690000  0.541200  0.436700  1.0  0.0909
  H  H127  1  0.627900  0.549500  0.463700  1.0  0.1507
  H  H128  1  0.777400  0.540300  0.466900  1.0  0.0899
  H  H129  1  0.205300  0.346500  0.344900  1.0  0.0889
  H  H130  1  0.263600  0.391900  0.261700  1.0  0.073
  H  H131  1  0.268300  0.447600  0.294100  1.0  0.0978
  H  H132  1  0.212700  0.400800  0.379300  1.0  0.088
  H  H133  1  0.244900  0.443700  0.412700  1.0  0.0839
  H  H134  1  0.310000  0.458800  0.436700  1.0  0.0916
  H  H135  1  0.372100  0.450500  0.463700  1.0  0.1497
  H  H136  1  0.222600  0.459700  0.466900  1.0  0.0836
  H  H137  1  0.794700  0.346500  0.655100  1.0  0.0892
  H  H138  1  0.736400  0.391900  0.738300  1.0  0.0731
  H  H139  1  0.731700  0.447600  0.705900  1.0  0.0987
  H  H140  1  0.787300  0.400800  0.620700  1.0  0.0882
  H  H141  1  0.755100  0.443700  0.587300  1.0  0.0833
  H  H142  1  0.690000  0.458800  0.563300  1.0  0.0897
  H  H143  1  0.627900  0.450500  0.536300  1.0  0.1506
  H  H144  1  0.777400  0.459700  0.533100  1.0  0.089
  H  H145  1  0.205300  0.653500  0.655100  1.0  0.0895
  H  H146  1  0.263600  0.608100  0.738300  1.0  0.0733
  H  H147  1  0.268300  0.552400  0.705900  1.0  0.0984
  H  H148  1  0.212700  0.599200  0.620700  1.0  0.0879
  H  H149  1  0.244900  0.556300  0.587300  1.0  0.0829
  H  H150  1  0.310000  0.541200  0.563300  1.0  0.0893
  H  H151  1  0.372100  0.549500  0.536300  1.0  0.1499
  H  H152  1  0.222600  0.540300  0.533100  1.0  0.0847
  H  H153  1  0.653500  0.655100  0.205300  1.0  0.0891
  H  H154  1  0.608100  0.738300  0.263600  1.0  0.0721
  H  H155  1  0.552400  0.705900  0.268300  1.0  0.0998
  H  H156  1  0.599200  0.620700  0.212700  1.0  0.0871
  H  H157  1  0.556300  0.587300  0.244900  1.0  0.0846
  H  H158  1  0.541200  0.563300  0.310000  1.0  0.09
  H  H159  1  0.549500  0.536300  0.372100  1.0  0.1493
  H  H160  1  0.540300  0.533100  0.222600  1.0  0.0936
  H  H161  1  0.346500  0.655100  0.794700  1.0  0.0895
  H  H162  1  0.391900  0.738300  0.736400  1.0  0.0723
  H  H163  1  0.447600  0.705900  0.731700  1.0  0.0993
  H  H164  1  0.400800  0.620700  0.787300  1.0  0.0868
  H  H165  1  0.443700  0.587300  0.755100  1.0  0.0833
  H  H166  1  0.458800  0.563300  0.690000  1.0  0.0909
  H  H167  1  0.450500  0.536300  0.627900  1.0  0.1499
  H  H168  1  0.459700  0.533100  0.777400  1.0  0.0899
  H  H169  1  0.346500  0.344900  0.205300  1.0  0.0894
  H  H170  1  0.391900  0.261700  0.263600  1.0  0.0725
  H  H171  1  0.447600  0.294100  0.268300  1.0  0.0993
  H  H172  1  0.400800  0.379300  0.212700  1.0  0.0871
  H  H173  1  0.443700  0.412700  0.244900  1.0  0.083
  H  H174  1  0.458800  0.436700  0.310000  1.0  0.0914
  H  H175  1  0.450500  0.463700  0.372100  1.0  0.1496
  H  H176  1  0.459700  0.466900  0.222600  1.0  0.0867
  H  H177  1  0.653500  0.344900  0.794700  1.0  0.0889
  H  H178  1  0.608100  0.261700  0.736400  1.0  0.0719
  H  H179  1  0.552400  0.294100  0.731700  1.0  0.0993
  H  H180  1  0.599200  0.379300  0.787300  1.0  0.0875
  H  H181  1  0.556300  0.412700  0.755100  1.0  0.0845
  H  H182  1  0.541200  0.436700  0.690000  1.0  0.0929
  H  H183  1  0.549500  0.463700  0.627900  1.0  0.149
  H  H184  1  0.540300  0.466900  0.777400  1.0  0.093
  H  H185  1  0.655100  0.794700  0.346500  1.0  0.0892
  H  H186  1  0.738300  0.736400  0.391900  1.0  0.0737
  H  H187  1  0.705900  0.731700  0.447600  1.0  0.0987
  H  H188  1  0.620700  0.787300  0.400800  1.0  0.0886
  H  H189  1  0.587300  0.755100  0.443700  1.0  0.0851
  H  H190  1  0.563300  0.690000  0.458800  1.0  0.0917
  H  H191  1  0.536300  0.627900  0.450500  1.0  0.1509
  H  H192  1  0.533100  0.777400  0.459700  1.0  0.0905
  H  H193  1  0.655100  0.205300  0.653500  1.0  0.09
  H  H194  1  0.738300  0.263600  0.608100  1.0  0.0743
  H  H195  1  0.705900  0.268300  0.552400  1.0  0.0987
  H  H196  1  0.620700  0.212700  0.599200  1.0  0.0887
  H  H197  1  0.587300  0.244900  0.556300  1.0  0.0842
  H  H198  1  0.563300  0.310000  0.541200  1.0  0.09
  H  H199  1  0.536300  0.372100  0.549500  1.0  0.1522
  H  H200  1  0.533100  0.222600  0.540300  1.0  0.0848
  H  H201  1  0.344900  0.794700  0.653500  1.0  0.0896
  H  H202  1  0.261700  0.736400  0.608100  1.0  0.0746
  H  H203  1  0.294100  0.731700  0.552400  1.0  0.0989
  H  H204  1  0.379300  0.787300  0.599200  1.0  0.0889
  H  H205  1  0.412700  0.755100  0.556300  1.0  0.0837
  H  H206  1  0.436700  0.690000  0.541200  1.0  0.0912
  H  H207  1  0.463700  0.627900  0.549500  1.0  0.1519
  H  H208  1  0.466900  0.777400  0.540300  1.0  0.0865
  H  H209  1  0.344900  0.205300  0.346500  1.0  0.0893
  H  H210  1  0.261700  0.263600  0.391900  1.0  0.0738
  H  H211  1  0.294100  0.268300  0.447600  1.0  0.0994
  H  H212  1  0.379300  0.212700  0.400800  1.0  0.0891
  H  H213  1  0.412700  0.244900  0.443700  1.0  0.0848
  H  H214  1  0.436700  0.310000  0.458800  1.0  0.0909
  H  H215  1  0.463700  0.372100  0.450500  1.0  0.1527
  H  H216  1  0.466900  0.222600  0.459700  1.0  0.0844
  H  H217  1  0.846500  0.705300  0.844900  1.0  0.0899
  H  H218  1  0.891900  0.763600  0.761700  1.0  0.0729
  H  H219  1  0.947600  0.768300  0.794100  1.0  0.099
  H  H220  1  0.900800  0.712700  0.879300  1.0  0.0876
  H  H221  1  0.943700  0.744900  0.912700  1.0  0.0835
  H  H222  1  0.958800  0.810000  0.936700  1.0  0.0916
  H  H223  1  0.950500  0.872100  0.963700  1.0  0.152
  H  H224  1  0.959700  0.722600  0.966900  1.0  0.0844
  H  H225  1  0.153500  0.294700  0.844900  1.0  0.0899
  H  H226  1  0.108100  0.236400  0.761700  1.0  0.0724
  H  H227  1  0.052400  0.231700  0.794100  1.0  0.099
  H  H228  1  0.099200  0.287300  0.879300  1.0  0.0872
  H  H229  1  0.056300  0.255100  0.912700  1.0  0.0851
  H  H230  1  0.041200  0.190000  0.936700  1.0  0.0931
  H  H231  1  0.049500  0.127900  0.963700  1.0  0.1505
  H  H232  1  0.040300  0.277400  0.966900  1.0  0.0921
  H  H233  1  0.153500  0.705300  0.155100  1.0  0.0896
  H  H234  1  0.108100  0.763600  0.238300  1.0  0.0727
  H  H235  1  0.052400  0.768300  0.205900  1.0  0.0994
  H  H236  1  0.099200  0.712700  0.120700  1.0  0.0878
  H  H237  1  0.056300  0.744900  0.087300  1.0  0.0843
  H  H238  1  0.041200  0.810000  0.063300  1.0  0.0899
  H  H239  1  0.049500  0.872100  0.036300  1.0  0.1512
  H  H240  1  0.040300  0.722600  0.033100  1.0  0.0906
  H  H241  1  0.846500  0.294700  0.155100  1.0  0.0906
  H  H242  1  0.891900  0.236400  0.238300  1.0  0.0726
  H  H243  1  0.947600  0.231700  0.205900  1.0  0.0991
  H  H244  1  0.900800  0.287300  0.120700  1.0  0.087
  H  H245  1  0.943700  0.255100  0.087300  1.0  0.083
  H  H246  1  0.958800  0.190000  0.063300  1.0  0.0913
  H  H247  1  0.950500  0.127900  0.036300  1.0  0.1517
  H  H248  1  0.959700  0.277400  0.033100  1.0  0.0849
  H  H249  1  0.844900  0.846500  0.705300  1.0  0.0883
  H  H250  1  0.761700  0.891900  0.763600  1.0  0.0729
  H  H251  1  0.794100  0.947600  0.768300  1.0  0.0992
  H  H252  1  0.879300  0.900800  0.712700  1.0  0.088
  H  H253  1  0.912700  0.943700  0.744900  1.0  0.0837
  H  H254  1  0.936700  0.958800  0.810000  1.0  0.0914
  H  H255  1  0.963700  0.950500  0.872100  1.0  0.1495
  H  H256  1  0.966900  0.959700  0.722600  1.0  0.0825
  H  H257  1  0.844900  0.153500  0.294700  1.0  0.0884
  H  H258  1  0.761700  0.108100  0.236400  1.0  0.0734
  H  H259  1  0.794100  0.052400  0.231700  1.0  0.099
  H  H260  1  0.879300  0.099200  0.287300  1.0  0.088
  H  H261  1  0.912700  0.056300  0.255100  1.0  0.0832
  H  H262  1  0.936700  0.041200  0.190000  1.0  0.0912
  H  H263  1  0.963700  0.049500  0.127900  1.0  0.1505
  H  H264  1  0.966900  0.040300  0.277400  1.0  0.0829
  H  H265  1  0.155100  0.153500  0.705300  1.0  0.0887
  H  H266  1  0.238300  0.108100  0.763600  1.0  0.0729
  H  H267  1  0.205900  0.052400  0.768300  1.0  0.0987
  H  H268  1  0.120700  0.099200  0.712700  1.0  0.0876
  H  H269  1  0.087300  0.056300  0.744900  1.0  0.0836
  H  H270  1  0.063300  0.041200  0.810000  1.0  0.0906
  H  H271  1  0.036300  0.049500  0.872100  1.0  0.1495
  H  H272  1  0.033100  0.040300  0.722600  1.0  0.0867
  H  H273  1  0.155100  0.846500  0.294700  1.0  0.0885
  H  H274  1  0.238300  0.891900  0.236400  1.0  0.0727
  H  H275  1  0.205900  0.947600  0.231700  1.0  0.0984
  H  H276  1  0.120700  0.900800  0.287300  1.0  0.0881
  H  H277  1  0.087300  0.943700  0.255100  1.0  0.0842
  H  H278  1  0.063300  0.958800  0.190000  1.0  0.092
  H  H279  1  0.036300  0.950500  0.127900  1.0  0.1498
  H  H280  1  0.033100  0.959700  0.277400  1.0  0.0837
  H  H281  1  0.705300  0.844900  0.846500  1.0  0.0894
  H  H282  1  0.763600  0.761700  0.891900  1.0  0.0742
  H  H283  1  0.768300  0.794100  0.947600  1.0  0.0985
  H  H284  1  0.712700  0.879300  0.900800  1.0  0.0886
  H  H285  1  0.744900  0.912700  0.943700  1.0  0.0843
  H  H286  1  0.810000  0.936700  0.958800  1.0  0.0907
  H  H287  1  0.872100  0.963700  0.950500  1.0  0.1492
  H  H288  1  0.722600  0.966900  0.959700  1.0  0.0849
  H  H289  1  0.294700  0.844900  0.153500  1.0  0.0896
  H  H290  1  0.236400  0.761700  0.108100  1.0  0.0743
  H  H291  1  0.231700  0.794100  0.052400  1.0  0.0986
  H  H292  1  0.287300  0.879300  0.099200  1.0  0.0881
  H  H293  1  0.255100  0.912700  0.056300  1.0  0.083
  H  H294  1  0.190000  0.936700  0.041200  1.0  0.0896
  H  H295  1  0.127900  0.963700  0.049500  1.0  0.1505
  H  H296  1  0.277400  0.966900  0.040300  1.0  0.0839
  H  H297  1  0.705300  0.155100  0.153500  1.0  0.0901
  H  H298  1  0.763600  0.238300  0.108100  1.0  0.0744
  H  H299  1  0.768300  0.205900  0.052400  1.0  0.0984
  H  H300  1  0.712700  0.120700  0.099200  1.0  0.0882
  H  H301  1  0.744900  0.087300  0.056300  1.0  0.0838
  H  H302  1  0.810000  0.063300  0.041200  1.0  0.0887
  H  H303  1  0.872100  0.036300  0.049500  1.0  0.1504
  H  H304  1  0.722600  0.033100  0.040300  1.0  0.0849
  H  H305  1  0.294700  0.155100  0.846500  1.0  0.0895
  H  H306  1  0.236400  0.238300  0.891900  1.0  0.0738
  H  H307  1  0.231700  0.205900  0.947600  1.0  0.099
  H  H308  1  0.287300  0.120700  0.900800  1.0  0.0891
  H  H309  1  0.255100  0.087300  0.943700  1.0  0.0843
  H  H310  1  0.190000  0.063300  0.958800  1.0  0.089
  H  H311  1  0.127900  0.036300  0.950500  1.0  0.1507
  H  H312  1  0.277400  0.033100  0.959700  1.0  0.0886
  H  H313  1  0.205300  0.346500  0.655100  1.0  0.0888
  H  H314  1  0.263600  0.391900  0.738300  1.0  0.0731
  H  H315  1  0.268300  0.447600  0.705900  1.0  0.0981
  H  H316  1  0.212700  0.400800  0.620700  1.0  0.088
  H  H317  1  0.244900  0.443700  0.587300  1.0  0.0831
  H  H318  1  0.310000  0.458800  0.563300  1.0  0.0894
  H  H319  1  0.372100  0.450500  0.536300  1.0  0.1495
  H  H320  1  0.222600  0.459700  0.533100  1.0  0.0837
  H  H321  1  0.794700  0.653500  0.655100  1.0  0.0895
  H  H322  1  0.736400  0.608100  0.738300  1.0  0.0732
  H  H323  1  0.731700  0.552400  0.705900  1.0  0.0988
  H  H324  1  0.787300  0.599200  0.620700  1.0  0.0883
  H  H325  1  0.755100  0.556300  0.587300  1.0  0.0826
  H  H326  1  0.690000  0.541200  0.563300  1.0  0.0896
  H  H327  1  0.627900  0.549500  0.536300  1.0  0.1508
  H  H328  1  0.777400  0.540300  0.533100  1.0  0.0889
  H  H329  1  0.205300  0.653500  0.344900  1.0  0.0893
  H  H330  1  0.263600  0.608100  0.261700  1.0  0.0733
  H  H331  1  0.268300  0.552400  0.294100  1.0  0.0983
  H  H332  1  0.212700  0.599200  0.379300  1.0  0.0879
  H  H333  1  0.244900  0.556300  0.412700  1.0  0.0834
  H  H334  1  0.310000  0.541200  0.436700  1.0  0.0911
  H  H335  1  0.372100  0.549500  0.463700  1.0  0.1504
  H  H336  1  0.222600  0.540300  0.466900  1.0  0.0859
  H  H337  1  0.794700  0.346500  0.344900  1.0  0.0889
  H  H338  1  0.736400  0.391900  0.261700  1.0  0.0729
  H  H339  1  0.731700  0.447600  0.294100  1.0  0.0983
  H  H340  1  0.787300  0.400800  0.379300  1.0  0.0881
  H  H341  1  0.755100  0.443700  0.412700  1.0  0.084
  H  H342  1  0.690000  0.458800  0.436700  1.0  0.0904
  H  H343  1  0.627900  0.450500  0.463700  1.0  0.15
  H  H344  1  0.777400  0.459700  0.466900  1.0  0.0887
  H  H345  1  0.346500  0.344900  0.794700  1.0  0.0892
  H  H346  1  0.391900  0.261700  0.736400  1.0  0.0723
  H  H347  1  0.447600  0.294100  0.731700  1.0  0.0993
  H  H348  1  0.400800  0.379300  0.787300  1.0  0.087
  H  H349  1  0.443700  0.412700  0.755100  1.0  0.0836
  H  H350  1  0.458800  0.436700  0.690000  1.0  0.0918
  H  H351  1  0.450500  0.463700  0.627900  1.0  0.1487
  H  H352  1  0.459700  0.466900  0.777400  1.0  0.0899
  H  H353  1  0.653500  0.344900  0.205300  1.0  0.0891
  H  H354  1  0.608100  0.261700  0.263600  1.0  0.0722
  H  H355  1  0.552400  0.294100  0.268300  1.0  0.0994
  H  H356  1  0.599200  0.379300  0.212700  1.0  0.0873
  H  H357  1  0.556300  0.412700  0.244900  1.0  0.0842
  H  H358  1  0.541200  0.436700  0.310000  1.0  0.0914
  H  H359  1  0.549500  0.463700  0.372100  1.0  0.1483
  H  H360  1  0.540300  0.466900  0.222600  1.0  0.092
  H  H361  1  0.653500  0.655100  0.794700  1.0  0.0893
  H  H362  1  0.608100  0.738300  0.736400  1.0  0.072
  H  H363  1  0.552400  0.705900  0.731700  1.0  0.0995
  H  H364  1  0.599200  0.620700  0.787300  1.0  0.0875
  H  H365  1  0.556300  0.587300  0.755100  1.0  0.0847
  H  H366  1  0.541200  0.563300  0.690000  1.0  0.0907
  H  H367  1  0.549500  0.536300  0.627900  1.0  0.1502
  H  H368  1  0.540300  0.533100  0.777400  1.0  0.0938
  H  H369  1  0.346500  0.655100  0.205300  1.0  0.0892
  H  H370  1  0.391900  0.738300  0.263600  1.0  0.0722
  H  H371  1  0.447600  0.705900  0.268300  1.0  0.0994
  H  H372  1  0.400800  0.620700  0.212700  1.0  0.0865
  H  H373  1  0.443700  0.587300  0.244900  1.0  0.0829
  H  H374  1  0.458800  0.563300  0.310000  1.0  0.0906
  H  H375  1  0.450500  0.536300  0.372100  1.0  0.1501
  H  H376  1  0.459700  0.533100  0.222600  1.0  0.0872
  H  H377  1  0.344900  0.205300  0.653500  1.0  0.0897
  H  H378  1  0.261700  0.263600  0.608100  1.0  0.0743
  H  H379  1  0.294100  0.268300  0.552400  1.0  0.099
  H  H380  1  0.379300  0.212700  0.599200  1.0  0.0887
  H  H381  1  0.412700  0.244900  0.556300  1.0  0.0841
  H  H382  1  0.436700  0.310000  0.541200  1.0  0.0907
  H  H383  1  0.463700  0.372100  0.549500  1.0  0.1531
  H  H384  1  0.466900  0.222600  0.540300  1.0  0.0843
  H  H385  1  0.344900  0.794700  0.346500  1.0  0.0895
  H  H386  1  0.261700  0.736400  0.391900  1.0  0.0741
  H  H387  1  0.294100  0.731700  0.447600  1.0  0.0996
  H  H388  1  0.379300  0.787300  0.400800  1.0  0.0891
  H  H389  1  0.412700  0.755100  0.443700  1.0  0.0845
  H  H390  1  0.436700  0.690000  0.458800  1.0  0.0914
  H  H391  1  0.463700  0.627900  0.450500  1.0  0.1506
  H  H392  1  0.466900  0.777400  0.459700  1.0  0.0899
  H  H393  1  0.655100  0.205300  0.346500  1.0  0.089
  H  H394  1  0.738300  0.263600  0.391900  1.0  0.0738
  H  H395  1  0.705900  0.268300  0.447600  1.0  0.0986
  H  H396  1  0.620700  0.212700  0.400800  1.0  0.0885
  H  H397  1  0.587300  0.244900  0.443700  1.0  0.0851
  H  H398  1  0.563300  0.310000  0.458800  1.0  0.0909
  H  H399  1  0.536300  0.372100  0.450500  1.0  0.1521
  H  H400  1  0.533100  0.222600  0.459700  1.0  0.0854
  H  H401  1  0.655100  0.794700  0.653500  1.0  0.0899
  H  H402  1  0.738300  0.736400  0.608100  1.0  0.074
  H  H403  1  0.705900  0.731700  0.552400  1.0  0.0985
  H  H404  1  0.620700  0.787300  0.599200  1.0  0.0888
  H  H405  1  0.587300  0.755100  0.556300  1.0  0.0838
  H  H406  1  0.563300  0.690000  0.541200  1.0  0.0903
  H  H407  1  0.536300  0.627900  0.549500  1.0  0.1518
  H  H408  1  0.533100  0.777400  0.540300  1.0  0.0868
  H  H409  1  0.000000  0.258000  0.184200  1.0  0.0852
  H  H410  1  0.000000  0.742000  0.184200  1.0  0.0852
  H  H411  1  0.000000  0.258000  0.815800  1.0  0.0858
  H  H412  1  0.000000  0.742000  0.815800  1.0  0.0856
  H  H413  1  0.184200  0.000000  0.258000  1.0  0.0848
  H  H414  1  0.184200  0.000000  0.742000  1.0  0.0854
  H  H415  1  0.815800  0.000000  0.258000  1.0  0.0846
  H  H416  1  0.815800  0.000000  0.742000  1.0  0.0852
  H  H417  1  0.258000  0.184200  0.000000  1.0  0.0851
  H  H418  1  0.742000  0.184200  0.000000  1.0  0.0846
  H  H419  1  0.258000  0.815800  0.000000  1.0  0.0844
  H  H420  1  0.742000  0.815800  0.000000  1.0  0.0841
  H  H421  1  0.758000  0.500000  0.315800  1.0  0.0845
  H  H422  1  0.242000  0.500000  0.315800  1.0  0.084
  H  H423  1  0.758000  0.500000  0.684200  1.0  0.0843
  H  H424  1  0.242000  0.500000  0.684200  1.0  0.0835
  H  H425  1  0.500000  0.684200  0.242000  1.0  0.0827
  H  H426  1  0.500000  0.684200  0.758000  1.0  0.0826
  H  H427  1  0.500000  0.315800  0.242000  1.0  0.0822
  H  H428  1  0.500000  0.315800  0.758000  1.0  0.0818
  H  H429  1  0.684200  0.758000  0.500000  1.0  0.0837
  H  H430  1  0.684200  0.242000  0.500000  1.0  0.0833
  H  H431  1  0.315800  0.758000  0.500000  1.0  0.0843
  H  H432  1  0.315800  0.242000  0.500000  1.0  0.0842
  C  C433  1  0.171810  0.268460  0.220950  1.0  0.6776
  C  C434  1  0.136070  0.265010  0.200050  1.0  -0.1606
  C  C435  1  0.133410  0.281390  0.164990  1.0  -0.1026
  C  C436  1  0.106160  0.247050  0.214630  1.0  -0.0491
  C  C437  1  0.072660  0.244110  0.195240  1.0  -0.2131
  C  C438  1  0.100560  0.277630  0.144820  1.0  -0.1597
  C  C439  1  0.069390  0.259710  0.160010  1.0  0.0097
  C  C440  1  0.033990  0.256600  0.138940  1.0  0.0096
  C  C441  1  0.033800  0.255400  0.100360  1.0  -0.156
  C  C442  1  0.019100  0.219400  0.020900  1.0  0.1499
  C  C443  1  0.035300  0.187100  0.038100  1.0  -0.0775
  C  C444  1  0.044500  0.149000  0.021800  1.0  -0.1041
  C  C445  1  0.020900  0.264400  0.021400  1.0  -0.0055
  C  C446  1  0.828190  0.731540  0.220950  1.0  0.6773
  C  C447  1  0.863930  0.734990  0.200050  1.0  -0.1608
  C  C448  1  0.866590  0.718610  0.164990  1.0  -0.1031
  C  C449  1  0.893840  0.752950  0.214630  1.0  -0.0493
  C  C450  1  0.927340  0.755890  0.195240  1.0  -0.2136
  C  C451  1  0.899440  0.722370  0.144820  1.0  -0.1595
  C  C452  1  0.930610  0.740290  0.160010  1.0  0.0101
  C  C453  1  0.966010  0.743400  0.138940  1.0  0.0081
  C  C454  1  0.966200  0.744600  0.100360  1.0  -0.1571
  C  C455  1  0.980900  0.780600  0.020900  1.0  0.1452
  C  C456  1  0.964700  0.812900  0.038100  1.0  -0.078
  C  C457  1  0.955500  0.851000  0.021800  1.0  -0.1071
  C  C458  1  0.979100  0.735600  0.021400  1.0  -0.0054
  C  C459  1  0.828190  0.268460  0.779050  1.0  0.6772
  C  C460  1  0.863930  0.265010  0.799950  1.0  -0.1609
  C  C461  1  0.866590  0.281390  0.835010  1.0  -0.1033
  C  C462  1  0.893840  0.247050  0.785370  1.0  -0.0484
  C  C463  1  0.927340  0.244110  0.804760  1.0  -0.2136
  C  C464  1  0.899440  0.277630  0.855180  1.0  -0.1593
  C  C465  1  0.930610  0.259710  0.839990  1.0  0.009
  C  C466  1  0.966010  0.256600  0.861060  1.0  0.008
  C  C467  1  0.966200  0.255400  0.899640  1.0  -0.1544
  C  C468  1  0.980900  0.219400  0.979100  1.0  0.1453
  C  C469  1  0.964700  0.187100  0.961900  1.0  -0.0772
  C  C470  1  0.955500  0.149000  0.978200  1.0  -0.106
  C  C471  1  0.979100  0.264400  0.978600  1.0  -0.0016
  C  C472  1  0.171810  0.731540  0.779050  1.0  0.6775
  C  C473  1  0.136070  0.734990  0.799950  1.0  -0.1597
  C  C474  1  0.133410  0.718610  0.835010  1.0  -0.1028
  C  C475  1  0.106160  0.752950  0.785370  1.0  -0.0484
  C  C476  1  0.072660  0.755890  0.804760  1.0  -0.2132
  C  C477  1  0.100560  0.722370  0.855180  1.0  -0.16
  C  C478  1  0.069390  0.740290  0.839990  1.0  0.0086
  C  C479  1  0.033990  0.743400  0.861060  1.0  0.0086
  C  C480  1  0.033800  0.744600  0.899640  1.0  -0.1542
  C  C481  1  0.019100  0.780600  0.979100  1.0  0.1478
  C  C482  1  0.035300  0.812900  0.961900  1.0  -0.079
  C  C483  1  0.044500  0.851000  0.978200  1.0  -0.1062
  C  C484  1  0.020900  0.735600  0.978600  1.0  -0.0063
  C  C485  1  0.220950  0.171810  0.268460  1.0  0.6758
  C  C486  1  0.200050  0.136070  0.265010  1.0  -0.1602
  C  C487  1  0.164990  0.133410  0.281390  1.0  -0.1024
  C  C488  1  0.214630  0.106160  0.247050  1.0  -0.0445
  C  C489  1  0.195240  0.072660  0.244110  1.0  -0.2093
  C  C490  1  0.144820  0.100560  0.277630  1.0  -0.1578
  C  C491  1  0.160010  0.069390  0.259710  1.0  0.0098
  C  C492  1  0.138940  0.033990  0.256600  1.0  0.009
  C  C493  1  0.100360  0.033800  0.255400  1.0  -0.1554
  C  C494  1  0.020900  0.019100  0.219400  1.0  0.1438
  C  C495  1  0.038100  0.035300  0.187100  1.0  -0.0758
  C  C496  1  0.021800  0.044500  0.149000  1.0  -0.109
  C  C497  1  0.021400  0.020900  0.264400  1.0  -0.0085
  C  C498  1  0.220950  0.828190  0.731540  1.0  0.6763
  C  C499  1  0.200050  0.863930  0.734990  1.0  -0.16
  C  C500  1  0.164990  0.866590  0.718610  1.0  -0.1024
  C  C501  1  0.214630  0.893840  0.752950  1.0  -0.0452
  C  C502  1  0.195240  0.927340  0.755890  1.0  -0.2091
  C  C503  1  0.144820  0.899440  0.722370  1.0  -0.1574
  C  C504  1  0.160010  0.930610  0.740290  1.0  0.01
  C  C505  1  0.138940  0.966010  0.743400  1.0  0.0087
  C  C506  1  0.100360  0.966200  0.744600  1.0  -0.1534
  C  C507  1  0.020900  0.980900  0.780600  1.0  0.1465
  C  C508  1  0.038100  0.964700  0.812900  1.0  -0.0774
  C  C509  1  0.021800  0.955500  0.851000  1.0  -0.105
  C  C510  1  0.021400  0.979100  0.735600  1.0  -0.0125
  C  C511  1  0.779050  0.828190  0.268460  1.0  0.6763
  C  C512  1  0.799950  0.863930  0.265010  1.0  -0.1597
  C  C513  1  0.835010  0.866590  0.281390  1.0  -0.1015
  C  C514  1  0.785370  0.893840  0.247050  1.0  -0.0442
  C  C515  1  0.804760  0.927340  0.244110  1.0  -0.21
  C  C516  1  0.855180  0.899440  0.277630  1.0  -0.1565
  C  C517  1  0.839990  0.930610  0.259710  1.0  0.0097
  C  C518  1  0.861060  0.966010  0.256600  1.0  0.0078
  C  C519  1  0.899640  0.966200  0.255400  1.0  -0.1542
  C  C520  1  0.979100  0.980900  0.219400  1.0  0.1466
  C  C521  1  0.961900  0.964700  0.187100  1.0  -0.0773
  C  C522  1  0.978200  0.955500  0.149000  1.0  -0.1032
  C  C523  1  0.978600  0.979100  0.264400  1.0  -0.0084
  C  C524  1  0.779050  0.171810  0.731540  1.0  0.6763
  C  C525  1  0.799950  0.136070  0.734990  1.0  -0.1605
  C  C526  1  0.835010  0.133410  0.718610  1.0  -0.102
  C  C527  1  0.785370  0.106160  0.752950  1.0  -0.044
  C  C528  1  0.804760  0.072660  0.755890  1.0  -0.2097
  C  C529  1  0.855180  0.100560  0.722370  1.0  -0.1566
  C  C530  1  0.839990  0.069390  0.740290  1.0  0.01
  C  C531  1  0.861060  0.033990  0.743400  1.0  0.0086
  C  C532  1  0.899640  0.033800  0.744600  1.0  -0.1536
  C  C533  1  0.979100  0.019100  0.780600  1.0  0.1442
  C  C534  1  0.961900  0.035300  0.812900  1.0  -0.0815
  C  C535  1  0.978200  0.044500  0.851000  1.0  -0.1079
  C  C536  1  0.978600  0.020900  0.735600  1.0  -0.0068
  C  C537  1  0.268460  0.220950  0.171810  1.0  0.6771
  C  C538  1  0.265010  0.200050  0.136070  1.0  -0.1612
  C  C539  1  0.281390  0.164990  0.133410  1.0  -0.1013
  C  C540  1  0.247050  0.214630  0.106160  1.0  -0.0498
  C  C541  1  0.244110  0.195240  0.072660  1.0  -0.2133
  C  C542  1  0.277630  0.144820  0.100560  1.0  -0.1554
  C  C543  1  0.259710  0.160010  0.069390  1.0  0.0102
  C  C544  1  0.256600  0.138940  0.033990  1.0  0.0087
  C  C545  1  0.255400  0.100360  0.033800  1.0  -0.1525
  C  C546  1  0.219400  0.020900  0.019100  1.0  0.1468
  C  C547  1  0.187100  0.038100  0.035300  1.0  -0.0761
  C  C548  1  0.149000  0.021800  0.044500  1.0  -0.1051
  C  C549  1  0.264400  0.021400  0.020900  1.0  -0.0116
  C  C550  1  0.731540  0.220950  0.828190  1.0  0.6772
  C  C551  1  0.734990  0.200050  0.863930  1.0  -0.1627
  C  C552  1  0.718610  0.164990  0.866590  1.0  -0.1026
  C  C553  1  0.752950  0.214630  0.893840  1.0  -0.049
  C  C554  1  0.755890  0.195240  0.927340  1.0  -0.2132
  C  C555  1  0.722370  0.144820  0.899440  1.0  -0.156
  C  C556  1  0.740290  0.160010  0.930610  1.0  0.0101
  C  C557  1  0.743400  0.138940  0.966010  1.0  0.009
  C  C558  1  0.744600  0.100360  0.966200  1.0  -0.1521
  C  C559  1  0.780600  0.020900  0.980900  1.0  0.1438
  C  C560  1  0.812900  0.038100  0.964700  1.0  -0.0757
  C  C561  1  0.851000  0.021800  0.955500  1.0  -0.1073
  C  C562  1  0.735600  0.021400  0.979100  1.0  -0.0074
  C  C563  1  0.268460  0.779050  0.828190  1.0  0.6771
  C  C564  1  0.265010  0.799950  0.863930  1.0  -0.1619
  C  C565  1  0.281390  0.835010  0.866590  1.0  -0.1021
  C  C566  1  0.247050  0.785370  0.893840  1.0  -0.047
  C  C567  1  0.244110  0.804760  0.927340  1.0  -0.2128
  C  C568  1  0.277630  0.855180  0.899440  1.0  -0.1566
  C  C569  1  0.259710  0.839990  0.930610  1.0  0.0099
  C  C570  1  0.256600  0.861060  0.966010  1.0  0.0077
  C  C571  1  0.255400  0.899640  0.966200  1.0  -0.1519
  C  C572  1  0.219400  0.979100  0.980900  1.0  0.1494
  C  C573  1  0.187100  0.961900  0.964700  1.0  -0.0779
  C  C574  1  0.149000  0.978200  0.955500  1.0  -0.1038
  C  C575  1  0.264400  0.978600  0.979100  1.0  -0.0095
  C  C576  1  0.731540  0.779050  0.171810  1.0  0.6768
  C  C577  1  0.734990  0.799950  0.136070  1.0  -0.161
  C  C578  1  0.718610  0.835010  0.133410  1.0  -0.1017
  C  C579  1  0.752950  0.785370  0.106160  1.0  -0.0473
  C  C580  1  0.755890  0.804760  0.072660  1.0  -0.2137
  C  C581  1  0.722370  0.855180  0.100560  1.0  -0.1553
  C  C582  1  0.740290  0.839990  0.069390  1.0  0.0098
  C  C583  1  0.743400  0.861060  0.033990  1.0  0.0087
  C  C584  1  0.744600  0.899640  0.033800  1.0  -0.152
  C  C585  1  0.780600  0.979100  0.019100  1.0  0.1465
  C  C586  1  0.812900  0.961900  0.035300  1.0  -0.0751
  C  C587  1  0.851000  0.978200  0.044500  1.0  -0.1035
  C  C588  1  0.735600  0.978600  0.020900  1.0  -0.0091
  C  C589  1  0.768460  0.671810  0.279050  1.0  0.677
  C  C590  1  0.765010  0.636070  0.299950  1.0  -0.1609
  C  C591  1  0.781390  0.633410  0.335010  1.0  -0.1001
  C  C592  1  0.747050  0.606160  0.285370  1.0  -0.0469
  C  C593  1  0.744110  0.572660  0.304760  1.0  -0.2113
  C  C594  1  0.777630  0.600560  0.355180  1.0  -0.158
  C  C595  1  0.759710  0.569390  0.339990  1.0  0.0104
  C  C596  1  0.756600  0.533990  0.361060  1.0  0.0084
  C  C597  1  0.755400  0.533800  0.399640  1.0  -0.1533
  C  C598  1  0.719400  0.519100  0.479100  1.0  0.1456
  C  C599  1  0.687100  0.535300  0.461900  1.0  -0.0786
  C  C600  1  0.649000  0.544500  0.478200  1.0  -0.1069
  C  C601  1  0.764400  0.520900  0.478600  1.0  -0.0064
  C  C602  1  0.231540  0.328190  0.279050  1.0  0.6772
  C  C603  1  0.234990  0.363930  0.299950  1.0  -0.1608
  C  C604  1  0.218610  0.366590  0.335010  1.0  -0.1011
  C  C605  1  0.252950  0.393840  0.285370  1.0  -0.0476
  C  C606  1  0.255890  0.427340  0.304760  1.0  -0.2126
  C  C607  1  0.222370  0.399440  0.355180  1.0  -0.1587
  C  C608  1  0.240290  0.430610  0.339990  1.0  0.0102
  C  C609  1  0.243400  0.466010  0.361060  1.0  0.0083
  C  C610  1  0.244600  0.466200  0.399640  1.0  -0.1528
  C  C611  1  0.280600  0.480900  0.479100  1.0  0.1462
  C  C612  1  0.312900  0.464700  0.461900  1.0  -0.073
  C  C613  1  0.351000  0.455500  0.478200  1.0  -0.1059
  C  C614  1  0.235600  0.479100  0.478600  1.0  -0.0095
  C  C615  1  0.768460  0.328190  0.720950  1.0  0.6772
  C  C616  1  0.765010  0.363930  0.700050  1.0  -0.1604
  C  C617  1  0.781390  0.366590  0.664990  1.0  -0.1007
  C  C618  1  0.747050  0.393840  0.714630  1.0  -0.049
  C  C619  1  0.744110  0.427340  0.695240  1.0  -0.2132
  C  C620  1  0.777630  0.399440  0.644820  1.0  -0.1577
  C  C621  1  0.759710  0.430610  0.660010  1.0  0.0117
  C  C622  1  0.756600  0.466010  0.638940  1.0  0.0085
  C  C623  1  0.755400  0.466200  0.600360  1.0  -0.1541
  C  C624  1  0.719400  0.480900  0.520900  1.0  0.1494
  C  C625  1  0.687100  0.464700  0.538100  1.0  -0.0759
  C  C626  1  0.649000  0.455500  0.521800  1.0  -0.1066
  C  C627  1  0.764400  0.479100  0.521400  1.0  -0.0076
  C  C628  1  0.231540  0.671810  0.720950  1.0  0.677
  C  C629  1  0.234990  0.636070  0.700050  1.0  -0.1613
  C  C630  1  0.218610  0.633410  0.664990  1.0  -0.1012
  C  C631  1  0.252950  0.606160  0.714630  1.0  -0.0482
  C  C632  1  0.255890  0.572660  0.695240  1.0  -0.2126
  C  C633  1  0.222370  0.600560  0.644820  1.0  -0.1581
  C  C634  1  0.240290  0.569390  0.660010  1.0  0.0114
  C  C635  1  0.243400  0.533990  0.638940  1.0  0.0095
  C  C636  1  0.244600  0.533800  0.600360  1.0  -0.1552
  C  C637  1  0.280600  0.519100  0.520900  1.0  0.1442
  C  C638  1  0.312900  0.535300  0.538100  1.0  -0.0781
  C  C639  1  0.351000  0.544500  0.521800  1.0  -0.1082
  C  C640  1  0.235600  0.520900  0.521400  1.0  -0.0052
  C  C641  1  0.671810  0.720950  0.231540  1.0  0.677
  C  C642  1  0.636070  0.700050  0.234990  1.0  -0.1612
  C  C643  1  0.633410  0.664990  0.218610  1.0  -0.1039
  C  C644  1  0.606160  0.714630  0.252950  1.0  -0.051
  C  C645  1  0.572660  0.695240  0.255890  1.0  -0.2122
  C  C646  1  0.600560  0.644820  0.222370  1.0  -0.1554
  C  C647  1  0.569390  0.660010  0.240290  1.0  0.0093
  C  C648  1  0.533990  0.638940  0.243400  1.0  0.0082
  C  C649  1  0.533800  0.600360  0.244600  1.0  -0.1546
  C  C650  1  0.519100  0.520900  0.280600  1.0  0.1458
  C  C651  1  0.535300  0.538100  0.312900  1.0  -0.0802
  C  C652  1  0.544500  0.521800  0.351000  1.0  -0.1069
  C  C653  1  0.520900  0.521400  0.235600  1.0  -0.0092
  C  C654  1  0.328190  0.720950  0.768460  1.0  0.6768
  C  C655  1  0.363930  0.700050  0.765010  1.0  -0.1615
  C  C656  1  0.366590  0.664990  0.781390  1.0  -0.1028
  C  C657  1  0.393840  0.714630  0.747050  1.0  -0.0508
  C  C658  1  0.427340  0.695240  0.744110  1.0  -0.2126
  C  C659  1  0.399440  0.644820  0.777630  1.0  -0.156
  C  C660  1  0.430610  0.660010  0.759710  1.0  0.0095
  C  C661  1  0.466010  0.638940  0.756600  1.0  0.0073
  C  C662  1  0.466200  0.600360  0.755400  1.0  -0.1551
  C  C663  1  0.480900  0.520900  0.719400  1.0  0.1447
  C  C664  1  0.464700  0.538100  0.687100  1.0  -0.0779
  C  C665  1  0.455500  0.521800  0.649000  1.0  -0.1072
  C  C666  1  0.479100  0.521400  0.764400  1.0  -0.0104
  C  C667  1  0.328190  0.279050  0.231540  1.0  0.6766
  C  C668  1  0.363930  0.299950  0.234990  1.0  -0.1619
  C  C669  1  0.366590  0.335010  0.218610  1.0  -0.1033
  C  C670  1  0.393840  0.285370  0.252950  1.0  -0.0499
  C  C671  1  0.427340  0.304760  0.255890  1.0  -0.212
  C  C672  1  0.399440  0.355180  0.222370  1.0  -0.1556
  C  C673  1  0.430610  0.339990  0.240290  1.0  0.0094
  C  C674  1  0.466010  0.361060  0.243400  1.0  0.0067
  C  C675  1  0.466200  0.399640  0.244600  1.0  -0.1541
  C  C676  1  0.480900  0.479100  0.280600  1.0  0.1452
  C  C677  1  0.464700  0.461900  0.312900  1.0  -0.0792
  C  C678  1  0.455500  0.478200  0.351000  1.0  -0.1056
  C  C679  1  0.479100  0.478600  0.235600  1.0  -0.009
  C  C680  1  0.671810  0.279050  0.768460  1.0  0.6768
  C  C681  1  0.636070  0.299950  0.765010  1.0  -0.1606
  C  C682  1  0.633410  0.335010  0.781390  1.0  -0.1024
  C  C683  1  0.606160  0.285370  0.747050  1.0  -0.048
  C  C684  1  0.572660  0.304760  0.744110  1.0  -0.2116
  C  C685  1  0.600560  0.355180  0.777630  1.0  -0.1552
  C  C686  1  0.569390  0.339990  0.759710  1.0  0.0089
  C  C687  1  0.533990  0.361060  0.756600  1.0  0.008
  C  C688  1  0.533800  0.399640  0.755400  1.0  -0.1541
  C  C689  1  0.519100  0.479100  0.719400  1.0  0.1482
  C  C690  1  0.535300  0.461900  0.687100  1.0  -0.0779
  C  C691  1  0.544500  0.478200  0.649000  1.0  -0.1055
  C  C692  1  0.520900  0.478600  0.764400  1.0  -0.0111
  C  C693  1  0.720950  0.768460  0.328190  1.0  0.6767
  C  C694  1  0.700050  0.765010  0.363930  1.0  -0.1605
  C  C695  1  0.664990  0.781390  0.366590  1.0  -0.1032
  C  C696  1  0.714630  0.747050  0.393840  1.0  -0.0449
  C  C697  1  0.695240  0.744110  0.427340  1.0  -0.2111
  C  C698  1  0.644820  0.777630  0.399440  1.0  -0.1588
  C  C699  1  0.660010  0.759710  0.430610  1.0  0.009
  C  C700  1  0.638940  0.756600  0.466010  1.0  0.0096
  C  C701  1  0.600360  0.755400  0.466200  1.0  -0.1529
  C  C702  1  0.520900  0.719400  0.480900  1.0  0.1478
  C  C703  1  0.538100  0.687100  0.464700  1.0  -0.075
  C  C704  1  0.521800  0.649000  0.455500  1.0  -0.1039
  C  C705  1  0.521400  0.764400  0.479100  1.0  -0.0045
  C  C706  1  0.720950  0.231540  0.671810  1.0  0.6764
  C  C707  1  0.700050  0.234990  0.636070  1.0  -0.1588
  C  C708  1  0.664990  0.218610  0.633410  1.0  -0.1024
  C  C709  1  0.714630  0.252950  0.606160  1.0  -0.0449
  C  C710  1  0.695240  0.255890  0.572660  1.0  -0.2118
  C  C711  1  0.644820  0.222370  0.600560  1.0  -0.1585
  C  C712  1  0.660010  0.240290  0.569390  1.0  0.0088
  C  C713  1  0.638940  0.243400  0.533990  1.0  0.0094
  C  C714  1  0.600360  0.244600  0.533800  1.0  -0.1539
  C  C715  1  0.520900  0.280600  0.519100  1.0  0.1475
  C  C716  1  0.538100  0.312900  0.535300  1.0  -0.0768
  C  C717  1  0.521800  0.351000  0.544500  1.0  -0.1032
  C  C718  1  0.521400  0.235600  0.520900  1.0  -0.0099
  C  C719  1  0.279050  0.768460  0.671810  1.0  0.6764
  C  C720  1  0.299950  0.765010  0.636070  1.0  -0.1596
  C  C721  1  0.335010  0.781390  0.633410  1.0  -0.1021
  C  C722  1  0.285370  0.747050  0.606160  1.0  -0.0443
  C  C723  1  0.304760  0.744110  0.572660  1.0  -0.2125
  C  C724  1  0.355180  0.777630  0.600560  1.0  -0.1575
  C  C725  1  0.339990  0.759710  0.569390  1.0  0.0094
  C  C726  1  0.361060  0.756600  0.533990  1.0  0.0097
  C  C727  1  0.399640  0.755400  0.533800  1.0  -0.1533
  C  C728  1  0.479100  0.719400  0.519100  1.0  0.1486
  C  C729  1  0.461900  0.687100  0.535300  1.0  -0.0776
  C  C730  1  0.478200  0.649000  0.544500  1.0  -0.1031
  C  C731  1  0.478600  0.764400  0.520900  1.0  -0.0073
  C  C732  1  0.279050  0.231540  0.328190  1.0  0.6767
  C  C733  1  0.299950  0.234990  0.363930  1.0  -0.1608
  C  C734  1  0.335010  0.218610  0.366590  1.0  -0.1031
  C  C735  1  0.285370  0.252950  0.393840  1.0  -0.0443
  C  C736  1  0.304760  0.255890  0.427340  1.0  -0.2126
  C  C737  1  0.355180  0.222370  0.399440  1.0  -0.1579
  C  C738  1  0.339990  0.240290  0.430610  1.0  0.0087
  C  C739  1  0.361060  0.243400  0.466010  1.0  0.0085
  C  C740  1  0.399640  0.244600  0.466200  1.0  -0.1533
  C  C741  1  0.479100  0.280600  0.480900  1.0  0.1481
  C  C742  1  0.461900  0.312900  0.464700  1.0  -0.0791
  C  C743  1  0.478200  0.351000  0.455500  1.0  -0.1032
  C  C744  1  0.478600  0.235600  0.479100  1.0  -0.0057
  C  C745  1  0.828190  0.731540  0.779050  1.0  0.6774
  C  C746  1  0.863930  0.734990  0.799950  1.0  -0.1605
  C  C747  1  0.866590  0.718610  0.835010  1.0  -0.1022
  C  C748  1  0.893840  0.752950  0.785370  1.0  -0.049
  C  C749  1  0.927340  0.755890  0.804760  1.0  -0.2136
  C  C750  1  0.899440  0.722370  0.855180  1.0  -0.1602
  C  C751  1  0.930610  0.740290  0.839990  1.0  0.0088
  C  C752  1  0.966010  0.743400  0.861060  1.0  0.0075
  C  C753  1  0.966200  0.744600  0.899640  1.0  -0.1554
  C  C754  1  0.980900  0.780600  0.979100  1.0  0.1455
  C  C755  1  0.964700  0.812900  0.961900  1.0  -0.0793
  C  C756  1  0.955500  0.851000  0.978200  1.0  -0.1052
  C  C757  1  0.979100  0.735600  0.978600  1.0  -0.008
  C  C758  1  0.171810  0.268460  0.779050  1.0  0.6774
  C  C759  1  0.136070  0.265010  0.799950  1.0  -0.1603
  C  C760  1  0.133410  0.281390  0.835010  1.0  -0.1025
  C  C761  1  0.106160  0.247050  0.785370  1.0  -0.0478
  C  C762  1  0.072660  0.244110  0.804760  1.0  -0.2125
  C  C763  1  0.100560  0.277630  0.855180  1.0  -0.1589
  C  C764  1  0.069390  0.259710  0.839990  1.0  0.0086
  C  C765  1  0.033990  0.256600  0.861060  1.0  0.009
  C  C766  1  0.033800  0.255400  0.899640  1.0  -0.1548
  C  C767  1  0.019100  0.219400  0.979100  1.0  0.1495
  C  C768  1  0.035300  0.187100  0.961900  1.0  -0.0755
  C  C769  1  0.044500  0.149000  0.978200  1.0  -0.1039
  C  C770  1  0.020900  0.264400  0.978600  1.0  -0.0027
  C  C771  1  0.171810  0.731540  0.220950  1.0  0.6774
  C  C772  1  0.136070  0.734990  0.200050  1.0  -0.16
  C  C773  1  0.133410  0.718610  0.164990  1.0  -0.1035
  C  C774  1  0.106160  0.752950  0.214630  1.0  -0.0492
  C  C775  1  0.072660  0.755890  0.195240  1.0  -0.2142
  C  C776  1  0.100560  0.722370  0.144820  1.0  -0.1593
  C  C777  1  0.069390  0.740290  0.160010  1.0  0.0097
  C  C778  1  0.033990  0.743400  0.138940  1.0  0.0091
  C  C779  1  0.033800  0.744600  0.100360  1.0  -0.1571
  C  C780  1  0.019100  0.780600  0.020900  1.0  0.1482
  C  C781  1  0.035300  0.812900  0.038100  1.0  -0.0795
  C  C782  1  0.044500  0.851000  0.021800  1.0  -0.1054
  C  C783  1  0.020900  0.735600  0.021400  1.0  -0.0048
  C  C784  1  0.828190  0.268460  0.220950  1.0  0.6772
  C  C785  1  0.863930  0.265010  0.200050  1.0  -0.1612
  C  C786  1  0.866590  0.281390  0.164990  1.0  -0.1036
  C  C787  1  0.893840  0.247050  0.214630  1.0  -0.0494
  C  C788  1  0.927340  0.244110  0.195240  1.0  -0.2133
  C  C789  1  0.899440  0.277630  0.144820  1.0  -0.1603
  C  C790  1  0.930610  0.259710  0.160010  1.0  0.0103
  C  C791  1  0.966010  0.256600  0.138940  1.0  0.0087
  C  C792  1  0.966200  0.255400  0.100360  1.0  -0.1577
  C  C793  1  0.980900  0.219400  0.020900  1.0  0.1469
  C  C794  1  0.964700  0.187100  0.038100  1.0  -0.0782
  C  C795  1  0.955500  0.149000  0.021800  1.0  -0.1045
  C  C796  1  0.979100  0.264400  0.021400  1.0  -0.0032
  C  C797  1  0.779050  0.828190  0.731540  1.0  0.6764
  C  C798  1  0.799950  0.863930  0.734990  1.0  -0.1601
  C  C799  1  0.835010  0.866590  0.718610  1.0  -0.1024
  C  C800  1  0.785370  0.893840  0.752950  1.0  -0.0448
  C  C801  1  0.804760  0.927340  0.755890  1.0  -0.21
  C  C802  1  0.855180  0.899440  0.722370  1.0  -0.1567
  C  C803  1  0.839990  0.930610  0.740290  1.0  0.0099
  C  C804  1  0.861060  0.966010  0.743400  1.0  0.008
  C  C805  1  0.899640  0.966200  0.744600  1.0  -0.1547
  C  C806  1  0.979100  0.980900  0.780600  1.0  0.1471
  C  C807  1  0.961900  0.964700  0.812900  1.0  -0.0779
  C  C808  1  0.978200  0.955500  0.851000  1.0  -0.104
  C  C809  1  0.978600  0.979100  0.735600  1.0  -0.0084
  C  C810  1  0.779050  0.171810  0.268460  1.0  0.6759
  C  C811  1  0.799950  0.136070  0.265010  1.0  -0.1601
  C  C812  1  0.835010  0.133410  0.281390  1.0  -0.1007
  C  C813  1  0.785370  0.106160  0.247050  1.0  -0.0437
  C  C814  1  0.804760  0.072660  0.244110  1.0  -0.2096
  C  C815  1  0.855180  0.100560  0.277630  1.0  -0.1565
  C  C816  1  0.839990  0.069390  0.259710  1.0  0.0099
  C  C817  1  0.861060  0.033990  0.256600  1.0  0.0086
  C  C818  1  0.899640  0.033800  0.255400  1.0  -0.1544
  C  C819  1  0.979100  0.019100  0.219400  1.0  0.1434
  C  C820  1  0.961900  0.035300  0.187100  1.0  -0.0792
  C  C821  1  0.978200  0.044500  0.149000  1.0  -0.1058
  C  C822  1  0.978600  0.020900  0.264400  1.0  -0.0068
  C  C823  1  0.220950  0.171810  0.731540  1.0  0.6759
  C  C824  1  0.200050  0.136070  0.734990  1.0  -0.1606
  C  C825  1  0.164990  0.133410  0.718610  1.0  -0.1021
  C  C826  1  0.214630  0.106160  0.752950  1.0  -0.0448
  C  C827  1  0.195240  0.072660  0.755890  1.0  -0.2092
  C  C828  1  0.144820  0.100560  0.722370  1.0  -0.1575
  C  C829  1  0.160010  0.069390  0.740290  1.0  0.0099
  C  C830  1  0.138940  0.033990  0.743400  1.0  0.009
  C  C831  1  0.100360  0.033800  0.744600  1.0  -0.156
  C  C832  1  0.020900  0.019100  0.780600  1.0  0.1449
  C  C833  1  0.038100  0.035300  0.812900  1.0  -0.0795
  C  C834  1  0.021800  0.044500  0.851000  1.0  -0.1061
  C  C835  1  0.021400  0.020900  0.735600  1.0  -0.0095
  C  C836  1  0.220950  0.828190  0.268460  1.0  0.6762
  C  C837  1  0.200050  0.863930  0.265010  1.0  -0.1596
  C  C838  1  0.164990  0.866590  0.281390  1.0  -0.1025
  C  C839  1  0.214630  0.893840  0.247050  1.0  -0.0444
  C  C840  1  0.195240  0.927340  0.244110  1.0  -0.2094
  C  C841  1  0.144820  0.899440  0.277630  1.0  -0.1576
  C  C842  1  0.160010  0.930610  0.259710  1.0  0.0098
  C  C843  1  0.138940  0.966010  0.256600  1.0  0.0087
  C  C844  1  0.100360  0.966200  0.255400  1.0  -0.1545
  C  C845  1  0.020900  0.980900  0.219400  1.0  0.1473
  C  C846  1  0.038100  0.964700  0.187100  1.0  -0.0751
  C  C847  1  0.021800  0.955500  0.149000  1.0  -0.1051
  C  C848  1  0.021400  0.979100  0.264400  1.0  -0.0111
  C  C849  1  0.731540  0.779050  0.828190  1.0  0.677
  C  C850  1  0.734990  0.799950  0.863930  1.0  -0.163
  C  C851  1  0.718610  0.835010  0.866590  1.0  -0.1024
  C  C852  1  0.752950  0.785370  0.893840  1.0  -0.047
  C  C853  1  0.755890  0.804760  0.927340  1.0  -0.2129
  C  C854  1  0.722370  0.855180  0.899440  1.0  -0.1555
  C  C855  1  0.740290  0.839990  0.930610  1.0  0.01
  C  C856  1  0.743400  0.861060  0.966010  1.0  0.0083
  C  C857  1  0.744600  0.899640  0.966200  1.0  -0.1526
  C  C858  1  0.780600  0.979100  0.980900  1.0  0.1452
  C  C859  1  0.812900  0.961900  0.964700  1.0  -0.0752
  C  C860  1  0.851000  0.978200  0.955500  1.0  -0.1042
  C  C861  1  0.735600  0.978600  0.979100  1.0  -0.0073
  C  C862  1  0.268460  0.779050  0.171810  1.0  0.677
  C  C863  1  0.265010  0.799950  0.136070  1.0  -0.1609
  C  C864  1  0.281390  0.835010  0.133410  1.0  -0.1014
  C  C865  1  0.247050  0.785370  0.106160  1.0  -0.0474
  C  C866  1  0.244110  0.804760  0.072660  1.0  -0.2133
  C  C867  1  0.277630  0.855180  0.100560  1.0  -0.1561
  C  C868  1  0.259710  0.839990  0.069390  1.0  0.01
  C  C869  1  0.256600  0.861060  0.033990  1.0  0.0079
  C  C870  1  0.255400  0.899640  0.033800  1.0  -0.1529
  C  C871  1  0.219400  0.979100  0.019100  1.0  0.1476
  C  C872  1  0.187100  0.961900  0.035300  1.0  -0.0765
  C  C873  1  0.149000  0.978200  0.044500  1.0  -0.1018
  C  C874  1  0.264400  0.978600  0.020900  1.0  -0.0117
  C  C875  1  0.731540  0.220950  0.171810  1.0  0.6769
  C  C876  1  0.734990  0.200050  0.136070  1.0  -0.1611
  C  C877  1  0.718610  0.164990  0.133410  1.0  -0.1017
  C  C878  1  0.752950  0.214630  0.106160  1.0  -0.0493
  C  C879  1  0.755890  0.195240  0.072660  1.0  -0.2134
  C  C880  1  0.722370  0.144820  0.100560  1.0  -0.1564
  C  C881  1  0.740290  0.160010  0.069390  1.0  0.01
  C  C882  1  0.743400  0.138940  0.033990  1.0  0.0094
  C  C883  1  0.744600  0.100360  0.033800  1.0  -0.1543
  C  C884  1  0.780600  0.020900  0.019100  1.0  0.1459
  C  C885  1  0.812900  0.038100  0.035300  1.0  -0.0773
  C  C886  1  0.851000  0.021800  0.044500  1.0  -0.104
  C  C887  1  0.735600  0.021400  0.020900  1.0  -0.0103
  C  C888  1  0.268460  0.220950  0.828190  1.0  0.6773
  C  C889  1  0.265010  0.200050  0.863930  1.0  -0.1617
  C  C890  1  0.281390  0.164990  0.866590  1.0  -0.1022
  C  C891  1  0.247050  0.214630  0.893840  1.0  -0.0495
  C  C892  1  0.244110  0.195240  0.927340  1.0  -0.2132
  C  C893  1  0.277630  0.144820  0.899440  1.0  -0.1555
  C  C894  1  0.259710  0.160010  0.930610  1.0  0.0101
  C  C895  1  0.256600  0.138940  0.966010  1.0  0.0083
  C  C896  1  0.255400  0.100360  0.966200  1.0  -0.1527
  C  C897  1  0.219400  0.020900  0.980900  1.0  0.1478
  C  C898  1  0.187100  0.038100  0.964700  1.0  -0.0754
  C  C899  1  0.149000  0.021800  0.955500  1.0  -0.1047
  C  C900  1  0.264400  0.021400  0.979100  1.0  -0.0083
  C  C901  1  0.231540  0.328190  0.720950  1.0  0.6773
  C  C902  1  0.234990  0.363930  0.700050  1.0  -0.1607
  C  C903  1  0.218610  0.366590  0.664990  1.0  -0.1009
  C  C904  1  0.252950  0.393840  0.714630  1.0  -0.0481
  C  C905  1  0.255890  0.427340  0.695240  1.0  -0.2125
  C  C906  1  0.222370  0.399440  0.644820  1.0  -0.1577
  C  C907  1  0.240290  0.430610  0.660010  1.0  0.0114
  C  C908  1  0.243400  0.466010  0.638940  1.0  0.0091
  C  C909  1  0.244600  0.466200  0.600360  1.0  -0.1556
  C  C910  1  0.280600  0.480900  0.520900  1.0  0.1469
  C  C911  1  0.312900  0.464700  0.538100  1.0  -0.0753
  C  C912  1  0.351000  0.455500  0.521800  1.0  -0.1025
  C  C913  1  0.235600  0.479100  0.521400  1.0  -0.0067
  C  C914  1  0.768460  0.671810  0.720950  1.0  0.6769
  C  C915  1  0.765010  0.636070  0.700050  1.0  -0.1612
  C  C916  1  0.781390  0.633410  0.664990  1.0  -0.1006
  C  C917  1  0.747050  0.606160  0.714630  1.0  -0.0489
  C  C918  1  0.744110  0.572660  0.695240  1.0  -0.2128
  C  C919  1  0.777630  0.600560  0.644820  1.0  -0.1574
  C  C920  1  0.759710  0.569390  0.660010  1.0  0.0118
  C  C921  1  0.756600  0.533990  0.638940  1.0  0.0089
  C  C922  1  0.755400  0.533800  0.600360  1.0  -0.1561
  C  C923  1  0.719400  0.519100  0.520900  1.0  0.1463
  C  C924  1  0.687100  0.535300  0.538100  1.0  -0.0772
  C  C925  1  0.649000  0.544500  0.521800  1.0  -0.1067
  C  C926  1  0.764400  0.520900  0.521400  1.0  -0.0083
  C  C927  1  0.231540  0.671810  0.279050  1.0  0.677
  C  C928  1  0.234990  0.636070  0.299950  1.0  -0.1612
  C  C929  1  0.218610  0.633410  0.335010  1.0  -0.1012
  C  C930  1  0.252950  0.606160  0.285370  1.0  -0.0474
  C  C931  1  0.255890  0.572660  0.304760  1.0  -0.212
  C  C932  1  0.222370  0.600560  0.355180  1.0  -0.1587
  C  C933  1  0.240290  0.569390  0.339990  1.0  0.0104
  C  C934  1  0.243400  0.533990  0.361060  1.0  0.009
  C  C935  1  0.244600  0.533800  0.399640  1.0  -0.154
  C  C936  1  0.280600  0.519100  0.479100  1.0  0.1438
  C  C937  1  0.312900  0.535300  0.461900  1.0  -0.0776
  C  C938  1  0.351000  0.544500  0.478200  1.0  -0.1075
  C  C939  1  0.235600  0.520900  0.478600  1.0  -0.0047
  C  C940  1  0.768460  0.328190  0.279050  1.0  0.6772
  C  C941  1  0.765010  0.363930  0.299950  1.0  -0.1603
  C  C942  1  0.781390  0.366590  0.335010  1.0  -0.1006
  C  C943  1  0.747050  0.393840  0.285370  1.0  -0.0475
  C  C944  1  0.744110  0.427340  0.304760  1.0  -0.212
  C  C945  1  0.777630  0.399440  0.355180  1.0  -0.1584
  C  C946  1  0.759710  0.430610  0.339990  1.0  0.0102
  C  C947  1  0.756600  0.466010  0.361060  1.0  0.0077
  C  C948  1  0.755400  0.466200  0.399640  1.0  -0.1528
  C  C949  1  0.719400  0.480900  0.479100  1.0  0.1476
  C  C950  1  0.687100  0.464700  0.461900  1.0  -0.0744
  C  C951  1  0.649000  0.455500  0.478200  1.0  -0.1063
  C  C952  1  0.764400  0.479100  0.478600  1.0  -0.0087
  C  C953  1  0.328190  0.279050  0.768460  1.0  0.6764
  C  C954  1  0.363930  0.299950  0.765010  1.0  -0.1615
  C  C955  1  0.366590  0.335010  0.781390  1.0  -0.103
  C  C956  1  0.393840  0.285370  0.747050  1.0  -0.0486
  C  C957  1  0.427340  0.304760  0.744110  1.0  -0.2126
  C  C958  1  0.399440  0.355180  0.777630  1.0  -0.1552
  C  C959  1  0.430610  0.339990  0.759710  1.0  0.0093
  C  C960  1  0.466010  0.361060  0.756600  1.0  0.0067
  C  C961  1  0.466200  0.399640  0.755400  1.0  -0.1554
  C  C962  1  0.480900  0.479100  0.719400  1.0  0.1444
  C  C963  1  0.464700  0.461900  0.687100  1.0  -0.0796
  C  C964  1  0.455500  0.478200  0.649000  1.0  -0.1031
  C  C965  1  0.479100  0.478600  0.764400  1.0  -0.0089
  C  C966  1  0.671810  0.279050  0.231540  1.0  0.6767
  C  C967  1  0.636070  0.299950  0.234990  1.0  -0.1609
  C  C968  1  0.633410  0.335010  0.218610  1.0  -0.1036
  C  C969  1  0.606160  0.285370  0.252950  1.0  -0.0494
  C  C970  1  0.572660  0.304760  0.255890  1.0  -0.2113
  C  C971  1  0.600560  0.355180  0.222370  1.0  -0.1559
  C  C972  1  0.569390  0.339990  0.240290  1.0  0.0091
  C  C973  1  0.533990  0.361060  0.243400  1.0  0.0081
  C  C974  1  0.533800  0.399640  0.244600  1.0  -0.1548
  C  C975  1  0.519100  0.479100  0.280600  1.0  0.1469
  C  C976  1  0.535300  0.461900  0.312900  1.0  -0.0784
  C  C977  1  0.544500  0.478200  0.351000  1.0  -0.1032
  C  C978  1  0.520900  0.478600  0.235600  1.0  -0.0105
  C  C979  1  0.671810  0.720950  0.768460  1.0  0.6771
  C  C980  1  0.636070  0.700050  0.765010  1.0  -0.1609
  C  C981  1  0.633410  0.664990  0.781390  1.0  -0.1027
  C  C982  1  0.606160  0.714630  0.747050  1.0  -0.0509
  C  C983  1  0.572660  0.695240  0.744110  1.0  -0.2125
  C  C984  1  0.600560  0.644820  0.777630  1.0  -0.1555
  C  C985  1  0.569390  0.660010  0.759710  1.0  0.0092
  C  C986  1  0.533990  0.638940  0.756600  1.0  0.0081
  C  C987  1  0.533800  0.600360  0.755400  1.0  -0.1557
  C  C988  1  0.519100  0.520900  0.719400  1.0  0.1466
  C  C989  1  0.535300  0.538100  0.687100  1.0  -0.0775
  C  C990  1  0.544500  0.521800  0.649000  1.0  -0.1066
  C  C991  1  0.520900  0.521400  0.764400  1.0  -0.011
  C  C992  1  0.328190  0.720950  0.231540  1.0  0.6768
  C  C993  1  0.363930  0.700050  0.234990  1.0  -0.162
  C  C994  1  0.366590  0.664990  0.218610  1.0  -0.1034
  C  C995  1  0.393840  0.714630  0.252950  1.0  -0.0509
  C  C996  1  0.427340  0.695240  0.255890  1.0  -0.212
  C  C997  1  0.399440  0.644820  0.222370  1.0  -0.1555
  C  C998  1  0.430610  0.660010  0.240290  1.0  0.0096
  C  C999  1  0.466010  0.638940  0.243400  1.0  0.0074
  C  C1000  1  0.466200  0.600360  0.244600  1.0  -0.1554
  C  C1001  1  0.480900  0.520900  0.280600  1.0  0.1445
  C  C1002  1  0.464700  0.538100  0.312900  1.0  -0.0789
  C  C1003  1  0.455500  0.521800  0.351000  1.0  -0.1067
  C  C1004  1  0.479100  0.521400  0.235600  1.0  -0.009
  C  C1005  1  0.279050  0.231540  0.671810  1.0  0.6765
  C  C1006  1  0.299950  0.234990  0.636070  1.0  -0.1588
  C  C1007  1  0.335010  0.218610  0.633410  1.0  -0.1022
  C  C1008  1  0.285370  0.252950  0.606160  1.0  -0.0446
  C  C1009  1  0.304760  0.255890  0.572660  1.0  -0.2124
  C  C1010  1  0.355180  0.222370  0.600560  1.0  -0.1574
  C  C1011  1  0.339990  0.240290  0.569390  1.0  0.0091
  C  C1012  1  0.361060  0.243400  0.533990  1.0  0.0092
  C  C1013  1  0.399640  0.244600  0.533800  1.0  -0.1548
  C  C1014  1  0.479100  0.280600  0.519100  1.0  0.1464
  C  C1015  1  0.461900  0.312900  0.535300  1.0  -0.0805
  C  C1016  1  0.478200  0.351000  0.544500  1.0  -0.102
  C  C1017  1  0.478600  0.235600  0.520900  1.0  -0.0075
  C  C1018  1  0.279050  0.768460  0.328190  1.0  0.6767
  C  C1019  1  0.299950  0.765010  0.363930  1.0  -0.1607
  C  C1020  1  0.335010  0.781390  0.366590  1.0  -0.1029
  C  C1021  1  0.285370  0.747050  0.393840  1.0  -0.0439
  C  C1022  1  0.304760  0.744110  0.427340  1.0  -0.212
  C  C1023  1  0.355180  0.777630  0.399440  1.0  -0.1578
  C  C1024  1  0.339990  0.759710  0.430610  1.0  0.009
  C  C1025  1  0.361060  0.756600  0.466010  1.0  0.0091
  C  C1026  1  0.399640  0.755400  0.466200  1.0  -0.1531
  C  C1027  1  0.479100  0.719400  0.480900  1.0  0.1494
  C  C1028  1  0.461900  0.687100  0.464700  1.0  -0.0785
  C  C1029  1  0.478200  0.649000  0.455500  1.0  -0.1001
  C  C1030  1  0.478600  0.764400  0.479100  1.0  -0.0024
  C  C1031  1  0.720950  0.231540  0.328190  1.0  0.6765
  C  C1032  1  0.700050  0.234990  0.363930  1.0  -0.1604
  C  C1033  1  0.664990  0.218610  0.366590  1.0  -0.1032
  C  C1034  1  0.714630  0.252950  0.393840  1.0  -0.0449
  C  C1035  1  0.695240  0.255890  0.427340  1.0  -0.212
  C  C1036  1  0.644820  0.222370  0.399440  1.0  -0.1588
  C  C1037  1  0.660010  0.240290  0.430610  1.0  0.0089
  C  C1038  1  0.638940  0.243400  0.466010  1.0  0.009
  C  C1039  1  0.600360  0.244600  0.466200  1.0  -0.1537
  C  C1040  1  0.520900  0.280600  0.480900  1.0  0.1464
  C  C1041  1  0.538100  0.312900  0.464700  1.0  -0.0767
  C  C1042  1  0.521800  0.351000  0.455500  1.0  -0.1039
  C  C1043  1  0.521400  0.235600  0.479100  1.0  -0.0091
  C  C1044  1  0.720950  0.768460  0.671810  1.0  0.6765
  C  C1045  1  0.700050  0.765010  0.636070  1.0  -0.1597
  C  C1046  1  0.664990  0.781390  0.633410  1.0  -0.1026
  C  C1047  1  0.714630  0.747050  0.606160  1.0  -0.0449
  C  C1048  1  0.695240  0.744110  0.572660  1.0  -0.212
  C  C1049  1  0.644820  0.777630  0.600560  1.0  -0.1587
  C  C1050  1  0.660010  0.759710  0.569390  1.0  0.0088
  C  C1051  1  0.638940  0.756600  0.533990  1.0  0.0099
  C  C1052  1  0.600360  0.755400  0.533800  1.0  -0.1556
  C  C1053  1  0.520900  0.719400  0.519100  1.0  0.1493
  C  C1054  1  0.538100  0.687100  0.535300  1.0  -0.0753
  C  C1055  1  0.521800  0.649000  0.544500  1.0  -0.1022
  C  C1056  1  0.521400  0.764400  0.520900  1.0  -0.0076
  C  C1057  1  0.000000  0.257200  0.158170  1.0  -0.1364
  C  C1058  1  0.000000  0.254600  0.080790  1.0  -0.0201
  C  C1059  1  0.000000  0.250400  0.040120  1.0  -0.0504
  C  C1060  1  0.000000  0.742800  0.158170  1.0  -0.1356
  C  C1061  1  0.000000  0.745400  0.080790  1.0  -0.0178
  C  C1062  1  0.000000  0.749600  0.040120  1.0  -0.0478
  C  C1063  1  0.000000  0.257200  0.841830  1.0  -0.1374
  C  C1064  1  0.000000  0.254600  0.919210  1.0  -0.0205
  C  C1065  1  0.000000  0.250400  0.959880  1.0  -0.05
  C  C1066  1  0.000000  0.742800  0.841830  1.0  -0.1362
  C  C1067  1  0.000000  0.745400  0.919210  1.0  -0.0194
  C  C1068  1  0.000000  0.749600  0.959880  1.0  -0.0493
  C  C1069  1  0.158170  0.000000  0.257200  1.0  -0.1432
  C  C1070  1  0.080790  0.000000  0.254600  1.0  -0.023
  C  C1071  1  0.040120  0.000000  0.250400  1.0  -0.0442
  C  C1072  1  0.158170  0.000000  0.742800  1.0  -0.1431
  C  C1073  1  0.080790  0.000000  0.745400  1.0  -0.0228
  C  C1074  1  0.040120  0.000000  0.749600  1.0  -0.0456
  C  C1075  1  0.841830  0.000000  0.257200  1.0  -0.1423
  C  C1076  1  0.919210  0.000000  0.254600  1.0  -0.0252
  C  C1077  1  0.959880  0.000000  0.250400  1.0  -0.0484
  C  C1078  1  0.841830  0.000000  0.742800  1.0  -0.142
  C  C1079  1  0.919210  0.000000  0.745400  1.0  -0.0264
  C  C1080  1  0.959880  0.000000  0.749600  1.0  -0.0506
  C  C1081  1  0.257200  0.158170  0.000000  1.0  -0.1392
  C  C1082  1  0.254600  0.080790  0.000000  1.0  -0.0217
  C  C1083  1  0.250400  0.040120  0.000000  1.0  -0.0443
  C  C1084  1  0.742800  0.158170  0.000000  1.0  -0.1386
  C  C1085  1  0.745400  0.080790  0.000000  1.0  -0.0231
  C  C1086  1  0.749600  0.040120  0.000000  1.0  -0.0454
  C  C1087  1  0.257200  0.841830  0.000000  1.0  -0.1383
  C  C1088  1  0.254600  0.919210  0.000000  1.0  -0.0199
  C  C1089  1  0.250400  0.959880  0.000000  1.0  -0.0437
  C  C1090  1  0.742800  0.841830  0.000000  1.0  -0.1386
  C  C1091  1  0.745400  0.919210  0.000000  1.0  -0.0224
  C  C1092  1  0.749600  0.959880  0.000000  1.0  -0.0421
  C  C1093  1  0.757200  0.500000  0.341830  1.0  -0.1389
  C  C1094  1  0.754600  0.500000  0.419210  1.0  -0.0193
  C  C1095  1  0.750400  0.500000  0.459880  1.0  -0.0502
  C  C1096  1  0.242800  0.500000  0.341830  1.0  -0.138
  C  C1097  1  0.245400  0.500000  0.419210  1.0  -0.02
  C  C1098  1  0.249600  0.500000  0.459880  1.0  -0.0483
  C  C1099  1  0.757200  0.500000  0.658170  1.0  -0.1373
  C  C1100  1  0.754600  0.500000  0.580790  1.0  -0.0186
  C  C1101  1  0.750400  0.500000  0.540120  1.0  -0.0496
  C  C1102  1  0.242800  0.500000  0.658170  1.0  -0.1376
  C  C1103  1  0.245400  0.500000  0.580790  1.0  -0.0195
  C  C1104  1  0.249600  0.500000  0.540120  1.0  -0.0499
  C  C1105  1  0.500000  0.658170  0.242800  1.0  -0.1376
  C  C1106  1  0.500000  0.580790  0.245400  1.0  -0.0228
  C  C1107  1  0.500000  0.540120  0.249600  1.0  -0.0472
  C  C1108  1  0.500000  0.658170  0.757200  1.0  -0.1371
  C  C1109  1  0.500000  0.580790  0.754600  1.0  -0.0227
  C  C1110  1  0.500000  0.540120  0.750400  1.0  -0.047
  C  C1111  1  0.500000  0.341830  0.242800  1.0  -0.1368
  C  C1112  1  0.500000  0.419210  0.245400  1.0  -0.0219
  C  C1113  1  0.500000  0.459880  0.249600  1.0  -0.0465
  C  C1114  1  0.500000  0.341830  0.757200  1.0  -0.1373
  C  C1115  1  0.500000  0.419210  0.754600  1.0  -0.0218
  C  C1116  1  0.500000  0.459880  0.750400  1.0  -0.0431
  C  C1117  1  0.658170  0.757200  0.500000  1.0  -0.143
  C  C1118  1  0.580790  0.754600  0.500000  1.0  -0.023
  C  C1119  1  0.540120  0.750400  0.500000  1.0  -0.0432
  C  C1120  1  0.658170  0.242800  0.500000  1.0  -0.1427
  C  C1121  1  0.580790  0.245400  0.500000  1.0  -0.0218
  C  C1122  1  0.540120  0.249600  0.500000  1.0  -0.0415
  C  C1123  1  0.341830  0.757200  0.500000  1.0  -0.1419
  C  C1124  1  0.419210  0.754600  0.500000  1.0  -0.0266
  C  C1125  1  0.459880  0.750400  0.500000  1.0  -0.0471
  C  C1126  1  0.341830  0.242800  0.500000  1.0  -0.1415
  C  C1127  1  0.419210  0.245400  0.500000  1.0  -0.0253
  C  C1128  1  0.459880  0.249600  0.500000  1.0  -0.0464
  O  O1129  1  0.198020  0.287160  0.206820  1.0  -0.634
  O  O1130  1  0.173270  0.251660  0.252160  1.0  -0.6187
  O  O1131  1  0.801980  0.712840  0.206820  1.0  -0.634
  O  O1132  1  0.826730  0.748340  0.252160  1.0  -0.6203
  O  O1133  1  0.801980  0.287160  0.793180  1.0  -0.6335
  O  O1134  1  0.826730  0.251660  0.747840  1.0  -0.6191
  O  O1135  1  0.198020  0.712840  0.793180  1.0  -0.6342
  O  O1136  1  0.173270  0.748340  0.747840  1.0  -0.6184
  O  O1137  1  0.206820  0.198020  0.287160  1.0  -0.6364
  O  O1138  1  0.252160  0.173270  0.251660  1.0  -0.6176
  O  O1139  1  0.206820  0.801980  0.712840  1.0  -0.6353
  O  O1140  1  0.252160  0.826730  0.748340  1.0  -0.6173
  O  O1141  1  0.793180  0.801980  0.287160  1.0  -0.6351
  O  O1142  1  0.747840  0.826730  0.251660  1.0  -0.6169
  O  O1143  1  0.793180  0.198020  0.712840  1.0  -0.6347
  O  O1144  1  0.747840  0.173270  0.748340  1.0  -0.6174
  O  O1145  1  0.287160  0.206820  0.198020  1.0  -0.6354
  O  O1146  1  0.251660  0.252160  0.173270  1.0  -0.6156
  O  O1147  1  0.712840  0.206820  0.801980  1.0  -0.6361
  O  O1148  1  0.748340  0.252160  0.826730  1.0  -0.6171
  O  O1149  1  0.287160  0.793180  0.801980  1.0  -0.6352
  O  O1150  1  0.251660  0.747840  0.826730  1.0  -0.6164
  O  O1151  1  0.712840  0.793180  0.198020  1.0  -0.6356
  O  O1152  1  0.748340  0.747840  0.173270  1.0  -0.6162
  O  O1153  1  0.787160  0.698020  0.293180  1.0  -0.6349
  O  O1154  1  0.751660  0.673270  0.247840  1.0  -0.6166
  O  O1155  1  0.212840  0.301980  0.293180  1.0  -0.6358
  O  O1156  1  0.248340  0.326730  0.247840  1.0  -0.6164
  O  O1157  1  0.787160  0.301980  0.706820  1.0  -0.6354
  O  O1158  1  0.751660  0.326730  0.752160  1.0  -0.6164
  O  O1159  1  0.212840  0.698020  0.706820  1.0  -0.6362
  O  O1160  1  0.248340  0.673270  0.752160  1.0  -0.6168
  O  O1161  1  0.698020  0.706820  0.212840  1.0  -0.6352
  O  O1162  1  0.673270  0.752160  0.248340  1.0  -0.6196
  O  O1163  1  0.301980  0.706820  0.787160  1.0  -0.6356
  O  O1164  1  0.326730  0.752160  0.751660  1.0  -0.6196
  O  O1165  1  0.301980  0.293180  0.212840  1.0  -0.6353
  O  O1166  1  0.326730  0.247840  0.248340  1.0  -0.6198
  O  O1167  1  0.698020  0.293180  0.787160  1.0  -0.6358
  O  O1168  1  0.673270  0.247840  0.751660  1.0  -0.619
  O  O1169  1  0.706820  0.787160  0.301980  1.0  -0.6339
  O  O1170  1  0.752160  0.751660  0.326730  1.0  -0.6167
  O  O1171  1  0.706820  0.212840  0.698020  1.0  -0.6339
  O  O1172  1  0.752160  0.248340  0.673270  1.0  -0.6164
  O  O1173  1  0.293180  0.787160  0.698020  1.0  -0.6338
  O  O1174  1  0.247840  0.751660  0.673270  1.0  -0.6164
  O  O1175  1  0.293180  0.212840  0.301980  1.0  -0.634
  O  O1176  1  0.247840  0.248340  0.326730  1.0  -0.6175
  O  O1177  1  0.801980  0.712840  0.793180  1.0  -0.6343
  O  O1178  1  0.826730  0.748340  0.747840  1.0  -0.619
  O  O1179  1  0.198020  0.287160  0.793180  1.0  -0.6338
  O  O1180  1  0.173270  0.251660  0.747840  1.0  -0.6187
  O  O1181  1  0.198020  0.712840  0.206820  1.0  -0.6339
  O  O1182  1  0.173270  0.748340  0.252160  1.0  -0.6187
  O  O1183  1  0.801980  0.287160  0.206820  1.0  -0.6336
  O  O1184  1  0.826730  0.251660  0.252160  1.0  -0.6202
  O  O1185  1  0.793180  0.801980  0.712840  1.0  -0.6347
  O  O1186  1  0.747840  0.826730  0.748340  1.0  -0.617
  O  O1187  1  0.793180  0.198020  0.287160  1.0  -0.6349
  O  O1188  1  0.747840  0.173270  0.251660  1.0  -0.6174
  O  O1189  1  0.206820  0.198020  0.712840  1.0  -0.6352
  O  O1190  1  0.252160  0.173270  0.748340  1.0  -0.6177
  O  O1191  1  0.206820  0.801980  0.287160  1.0  -0.6364
  O  O1192  1  0.252160  0.826730  0.251660  1.0  -0.6171
  O  O1193  1  0.712840  0.793180  0.801980  1.0  -0.6358
  O  O1194  1  0.748340  0.747840  0.826730  1.0  -0.6167
  O  O1195  1  0.287160  0.793180  0.198020  1.0  -0.6355
  O  O1196  1  0.251660  0.747840  0.173270  1.0  -0.6163
  O  O1197  1  0.712840  0.206820  0.198020  1.0  -0.6357
  O  O1198  1  0.748340  0.252160  0.173270  1.0  -0.616
  O  O1199  1  0.287160  0.206820  0.801980  1.0  -0.6352
  O  O1200  1  0.251660  0.252160  0.826730  1.0  -0.6164
  O  O1201  1  0.212840  0.301980  0.706820  1.0  -0.636
  O  O1202  1  0.248340  0.326730  0.752160  1.0  -0.6166
  O  O1203  1  0.787160  0.698020  0.706820  1.0  -0.6353
  O  O1204  1  0.751660  0.673270  0.752160  1.0  -0.6167
  O  O1205  1  0.212840  0.698020  0.293180  1.0  -0.6357
  O  O1206  1  0.248340  0.673270  0.247840  1.0  -0.6168
  O  O1207  1  0.787160  0.301980  0.293180  1.0  -0.6354
  O  O1208  1  0.751660  0.326730  0.247840  1.0  -0.6159
  O  O1209  1  0.301980  0.293180  0.787160  1.0  -0.6348
  O  O1210  1  0.326730  0.247840  0.751660  1.0  -0.6195
  O  O1211  1  0.698020  0.293180  0.212840  1.0  -0.6354
  O  O1212  1  0.673270  0.247840  0.248340  1.0  -0.6186
  O  O1213  1  0.698020  0.706820  0.787160  1.0  -0.6363
  O  O1214  1  0.673270  0.752160  0.751660  1.0  -0.6196
  O  O1215  1  0.301980  0.706820  0.212840  1.0  -0.6355
  O  O1216  1  0.326730  0.752160  0.248340  1.0  -0.6205
  O  O1217  1  0.293180  0.212840  0.698020  1.0  -0.6338
  O  O1218  1  0.247840  0.248340  0.673270  1.0  -0.6156
  O  O1219  1  0.293180  0.787160  0.301980  1.0  -0.6336
  O  O1220  1  0.247840  0.751660  0.326730  1.0  -0.6174
  O  O1221  1  0.706820  0.212840  0.301980  1.0  -0.6345
  O  O1222  1  0.752160  0.248340  0.326730  1.0  -0.6168
  O  O1223  1  0.706820  0.787160  0.698020  1.0  -0.6337
  O  O1224  1  0.752160  0.751660  0.673270  1.0  -0.617
  O  O1225  1  0.250000  0.250000  0.250000  1.0  -0.876
  O  O1226  1  0.750000  0.750000  0.250000  1.0  -0.876
  O  O1227  1  0.750000  0.250000  0.750000  1.0  -0.876
  O  O1228  1  0.250000  0.750000  0.750000  1.0  -0.876
  O  O1229  1  0.750000  0.750000  0.750000  1.0  -0.876
  O  O1230  1  0.250000  0.250000  0.750000  1.0  -0.876
  O  O1231  1  0.250000  0.750000  0.250000  1.0  -0.876
  O  O1232  1  0.750000  0.250000  0.250000  1.0  -0.876
