# generated using pymatgen
data_ZnMo6P4O25
_symmetry_space_group_name_H-M   'P 1'
_cell_length_a   31.80330000
_cell_length_b   31.80330000
_cell_length_c   34.55930000
_cell_angle_alpha   90.00000000
_cell_angle_beta   90.00000000
_cell_angle_gamma   90.00000000
_symmetry_Int_Tables_number   1
_chemical_formula_structural   ZnMo6P4O25
_chemical_formula_sum   'Zn32 Mo192 P128 O800'
_cell_volume   34955.00021423
_cell_formula_units_Z   32
loop_
 _symmetry_equiv_pos_site_id
 _symmetry_equiv_pos_as_xyz
  1  'x, y, z'
loop_
 _atom_site_type_symbol
 _atom_site_label
 _atom_site_symmetry_multiplicity
 _atom_site_fract_x
 _atom_site_fract_y
 _atom_site_fract_z
 _atom_site_occupancy
 _atom_site_charge
  Zn  Zn1  1  0.097900  0.500000  0.250000  1.0  1.169
  Zn  Zn2  1  0.597900  0.000000  0.750000  1.0  1.169
  Zn  Zn3  1  0.402100  0.500000  0.750000  1.0  1.1682
  Zn  Zn4  1  0.902100  0.000000  0.250000  1.0  1.1682
  Zn  Zn5  1  0.750000  0.847900  0.500000  1.0  1.1684
  Zn  Zn6  1  0.250000  0.347900  0.000000  1.0  1.1684
  Zn  Zn7  1  0.750000  0.152100  0.000000  1.0  1.1689
  Zn  Zn8  1  0.250000  0.652100  0.500000  1.0  1.1689
  Zn  Zn9  1  0.902100  0.500000  0.750000  1.0  1.1682
  Zn  Zn10  1  0.402100  0.000000  0.250000  1.0  1.1682
  Zn  Zn11  1  0.597900  0.500000  0.250000  1.0  1.169
  Zn  Zn12  1  0.097900  0.000000  0.750000  1.0  1.169
  Zn  Zn13  1  0.250000  0.152100  0.500000  1.0  1.1689
  Zn  Zn14  1  0.750000  0.652100  0.000000  1.0  1.1689
  Zn  Zn15  1  0.250000  0.847900  0.000000  1.0  1.1684
  Zn  Zn16  1  0.750000  0.347900  0.500000  1.0  1.1684
  Zn  Zn17  1  0.250000  0.750000  0.250000  1.0  0.9069
  Zn  Zn18  1  0.250000  0.250000  0.750000  1.0  0.9069
  Zn  Zn19  1  0.500000  0.000000  0.500000  1.0  0.9069
  Zn  Zn20  1  0.000000  0.500000  0.000000  1.0  0.9069
  Zn  Zn21  1  0.000000  0.000000  0.000000  1.0  0.9069
  Zn  Zn22  1  0.500000  0.500000  0.500000  1.0  0.9069
  Zn  Zn23  1  0.250000  0.750000  0.750000  1.0  0.9069
  Zn  Zn24  1  0.250000  0.250000  0.250000  1.0  0.9069
  Zn  Zn25  1  0.000000  0.000000  0.500000  1.0  0.9069
  Zn  Zn26  1  0.500000  0.500000  0.000000  1.0  0.9069
  Zn  Zn27  1  0.500000  0.000000  0.000000  1.0  0.9069
  Zn  Zn28  1  0.000000  0.500000  0.500000  1.0  0.9069
  Zn  Zn29  1  0.750000  0.250000  0.750000  1.0  0.9069
  Zn  Zn30  1  0.750000  0.750000  0.250000  1.0  0.9069
  Zn  Zn31  1  0.750000  0.250000  0.250000  1.0  0.9069
  Zn  Zn32  1  0.750000  0.750000  0.750000  1.0  0.9069
  Mo  Mo33  1  0.128160  0.749620  0.249130  1.0  1.2841
  Mo  Mo34  1  0.157110  0.676710  0.229350  1.0  1.3121
  Mo  Mo35  1  0.074370  0.530200  0.080950  1.0  1.3033
  Mo  Mo36  1  0.943560  0.427040  0.073160  1.0  1.2841
  Mo  Mo37  1  0.244920  0.633760  0.275780  1.0  1.2761
  Mo  Mo38  1  0.974110  0.492720  0.107580  1.0  1.2933
  Mo  Mo39  1  0.628160  0.249620  0.749130  1.0  1.2841
  Mo  Mo40  1  0.657110  0.176710  0.729350  1.0  1.3121
  Mo  Mo41  1  0.574370  0.030200  0.580950  1.0  1.3033
  Mo  Mo42  1  0.443560  0.927040  0.573160  1.0  1.2841
  Mo  Mo43  1  0.744920  0.133760  0.775780  1.0  1.2761
  Mo  Mo44  1  0.474110  0.992720  0.607580  1.0  1.2933
  Mo  Mo45  1  0.371840  0.250380  0.749130  1.0  1.2822
  Mo  Mo46  1  0.342890  0.323290  0.729350  1.0  1.3103
  Mo  Mo47  1  0.425630  0.469800  0.580950  1.0  1.3029
  Mo  Mo48  1  0.556440  0.572960  0.573160  1.0  1.2818
  Mo  Mo49  1  0.255080  0.366240  0.775780  1.0  1.2779
  Mo  Mo50  1  0.525890  0.507280  0.607580  1.0  1.2927
  Mo  Mo51  1  0.871840  0.750380  0.249130  1.0  1.2822
  Mo  Mo52  1  0.842890  0.823290  0.229350  1.0  1.3103
  Mo  Mo53  1  0.925630  0.969800  0.080950  1.0  1.3029
  Mo  Mo54  1  0.056440  0.072960  0.073160  1.0  1.2818
  Mo  Mo55  1  0.755080  0.866240  0.275780  1.0  1.2779
  Mo  Mo56  1  0.025890  0.007280  0.107580  1.0  1.2927
  Mo  Mo57  1  0.500380  0.878160  0.499130  1.0  1.2856
  Mo  Mo58  1  0.573290  0.907110  0.479350  1.0  1.3115
  Mo  Mo59  1  0.719800  0.824370  0.330950  1.0  1.3002
  Mo  Mo60  1  0.822960  0.693560  0.323160  1.0  1.2902
  Mo  Mo61  1  0.616240  0.994920  0.525780  1.0  1.2792
  Mo  Mo62  1  0.757280  0.724110  0.357580  1.0  1.2925
  Mo  Mo63  1  0.000380  0.378160  0.999130  1.0  1.2856
  Mo  Mo64  1  0.073290  0.407110  0.979350  1.0  1.3115
  Mo  Mo65  1  0.219800  0.324370  0.830950  1.0  1.3002
  Mo  Mo66  1  0.322960  0.193560  0.823160  1.0  1.2902
  Mo  Mo67  1  0.116240  0.494920  0.025780  1.0  1.2792
  Mo  Mo68  1  0.257280  0.224110  0.857580  1.0  1.2925
  Mo  Mo69  1  0.999620  0.121840  0.999130  1.0  1.2822
  Mo  Mo70  1  0.926710  0.092890  0.979350  1.0  1.3104
  Mo  Mo71  1  0.780200  0.175630  0.830950  1.0  1.2991
  Mo  Mo72  1  0.677040  0.306440  0.823160  1.0  1.2887
  Mo  Mo73  1  0.883760  0.005080  0.025780  1.0  1.2902
  Mo  Mo74  1  0.742720  0.275890  0.857580  1.0  1.2939
  Mo  Mo75  1  0.499620  0.621840  0.499130  1.0  1.2822
  Mo  Mo76  1  0.426710  0.592890  0.479350  1.0  1.3104
  Mo  Mo77  1  0.280200  0.675630  0.330950  1.0  1.2991
  Mo  Mo78  1  0.177040  0.806440  0.323160  1.0  1.2887
  Mo  Mo79  1  0.383760  0.505080  0.525780  1.0  1.2788
  Mo  Mo80  1  0.242720  0.775890  0.357580  1.0  1.2939
  Mo  Mo81  1  0.371840  0.749620  0.750870  1.0  1.2851
  Mo  Mo82  1  0.342890  0.676710  0.770650  1.0  1.3133
  Mo  Mo83  1  0.425630  0.530200  0.919050  1.0  1.3033
  Mo  Mo84  1  0.556440  0.427040  0.926840  1.0  1.2836
  Mo  Mo85  1  0.255080  0.633760  0.724220  1.0  1.277
  Mo  Mo86  1  0.525890  0.492720  0.892420  1.0  1.293
  Mo  Mo87  1  0.871840  0.249620  0.250870  1.0  1.2851
  Mo  Mo88  1  0.842890  0.176710  0.270650  1.0  1.3133
  Mo  Mo89  1  0.925630  0.030200  0.419050  1.0  1.3033
  Mo  Mo90  1  0.056440  0.927040  0.426840  1.0  1.2836
  Mo  Mo91  1  0.755080  0.133760  0.224220  1.0  1.277
  Mo  Mo92  1  0.025890  0.992720  0.392420  1.0  1.293
  Mo  Mo93  1  0.128160  0.250380  0.250870  1.0  1.2838
  Mo  Mo94  1  0.157110  0.323290  0.270650  1.0  1.3118
  Mo  Mo95  1  0.074370  0.469800  0.419050  1.0  1.3039
  Mo  Mo96  1  0.943560  0.572960  0.426840  1.0  1.2844
  Mo  Mo97  1  0.244920  0.366240  0.224220  1.0  1.2777
  Mo  Mo98  1  0.974110  0.507280  0.392420  1.0  1.2936
  Mo  Mo99  1  0.628160  0.750380  0.750870  1.0  1.2838
  Mo  Mo100  1  0.657110  0.823290  0.770650  1.0  1.3118
  Mo  Mo101  1  0.574370  0.969800  0.919050  1.0  1.3039
  Mo  Mo102  1  0.443560  0.072960  0.926840  1.0  1.2844
  Mo  Mo103  1  0.744920  0.866240  0.724220  1.0  1.2777
  Mo  Mo104  1  0.474110  0.007280  0.892420  1.0  1.2936
  Mo  Mo105  1  0.999620  0.878160  0.500870  1.0  1.2837
  Mo  Mo106  1  0.926710  0.907110  0.520650  1.0  1.3102
  Mo  Mo107  1  0.780200  0.824370  0.669050  1.0  1.3011
  Mo  Mo108  1  0.677040  0.693560  0.676840  1.0  1.2899
  Mo  Mo109  1  0.883760  0.994920  0.474220  1.0  1.2784
  Mo  Mo110  1  0.742720  0.724110  0.642420  1.0  1.2948
  Mo  Mo111  1  0.499620  0.378160  0.000870  1.0  1.2837
  Mo  Mo112  1  0.426710  0.407110  0.020650  1.0  1.3102
  Mo  Mo113  1  0.280200  0.324370  0.169050  1.0  1.3011
  Mo  Mo114  1  0.177040  0.193560  0.176840  1.0  1.2899
  Mo  Mo115  1  0.383760  0.494920  0.974220  1.0  1.2784
  Mo  Mo116  1  0.242720  0.224110  0.142420  1.0  1.2948
  Mo  Mo117  1  0.500380  0.121840  0.000870  1.0  1.2858
  Mo  Mo118  1  0.573290  0.092890  0.020650  1.0  1.3142
  Mo  Mo119  1  0.719800  0.175630  0.169050  1.0  1.3003
  Mo  Mo120  1  0.822960  0.306440  0.176840  1.0  1.2895
  Mo  Mo121  1  0.616240  0.005080  0.974220  1.0  1.2884
  Mo  Mo122  1  0.757280  0.275890  0.142420  1.0  1.2937
  Mo  Mo123  1  0.000380  0.621840  0.500870  1.0  1.2858
  Mo  Mo124  1  0.073290  0.592890  0.520650  1.0  1.3142
  Mo  Mo125  1  0.219800  0.675630  0.669050  1.0  1.3003
  Mo  Mo126  1  0.322960  0.806440  0.676840  1.0  1.2895
  Mo  Mo127  1  0.116240  0.505080  0.474220  1.0  1.2781
  Mo  Mo128  1  0.257280  0.775890  0.642420  1.0  1.2937
  Mo  Mo129  1  0.871840  0.250380  0.750870  1.0  1.2845
  Mo  Mo130  1  0.842890  0.323290  0.770650  1.0  1.3133
  Mo  Mo131  1  0.925630  0.469800  0.919050  1.0  1.3031
  Mo  Mo132  1  0.056440  0.572960  0.926840  1.0  1.2832
  Mo  Mo133  1  0.755080  0.366240  0.724220  1.0  1.2778
  Mo  Mo134  1  0.025890  0.507280  0.892420  1.0  1.2914
  Mo  Mo135  1  0.371840  0.750380  0.250870  1.0  1.2845
  Mo  Mo136  1  0.342890  0.823290  0.270650  1.0  1.3133
  Mo  Mo137  1  0.425630  0.969800  0.419050  1.0  1.3031
  Mo  Mo138  1  0.556440  0.072960  0.426840  1.0  1.2832
  Mo  Mo139  1  0.255080  0.866240  0.224220  1.0  1.2778
  Mo  Mo140  1  0.525890  0.007280  0.392420  1.0  1.2914
  Mo  Mo141  1  0.628160  0.749620  0.250870  1.0  1.284
  Mo  Mo142  1  0.657110  0.676710  0.270650  1.0  1.3118
  Mo  Mo143  1  0.574370  0.530200  0.419050  1.0  1.3036
  Mo  Mo144  1  0.443560  0.427040  0.426840  1.0  1.2847
  Mo  Mo145  1  0.744920  0.633760  0.224220  1.0  1.2753
  Mo  Mo146  1  0.474110  0.492720  0.392420  1.0  1.2939
  Mo  Mo147  1  0.128160  0.249620  0.750870  1.0  1.284
  Mo  Mo148  1  0.157110  0.176710  0.770650  1.0  1.3118
  Mo  Mo149  1  0.074370  0.030200  0.919050  1.0  1.3036
  Mo  Mo150  1  0.943560  0.927040  0.926840  1.0  1.2847
  Mo  Mo151  1  0.244920  0.133760  0.724220  1.0  1.2753
  Mo  Mo152  1  0.974110  0.992720  0.892420  1.0  1.2939
  Mo  Mo153  1  0.499620  0.121840  0.500870  1.0  1.2877
  Mo  Mo154  1  0.426710  0.092890  0.520650  1.0  1.3113
  Mo  Mo155  1  0.280200  0.175630  0.669050  1.0  1.3002
  Mo  Mo156  1  0.177040  0.306440  0.676840  1.0  1.2895
  Mo  Mo157  1  0.383760  0.005080  0.474220  1.0  1.278
  Mo  Mo158  1  0.242720  0.275890  0.642420  1.0  1.2915
  Mo  Mo159  1  0.999620  0.621840  0.000870  1.0  1.2877
  Mo  Mo160  1  0.926710  0.592890  0.020650  1.0  1.3113
  Mo  Mo161  1  0.780200  0.675630  0.169050  1.0  1.3002
  Mo  Mo162  1  0.677040  0.806440  0.176840  1.0  1.2895
  Mo  Mo163  1  0.883760  0.505080  0.974220  1.0  1.278
  Mo  Mo164  1  0.742720  0.775890  0.142420  1.0  1.2915
  Mo  Mo165  1  0.000380  0.878160  0.000870  1.0  1.2818
  Mo  Mo166  1  0.073290  0.907110  0.020650  1.0  1.3128
  Mo  Mo167  1  0.219800  0.824370  0.169050  1.0  1.3003
  Mo  Mo168  1  0.322960  0.693560  0.176840  1.0  1.2897
  Mo  Mo169  1  0.116240  0.994920  0.974220  1.0  1.2895
  Mo  Mo170  1  0.257280  0.724110  0.142420  1.0  1.2961
  Mo  Mo171  1  0.500380  0.378160  0.500870  1.0  1.2818
  Mo  Mo172  1  0.573290  0.407110  0.520650  1.0  1.3128
  Mo  Mo173  1  0.719800  0.324370  0.669050  1.0  1.3003
  Mo  Mo174  1  0.822960  0.193560  0.676840  1.0  1.2897
  Mo  Mo175  1  0.616240  0.494920  0.474220  1.0  1.2793
  Mo  Mo176  1  0.757280  0.224110  0.642420  1.0  1.2961
  Mo  Mo177  1  0.628160  0.250380  0.249130  1.0  1.2844
  Mo  Mo178  1  0.657110  0.323290  0.229350  1.0  1.3122
  Mo  Mo179  1  0.574370  0.469800  0.080950  1.0  1.3036
  Mo  Mo180  1  0.443560  0.572960  0.073160  1.0  1.2837
  Mo  Mo181  1  0.744920  0.366240  0.275780  1.0  1.2776
  Mo  Mo182  1  0.474110  0.507280  0.107580  1.0  1.293
  Mo  Mo183  1  0.128160  0.750380  0.749130  1.0  1.2844
  Mo  Mo184  1  0.157110  0.823290  0.729350  1.0  1.3122
  Mo  Mo185  1  0.074370  0.969800  0.580950  1.0  1.3036
  Mo  Mo186  1  0.943560  0.072960  0.573160  1.0  1.2837
  Mo  Mo187  1  0.244920  0.866240  0.775780  1.0  1.2776
  Mo  Mo188  1  0.974110  0.007280  0.607580  1.0  1.293
  Mo  Mo189  1  0.871840  0.749620  0.749130  1.0  1.2821
  Mo  Mo190  1  0.842890  0.676710  0.729350  1.0  1.3106
  Mo  Mo191  1  0.925630  0.530200  0.580950  1.0  1.303
  Mo  Mo192  1  0.056440  0.427040  0.573160  1.0  1.2822
  Mo  Mo193  1  0.755080  0.633760  0.775780  1.0  1.2783
  Mo  Mo194  1  0.025890  0.492720  0.607580  1.0  1.2938
  Mo  Mo195  1  0.371840  0.249620  0.249130  1.0  1.2821
  Mo  Mo196  1  0.342890  0.176710  0.229350  1.0  1.3106
  Mo  Mo197  1  0.425630  0.030200  0.080950  1.0  1.303
  Mo  Mo198  1  0.556440  0.927040  0.073160  1.0  1.2822
  Mo  Mo199  1  0.255080  0.133760  0.275780  1.0  1.2783
  Mo  Mo200  1  0.525890  0.992720  0.107580  1.0  1.2938
  Mo  Mo201  1  0.000380  0.121840  0.499130  1.0  1.2838
  Mo  Mo202  1  0.073290  0.092890  0.479350  1.0  1.3097
  Mo  Mo203  1  0.219800  0.175630  0.330950  1.0  1.2998
  Mo  Mo204  1  0.322960  0.306440  0.323160  1.0  1.2888
  Mo  Mo205  1  0.116240  0.005080  0.525780  1.0  1.2779
  Mo  Mo206  1  0.257280  0.275890  0.357580  1.0  1.293
  Mo  Mo207  1  0.500380  0.621840  0.999130  1.0  1.2838
  Mo  Mo208  1  0.573290  0.592890  0.979350  1.0  1.3097
  Mo  Mo209  1  0.719800  0.675630  0.830950  1.0  1.2998
  Mo  Mo210  1  0.822960  0.806440  0.823160  1.0  1.2888
  Mo  Mo211  1  0.616240  0.505080  0.025780  1.0  1.2779
  Mo  Mo212  1  0.757280  0.775890  0.857580  1.0  1.293
  Mo  Mo213  1  0.499620  0.878160  0.999130  1.0  1.2843
  Mo  Mo214  1  0.426710  0.907110  0.979350  1.0  1.3119
  Mo  Mo215  1  0.280200  0.824370  0.830950  1.0  1.3006
  Mo  Mo216  1  0.177040  0.693560  0.823160  1.0  1.2904
  Mo  Mo217  1  0.383760  0.994920  0.025780  1.0  1.2903
  Mo  Mo218  1  0.242720  0.724110  0.857580  1.0  1.2939
  Mo  Mo219  1  0.999620  0.378160  0.499130  1.0  1.2843
  Mo  Mo220  1  0.926710  0.407110  0.479350  1.0  1.3119
  Mo  Mo221  1  0.780200  0.324370  0.330950  1.0  1.3006
  Mo  Mo222  1  0.677040  0.193560  0.323160  1.0  1.2904
  Mo  Mo223  1  0.883760  0.494920  0.525780  1.0  1.279
  Mo  Mo224  1  0.742720  0.224110  0.357580  1.0  1.2939
  P  P225  1  0.050840  0.501520  0.170640  1.0  1.7277
  P  P226  1  0.176180  0.698610  0.325000  1.0  1.8576
  P  P227  1  0.966850  0.326450  0.075780  1.0  1.6486
  P  P228  1  0.153760  0.584640  0.272320  1.0  1.7863
  P  P229  1  0.550840  0.001520  0.670640  1.0  1.7277
  P  P230  1  0.676180  0.198610  0.825000  1.0  1.8576
  P  P231  1  0.466850  0.826450  0.575780  1.0  1.6486
  P  P232  1  0.653760  0.084640  0.772320  1.0  1.7863
  P  P233  1  0.449160  0.498480  0.670640  1.0  1.7284
  P  P234  1  0.323820  0.301390  0.825000  1.0  1.8566
  P  P235  1  0.533150  0.673550  0.575780  1.0  1.648
  P  P236  1  0.346240  0.415360  0.772320  1.0  1.786
  P  P237  1  0.949160  0.998480  0.170640  1.0  1.7284
  P  P238  1  0.823820  0.801390  0.325000  1.0  1.8566
  P  P239  1  0.033150  0.173550  0.075780  1.0  1.648
  P  P240  1  0.846240  0.915360  0.272320  1.0  1.786
  P  P241  1  0.748480  0.800840  0.420640  1.0  1.7274
  P  P242  1  0.551390  0.926180  0.575000  1.0  1.8563
  P  P243  1  0.923550  0.716850  0.325780  1.0  1.6431
  P  P244  1  0.665360  0.903760  0.522320  1.0  1.7869
  P  P245  1  0.248480  0.300840  0.920640  1.0  1.7274
  P  P246  1  0.051390  0.426180  0.075000  1.0  1.8563
  P  P247  1  0.423550  0.216850  0.825780  1.0  1.6431
  P  P248  1  0.165360  0.403760  0.022320  1.0  1.7869
  P  P249  1  0.751520  0.199160  0.920640  1.0  1.7273
  P  P250  1  0.948610  0.073820  0.075000  1.0  1.8568
  P  P251  1  0.576450  0.283150  0.825780  1.0  1.6417
  P  P252  1  0.834640  0.096240  0.022320  1.0  1.7853
  P  P253  1  0.251520  0.699160  0.420640  1.0  1.7273
  P  P254  1  0.448610  0.573820  0.575000  1.0  1.8568
  P  P255  1  0.076450  0.783150  0.325780  1.0  1.6417
  P  P256  1  0.334640  0.596240  0.522320  1.0  1.7853
  P  P257  1  0.449160  0.501520  0.829360  1.0  1.7273
  P  P258  1  0.323820  0.698610  0.675000  1.0  1.8561
  P  P259  1  0.533150  0.326450  0.924220  1.0  1.6497
  P  P260  1  0.346240  0.584640  0.727680  1.0  1.7862
  P  P261  1  0.949160  0.001520  0.329360  1.0  1.7273
  P  P262  1  0.823820  0.198610  0.175000  1.0  1.8561
  P  P263  1  0.033150  0.826450  0.424220  1.0  1.6497
  P  P264  1  0.846240  0.084640  0.227680  1.0  1.7862
  P  P265  1  0.050840  0.498480  0.329360  1.0  1.7256
  P  P266  1  0.176180  0.301390  0.175000  1.0  1.8555
  P  P267  1  0.966850  0.673550  0.424220  1.0  1.6486
  P  P268  1  0.153760  0.415360  0.227680  1.0  1.7861
  P  P269  1  0.550840  0.998480  0.829360  1.0  1.7256
  P  P270  1  0.676180  0.801390  0.675000  1.0  1.8555
  P  P271  1  0.466850  0.173550  0.924220  1.0  1.6486
  P  P272  1  0.653760  0.915360  0.727680  1.0  1.7861
  P  P273  1  0.751520  0.800840  0.579360  1.0  1.7254
  P  P274  1  0.948610  0.926180  0.425000  1.0  1.8542
  P  P275  1  0.576450  0.716850  0.674220  1.0  1.643
  P  P276  1  0.834640  0.903760  0.477680  1.0  1.7859
  P  P277  1  0.251520  0.300840  0.079360  1.0  1.7254
  P  P278  1  0.448610  0.426180  0.925000  1.0  1.8542
  P  P279  1  0.076450  0.216850  0.174220  1.0  1.643
  P  P280  1  0.334640  0.403760  0.977680  1.0  1.7859
  P  P281  1  0.748480  0.199160  0.079360  1.0  1.7255
  P  P282  1  0.551390  0.073820  0.925000  1.0  1.8561
  P  P283  1  0.923550  0.283150  0.174220  1.0  1.6436
  P  P284  1  0.665360  0.096240  0.977680  1.0  1.7869
  P  P285  1  0.248480  0.699160  0.579360  1.0  1.7255
  P  P286  1  0.051390  0.573820  0.425000  1.0  1.8561
  P  P287  1  0.423550  0.783150  0.674220  1.0  1.6436
  P  P288  1  0.165360  0.596240  0.477680  1.0  1.7869
  P  P289  1  0.949160  0.498480  0.829360  1.0  1.7266
  P  P290  1  0.823820  0.301390  0.675000  1.0  1.8556
  P  P291  1  0.033150  0.673550  0.924220  1.0  1.6488
  P  P292  1  0.846240  0.415360  0.727680  1.0  1.7861
  P  P293  1  0.449160  0.998480  0.329360  1.0  1.7266
  P  P294  1  0.323820  0.801390  0.175000  1.0  1.8556
  P  P295  1  0.533150  0.173550  0.424220  1.0  1.6488
  P  P296  1  0.346240  0.915360  0.227680  1.0  1.7861
  P  P297  1  0.550840  0.501520  0.329360  1.0  1.726
  P  P298  1  0.676180  0.698610  0.175000  1.0  1.8559
  P  P299  1  0.466850  0.326450  0.424220  1.0  1.6495
  P  P300  1  0.653760  0.584640  0.227680  1.0  1.7863
  P  P301  1  0.050840  0.001520  0.829360  1.0  1.726
  P  P302  1  0.176180  0.198610  0.675000  1.0  1.8559
  P  P303  1  0.966850  0.826450  0.924220  1.0  1.6495
  P  P304  1  0.153760  0.084640  0.727680  1.0  1.7863
  P  P305  1  0.251520  0.199160  0.579360  1.0  1.7258
  P  P306  1  0.448610  0.073820  0.425000  1.0  1.8558
  P  P307  1  0.076450  0.283150  0.674220  1.0  1.6431
  P  P308  1  0.334640  0.096240  0.477680  1.0  1.7858
  P  P309  1  0.751520  0.699160  0.079360  1.0  1.7258
  P  P310  1  0.948610  0.573820  0.925000  1.0  1.8558
  P  P311  1  0.576450  0.783150  0.174220  1.0  1.6431
  P  P312  1  0.834640  0.596240  0.977680  1.0  1.7858
  P  P313  1  0.248480  0.800840  0.079360  1.0  1.7252
  P  P314  1  0.051390  0.926180  0.925000  1.0  1.8544
  P  P315  1  0.423550  0.716850  0.174220  1.0  1.6438
  P  P316  1  0.165360  0.903760  0.977680  1.0  1.787
  P  P317  1  0.748480  0.300840  0.579360  1.0  1.7252
  P  P318  1  0.551390  0.426180  0.425000  1.0  1.8544
  P  P319  1  0.923550  0.216850  0.674220  1.0  1.6438
  P  P320  1  0.665360  0.403760  0.477680  1.0  1.787
  P  P321  1  0.550840  0.498480  0.170640  1.0  1.7274
  P  P322  1  0.676180  0.301390  0.325000  1.0  1.8566
  P  P323  1  0.466850  0.673550  0.075780  1.0  1.6477
  P  P324  1  0.653760  0.415360  0.272320  1.0  1.7861
  P  P325  1  0.050840  0.998480  0.670640  1.0  1.7274
  P  P326  1  0.176180  0.801390  0.825000  1.0  1.8566
  P  P327  1  0.966850  0.173550  0.575780  1.0  1.6477
  P  P328  1  0.153760  0.915360  0.772320  1.0  1.7861
  P  P329  1  0.949160  0.501520  0.670640  1.0  1.7289
  P  P330  1  0.823820  0.698610  0.825000  1.0  1.8577
  P  P331  1  0.033150  0.326450  0.575780  1.0  1.6489
  P  P332  1  0.846240  0.584640  0.772320  1.0  1.7862
  P  P333  1  0.449160  0.001520  0.170640  1.0  1.7289
  P  P334  1  0.323820  0.198610  0.325000  1.0  1.8577
  P  P335  1  0.533150  0.826450  0.075780  1.0  1.6489
  P  P336  1  0.346240  0.084640  0.272320  1.0  1.7862
  P  P337  1  0.248480  0.199160  0.420640  1.0  1.7271
  P  P338  1  0.051390  0.073820  0.575000  1.0  1.8569
  P  P339  1  0.423550  0.283150  0.325780  1.0  1.6428
  P  P340  1  0.165360  0.096240  0.522320  1.0  1.7868
  P  P341  1  0.748480  0.699160  0.920640  1.0  1.7271
  P  P342  1  0.551390  0.573820  0.075000  1.0  1.8569
  P  P343  1  0.923550  0.783150  0.825780  1.0  1.6428
  P  P344  1  0.665360  0.596240  0.022320  1.0  1.7868
  P  P345  1  0.251520  0.800840  0.920640  1.0  1.7276
  P  P346  1  0.448610  0.926180  0.075000  1.0  1.8563
  P  P347  1  0.076450  0.716850  0.825780  1.0  1.6416
  P  P348  1  0.334640  0.903760  0.022320  1.0  1.7853
  P  P349  1  0.751520  0.300840  0.420640  1.0  1.7276
  P  P350  1  0.948610  0.426180  0.575000  1.0  1.8563
  P  P351  1  0.576450  0.216850  0.325780  1.0  1.6416
  P  P352  1  0.834640  0.403760  0.522320  1.0  1.7853
  O  O353  1  0.220030  0.710250  0.342170  1.0  -0.7795
  O  O354  1  0.217390  0.650150  0.222900  1.0  -0.6553
  O  O355  1  0.156340  0.739520  0.309220  1.0  -0.7665
  O  O356  1  0.983020  0.329290  0.034140  1.0  -0.5823
  O  O357  1  0.965660  0.480940  0.052150  1.0  -0.7421
  O  O358  1  0.058090  0.517150  0.027280  1.0  -0.7609
  O  O359  1  0.938960  0.364560  0.085470  1.0  -0.6512
  O  O360  1  0.124320  0.496160  0.081380  1.0  -0.6273
  O  O361  1  0.009320  0.545890  0.089270  1.0  -0.6262
  O  O362  1  0.106580  0.693210  0.256260  1.0  -0.6086
  O  O363  1  0.149980  0.677280  0.355480  1.0  -0.5322
  O  O364  1  0.966910  0.435310  0.124570  1.0  -0.6139
  O  O365  1  0.184210  0.669510  0.289730  1.0  -0.7731
  O  O366  1  0.185900  0.731680  0.233770  1.0  -0.7539
  O  O367  1  0.000660  0.320180  0.105890  1.0  -0.4952
  O  O368  1  0.058160  0.518680  0.210710  1.0  -0.6173
  O  O369  1  0.201770  0.585870  0.274670  1.0  -0.622
  O  O370  1  0.156240  0.806490  0.265610  1.0  -0.5577
  O  O371  1  0.077540  0.525670  0.141010  1.0  -0.6537
  O  O372  1  0.004310  0.504130  0.159910  1.0  -0.5919
  O  O373  1  0.137820  0.616190  0.242080  1.0  -0.6385
  O  O374  1  0.937040  0.286760  0.075470  1.0  -0.4465
  O  O375  1  0.139300  0.541180  0.263360  1.0  -0.7013
  O  O376  1  0.063740  0.453730  0.172020  1.0  -0.495
  O  O377  1  0.135100  0.597020  0.313070  1.0  -0.5029
  O  O378  1  0.720030  0.210250  0.842170  1.0  -0.7795
  O  O379  1  0.717390  0.150150  0.722900  1.0  -0.6553
  O  O380  1  0.656340  0.239520  0.809220  1.0  -0.7665
  O  O381  1  0.483020  0.829290  0.534140  1.0  -0.5823
  O  O382  1  0.465660  0.980940  0.552150  1.0  -0.7421
  O  O383  1  0.558090  0.017150  0.527280  1.0  -0.7609
  O  O384  1  0.438960  0.864560  0.585470  1.0  -0.6512
  O  O385  1  0.624320  0.996160  0.581380  1.0  -0.6273
  O  O386  1  0.509320  0.045890  0.589270  1.0  -0.6262
  O  O387  1  0.606580  0.193210  0.756260  1.0  -0.6086
  O  O388  1  0.649980  0.177280  0.855480  1.0  -0.5322
  O  O389  1  0.466910  0.935310  0.624570  1.0  -0.6139
  O  O390  1  0.684210  0.169510  0.789730  1.0  -0.7731
  O  O391  1  0.685900  0.231680  0.733770  1.0  -0.7539
  O  O392  1  0.500660  0.820180  0.605890  1.0  -0.4952
  O  O393  1  0.558160  0.018680  0.710710  1.0  -0.6173
  O  O394  1  0.701770  0.085870  0.774670  1.0  -0.622
  O  O395  1  0.656240  0.306490  0.765610  1.0  -0.5577
  O  O396  1  0.577540  0.025670  0.641010  1.0  -0.6537
  O  O397  1  0.504310  0.004130  0.659910  1.0  -0.6015
  O  O398  1  0.637820  0.116190  0.742080  1.0  -0.6385
  O  O399  1  0.437040  0.786760  0.575470  1.0  -0.4465
  O  O400  1  0.639300  0.041180  0.763360  1.0  -0.7013
  O  O401  1  0.563740  0.953730  0.672020  1.0  -0.495
  O  O402  1  0.635100  0.097020  0.813070  1.0  -0.5029
  O  O403  1  0.279970  0.289750  0.842170  1.0  -0.7784
  O  O404  1  0.282610  0.349850  0.722900  1.0  -0.657
  O  O405  1  0.343660  0.260480  0.809220  1.0  -0.7678
  O  O406  1  0.516980  0.670710  0.534140  1.0  -0.5853
  O  O407  1  0.534340  0.519060  0.552150  1.0  -0.7423
  O  O408  1  0.441910  0.482850  0.527280  1.0  -0.7605
  O  O409  1  0.561040  0.635440  0.585470  1.0  -0.6538
  O  O410  1  0.375680  0.503840  0.581380  1.0  -0.6238
  O  O411  1  0.490680  0.454110  0.589270  1.0  -0.6352
  O  O412  1  0.393420  0.306790  0.756260  1.0  -0.6115
  O  O413  1  0.350020  0.322720  0.855480  1.0  -0.5313
  O  O414  1  0.533090  0.564690  0.624570  1.0  -0.6149
  O  O415  1  0.315790  0.330490  0.789730  1.0  -0.7737
  O  O416  1  0.314100  0.268320  0.733770  1.0  -0.7557
  O  O417  1  0.499340  0.679820  0.605890  1.0  -0.495
  O  O418  1  0.441840  0.481320  0.710710  1.0  -0.617
  O  O419  1  0.298230  0.414130  0.774670  1.0  -0.621
  O  O420  1  0.343760  0.193510  0.765610  1.0  -0.564
  O  O421  1  0.422460  0.474330  0.641010  1.0  -0.6528
  O  O422  1  0.495690  0.495870  0.659910  1.0  -0.6034
  O  O423  1  0.362180  0.383810  0.742080  1.0  -0.6412
  O  O424  1  0.562960  0.713240  0.575470  1.0  -0.4465
  O  O425  1  0.360700  0.458820  0.763360  1.0  -0.7022
  O  O426  1  0.436260  0.546270  0.672020  1.0  -0.4937
  O  O427  1  0.364900  0.402980  0.813070  1.0  -0.502
  O  O428  1  0.779970  0.789750  0.342170  1.0  -0.7784
  O  O429  1  0.782610  0.849850  0.222900  1.0  -0.657
  O  O430  1  0.843660  0.760480  0.309220  1.0  -0.7678
  O  O431  1  0.016980  0.170710  0.034140  1.0  -0.5853
  O  O432  1  0.034340  0.019060  0.052150  1.0  -0.7423
  O  O433  1  0.941910  0.982850  0.027280  1.0  -0.7605
  O  O434  1  0.061040  0.135440  0.085470  1.0  -0.6538
  O  O435  1  0.875680  0.003840  0.081380  1.0  -0.6238
  O  O436  1  0.990680  0.954110  0.089270  1.0  -0.6352
  O  O437  1  0.893420  0.806790  0.256260  1.0  -0.6115
  O  O438  1  0.850020  0.822720  0.355480  1.0  -0.5313
  O  O439  1  0.033090  0.064690  0.124570  1.0  -0.6149
  O  O440  1  0.815790  0.830490  0.289730  1.0  -0.7737
  O  O441  1  0.814100  0.768320  0.233770  1.0  -0.7557
  O  O442  1  0.999340  0.179820  0.105890  1.0  -0.495
  O  O443  1  0.941840  0.981320  0.210710  1.0  -0.617
  O  O444  1  0.798230  0.914130  0.274670  1.0  -0.621
  O  O445  1  0.843760  0.693510  0.265610  1.0  -0.564
  O  O446  1  0.922460  0.974330  0.141010  1.0  -0.6528
  O  O447  1  0.995690  0.995870  0.159910  1.0  -0.597
  O  O448  1  0.862180  0.883810  0.242080  1.0  -0.6412
  O  O449  1  0.062960  0.213240  0.075470  1.0  -0.4465
  O  O450  1  0.860700  0.958820  0.263360  1.0  -0.7022
  O  O451  1  0.936260  0.046270  0.172020  1.0  -0.4937
  O  O452  1  0.864900  0.902980  0.313070  1.0  -0.502
  O  O453  1  0.539750  0.970030  0.592170  1.0  -0.7796
  O  O454  1  0.599850  0.967390  0.472900  1.0  -0.6566
  O  O455  1  0.510480  0.906340  0.559220  1.0  -0.7665
  O  O456  1  0.920710  0.733020  0.284140  1.0  -0.5828
  O  O457  1  0.769060  0.715660  0.302150  1.0  -0.7398
  O  O458  1  0.732850  0.808090  0.277280  1.0  -0.7585
  O  O459  1  0.885440  0.688960  0.335470  1.0  -0.6561
  O  O460  1  0.753840  0.874320  0.331380  1.0  -0.6268
  O  O461  1  0.704110  0.759320  0.339270  1.0  -0.6342
  O  O462  1  0.556790  0.856580  0.506260  1.0  -0.6083
  O  O463  1  0.572720  0.899980  0.605480  1.0  -0.5311
  O  O464  1  0.814690  0.716910  0.374570  1.0  -0.6138
  O  O465  1  0.580490  0.934210  0.539730  1.0  -0.7727
  O  O466  1  0.518320  0.935900  0.483770  1.0  -0.7522
  O  O467  1  0.929820  0.750660  0.355890  1.0  -0.4949
  O  O468  1  0.731320  0.808160  0.460710  1.0  -0.6159
  O  O469  1  0.664130  0.951770  0.524670  1.0  -0.6188
  O  O470  1  0.443510  0.906240  0.515610  1.0  -0.5632
  O  O471  1  0.724330  0.827540  0.391010  1.0  -0.6526
  O  O472  1  0.745870  0.754310  0.409910  1.0  -0.6045
  O  O473  1  0.633810  0.887820  0.492080  1.0  -0.6418
  O  O474  1  0.963240  0.687040  0.325470  1.0  -0.446
  O  O475  1  0.708820  0.889300  0.513360  1.0  -0.6985
  O  O476  1  0.796270  0.813740  0.422020  1.0  -0.4918
  O  O477  1  0.652980  0.885100  0.563070  1.0  -0.5034
  O  O478  1  0.039750  0.470030  0.092170  1.0  -0.7796
  O  O479  1  0.099850  0.467390  0.972900  1.0  -0.6566
  O  O480  1  0.010480  0.406340  0.059220  1.0  -0.7665
  O  O481  1  0.420710  0.233020  0.784140  1.0  -0.5828
  O  O482  1  0.269060  0.215660  0.802150  1.0  -0.7398
  O  O483  1  0.232850  0.308090  0.777280  1.0  -0.7585
  O  O484  1  0.385440  0.188960  0.835470  1.0  -0.6561
  O  O485  1  0.253840  0.374320  0.831380  1.0  -0.6268
  O  O486  1  0.204110  0.259320  0.839270  1.0  -0.6342
  O  O487  1  0.056790  0.356580  0.006260  1.0  -0.6083
  O  O488  1  0.072720  0.399980  0.105480  1.0  -0.5311
  O  O489  1  0.314690  0.216910  0.874570  1.0  -0.6138
  O  O490  1  0.080490  0.434210  0.039730  1.0  -0.7727
  O  O491  1  0.018320  0.435900  0.983770  1.0  -0.7522
  O  O492  1  0.429820  0.250660  0.855890  1.0  -0.4949
  O  O493  1  0.231320  0.308160  0.960710  1.0  -0.6159
  O  O494  1  0.164130  0.451770  0.024670  1.0  -0.6188
  O  O495  1  0.943510  0.406240  0.015610  1.0  -0.5632
  O  O496  1  0.224330  0.327540  0.891010  1.0  -0.6526
  O  O497  1  0.245870  0.254310  0.909910  1.0  -0.6045
  O  O498  1  0.133810  0.387820  0.992080  1.0  -0.6418
  O  O499  1  0.463240  0.187040  0.825470  1.0  -0.446
  O  O500  1  0.208820  0.389300  0.013360  1.0  -0.6985
  O  O501  1  0.296270  0.313740  0.922020  1.0  -0.4918
  O  O502  1  0.152980  0.385100  0.063070  1.0  -0.5034
  O  O503  1  0.960250  0.029970  0.092170  1.0  -0.7794
  O  O504  1  0.900150  0.032610  0.972900  1.0  -0.6583
  O  O505  1  0.989520  0.093660  0.059220  1.0  -0.7672
  O  O506  1  0.579290  0.266980  0.784140  1.0  -0.5833
  O  O507  1  0.730940  0.284340  0.802150  1.0  -0.7402
  O  O508  1  0.767150  0.191910  0.777280  1.0  -0.7591
  O  O509  1  0.614560  0.311040  0.835470  1.0  -0.6549
  O  O510  1  0.746160  0.125680  0.831380  1.0  -0.6277
  O  O511  1  0.795890  0.240680  0.839270  1.0  -0.6377
  O  O512  1  0.943210  0.143420  0.006260  1.0  -0.604
  O  O513  1  0.927280  0.100020  0.105480  1.0  -0.5321
  O  O514  1  0.685310  0.283090  0.874570  1.0  -0.6121
  O  O515  1  0.919510  0.065790  0.039730  1.0  -0.7709
  O  O516  1  0.981680  0.064100  0.983770  1.0  -0.7535
  O  O517  1  0.570180  0.249340  0.855890  1.0  -0.4947
  O  O518  1  0.768680  0.191840  0.960710  1.0  -0.6162
  O  O519  1  0.835870  0.048230  0.024670  1.0  -0.6208
  O  O520  1  0.056490  0.093760  0.015610  1.0  -0.5644
  O  O521  1  0.775670  0.172460  0.891010  1.0  -0.6524
  O  O522  1  0.754130  0.245690  0.909910  1.0  -0.6024
  O  O523  1  0.866190  0.112180  0.992080  1.0  -0.6416
  O  O524  1  0.536760  0.312960  0.825470  1.0  -0.4471
  O  O525  1  0.791180  0.110700  0.013360  1.0  -0.6993
  O  O526  1  0.703730  0.186260  0.922020  1.0  -0.4883
  O  O527  1  0.847020  0.114900  0.063070  1.0  -0.5045
  O  O528  1  0.460250  0.529970  0.592170  1.0  -0.7794
  O  O529  1  0.400150  0.532610  0.472900  1.0  -0.6583
  O  O530  1  0.489520  0.593660  0.559220  1.0  -0.7672
  O  O531  1  0.079290  0.766980  0.284140  1.0  -0.5833
  O  O532  1  0.230940  0.784340  0.302150  1.0  -0.7402
  O  O533  1  0.267150  0.691910  0.277280  1.0  -0.7591
  O  O534  1  0.114560  0.811040  0.335470  1.0  -0.6549
  O  O535  1  0.246160  0.625680  0.331380  1.0  -0.6277
  O  O536  1  0.295890  0.740680  0.339270  1.0  -0.6377
  O  O537  1  0.443210  0.643420  0.506260  1.0  -0.604
  O  O538  1  0.427280  0.600020  0.605480  1.0  -0.5321
  O  O539  1  0.185310  0.783090  0.374570  1.0  -0.6121
  O  O540  1  0.419510  0.565790  0.539730  1.0  -0.7709
  O  O541  1  0.481680  0.564100  0.483770  1.0  -0.7535
  O  O542  1  0.070180  0.749340  0.355890  1.0  -0.4947
  O  O543  1  0.268680  0.691840  0.460710  1.0  -0.6162
  O  O544  1  0.335870  0.548230  0.524670  1.0  -0.6208
  O  O545  1  0.556490  0.593760  0.515610  1.0  -0.5644
  O  O546  1  0.275670  0.672460  0.391010  1.0  -0.6524
  O  O547  1  0.254130  0.745690  0.409910  1.0  -0.6024
  O  O548  1  0.366190  0.612180  0.492080  1.0  -0.6416
  O  O549  1  0.036760  0.812960  0.325470  1.0  -0.4471
  O  O550  1  0.291180  0.610700  0.513360  1.0  -0.6993
  O  O551  1  0.203730  0.686260  0.422020  1.0  -0.4883
  O  O552  1  0.347020  0.614900  0.563070  1.0  -0.5045
  O  O553  1  0.279970  0.710250  0.657830  1.0  -0.7763
  O  O554  1  0.282610  0.650150  0.777100  1.0  -0.6578
  O  O555  1  0.343660  0.739520  0.690780  1.0  -0.7673
  O  O556  1  0.516980  0.329290  0.965860  1.0  -0.5837
  O  O557  1  0.534340  0.480940  0.947850  1.0  -0.7439
  O  O558  1  0.441910  0.517150  0.972720  1.0  -0.7599
  O  O559  1  0.561040  0.364560  0.914530  1.0  -0.6532
  O  O560  1  0.375680  0.496160  0.918620  1.0  -0.6251
  O  O561  1  0.490680  0.545890  0.910730  1.0  -0.6236
  O  O562  1  0.393420  0.693210  0.743740  1.0  -0.6119
  O  O563  1  0.350020  0.677280  0.644520  1.0  -0.5323
  O  O564  1  0.533090  0.435310  0.875430  1.0  -0.6148
  O  O565  1  0.315790  0.669510  0.710270  1.0  -0.7751
  O  O566  1  0.314100  0.731680  0.766230  1.0  -0.7564
  O  O567  1  0.499340  0.320180  0.894110  1.0  -0.4942
  O  O568  1  0.441840  0.518680  0.789290  1.0  -0.6153
  O  O569  1  0.298230  0.585870  0.725330  1.0  -0.6228
  O  O570  1  0.343760  0.806490  0.734390  1.0  -0.5563
  O  O571  1  0.422460  0.525670  0.858990  1.0  -0.6535
  O  O572  1  0.495690  0.504130  0.840090  1.0  -0.6072
  O  O573  1  0.362180  0.616190  0.757920  1.0  -0.6381
  O  O574  1  0.562960  0.286760  0.924530  1.0  -0.4454
  O  O575  1  0.360700  0.541180  0.736640  1.0  -0.7019
  O  O576  1  0.436260  0.453730  0.827980  1.0  -0.4948
  O  O577  1  0.364900  0.597020  0.686930  1.0  -0.4965
  O  O578  1  0.779970  0.210250  0.157830  1.0  -0.7763
  O  O579  1  0.782610  0.150150  0.277100  1.0  -0.6578
  O  O580  1  0.843660  0.239520  0.190780  1.0  -0.7673
  O  O581  1  0.016980  0.829290  0.465860  1.0  -0.5837
  O  O582  1  0.034340  0.980940  0.447850  1.0  -0.7439
  O  O583  1  0.941910  0.017150  0.472720  1.0  -0.7599
  O  O584  1  0.061040  0.864560  0.414530  1.0  -0.6532
  O  O585  1  0.875680  0.996160  0.418620  1.0  -0.6251
  O  O586  1  0.990680  0.045890  0.410730  1.0  -0.6236
  O  O587  1  0.893420  0.193210  0.243740  1.0  -0.6119
  O  O588  1  0.850020  0.177280  0.144520  1.0  -0.5323
  O  O589  1  0.033090  0.935310  0.375430  1.0  -0.6148
  O  O590  1  0.815790  0.169510  0.210270  1.0  -0.7751
  O  O591  1  0.814100  0.231680  0.266230  1.0  -0.7564
  O  O592  1  0.999340  0.820180  0.394110  1.0  -0.4942
  O  O593  1  0.941840  0.018680  0.289290  1.0  -0.6153
  O  O594  1  0.798230  0.085870  0.225330  1.0  -0.6228
  O  O595  1  0.843760  0.306490  0.234390  1.0  -0.5563
  O  O596  1  0.922460  0.025670  0.358990  1.0  -0.6535
  O  O597  1  0.995690  0.004130  0.340090  1.0  -0.5979
  O  O598  1  0.862180  0.116190  0.257920  1.0  -0.6381
  O  O599  1  0.062960  0.786760  0.424530  1.0  -0.4454
  O  O600  1  0.860700  0.041180  0.236640  1.0  -0.7019
  O  O601  1  0.936260  0.953730  0.327980  1.0  -0.4948
  O  O602  1  0.864900  0.097020  0.186930  1.0  -0.4965
  O  O603  1  0.220030  0.289750  0.157830  1.0  -0.777
  O  O604  1  0.217390  0.349850  0.277100  1.0  -0.653
  O  O605  1  0.156340  0.260480  0.190780  1.0  -0.7666
  O  O606  1  0.983020  0.670710  0.465860  1.0  -0.5839
  O  O607  1  0.965660  0.519060  0.447850  1.0  -0.7428
  O  O608  1  0.058090  0.482850  0.472720  1.0  -0.7621
  O  O609  1  0.938960  0.635440  0.414530  1.0  -0.652
  O  O610  1  0.124320  0.503840  0.418620  1.0  -0.6285
  O  O611  1  0.009320  0.454110  0.410730  1.0  -0.6315
  O  O612  1  0.106580  0.306790  0.243740  1.0  -0.6086
  O  O613  1  0.149980  0.322720  0.144520  1.0  -0.5341
  O  O614  1  0.966910  0.564690  0.375430  1.0  -0.6137
  O  O615  1  0.184210  0.330490  0.210270  1.0  -0.7747
  O  O616  1  0.185900  0.268320  0.266230  1.0  -0.7557
  O  O617  1  0.000660  0.679820  0.394110  1.0  -0.4941
  O  O618  1  0.058160  0.481320  0.289290  1.0  -0.6156
  O  O619  1  0.201770  0.414130  0.225330  1.0  -0.6199
  O  O620  1  0.156240  0.193510  0.234390  1.0  -0.5667
  O  O621  1  0.077540  0.474330  0.358990  1.0  -0.6546
  O  O622  1  0.004310  0.495870  0.340090  1.0  -0.5954
  O  O623  1  0.137820  0.383810  0.257920  1.0  -0.6379
  O  O624  1  0.937040  0.713240  0.424530  1.0  -0.4471
  O  O625  1  0.139300  0.458820  0.236640  1.0  -0.7022
  O  O626  1  0.063740  0.546270  0.327980  1.0  -0.495
  O  O627  1  0.135100  0.402980  0.186930  1.0  -0.4973
  O  O628  1  0.720030  0.789750  0.657830  1.0  -0.777
  O  O629  1  0.717390  0.849850  0.777100  1.0  -0.653
  O  O630  1  0.656340  0.760480  0.690780  1.0  -0.7666
  O  O631  1  0.483020  0.170710  0.965860  1.0  -0.5839
  O  O632  1  0.465660  0.019060  0.947850  1.0  -0.7428
  O  O633  1  0.558090  0.982850  0.972720  1.0  -0.7621
  O  O634  1  0.438960  0.135440  0.914530  1.0  -0.652
  O  O635  1  0.624320  0.003840  0.918620  1.0  -0.6285
  O  O636  1  0.509320  0.954110  0.910730  1.0  -0.6315
  O  O637  1  0.606580  0.806790  0.743740  1.0  -0.6086
  O  O638  1  0.649980  0.822720  0.644520  1.0  -0.5341
  O  O639  1  0.466910  0.064690  0.875430  1.0  -0.6137
  O  O640  1  0.684210  0.830490  0.710270  1.0  -0.7747
  O  O641  1  0.685900  0.768320  0.766230  1.0  -0.7557
  O  O642  1  0.500660  0.179820  0.894110  1.0  -0.4941
  O  O643  1  0.558160  0.981320  0.789290  1.0  -0.6156
  O  O644  1  0.701770  0.914130  0.725330  1.0  -0.6199
  O  O645  1  0.656240  0.693510  0.734390  1.0  -0.5667
  O  O646  1  0.577540  0.974330  0.858990  1.0  -0.6546
  O  O647  1  0.504310  0.995870  0.840090  1.0  -0.6055
  O  O648  1  0.637820  0.883810  0.757920  1.0  -0.6379
  O  O649  1  0.437040  0.213240  0.924530  1.0  -0.4471
  O  O650  1  0.639300  0.958820  0.736640  1.0  -0.7022
  O  O651  1  0.563740  0.046270  0.827980  1.0  -0.495
  O  O652  1  0.635100  0.902980  0.686930  1.0  -0.4973
  O  O653  1  0.960250  0.970030  0.407830  1.0  -0.7768
  O  O654  1  0.900150  0.967390  0.527100  1.0  -0.655
  O  O655  1  0.989520  0.906340  0.440780  1.0  -0.7669
  O  O656  1  0.579290  0.733020  0.715860  1.0  -0.5814
  O  O657  1  0.730940  0.715660  0.697850  1.0  -0.7416
  O  O658  1  0.767150  0.808090  0.722720  1.0  -0.7593
  O  O659  1  0.614560  0.688960  0.664530  1.0  -0.6557
  O  O660  1  0.746160  0.874320  0.668620  1.0  -0.6291
  O  O661  1  0.795890  0.759320  0.660730  1.0  -0.6351
  O  O662  1  0.943210  0.856580  0.493740  1.0  -0.6088
  O  O663  1  0.927280  0.899980  0.394520  1.0  -0.5321
  O  O664  1  0.685310  0.716910  0.625430  1.0  -0.6112
  O  O665  1  0.919510  0.934210  0.460270  1.0  -0.7731
  O  O666  1  0.981680  0.935900  0.516230  1.0  -0.755
  O  O667  1  0.570180  0.750660  0.644110  1.0  -0.4941
  O  O668  1  0.768680  0.808160  0.539290  1.0  -0.6145
  O  O669  1  0.835870  0.951770  0.475330  1.0  -0.6196
  O  O670  1  0.056490  0.906240  0.484390  1.0  -0.5646
  O  O671  1  0.775670  0.827540  0.608990  1.0  -0.6532
  O  O672  1  0.754130  0.754310  0.590090  1.0  -0.6074
  O  O673  1  0.866190  0.887820  0.507920  1.0  -0.6403
  O  O674  1  0.536760  0.687040  0.674530  1.0  -0.446
  O  O675  1  0.791180  0.889300  0.486640  1.0  -0.6996
  O  O676  1  0.703730  0.813740  0.577980  1.0  -0.4883
  O  O677  1  0.847020  0.885100  0.436930  1.0  -0.4985
  O  O678  1  0.460250  0.470030  0.907830  1.0  -0.7768
  O  O679  1  0.400150  0.467390  0.027100  1.0  -0.655
  O  O680  1  0.489520  0.406340  0.940780  1.0  -0.7669
  O  O681  1  0.079290  0.233020  0.215860  1.0  -0.5814
  O  O682  1  0.230940  0.215660  0.197850  1.0  -0.7416
  O  O683  1  0.267150  0.308090  0.222720  1.0  -0.7593
  O  O684  1  0.114560  0.188960  0.164530  1.0  -0.6557
  O  O685  1  0.246160  0.374320  0.168620  1.0  -0.6291
  O  O686  1  0.295890  0.259320  0.160730  1.0  -0.6351
  O  O687  1  0.443210  0.356580  0.993740  1.0  -0.6088
  O  O688  1  0.427280  0.399980  0.894520  1.0  -0.5321
  O  O689  1  0.185310  0.216910  0.125430  1.0  -0.6112
  O  O690  1  0.419510  0.434210  0.960270  1.0  -0.7731
  O  O691  1  0.481680  0.435900  0.016230  1.0  -0.755
  O  O692  1  0.070180  0.250660  0.144110  1.0  -0.4941
  O  O693  1  0.268680  0.308160  0.039290  1.0  -0.6145
  O  O694  1  0.335870  0.451770  0.975330  1.0  -0.6196
  O  O695  1  0.556490  0.406240  0.984390  1.0  -0.5646
  O  O696  1  0.275670  0.327540  0.108990  1.0  -0.6532
  O  O697  1  0.254130  0.254310  0.090090  1.0  -0.6074
  O  O698  1  0.366190  0.387820  0.007920  1.0  -0.6403
  O  O699  1  0.036760  0.187040  0.174530  1.0  -0.446
  O  O700  1  0.291180  0.389300  0.986640  1.0  -0.6996
  O  O701  1  0.203730  0.313740  0.077980  1.0  -0.4883
  O  O702  1  0.347020  0.385100  0.936930  1.0  -0.4985
  O  O703  1  0.539750  0.029970  0.907830  1.0  -0.7784
  O  O704  1  0.599850  0.032610  0.027100  1.0  -0.6571
  O  O705  1  0.510480  0.093660  0.940780  1.0  -0.766
  O  O706  1  0.920710  0.266980  0.215860  1.0  -0.5827
  O  O707  1  0.769060  0.284340  0.197850  1.0  -0.7407
  O  O708  1  0.732850  0.191910  0.222720  1.0  -0.7587
  O  O709  1  0.885440  0.311040  0.164530  1.0  -0.6573
  O  O710  1  0.753840  0.125680  0.168620  1.0  -0.6258
  O  O711  1  0.704110  0.240680  0.160730  1.0  -0.631
  O  O712  1  0.556790  0.143420  0.993740  1.0  -0.6035
  O  O713  1  0.572720  0.100020  0.894520  1.0  -0.5321
  O  O714  1  0.814690  0.283090  0.125430  1.0  -0.6146
  O  O715  1  0.580490  0.065790  0.960270  1.0  -0.7741
  O  O716  1  0.518320  0.064100  0.016230  1.0  -0.7539
  O  O717  1  0.929820  0.249340  0.144110  1.0  -0.4938
  O  O718  1  0.731320  0.191840  0.039290  1.0  -0.6143
  O  O719  1  0.664130  0.048230  0.975330  1.0  -0.6202
  O  O720  1  0.443510  0.093760  0.984390  1.0  -0.5618
  O  O721  1  0.724330  0.172460  0.108990  1.0  -0.6522
  O  O722  1  0.745870  0.245690  0.090090  1.0  -0.6082
  O  O723  1  0.633810  0.112180  0.007920  1.0  -0.6395
  O  O724  1  0.963240  0.312960  0.174530  1.0  -0.4454
  O  O725  1  0.708820  0.110700  0.986640  1.0  -0.6992
  O  O726  1  0.796270  0.186260  0.077980  1.0  -0.4923
  O  O727  1  0.652980  0.114900  0.936930  1.0  -0.4986
  O  O728  1  0.039750  0.529970  0.407830  1.0  -0.7784
  O  O729  1  0.099850  0.532610  0.527100  1.0  -0.6571
  O  O730  1  0.010480  0.593660  0.440780  1.0  -0.766
  O  O731  1  0.420710  0.766980  0.715860  1.0  -0.5827
  O  O732  1  0.269060  0.784340  0.697850  1.0  -0.7407
  O  O733  1  0.232850  0.691910  0.722720  1.0  -0.7587
  O  O734  1  0.385440  0.811040  0.664530  1.0  -0.6573
  O  O735  1  0.253840  0.625680  0.668620  1.0  -0.6258
  O  O736  1  0.204110  0.740680  0.660730  1.0  -0.631
  O  O737  1  0.056790  0.643420  0.493740  1.0  -0.6035
  O  O738  1  0.072720  0.600020  0.394520  1.0  -0.5321
  O  O739  1  0.314690  0.783090  0.625430  1.0  -0.6146
  O  O740  1  0.080490  0.565790  0.460270  1.0  -0.7741
  O  O741  1  0.018320  0.564100  0.516230  1.0  -0.7539
  O  O742  1  0.429820  0.749340  0.644110  1.0  -0.4938
  O  O743  1  0.231320  0.691840  0.539290  1.0  -0.6143
  O  O744  1  0.164130  0.548230  0.475330  1.0  -0.6202
  O  O745  1  0.943510  0.593760  0.484390  1.0  -0.5618
  O  O746  1  0.224330  0.672460  0.608990  1.0  -0.6522
  O  O747  1  0.245870  0.745690  0.590090  1.0  -0.6082
  O  O748  1  0.133810  0.612180  0.507920  1.0  -0.6395
  O  O749  1  0.463240  0.812960  0.674530  1.0  -0.4454
  O  O750  1  0.208820  0.610700  0.486640  1.0  -0.6992
  O  O751  1  0.296270  0.686260  0.577980  1.0  -0.4923
  O  O752  1  0.152980  0.614900  0.436930  1.0  -0.4986
  O  O753  1  0.779970  0.289750  0.657830  1.0  -0.7761
  O  O754  1  0.782610  0.349850  0.777100  1.0  -0.6535
  O  O755  1  0.843660  0.260480  0.690780  1.0  -0.7674
  O  O756  1  0.016980  0.670710  0.965860  1.0  -0.5828
  O  O757  1  0.034340  0.519060  0.947850  1.0  -0.7446
  O  O758  1  0.941910  0.482850  0.972720  1.0  -0.7607
  O  O759  1  0.061040  0.635440  0.914530  1.0  -0.6539
  O  O760  1  0.875680  0.503840  0.918620  1.0  -0.6246
  O  O761  1  0.990680  0.454110  0.910730  1.0  -0.6308
  O  O762  1  0.893420  0.306790  0.743740  1.0  -0.6122
  O  O763  1  0.850020  0.322720  0.644520  1.0  -0.5328
  O  O764  1  0.033090  0.564690  0.875430  1.0  -0.6149
  O  O765  1  0.815790  0.330490  0.710270  1.0  -0.7751
  O  O766  1  0.814100  0.268320  0.766230  1.0  -0.7567
  O  O767  1  0.999340  0.679820  0.894110  1.0  -0.494
  O  O768  1  0.941840  0.481320  0.789290  1.0  -0.6154
  O  O769  1  0.798230  0.414130  0.725330  1.0  -0.621
  O  O770  1  0.843760  0.193510  0.734390  1.0  -0.5656
  O  O771  1  0.922460  0.474330  0.858990  1.0  -0.6528
  O  O772  1  0.995690  0.495870  0.840090  1.0  -0.5976
  O  O773  1  0.862180  0.383810  0.757920  1.0  -0.6388
  O  O774  1  0.062960  0.713240  0.924530  1.0  -0.4456
  O  O775  1  0.860700  0.458820  0.736640  1.0  -0.7024
  O  O776  1  0.936260  0.546270  0.827980  1.0  -0.4948
  O  O777  1  0.864900  0.402980  0.686930  1.0  -0.4968
  O  O778  1  0.279970  0.789750  0.157830  1.0  -0.7761
  O  O779  1  0.282610  0.849850  0.277100  1.0  -0.6535
  O  O780  1  0.343660  0.760480  0.190780  1.0  -0.7674
  O  O781  1  0.516980  0.170710  0.465860  1.0  -0.5828
  O  O782  1  0.534340  0.019060  0.447850  1.0  -0.7446
  O  O783  1  0.441910  0.982850  0.472720  1.0  -0.7607
  O  O784  1  0.561040  0.135440  0.414530  1.0  -0.6539
  O  O785  1  0.375680  0.003840  0.418620  1.0  -0.6246
  O  O786  1  0.490680  0.954110  0.410730  1.0  -0.6308
  O  O787  1  0.393420  0.806790  0.243740  1.0  -0.6122
  O  O788  1  0.350020  0.822720  0.144520  1.0  -0.5328
  O  O789  1  0.533090  0.064690  0.375430  1.0  -0.6149
  O  O790  1  0.315790  0.830490  0.210270  1.0  -0.7751
  O  O791  1  0.314100  0.768320  0.266230  1.0  -0.7567
  O  O792  1  0.499340  0.179820  0.394110  1.0  -0.494
  O  O793  1  0.441840  0.981320  0.289290  1.0  -0.6154
  O  O794  1  0.298230  0.914130  0.225330  1.0  -0.621
  O  O795  1  0.343760  0.693510  0.234390  1.0  -0.5656
  O  O796  1  0.422460  0.974330  0.358990  1.0  -0.6528
  O  O797  1  0.495690  0.995870  0.340090  1.0  -0.6077
  O  O798  1  0.362180  0.883810  0.257920  1.0  -0.6388
  O  O799  1  0.562960  0.213240  0.424530  1.0  -0.4456
  O  O800  1  0.360700  0.958820  0.236640  1.0  -0.7024
  O  O801  1  0.436260  0.046270  0.327980  1.0  -0.4948
  O  O802  1  0.364900  0.902980  0.186930  1.0  -0.4968
  O  O803  1  0.720030  0.710250  0.157830  1.0  -0.7769
  O  O804  1  0.717390  0.650150  0.277100  1.0  -0.6574
  O  O805  1  0.656340  0.739520  0.190780  1.0  -0.7662
  O  O806  1  0.483020  0.329290  0.465860  1.0  -0.5836
  O  O807  1  0.465660  0.480940  0.447850  1.0  -0.7425
  O  O808  1  0.558090  0.517150  0.472720  1.0  -0.7612
  O  O809  1  0.438960  0.364560  0.414530  1.0  -0.6516
  O  O810  1  0.624320  0.496160  0.418620  1.0  -0.6287
  O  O811  1  0.509320  0.545890  0.410730  1.0  -0.6237
  O  O812  1  0.606580  0.693210  0.243740  1.0  -0.6084
  O  O813  1  0.649980  0.677280  0.144520  1.0  -0.5331
  O  O814  1  0.466910  0.435310  0.375430  1.0  -0.6136
  O  O815  1  0.684210  0.669510  0.210270  1.0  -0.7743
  O  O816  1  0.685900  0.731680  0.266230  1.0  -0.7554
  O  O817  1  0.500660  0.320180  0.394110  1.0  -0.4945
  O  O818  1  0.558160  0.518680  0.289290  1.0  -0.6158
  O  O819  1  0.701770  0.585870  0.225330  1.0  -0.6217
  O  O820  1  0.656240  0.806490  0.234390  1.0  -0.5575
  O  O821  1  0.577540  0.525670  0.358990  1.0  -0.6543
  O  O822  1  0.504310  0.504130  0.340090  1.0  -0.6056
  O  O823  1  0.637820  0.616190  0.257920  1.0  -0.6373
  O  O824  1  0.437040  0.286760  0.424530  1.0  -0.446
  O  O825  1  0.639300  0.541180  0.236640  1.0  -0.7018
  O  O826  1  0.563740  0.453730  0.327980  1.0  -0.4949
  O  O827  1  0.635100  0.597020  0.186930  1.0  -0.4971
  O  O828  1  0.220030  0.210250  0.657830  1.0  -0.7769
  O  O829  1  0.217390  0.150150  0.777100  1.0  -0.6574
  O  O830  1  0.156340  0.239520  0.690780  1.0  -0.7662
  O  O831  1  0.983020  0.829290  0.965860  1.0  -0.5836
  O  O832  1  0.965660  0.980940  0.947850  1.0  -0.7425
  O  O833  1  0.058090  0.017150  0.972720  1.0  -0.7612
  O  O834  1  0.938960  0.864560  0.914530  1.0  -0.6516
  O  O835  1  0.124320  0.996160  0.918620  1.0  -0.6287
  O  O836  1  0.009320  0.045890  0.910730  1.0  -0.6237
  O  O837  1  0.106580  0.193210  0.743740  1.0  -0.6084
  O  O838  1  0.149980  0.177280  0.644520  1.0  -0.5331
  O  O839  1  0.966910  0.935310  0.875430  1.0  -0.6136
  O  O840  1  0.184210  0.169510  0.710270  1.0  -0.7743
  O  O841  1  0.185900  0.231680  0.766230  1.0  -0.7554
  O  O842  1  0.000660  0.820180  0.894110  1.0  -0.4945
  O  O843  1  0.058160  0.018680  0.789290  1.0  -0.6158
  O  O844  1  0.201770  0.085870  0.725330  1.0  -0.6217
  O  O845  1  0.156240  0.306490  0.734390  1.0  -0.5575
  O  O846  1  0.077540  0.025670  0.858990  1.0  -0.6543
  O  O847  1  0.004310  0.004130  0.840090  1.0  -0.596
  O  O848  1  0.137820  0.116190  0.757920  1.0  -0.6373
  O  O849  1  0.937040  0.786760  0.924530  1.0  -0.446
  O  O850  1  0.139300  0.041180  0.736640  1.0  -0.7018
  O  O851  1  0.063740  0.953730  0.827980  1.0  -0.4949
  O  O852  1  0.135100  0.097020  0.686930  1.0  -0.4971
  O  O853  1  0.460250  0.029970  0.407830  1.0  -0.7777
  O  O854  1  0.400150  0.032610  0.527100  1.0  -0.6559
  O  O855  1  0.489520  0.093660  0.440780  1.0  -0.7665
  O  O856  1  0.079290  0.266980  0.715860  1.0  -0.5824
  O  O857  1  0.230940  0.284340  0.697850  1.0  -0.7418
  O  O858  1  0.267150  0.191910  0.722720  1.0  -0.7595
  O  O859  1  0.114560  0.311040  0.664530  1.0  -0.6562
  O  O860  1  0.246160  0.125680  0.668620  1.0  -0.626
  O  O861  1  0.295890  0.240680  0.660730  1.0  -0.6346
  O  O862  1  0.443210  0.143420  0.493740  1.0  -0.6031
  O  O863  1  0.427280  0.100020  0.394520  1.0  -0.5331
  O  O864  1  0.185310  0.283090  0.625430  1.0  -0.6143
  O  O865  1  0.419510  0.065790  0.460270  1.0  -0.7725
  O  O866  1  0.481680  0.064100  0.516230  1.0  -0.7541
  O  O867  1  0.070180  0.249340  0.644110  1.0  -0.4936
  O  O868  1  0.268680  0.191840  0.539290  1.0  -0.6143
  O  O869  1  0.335870  0.048230  0.475330  1.0  -0.6208
  O  O870  1  0.556490  0.093760  0.484390  1.0  -0.5636
  O  O871  1  0.275670  0.172460  0.608990  1.0  -0.653
  O  O872  1  0.254130  0.245690  0.590090  1.0  -0.6081
  O  O873  1  0.366190  0.112180  0.507920  1.0  -0.6398
  O  O874  1  0.036760  0.312960  0.674530  1.0  -0.4465
  O  O875  1  0.291180  0.110700  0.486640  1.0  -0.6996
  O  O876  1  0.203730  0.186260  0.577980  1.0  -0.4885
  O  O877  1  0.347020  0.114900  0.436930  1.0  -0.499
  O  O878  1  0.960250  0.529970  0.907830  1.0  -0.7777
  O  O879  1  0.900150  0.532610  0.027100  1.0  -0.6559
  O  O880  1  0.989520  0.593660  0.940780  1.0  -0.7665
  O  O881  1  0.579290  0.766980  0.215860  1.0  -0.5824
  O  O882  1  0.730940  0.784340  0.197850  1.0  -0.7418
  O  O883  1  0.767150  0.691910  0.222720  1.0  -0.7595
  O  O884  1  0.614560  0.811040  0.164530  1.0  -0.6562
  O  O885  1  0.746160  0.625680  0.168620  1.0  -0.626
  O  O886  1  0.795890  0.740680  0.160730  1.0  -0.6346
  O  O887  1  0.943210  0.643420  0.993740  1.0  -0.6031
  O  O888  1  0.927280  0.600020  0.894520  1.0  -0.5331
  O  O889  1  0.685310  0.783090  0.125430  1.0  -0.6143
  O  O890  1  0.919510  0.565790  0.960270  1.0  -0.7725
  O  O891  1  0.981680  0.564100  0.016230  1.0  -0.7541
  O  O892  1  0.570180  0.749340  0.144110  1.0  -0.4936
  O  O893  1  0.768680  0.691840  0.039290  1.0  -0.6143
  O  O894  1  0.835870  0.548230  0.975330  1.0  -0.6208
  O  O895  1  0.056490  0.593760  0.984390  1.0  -0.5636
  O  O896  1  0.775670  0.672460  0.108990  1.0  -0.653
  O  O897  1  0.754130  0.745690  0.090090  1.0  -0.6081
  O  O898  1  0.866190  0.612180  0.007920  1.0  -0.6398
  O  O899  1  0.536760  0.812960  0.174530  1.0  -0.4465
  O  O900  1  0.791180  0.610700  0.986640  1.0  -0.6996
  O  O901  1  0.703730  0.686260  0.077980  1.0  -0.4885
  O  O902  1  0.847020  0.614900  0.936930  1.0  -0.499
  O  O903  1  0.039750  0.970030  0.907830  1.0  -0.7774
  O  O904  1  0.099850  0.967390  0.027100  1.0  -0.6562
  O  O905  1  0.010480  0.906340  0.940780  1.0  -0.7663
  O  O906  1  0.420710  0.733020  0.215860  1.0  -0.5819
  O  O907  1  0.269060  0.715660  0.197850  1.0  -0.741
  O  O908  1  0.232850  0.808090  0.222720  1.0  -0.7583
  O  O909  1  0.385440  0.688960  0.164530  1.0  -0.6557
  O  O910  1  0.253840  0.874320  0.168620  1.0  -0.6287
  O  O911  1  0.204110  0.759320  0.160730  1.0  -0.6323
  O  O912  1  0.056790  0.856580  0.993740  1.0  -0.6087
  O  O913  1  0.072720  0.899980  0.894520  1.0  -0.5312
  O  O914  1  0.314690  0.716910  0.125430  1.0  -0.6109
  O  O915  1  0.080490  0.934210  0.960270  1.0  -0.7741
  O  O916  1  0.018320  0.935900  0.016230  1.0  -0.7546
  O  O917  1  0.429820  0.750660  0.144110  1.0  -0.4939
  O  O918  1  0.231320  0.808160  0.039290  1.0  -0.6141
  O  O919  1  0.164130  0.951770  0.975330  1.0  -0.6187
  O  O920  1  0.943510  0.906240  0.984390  1.0  -0.5625
  O  O921  1  0.224330  0.827540  0.108990  1.0  -0.6527
  O  O922  1  0.245870  0.754310  0.090090  1.0  -0.6071
  O  O923  1  0.133810  0.887820  0.007920  1.0  -0.6405
  O  O924  1  0.463240  0.687040  0.174530  1.0  -0.4456
  O  O925  1  0.208820  0.889300  0.986640  1.0  -0.6989
  O  O926  1  0.296270  0.813740  0.077980  1.0  -0.4919
  O  O927  1  0.152980  0.885100  0.936930  1.0  -0.498
  O  O928  1  0.539750  0.470030  0.407830  1.0  -0.7774
  O  O929  1  0.599850  0.467390  0.527100  1.0  -0.6562
  O  O930  1  0.510480  0.406340  0.440780  1.0  -0.7663
  O  O931  1  0.920710  0.233020  0.715860  1.0  -0.5819
  O  O932  1  0.769060  0.215660  0.697850  1.0  -0.741
  O  O933  1  0.732850  0.308090  0.722720  1.0  -0.7583
  O  O934  1  0.885440  0.188960  0.664530  1.0  -0.6557
  O  O935  1  0.753840  0.374320  0.668620  1.0  -0.6287
  O  O936  1  0.704110  0.259320  0.660730  1.0  -0.6323
  O  O937  1  0.556790  0.356580  0.493740  1.0  -0.6087
  O  O938  1  0.572720  0.399980  0.394520  1.0  -0.5312
  O  O939  1  0.814690  0.216910  0.625430  1.0  -0.6109
  O  O940  1  0.580490  0.434210  0.460270  1.0  -0.7741
  O  O941  1  0.518320  0.435900  0.516230  1.0  -0.7546
  O  O942  1  0.929820  0.250660  0.644110  1.0  -0.4939
  O  O943  1  0.731320  0.308160  0.539290  1.0  -0.6141
  O  O944  1  0.664130  0.451770  0.475330  1.0  -0.6187
  O  O945  1  0.443510  0.406240  0.484390  1.0  -0.5625
  O  O946  1  0.724330  0.327540  0.608990  1.0  -0.6527
  O  O947  1  0.745870  0.254310  0.590090  1.0  -0.6071
  O  O948  1  0.633810  0.387820  0.507920  1.0  -0.6405
  O  O949  1  0.963240  0.187040  0.674530  1.0  -0.4456
  O  O950  1  0.708820  0.389300  0.486640  1.0  -0.6989
  O  O951  1  0.796270  0.313740  0.577980  1.0  -0.4919
  O  O952  1  0.652980  0.385100  0.436930  1.0  -0.498
  O  O953  1  0.720030  0.289750  0.342170  1.0  -0.7795
  O  O954  1  0.717390  0.349850  0.222900  1.0  -0.6576
  O  O955  1  0.656340  0.260480  0.309220  1.0  -0.7666
  O  O956  1  0.483020  0.670710  0.034140  1.0  -0.5853
  O  O957  1  0.465660  0.519060  0.052150  1.0  -0.7417
  O  O958  1  0.558090  0.482850  0.027280  1.0  -0.7618
  O  O959  1  0.438960  0.635440  0.085470  1.0  -0.6514
  O  O960  1  0.624320  0.503840  0.081380  1.0  -0.628
  O  O961  1  0.509320  0.454110  0.089270  1.0  -0.6361
  O  O962  1  0.606580  0.306790  0.256260  1.0  -0.6089
  O  O963  1  0.649980  0.322720  0.355480  1.0  -0.5327
  O  O964  1  0.466910  0.564690  0.124570  1.0  -0.6128
  O  O965  1  0.684210  0.330490  0.289730  1.0  -0.7731
  O  O966  1  0.685900  0.268320  0.233770  1.0  -0.7546
  O  O967  1  0.500660  0.679820  0.105890  1.0  -0.4952
  O  O968  1  0.558160  0.481320  0.210710  1.0  -0.6171
  O  O969  1  0.701770  0.414130  0.274670  1.0  -0.6202
  O  O970  1  0.656240  0.193510  0.265610  1.0  -0.5653
  O  O971  1  0.577540  0.474330  0.141010  1.0  -0.6544
  O  O972  1  0.504310  0.495870  0.159910  1.0  -0.6017
  O  O973  1  0.637820  0.383810  0.242080  1.0  -0.6387
  O  O974  1  0.437040  0.713240  0.075470  1.0  -0.4479
  O  O975  1  0.639300  0.458820  0.263360  1.0  -0.7016
  O  O976  1  0.563740  0.546270  0.172020  1.0  -0.494
  O  O977  1  0.635100  0.402980  0.313070  1.0  -0.5031
  O  O978  1  0.220030  0.789750  0.842170  1.0  -0.7795
  O  O979  1  0.217390  0.849850  0.722900  1.0  -0.6576
  O  O980  1  0.156340  0.760480  0.809220  1.0  -0.7666
  O  O981  1  0.983020  0.170710  0.534140  1.0  -0.5853
  O  O982  1  0.965660  0.019060  0.552150  1.0  -0.7417
  O  O983  1  0.058090  0.982850  0.527280  1.0  -0.7618
  O  O984  1  0.938960  0.135440  0.585470  1.0  -0.6514
  O  O985  1  0.124320  0.003840  0.581380  1.0  -0.628
  O  O986  1  0.009320  0.954110  0.589270  1.0  -0.6361
  O  O987  1  0.106580  0.806790  0.756260  1.0  -0.6089
  O  O988  1  0.149980  0.822720  0.855480  1.0  -0.5327
  O  O989  1  0.966910  0.064690  0.624570  1.0  -0.6128
  O  O990  1  0.184210  0.830490  0.789730  1.0  -0.7731
  O  O991  1  0.185900  0.768320  0.733770  1.0  -0.7546
  O  O992  1  0.000660  0.179820  0.605890  1.0  -0.4952
  O  O993  1  0.058160  0.981320  0.710710  1.0  -0.6171
  O  O994  1  0.201770  0.914130  0.774670  1.0  -0.6202
  O  O995  1  0.156240  0.693510  0.765610  1.0  -0.5653
  O  O996  1  0.077540  0.974330  0.641010  1.0  -0.6544
  O  O997  1  0.004310  0.995870  0.659910  1.0  -0.5942
  O  O998  1  0.137820  0.883810  0.742080  1.0  -0.6387
  O  O999  1  0.937040  0.213240  0.575470  1.0  -0.4479
  O  O1000  1  0.139300  0.958820  0.763360  1.0  -0.7016
  O  O1001  1  0.063740  0.046270  0.672020  1.0  -0.494
  O  O1002  1  0.135100  0.902980  0.813070  1.0  -0.5031
  O  O1003  1  0.779970  0.710250  0.842170  1.0  -0.7785
  O  O1004  1  0.782610  0.650150  0.722900  1.0  -0.6555
  O  O1005  1  0.843660  0.739520  0.809220  1.0  -0.7678
  O  O1006  1  0.016980  0.329290  0.534140  1.0  -0.5835
  O  O1007  1  0.034340  0.480940  0.552150  1.0  -0.7424
  O  O1008  1  0.941910  0.517150  0.527280  1.0  -0.76
  O  O1009  1  0.061040  0.364560  0.585470  1.0  -0.6532
  O  O1010  1  0.875680  0.496160  0.581380  1.0  -0.6235
  O  O1011  1  0.990680  0.545890  0.589270  1.0  -0.6259
  O  O1012  1  0.893420  0.693210  0.756260  1.0  -0.6109
  O  O1013  1  0.850020  0.677280  0.855480  1.0  -0.5316
  O  O1014  1  0.033090  0.435310  0.624570  1.0  -0.6162
  O  O1015  1  0.815790  0.669510  0.789730  1.0  -0.774
  O  O1016  1  0.814100  0.731680  0.733770  1.0  -0.7552
  O  O1017  1  0.999340  0.320180  0.605890  1.0  -0.4949
  O  O1018  1  0.941840  0.518680  0.710710  1.0  -0.6171
  O  O1019  1  0.798230  0.585870  0.774670  1.0  -0.6228
  O  O1020  1  0.843760  0.806490  0.765610  1.0  -0.5567
  O  O1021  1  0.922460  0.525670  0.641010  1.0  -0.6531
  O  O1022  1  0.995690  0.504130  0.659910  1.0  -0.5938
  O  O1023  1  0.862180  0.616190  0.742080  1.0  -0.6409
  O  O1024  1  0.062960  0.286760  0.575470  1.0  -0.4456
  O  O1025  1  0.860700  0.541180  0.763360  1.0  -0.7019
  O  O1026  1  0.936260  0.453730  0.672020  1.0  -0.4946
  O  O1027  1  0.864900  0.597020  0.813070  1.0  -0.5016
  O  O1028  1  0.279970  0.210250  0.342170  1.0  -0.7785
  O  O1029  1  0.282610  0.150150  0.222900  1.0  -0.6555
  O  O1030  1  0.343660  0.239520  0.309220  1.0  -0.7678
  O  O1031  1  0.516980  0.829290  0.034140  1.0  -0.5835
  O  O1032  1  0.534340  0.980940  0.052150  1.0  -0.7424
  O  O1033  1  0.441910  0.017150  0.027280  1.0  -0.76
  O  O1034  1  0.561040  0.864560  0.085470  1.0  -0.6532
  O  O1035  1  0.375680  0.996160  0.081380  1.0  -0.6235
  O  O1036  1  0.490680  0.045890  0.089270  1.0  -0.6259
  O  O1037  1  0.393420  0.193210  0.256260  1.0  -0.6109
  O  O1038  1  0.350020  0.177280  0.355480  1.0  -0.5316
  O  O1039  1  0.533090  0.935310  0.124570  1.0  -0.6162
  O  O1040  1  0.315790  0.169510  0.289730  1.0  -0.774
  O  O1041  1  0.314100  0.231680  0.233770  1.0  -0.7552
  O  O1042  1  0.499340  0.820180  0.105890  1.0  -0.4949
  O  O1043  1  0.441840  0.018680  0.210710  1.0  -0.6171
  O  O1044  1  0.298230  0.085870  0.274670  1.0  -0.6228
  O  O1045  1  0.343760  0.306490  0.265610  1.0  -0.5567
  O  O1046  1  0.422460  0.025670  0.141010  1.0  -0.6531
  O  O1047  1  0.495690  0.004130  0.159910  1.0  -0.6025
  O  O1048  1  0.362180  0.116190  0.242080  1.0  -0.6409
  O  O1049  1  0.562960  0.786760  0.075470  1.0  -0.4456
  O  O1050  1  0.360700  0.041180  0.263360  1.0  -0.7019
  O  O1051  1  0.436260  0.953730  0.172020  1.0  -0.4946
  O  O1052  1  0.364900  0.097020  0.313070  1.0  -0.5016
  O  O1053  1  0.039750  0.029970  0.592170  1.0  -0.7799
  O  O1054  1  0.099850  0.032610  0.472900  1.0  -0.6568
  O  O1055  1  0.010480  0.093660  0.559220  1.0  -0.7666
  O  O1056  1  0.420710  0.266980  0.284140  1.0  -0.5829
  O  O1057  1  0.269060  0.284340  0.302150  1.0  -0.7394
  O  O1058  1  0.232850  0.191910  0.277280  1.0  -0.7587
  O  O1059  1  0.385440  0.311040  0.335470  1.0  -0.656
  O  O1060  1  0.253840  0.125680  0.331380  1.0  -0.6281
  O  O1061  1  0.204110  0.240680  0.339270  1.0  -0.6334
  O  O1062  1  0.056790  0.143420  0.506260  1.0  -0.6043
  O  O1063  1  0.072720  0.100020  0.605480  1.0  -0.5304
  O  O1064  1  0.314690  0.283090  0.374570  1.0  -0.6116
  O  O1065  1  0.080490  0.065790  0.539730  1.0  -0.7725
  O  O1066  1  0.018320  0.064100  0.483770  1.0  -0.753
  O  O1067  1  0.429820  0.249340  0.355890  1.0  -0.4949
  O  O1068  1  0.231320  0.191840  0.460710  1.0  -0.6162
  O  O1069  1  0.164130  0.048230  0.524670  1.0  -0.6203
  O  O1070  1  0.943510  0.093760  0.515610  1.0  -0.5624
  O  O1071  1  0.224330  0.172460  0.391010  1.0  -0.652
  O  O1072  1  0.245870  0.245690  0.409910  1.0  -0.603
  O  O1073  1  0.133810  0.112180  0.492080  1.0  -0.6421
  O  O1074  1  0.463240  0.312960  0.325470  1.0  -0.4461
  O  O1075  1  0.208820  0.110700  0.513360  1.0  -0.6989
  O  O1076  1  0.296270  0.186260  0.422020  1.0  -0.4921
  O  O1077  1  0.152980  0.114900  0.563070  1.0  -0.504
  O  O1078  1  0.539750  0.529970  0.092170  1.0  -0.7799
  O  O1079  1  0.599850  0.532610  0.972900  1.0  -0.6568
  O  O1080  1  0.510480  0.593660  0.059220  1.0  -0.7666
  O  O1081  1  0.920710  0.766980  0.784140  1.0  -0.5829
  O  O1082  1  0.769060  0.784340  0.802150  1.0  -0.7394
  O  O1083  1  0.732850  0.691910  0.777280  1.0  -0.7587
  O  O1084  1  0.885440  0.811040  0.835470  1.0  -0.656
  O  O1085  1  0.753840  0.625680  0.831380  1.0  -0.6281
  O  O1086  1  0.704110  0.740680  0.839270  1.0  -0.6334
  O  O1087  1  0.556790  0.643420  0.006260  1.0  -0.6043
  O  O1088  1  0.572720  0.600020  0.105480  1.0  -0.5304
  O  O1089  1  0.814690  0.783090  0.874570  1.0  -0.6116
  O  O1090  1  0.580490  0.565790  0.039730  1.0  -0.7725
  O  O1091  1  0.518320  0.564100  0.983770  1.0  -0.753
  O  O1092  1  0.929820  0.749340  0.855890  1.0  -0.4949
  O  O1093  1  0.731320  0.691840  0.960710  1.0  -0.6162
  O  O1094  1  0.664130  0.548230  0.024670  1.0  -0.6203
  O  O1095  1  0.443510  0.593760  0.015610  1.0  -0.5624
  O  O1096  1  0.724330  0.672460  0.891010  1.0  -0.652
  O  O1097  1  0.745870  0.745690  0.909910  1.0  -0.603
  O  O1098  1  0.633810  0.612180  0.992080  1.0  -0.6421
  O  O1099  1  0.963240  0.812960  0.825470  1.0  -0.4461
  O  O1100  1  0.708820  0.610700  0.013360  1.0  -0.6989
  O  O1101  1  0.796270  0.686260  0.922020  1.0  -0.4921
  O  O1102  1  0.652980  0.614900  0.063070  1.0  -0.504
  O  O1103  1  0.460250  0.970030  0.092170  1.0  -0.7791
  O  O1104  1  0.400150  0.967390  0.972900  1.0  -0.6572
  O  O1105  1  0.489520  0.906340  0.059220  1.0  -0.7672
  O  O1106  1  0.079290  0.733020  0.784140  1.0  -0.5833
  O  O1107  1  0.230940  0.715660  0.802150  1.0  -0.7404
  O  O1108  1  0.267150  0.808090  0.777280  1.0  -0.759
  O  O1109  1  0.114560  0.688960  0.835470  1.0  -0.6559
  O  O1110  1  0.246160  0.874320  0.831380  1.0  -0.6273
  O  O1111  1  0.295890  0.759320  0.839270  1.0  -0.6381
  O  O1112  1  0.443210  0.856580  0.006260  1.0  -0.6079
  O  O1113  1  0.427280  0.899980  0.105480  1.0  -0.5325
  O  O1114  1  0.185310  0.716910  0.874570  1.0  -0.6147
  O  O1115  1  0.419510  0.934210  0.039730  1.0  -0.7717
  O  O1116  1  0.481680  0.935900  0.983770  1.0  -0.7527
  O  O1117  1  0.070180  0.750660  0.855890  1.0  -0.495
  O  O1118  1  0.268680  0.808160  0.960710  1.0  -0.616
  O  O1119  1  0.335870  0.951770  0.024670  1.0  -0.6199
  O  O1120  1  0.556490  0.906240  0.015610  1.0  -0.5652
  O  O1121  1  0.275670  0.827540  0.891010  1.0  -0.6527
  O  O1122  1  0.254130  0.754310  0.909910  1.0  -0.6044
  O  O1123  1  0.366190  0.887820  0.992080  1.0  -0.641
  O  O1124  1  0.036760  0.687040  0.825470  1.0  -0.4464
  O  O1125  1  0.291180  0.889300  0.013360  1.0  -0.6995
  O  O1126  1  0.203730  0.813740  0.922020  1.0  -0.4883
  O  O1127  1  0.347020  0.885100  0.063070  1.0  -0.5039
  O  O1128  1  0.960250  0.470030  0.592170  1.0  -0.7791
  O  O1129  1  0.900150  0.467390  0.472900  1.0  -0.6572
  O  O1130  1  0.989520  0.406340  0.559220  1.0  -0.7672
  O  O1131  1  0.579290  0.233020  0.284140  1.0  -0.5833
  O  O1132  1  0.730940  0.215660  0.302150  1.0  -0.7404
  O  O1133  1  0.767150  0.308090  0.277280  1.0  -0.759
  O  O1134  1  0.614560  0.188960  0.335470  1.0  -0.6559
  O  O1135  1  0.746160  0.374320  0.331380  1.0  -0.6273
  O  O1136  1  0.795890  0.259320  0.339270  1.0  -0.6381
  O  O1137  1  0.943210  0.356580  0.506260  1.0  -0.6079
  O  O1138  1  0.927280  0.399980  0.605480  1.0  -0.5325
  O  O1139  1  0.685310  0.216910  0.374570  1.0  -0.6147
  O  O1140  1  0.919510  0.434210  0.539730  1.0  -0.7717
  O  O1141  1  0.981680  0.435900  0.483770  1.0  -0.7527
  O  O1142  1  0.570180  0.250660  0.355890  1.0  -0.495
  O  O1143  1  0.768680  0.308160  0.460710  1.0  -0.616
  O  O1144  1  0.835870  0.451770  0.524670  1.0  -0.6199
  O  O1145  1  0.056490  0.406240  0.515610  1.0  -0.5652
  O  O1146  1  0.775670  0.327540  0.391010  1.0  -0.6527
  O  O1147  1  0.754130  0.254310  0.409910  1.0  -0.6044
  O  O1148  1  0.866190  0.387820  0.492080  1.0  -0.641
  O  O1149  1  0.536760  0.187040  0.325470  1.0  -0.4464
  O  O1150  1  0.791180  0.389300  0.513360  1.0  -0.6995
  O  O1151  1  0.703730  0.313740  0.422020  1.0  -0.4883
  O  O1152  1  0.847020  0.385100  0.563070  1.0  -0.5039
