# generated using pymatgen
data_Zn2H81(C5O)18
_symmetry_space_group_name_H-M   'P 1'
_cell_length_a   18.96770000
_cell_length_b   19.91860000
_cell_length_c   31.73900000
_cell_angle_alpha   90.00000000
_cell_angle_beta   95.28700000
_cell_angle_gamma   90.00000000
_symmetry_Int_Tables_number   1
_chemical_formula_structural   Zn2H81(C5O)18
_chemical_formula_sum   'Zn8 H324 C360 O72'
_cell_volume   11940.29704648
_cell_formula_units_Z   4
loop_
 _symmetry_equiv_pos_site_id
 _symmetry_equiv_pos_as_xyz
  1  'x, y, z'
loop_
 _atom_site_type_symbol
 _atom_site_label
 _atom_site_symmetry_multiplicity
 _atom_site_fract_x
 _atom_site_fract_y
 _atom_site_fract_z
 _atom_site_occupancy
 _atom_site_charge
  Zn  Zn1  1  0.358190  0.858970  0.408500  1.0  0.9768
  Zn  Zn2  1  0.143900  0.088900  0.174780  1.0  0.8483
  Zn  Zn3  1  0.858190  0.358970  0.908500  1.0  0.9768
  Zn  Zn4  1  0.643900  0.588900  0.674780  1.0  0.8483
  Zn  Zn5  1  0.641810  0.858970  0.591500  1.0  0.977
  Zn  Zn6  1  0.856100  0.088900  0.825220  1.0  0.85
  Zn  Zn7  1  0.141810  0.358970  0.091500  1.0  0.977
  Zn  Zn8  1  0.356100  0.588900  0.325220  1.0  0.85
  H  H9  1  0.578600  0.819200  0.376400  1.0  0.0943
  H  H10  1  0.596100  0.706400  0.355700  1.0  0.1235
  H  H11  1  0.517300  0.701000  0.336200  1.0  0.1357
  H  H12  1  0.534400  0.706300  0.385300  1.0  0.1361
  H  H13  1  0.556800  0.930600  0.354600  1.0  0.1321
  H  H14  1  0.622200  0.843700  0.250400  1.0  0.1024
  H  H15  1  0.658800  0.063400  0.358600  1.0  0.1424
  H  H16  1  0.581600  0.046600  0.369100  1.0  0.1326
  H  H17  1  0.593900  0.090800  0.329500  1.0  0.1322
  H  H18  1  0.690100  0.892700  0.205400  1.0  0.133
  H  H19  1  0.742400  0.947300  0.225500  1.0  0.1447
  H  H20  1  0.672600  0.969100  0.198600  1.0  0.1407
  H  H21  1  0.119000  0.093100  0.311500  1.0  0.0762
  H  H22  1  0.233500  0.125600  0.322200  1.0  0.1233
  H  H23  1  0.197300  0.169300  0.355200  1.0  0.1249
  H  H24  1  0.215200  0.201100  0.312300  1.0  0.1232
  H  H25  1  0.026500  0.085000  0.275200  1.0  0.1176
  H  H26  1  0.968000  0.238100  0.342800  1.0  0.1001
  H  H27  1  0.850900  0.029000  0.236900  1.0  0.1213
  H  H28  1  0.924100  0.995000  0.250400  1.0  0.1362
  H  H29  1  0.917400  0.047200  0.213300  1.0  0.1409
  H  H30  1  0.845900  0.260000  0.351200  1.0  0.1337
  H  H31  1  0.790300  0.205300  0.335100  1.0  0.1341
  H  H32  1  0.810400  0.262600  0.304600  1.0  0.1379
  H  H33  1  0.909800  0.437500  0.037100  1.0  0.1131
  H  H34  1  0.822300  0.354200  0.038300  1.0  0.1198
  H  H35  1  0.741300  0.480200  0.112800  1.0  0.0705
  H  H36  1  0.751300  0.204800  0.087100  1.0  0.1307
  H  H37  1  0.805400  0.226300  0.055100  1.0  0.1432
  H  H38  1  0.724100  0.224800  0.040700  1.0  0.1437
  H  H39  1  0.668800  0.457500  0.165000  1.0  0.1334
  H  H40  1  0.678600  0.384700  0.183500  1.0  0.1329
  H  H41  1  0.612700  0.401800  0.151800  1.0  0.1334
  H  H42  1  0.234500  0.156500  0.099200  1.0  0.0904
  H  H43  1  0.128800  0.132100  0.053700  1.0  0.1271
  H  H44  1  0.186300  0.075700  0.052200  1.0  0.1205
  H  H45  1  0.175500  0.128300  0.015500  1.0  0.126
  H  H46  1  0.408400  0.111400  0.033000  1.0  0.1169
  H  H47  1  0.319600  0.222100  0.116200  1.0  0.1229
  H  H48  1  0.576000  0.101500  0.082200  1.0  0.132
  H  H49  1  0.567400  0.150200  0.043300  1.0  0.1363
  H  H50  1  0.528700  0.080600  0.041200  1.0  0.126
  H  H51  1  0.401300  0.307800  0.161300  1.0  0.1367
  H  H52  1  0.481700  0.289000  0.169500  1.0  0.1241
  H  H53  1  0.424600  0.247200  0.190900  1.0  0.1335
  H  H54  1  0.774400  0.047800  0.307900  1.0  0.1052
  H  H55  1  0.848100  0.220500  0.224900  1.0  0.1007
  H  H56  1  0.799400  0.282900  0.171600  1.0  0.0925
  H  H57  1  0.579600  0.283500  0.091900  1.0  0.1205
  H  H58  1  0.505500  0.112800  0.175100  1.0  0.0997
  H  H59  1  0.554400  0.052400  0.230200  1.0  0.1138
  H  H60  1  0.223500  0.005300  0.334500  1.0  0.1096
  H  H61  1  0.263300  0.941000  0.278500  1.0  0.1362
  H  H62  1  0.184700  0.960300  0.263700  1.0  0.1371
  H  H63  1  0.202600  0.888300  0.281500  1.0  0.127
  H  H64  1  0.203400  0.009500  0.399100  1.0  0.1298
  H  H65  1  0.003800  0.982400  0.348000  1.0  0.1076
  H  H66  1  0.908200  0.048000  0.369400  1.0  0.1267
  H  H67  1  0.924400  0.102300  0.404700  1.0  0.1316
  H  H68  1  0.909800  0.027700  0.417200  1.0  0.1493
  H  H69  1  0.157300  0.107500  0.488900  1.0  0.136
  H  H70  1  0.213100  0.115600  0.455700  1.0  0.1399
  H  H71  1  0.209900  0.048800  0.481600  1.0  0.1555
  H  H72  1  0.063700  0.302100  0.408700  1.0  0.1
  H  H73  1  0.064900  0.191700  0.408300  1.0  0.1226
  H  H74  1  0.984800  0.460300  0.329900  1.0  0.1204
  H  H75  1  0.167700  0.515000  0.390600  1.0  0.1069
  H  H76  1  0.204500  0.480100  0.465900  1.0  0.1498
  H  H77  1  0.171700  0.410000  0.475300  1.0  0.1378
  H  H78  1  0.139400  0.475600  0.492900  1.0  0.1462
  H  H79  1  0.889500  0.428200  0.376400  1.0  0.1428
  H  H80  1  0.911700  0.400600  0.421900  1.0  0.1262
  H  H81  1  0.925400  0.357500  0.382100  1.0  0.1441
  H  H82  1  0.902500  0.544400  0.986100  1.0  0.1257
  H  H83  1  0.942700  0.546100  0.031500  1.0  0.1258
  H  H84  1  0.864100  0.570800  0.024500  1.0  0.1219
  H  H85  1  0.133800  0.575600  0.254900  1.0  0.1342
  H  H86  1  0.197900  0.619700  0.273200  1.0  0.1243
  H  H87  1  0.120200  0.643600  0.277700  1.0  0.1405
  H  H88  1  0.149400  0.602000  0.341500  1.0  0.0822
  H  H89  1  0.078600  0.319200  0.876400  1.0  0.0943
  H  H90  1  0.096100  0.206400  0.855700  1.0  0.1235
  H  H91  1  0.017300  0.201000  0.836200  1.0  0.1357
  H  H92  1  0.034400  0.206300  0.885300  1.0  0.1361
  H  H93  1  0.056800  0.430600  0.854600  1.0  0.1321
  H  H94  1  0.122200  0.343700  0.750400  1.0  0.1024
  H  H95  1  0.158800  0.563400  0.858600  1.0  0.1424
  H  H96  1  0.081600  0.546600  0.869100  1.0  0.1326
  H  H97  1  0.093900  0.590800  0.829500  1.0  0.1321
  H  H98  1  0.190100  0.392700  0.705400  1.0  0.133
  H  H99  1  0.242400  0.447300  0.725500  1.0  0.1447
  H  H100  1  0.172600  0.469100  0.698600  1.0  0.1407
  H  H101  1  0.619000  0.593100  0.811500  1.0  0.0762
  H  H102  1  0.733500  0.625600  0.822200  1.0  0.1233
  H  H103  1  0.697300  0.669300  0.855200  1.0  0.1249
  H  H104  1  0.715200  0.701100  0.812300  1.0  0.1232
  H  H105  1  0.526500  0.585000  0.775200  1.0  0.1176
  H  H106  1  0.468000  0.738100  0.842800  1.0  0.1001
  H  H107  1  0.350900  0.529000  0.736900  1.0  0.1213
  H  H108  1  0.424100  0.495000  0.750400  1.0  0.1362
  H  H109  1  0.417400  0.547200  0.713300  1.0  0.1411
  H  H110  1  0.345900  0.760000  0.851200  1.0  0.1337
  H  H111  1  0.290300  0.705300  0.835100  1.0  0.1341
  H  H112  1  0.310400  0.762600  0.804600  1.0  0.1379
  H  H113  1  0.409800  0.937500  0.537100  1.0  0.1131
  H  H114  1  0.322300  0.854200  0.538300  1.0  0.1198
  H  H115  1  0.241300  0.980200  0.612800  1.0  0.0705
  H  H116  1  0.251300  0.704800  0.587100  1.0  0.1307
  H  H117  1  0.305400  0.726300  0.555100  1.0  0.1432
  H  H118  1  0.224100  0.724800  0.540700  1.0  0.1437
  H  H119  1  0.168800  0.957500  0.665000  1.0  0.1334
  H  H120  1  0.178600  0.884700  0.683500  1.0  0.1329
  H  H121  1  0.112700  0.901800  0.651800  1.0  0.1334
  H  H122  1  0.734500  0.656500  0.599200  1.0  0.0904
  H  H123  1  0.628800  0.632100  0.553700  1.0  0.1271
  H  H124  1  0.686300  0.575700  0.552200  1.0  0.1219
  H  H125  1  0.675500  0.628300  0.515500  1.0  0.126
  H  H126  1  0.908400  0.611400  0.533000  1.0  0.1169
  H  H127  1  0.819600  0.722100  0.616200  1.0  0.1229
  H  H128  1  0.076000  0.601500  0.582200  1.0  0.132
  H  H129  1  0.067400  0.650200  0.543300  1.0  0.1363
  H  H130  1  0.028700  0.580600  0.541200  1.0  0.126
  H  H131  1  0.901300  0.807800  0.661300  1.0  0.1367
  H  H132  1  0.981700  0.789000  0.669500  1.0  0.1241
  H  H133  1  0.924600  0.747200  0.690900  1.0  0.1335
  H  H134  1  0.274400  0.547800  0.807900  1.0  0.1052
  H  H135  1  0.348100  0.720500  0.724900  1.0  0.1007
  H  H136  1  0.299400  0.782900  0.671600  1.0  0.0925
  H  H137  1  0.079600  0.783500  0.591900  1.0  0.1205
  H  H138  1  0.005500  0.612800  0.675100  1.0  0.0998
  H  H139  1  0.054400  0.552400  0.730200  1.0  0.1138
  H  H140  1  0.723500  0.505300  0.834500  1.0  0.1096
  H  H141  1  0.763300  0.441000  0.778500  1.0  0.1362
  H  H142  1  0.684700  0.460300  0.763700  1.0  0.1371
  H  H143  1  0.702600  0.388300  0.781500  1.0  0.127
  H  H144  1  0.703400  0.509500  0.899100  1.0  0.1298
  H  H145  1  0.503800  0.482400  0.848000  1.0  0.1076
  H  H146  1  0.408200  0.548000  0.869400  1.0  0.1267
  H  H147  1  0.424400  0.602300  0.904700  1.0  0.1316
  H  H148  1  0.409800  0.527700  0.917200  1.0  0.1493
  H  H149  1  0.657300  0.607500  0.988900  1.0  0.136
  H  H150  1  0.713100  0.615600  0.955700  1.0  0.1399
  H  H151  1  0.709900  0.548800  0.981600  1.0  0.1498
  H  H152  1  0.563700  0.802100  0.908700  1.0  0.1
  H  H153  1  0.564900  0.691700  0.908300  1.0  0.1226
  H  H154  1  0.484800  0.960300  0.829900  1.0  0.1204
  H  H155  1  0.667700  0.015000  0.890600  1.0  0.1069
  H  H156  1  0.704500  0.980100  0.965900  1.0  0.1498
  H  H157  1  0.671700  0.910000  0.975300  1.0  0.1378
  H  H158  1  0.639400  0.975600  0.992900  1.0  0.1462
  H  H159  1  0.389500  0.928200  0.876400  1.0  0.1428
  H  H160  1  0.411700  0.900600  0.921900  1.0  0.1262
  H  H161  1  0.425400  0.857500  0.882100  1.0  0.1441
  H  H162  1  0.402500  0.044400  0.486100  1.0  0.1257
  H  H163  1  0.442700  0.046100  0.531500  1.0  0.1258
  H  H164  1  0.364100  0.070800  0.524500  1.0  0.1219
  H  H165  1  0.633800  0.075600  0.754900  1.0  0.1342
  H  H166  1  0.697900  0.119700  0.773200  1.0  0.1243
  H  H167  1  0.620200  0.143600  0.777700  1.0  0.1405
  H  H168  1  0.649400  0.102000  0.841500  1.0  0.0822
  H  H169  1  0.421400  0.819200  0.623600  1.0  0.0953
  H  H170  1  0.403900  0.706400  0.644300  1.0  0.1246
  H  H171  1  0.482700  0.701000  0.663800  1.0  0.1355
  H  H172  1  0.465600  0.706300  0.614700  1.0  0.1351
  H  H173  1  0.443200  0.930600  0.645400  1.0  0.1328
  H  H174  1  0.377800  0.843700  0.749600  1.0  0.1023
  H  H175  1  0.341200  0.063400  0.641400  1.0  0.1411
  H  H176  1  0.418400  0.046600  0.630900  1.0  0.1321
  H  H177  1  0.406100  0.090800  0.670500  1.0  0.1305
  H  H178  1  0.309900  0.892700  0.794600  1.0  0.1338
  H  H179  1  0.257600  0.947300  0.774500  1.0  0.1437
  H  H180  1  0.327400  0.969100  0.801400  1.0  0.141
  H  H181  1  0.881000  0.093100  0.688500  1.0  0.0759
  H  H182  1  0.766500  0.125600  0.677800  1.0  0.1228
  H  H183  1  0.802700  0.169300  0.644800  1.0  0.1259
  H  H184  1  0.784800  0.201100  0.687700  1.0  0.1223
  H  H185  1  0.973500  0.085000  0.724800  1.0  0.1186
  H  H186  1  0.032000  0.238100  0.657200  1.0  0.1002
  H  H187  1  0.149100  0.029000  0.763100  1.0  0.1227
  H  H188  1  0.075900  0.995000  0.749600  1.0  0.1357
  H  H189  1  0.082600  0.047200  0.786700  1.0  0.142
  H  H190  1  0.154100  0.260000  0.648800  1.0  0.1341
  H  H191  1  0.209700  0.205300  0.664900  1.0  0.1331
  H  H192  1  0.189600  0.262600  0.695400  1.0  0.1372
  H  H193  1  0.090200  0.437500  0.962900  1.0  0.112
  H  H194  1  0.177700  0.354200  0.961700  1.0  0.12
  H  H195  1  0.258700  0.480200  0.887200  1.0  0.07
  H  H196  1  0.248700  0.204800  0.912900  1.0  0.1301
  H  H197  1  0.194600  0.226300  0.944900  1.0  0.1431
  H  H198  1  0.275900  0.224800  0.959300  1.0  0.1448
  H  H199  1  0.331200  0.457500  0.835000  1.0  0.1327
  H  H200  1  0.321400  0.384700  0.816500  1.0  0.1325
  H  H201  1  0.387300  0.401800  0.848200  1.0  0.1331
  H  H202  1  0.765500  0.156500  0.900800  1.0  0.091
  H  H203  1  0.871200  0.132100  0.946300  1.0  0.1262
  H  H204  1  0.813700  0.075700  0.947800  1.0  0.1228
  H  H205  1  0.824500  0.128300  0.984500  1.0  0.1266
  H  H206  1  0.591600  0.111400  0.967000  1.0  0.1171
  H  H207  1  0.680400  0.222100  0.883800  1.0  0.1235
  H  H208  1  0.424000  0.101500  0.917800  1.0  0.1324
  H  H209  1  0.432600  0.150200  0.956700  1.0  0.1366
  H  H210  1  0.471300  0.080600  0.958800  1.0  0.1264
  H  H211  1  0.598700  0.307800  0.838700  1.0  0.1359
  H  H212  1  0.518300  0.289000  0.830500  1.0  0.1248
  H  H213  1  0.575400  0.247200  0.809100  1.0  0.1326
  H  H214  1  0.225600  0.047800  0.692100  1.0  0.1046
  H  H215  1  0.151900  0.220500  0.775100  1.0  0.1018
  H  H216  1  0.200600  0.282900  0.828400  1.0  0.0928
  H  H217  1  0.420400  0.283500  0.908100  1.0  0.1202
  H  H218  1  0.494500  0.112800  0.824900  1.0  0.1009
  H  H219  1  0.445600  0.052400  0.769800  1.0  0.1134
  H  H220  1  0.776500  0.005300  0.665500  1.0  0.1102
  H  H221  1  0.736700  0.941000  0.721500  1.0  0.1359
  H  H222  1  0.815300  0.960300  0.736300  1.0  0.1384
  H  H223  1  0.797400  0.888300  0.718500  1.0  0.128
  H  H224  1  0.796600  0.009500  0.600900  1.0  0.1298
  H  H225  1  0.996200  0.982400  0.652000  1.0  0.1075
  H  H226  1  0.091800  0.048000  0.630600  1.0  0.127
  H  H227  1  0.075600  0.102300  0.595300  1.0  0.1314
  H  H228  1  0.090200  0.027700  0.582800  1.0  0.1492
  H  H229  1  0.842700  0.107500  0.511100  1.0  0.134
  H  H230  1  0.786900  0.115600  0.544300  1.0  0.1393
  H  H231  1  0.790100  0.048800  0.518400  1.0  0.156
  H  H232  1  0.936300  0.302100  0.591300  1.0  0.1
  H  H233  1  0.935100  0.191700  0.591700  1.0  0.1226
  H  H234  1  0.015200  0.460300  0.670100  1.0  0.1199
  H  H235  1  0.832300  0.515000  0.609400  1.0  0.1077
  H  H236  1  0.795500  0.480100  0.534100  1.0  0.1498
  H  H237  1  0.828300  0.410000  0.524700  1.0  0.138
  H  H238  1  0.860600  0.475600  0.507100  1.0  0.1457
  H  H239  1  0.110500  0.428200  0.623600  1.0  0.1432
  H  H240  1  0.088300  0.400600  0.578100  1.0  0.1256
  H  H241  1  0.074600  0.357500  0.617900  1.0  0.1449
  H  H242  1  0.097500  0.544400  0.013900  1.0  0.1267
  H  H243  1  0.057300  0.546100  0.968500  1.0  0.1302
  H  H244  1  0.135900  0.570800  0.975500  1.0  0.122
  H  H245  1  0.866200  0.575600  0.745100  1.0  0.1355
  H  H246  1  0.802100  0.619700  0.726800  1.0  0.1267
  H  H247  1  0.879800  0.643600  0.722300  1.0  0.1407
  H  H248  1  0.850600  0.602000  0.658500  1.0  0.0826
  H  H249  1  0.921400  0.319200  0.123600  1.0  0.0953
  H  H250  1  0.903900  0.206400  0.144300  1.0  0.1246
  H  H251  1  0.982700  0.201000  0.163800  1.0  0.1355
  H  H252  1  0.965600  0.206300  0.114700  1.0  0.1351
  H  H253  1  0.943200  0.430600  0.145400  1.0  0.1328
  H  H254  1  0.877800  0.343700  0.249600  1.0  0.1023
  H  H255  1  0.841200  0.563400  0.141400  1.0  0.1411
  H  H256  1  0.918400  0.546600  0.130900  1.0  0.1321
  H  H257  1  0.906100  0.590800  0.170500  1.0  0.1305
  H  H258  1  0.809900  0.392700  0.294600  1.0  0.1338
  H  H259  1  0.757600  0.447300  0.274500  1.0  0.1437
  H  H260  1  0.827400  0.469100  0.301400  1.0  0.141
  H  H261  1  0.381000  0.593100  0.188500  1.0  0.0759
  H  H262  1  0.266500  0.625600  0.177800  1.0  0.1228
  H  H263  1  0.302700  0.669300  0.144800  1.0  0.1259
  H  H264  1  0.284800  0.701100  0.187700  1.0  0.1223
  H  H265  1  0.473500  0.585000  0.224800  1.0  0.1186
  H  H266  1  0.532000  0.738100  0.157200  1.0  0.1002
  H  H267  1  0.649100  0.529000  0.263100  1.0  0.1227
  H  H268  1  0.575900  0.495000  0.249600  1.0  0.1357
  H  H269  1  0.582600  0.547200  0.286700  1.0  0.1421
  H  H270  1  0.654100  0.760000  0.148800  1.0  0.1341
  H  H271  1  0.709700  0.705300  0.164900  1.0  0.1331
  H  H272  1  0.689600  0.762600  0.195400  1.0  0.1372
  H  H273  1  0.590200  0.937500  0.462900  1.0  0.112
  H  H274  1  0.677700  0.854200  0.461700  1.0  0.12
  H  H275  1  0.758700  0.980200  0.387200  1.0  0.07
  H  H276  1  0.748700  0.704800  0.412900  1.0  0.1301
  H  H277  1  0.694600  0.726300  0.444900  1.0  0.1431
  H  H278  1  0.775900  0.724800  0.459300  1.0  0.1448
  H  H279  1  0.831200  0.957500  0.335000  1.0  0.1327
  H  H280  1  0.821400  0.884700  0.316500  1.0  0.1325
  H  H281  1  0.887300  0.901800  0.348200  1.0  0.1331
  H  H282  1  0.265500  0.656500  0.400800  1.0  0.091
  H  H283  1  0.371200  0.632100  0.446300  1.0  0.1262
  H  H284  1  0.313700  0.575700  0.447800  1.0  0.1231
  H  H285  1  0.324500  0.628300  0.484500  1.0  0.1266
  H  H286  1  0.091600  0.611400  0.467000  1.0  0.1171
  H  H287  1  0.180400  0.722100  0.383800  1.0  0.1235
  H  H288  1  0.924000  0.601500  0.417800  1.0  0.1324
  H  H289  1  0.932600  0.650200  0.456700  1.0  0.1366
  H  H290  1  0.971300  0.580600  0.458800  1.0  0.1264
  H  H291  1  0.098700  0.807800  0.338700  1.0  0.1359
  H  H292  1  0.018300  0.789000  0.330500  1.0  0.1248
  H  H293  1  0.075400  0.747200  0.309100  1.0  0.1326
  H  H294  1  0.725600  0.547800  0.192100  1.0  0.1046
  H  H295  1  0.651900  0.720500  0.275100  1.0  0.1018
  H  H296  1  0.700600  0.782900  0.328400  1.0  0.0928
  H  H297  1  0.920400  0.783500  0.408100  1.0  0.1202
  H  H298  1  0.994500  0.612800  0.324900  1.0  0.1009
  H  H299  1  0.945600  0.552400  0.269800  1.0  0.1134
  H  H300  1  0.276500  0.505300  0.165500  1.0  0.1102
  H  H301  1  0.236700  0.441000  0.221500  1.0  0.1359
  H  H302  1  0.315300  0.460300  0.236300  1.0  0.1384
  H  H303  1  0.297400  0.388300  0.218500  1.0  0.128
  H  H304  1  0.296600  0.509500  0.100900  1.0  0.1298
  H  H305  1  0.496200  0.482400  0.152000  1.0  0.1075
  H  H306  1  0.591800  0.548000  0.130600  1.0  0.127
  H  H307  1  0.575600  0.602300  0.095300  1.0  0.1314
  H  H308  1  0.590200  0.527700  0.082800  1.0  0.1492
  H  H309  1  0.342700  0.607500  0.011100  1.0  0.134
  H  H310  1  0.286900  0.615600  0.044300  1.0  0.1393
  H  H311  1  0.290100  0.548800  0.018400  1.0  0.1504
  H  H312  1  0.436300  0.802100  0.091300  1.0  0.1
  H  H313  1  0.435100  0.691700  0.091700  1.0  0.1226
  H  H314  1  0.515200  0.960300  0.170100  1.0  0.1199
  H  H315  1  0.332300  0.015000  0.109400  1.0  0.1077
  H  H316  1  0.295500  0.980100  0.034100  1.0  0.1498
  H  H317  1  0.328300  0.910000  0.024700  1.0  0.138
  H  H318  1  0.360600  0.975600  0.007100  1.0  0.1457
  H  H319  1  0.610500  0.928200  0.123600  1.0  0.1432
  H  H320  1  0.588300  0.900600  0.078100  1.0  0.1256
  H  H321  1  0.574600  0.857500  0.117900  1.0  0.1449
  H  H322  1  0.597500  0.044400  0.513900  1.0  0.1267
  H  H323  1  0.557300  0.046100  0.468500  1.0  0.1302
  H  H324  1  0.635900  0.070800  0.475500  1.0  0.122
  H  H325  1  0.366200  0.075600  0.245100  1.0  0.1355
  H  H326  1  0.302100  0.119700  0.226800  1.0  0.1267
  H  H327  1  0.379800  0.143600  0.222300  1.0  0.1407
  H  H328  1  0.350600  0.102000  0.158500  1.0  0.0826
  H  H329  1  0.000000  0.025400  0.500000  1.0  0.1188
  H  H330  1  0.000000  0.467400  0.500000  1.0  0.0805
  H  H331  1  0.500000  0.525400  0.000000  1.0  0.1188
  H  H332  1  0.500000  0.967400  0.000000  1.0  0.0805
  C  C333  1  0.469600  0.826300  0.360200  1.0  0.6254
  C  C334  1  0.544000  0.798700  0.355400  1.0  0.1101
  C  C335  1  0.548400  0.720600  0.358400  1.0  -0.3279
  C  C336  1  0.590400  0.874000  0.306700  1.0  0.2896
  C  C337  1  0.582300  0.932100  0.331000  1.0  -0.1846
  C  C338  1  0.612300  0.990500  0.319500  1.0  0.0839
  C  C339  1  0.648500  0.993000  0.283000  1.0  -0.1
  C  C340  1  0.655100  0.936300  0.257300  1.0  0.1157
  C  C341  1  0.623100  0.880400  0.268500  1.0  -0.1421
  C  C342  1  0.611600  0.053700  0.346700  1.0  -0.42
  C  C343  1  0.693500  0.936400  0.218200  1.0  -0.3742
  C  C344  1  0.131000  0.149300  0.259900  1.0  0.3713
  C  C345  1  0.127800  0.140400  0.305300  1.0  0.1017
  C  C346  1  0.200100  0.161000  0.325600  1.0  -0.3702
  C  C347  1  0.006400  0.162600  0.310900  1.0  0.259
  C  C348  1  0.990000  0.110300  0.284800  1.0  -0.1576
  C  C349  1  0.919500  0.092600  0.271800  1.0  0.0734
  C  C350  1  0.867800  0.137600  0.287400  1.0  -0.0202
  C  C351  1  0.884400  0.192100  0.313500  1.0  0.1438
  C  C352  1  0.954700  0.202500  0.324800  1.0  -0.1758
  C  C353  1  0.901200  0.035600  0.240100  1.0  -0.3537
  C  C354  1  0.828000  0.233500  0.327300  1.0  -0.3672
  C  C355  1  0.837700  0.433400  0.982700  1.0  0.6611
  C  C356  1  0.871000  0.465300  0.024200  1.0  0.0935
  C  C357  1  0.783500  0.424000  0.073100  1.0  0.3204
  C  C358  1  0.792300  0.363000  0.059200  1.0  -0.1256
  C  C359  1  0.752400  0.308800  0.078000  1.0  0.0226
  C  C360  1  0.709000  0.325000  0.109900  1.0  0.0202
  C  C361  1  0.703900  0.390900  0.121900  1.0  0.0595
  C  C362  1  0.743100  0.436100  0.103300  1.0  -0.1306
  C  C363  1  0.758900  0.233900  0.063800  1.0  -0.3699
  C  C364  1  0.662100  0.410500  0.159000  1.0  -0.3645
  C  C365  1  0.209600  0.239600  0.063300  1.0  0.6547
  C  C366  1  0.229900  0.167700  0.069000  1.0  0.1431
  C  C367  1  0.175000  0.121700  0.045400  1.0  -0.3449
  C  C368  1  0.358300  0.164300  0.071400  1.0  0.3422
  C  C369  1  0.413500  0.138300  0.057100  1.0  -0.1796
  C  C370  1  0.479700  0.149700  0.076800  1.0  0.0468
  C  C371  1  0.486300  0.194600  0.110800  1.0  -0.0309
  C  C372  1  0.426700  0.221900  0.125900  1.0  0.0299
  C  C373  1  0.360800  0.205600  0.106300  1.0  -0.1923
  C  C374  1  0.543900  0.117500  0.059200  1.0  -0.3592
  C  C375  1  0.434300  0.271400  0.165900  1.0  -0.4169
  C  C376  1  0.686200  0.059600  0.269300  1.0  -0.0323
  C  C377  1  0.753600  0.073100  0.285500  1.0  -0.0949
  C  C378  1  0.790500  0.123900  0.268800  1.0  -0.0036
  C  C379  1  0.762700  0.165100  0.235400  1.0  0.0271
  C  C380  1  0.800900  0.213400  0.215200  1.0  -0.1082
  C  C381  1  0.772700  0.249500  0.183000  1.0  -0.0932
  C  C382  1  0.700100  0.237400  0.165300  1.0  -0.001
  C  C383  1  0.669300  0.273700  0.128700  1.0  -0.0392
  C  C384  1  0.600700  0.258700  0.114500  1.0  -0.1093
  C  C385  1  0.558900  0.207300  0.132000  1.0  0.0234
  C  C386  1  0.588000  0.173700  0.166600  1.0  -0.0021
  C  C387  1  0.551800  0.122200  0.185600  1.0  -0.1441
  C  C388  1  0.580900  0.085600  0.218400  1.0  -0.1211
  C  C389  1  0.653600  0.097900  0.235500  1.0  0.0651
  C  C390  1  0.691100  0.146700  0.219600  1.0  0.0243
  C  C391  1  0.659600  0.188800  0.183600  1.0  -0.0815
  C  C392  1  0.243600  0.906900  0.360100  1.0  0.6392
  C  C393  1  0.204400  0.960100  0.329500  1.0  0.0936
  C  C394  1  0.214800  0.935000  0.283900  1.0  -0.3467
  C  C395  1  0.107500  0.994300  0.367600  1.0  0.28
  C  C396  1  0.155100  0.017600  0.399300  1.0  -0.1973
  C  C397  1  0.127500  0.054900  0.432800  1.0  0.0367
  C  C398  1  0.055300  0.067300  0.431900  1.0  -0.0574
  C  C399  1  0.008200  0.040900  0.398100  1.0  0.0799
  C  C400  1  0.034600  0.003200  0.368400  1.0  -0.1375
  C  C401  1  0.026100  0.106800  0.466700  1.0  0.0192
  C  C402  1  0.930700  0.056100  0.397300  1.0  -0.3847
  C  C403  1  0.182300  0.084600  0.468200  1.0  -0.4219
  C  C404  1  0.027000  0.180000  0.466300  1.0  -0.0447
  C  C405  1  0.024000  0.321400  0.465000  1.0  0.046
  C  C406  1  0.047900  0.280000  0.431800  1.0  -0.0239
  C  C407  1  0.049400  0.214700  0.431200  1.0  -0.1635
  C  C408  1  0.022900  0.391400  0.465700  1.0  0.0798
  C  C409  1  0.043200  0.426200  0.428200  1.0  0.0079
  C  C410  1  0.996900  0.434900  0.392300  1.0  0.0019
  C  C411  1  0.014900  0.463700  0.354600  1.0  -0.1193
  C  C412  1  0.075700  0.495700  0.355200  1.0  0.251
  C  C413  1  0.124100  0.494000  0.391400  1.0  -0.1406
  C  C414  1  0.109300  0.462600  0.427800  1.0  0.0338
  C  C415  1  0.161400  0.456500  0.469600  1.0  -0.4235
  C  C416  1  0.924100  0.402200  0.393300  1.0  -0.3694
  C  C417  1  0.897700  0.538900  0.015800  1.0  -0.3679
  C  C418  1  0.150800  0.605200  0.277400  1.0  -0.3308
  C  C419  1  0.217000  0.540000  0.321500  1.0  0.2939
  C  C420  1  0.151700  0.569300  0.318600  1.0  0.01
  C  C421  1  0.969600  0.326300  0.860200  1.0  0.6254
  C  C422  1  0.044000  0.298700  0.855400  1.0  0.1101
  C  C423  1  0.048400  0.220600  0.858400  1.0  -0.3279
  C  C424  1  0.090400  0.374000  0.806700  1.0  0.2896
  C  C425  1  0.082300  0.432100  0.831000  1.0  -0.1846
  C  C426  1  0.112300  0.490500  0.819500  1.0  0.0839
  C  C427  1  0.148500  0.493000  0.783000  1.0  -0.1
  C  C428  1  0.155100  0.436300  0.757300  1.0  0.1157
  C  C429  1  0.123100  0.380400  0.768500  1.0  -0.1421
  C  C430  1  0.111600  0.553700  0.846700  1.0  -0.42
  C  C431  1  0.193500  0.436400  0.718200  1.0  -0.3742
  C  C432  1  0.631000  0.649300  0.759900  1.0  0.3713
  C  C433  1  0.627800  0.640400  0.805300  1.0  0.1017
  C  C434  1  0.700100  0.661000  0.825600  1.0  -0.3702
  C  C435  1  0.506400  0.662600  0.810900  1.0  0.259
  C  C436  1  0.490000  0.610300  0.784800  1.0  -0.1576
  C  C437  1  0.419500  0.592600  0.771800  1.0  0.0734
  C  C438  1  0.367800  0.637600  0.787400  1.0  -0.0202
  C  C439  1  0.384400  0.692100  0.813500  1.0  0.1438
  C  C440  1  0.454700  0.702500  0.824800  1.0  -0.1758
  C  C441  1  0.401200  0.535600  0.740100  1.0  -0.3537
  C  C442  1  0.328000  0.733500  0.827300  1.0  -0.3672
  C  C443  1  0.337700  0.933400  0.482700  1.0  0.6611
  C  C444  1  0.371000  0.965300  0.524200  1.0  0.0935
  C  C445  1  0.283500  0.924000  0.573100  1.0  0.3204
  C  C446  1  0.292300  0.863000  0.559200  1.0  -0.1256
  C  C447  1  0.252400  0.808800  0.578000  1.0  0.0226
  C  C448  1  0.209000  0.825000  0.609900  1.0  0.0202
  C  C449  1  0.203900  0.890900  0.621900  1.0  0.0595
  C  C450  1  0.243100  0.936100  0.603300  1.0  -0.1306
  C  C451  1  0.258900  0.733900  0.563800  1.0  -0.3699
  C  C452  1  0.162100  0.910500  0.659000  1.0  -0.3645
  C  C453  1  0.709600  0.739600  0.563300  1.0  0.6547
  C  C454  1  0.729900  0.667700  0.569000  1.0  0.1431
  C  C455  1  0.675000  0.621700  0.545400  1.0  -0.3449
  C  C456  1  0.858300  0.664300  0.571400  1.0  0.3422
  C  C457  1  0.913500  0.638300  0.557100  1.0  -0.1796
  C  C458  1  0.979700  0.649700  0.576800  1.0  0.0468
  C  C459  1  0.986300  0.694600  0.610800  1.0  -0.0308
  C  C460  1  0.926700  0.721900  0.625900  1.0  0.0299
  C  C461  1  0.860800  0.705600  0.606300  1.0  -0.1923
  C  C462  1  0.043900  0.617500  0.559200  1.0  -0.3592
  C  C463  1  0.934300  0.771400  0.665900  1.0  -0.4169
  C  C464  1  0.186200  0.559600  0.769300  1.0  -0.0323
  C  C465  1  0.253600  0.573100  0.785500  1.0  -0.0949
  C  C466  1  0.290500  0.623900  0.768800  1.0  -0.0036
  C  C467  1  0.262700  0.665100  0.735400  1.0  0.0271
  C  C468  1  0.300900  0.713400  0.715200  1.0  -0.1082
  C  C469  1  0.272700  0.749500  0.683000  1.0  -0.0932
  C  C470  1  0.200100  0.737400  0.665300  1.0  -0.001
  C  C471  1  0.169300  0.773700  0.628700  1.0  -0.0392
  C  C472  1  0.100700  0.758700  0.614500  1.0  -0.1093
  C  C473  1  0.058900  0.707300  0.632000  1.0  0.0231
  C  C474  1  0.088000  0.673700  0.666667  1.0  -0.0268
  C  C475  1  0.051800  0.622200  0.685600  1.0  -0.1448
  C  C476  1  0.080900  0.585600  0.718400  1.0  -0.1215
  C  C477  1  0.153600  0.597900  0.735500  1.0  0.0653
  C  C478  1  0.191100  0.646700  0.719600  1.0  0.0245
  C  C479  1  0.159600  0.688800  0.683600  1.0  -0.0814
  C  C480  1  0.743600  0.406900  0.860100  1.0  0.6392
  C  C481  1  0.704400  0.460100  0.829500  1.0  0.0936
  C  C482  1  0.714800  0.435000  0.783900  1.0  -0.3467
  C  C483  1  0.607500  0.494300  0.867600  1.0  0.28
  C  C484  1  0.655100  0.517600  0.899300  1.0  -0.1973
  C  C485  1  0.627500  0.554900  0.932800  1.0  0.0367
  C  C486  1  0.555300  0.567300  0.931900  1.0  -0.0574
  C  C487  1  0.508200  0.540900  0.898100  1.0  0.0799
  C  C488  1  0.534600  0.503200  0.868400  1.0  -0.1375
  C  C489  1  0.526100  0.606800  0.966700  1.0  0.0192
  C  C490  1  0.430700  0.556100  0.897300  1.0  -0.3847
  C  C491  1  0.682300  0.584600  0.968200  1.0  -0.4219
  C  C492  1  0.527000  0.680000  0.966300  1.0  -0.0447
  C  C493  1  0.524000  0.821400  0.965000  1.0  0.046
  C  C494  1  0.547900  0.780000  0.931800  1.0  -0.0239
  C  C495  1  0.549400  0.714700  0.931200  1.0  -0.1635
  C  C496  1  0.522900  0.891400  0.965700  1.0  0.0798
  C  C497  1  0.543200  0.926200  0.928200  1.0  0.0079
  C  C498  1  0.496900  0.934900  0.892300  1.0  0.0019
  C  C499  1  0.514900  0.963700  0.854600  1.0  -0.1193
  C  C500  1  0.575700  0.995700  0.855200  1.0  0.251
  C  C501  1  0.624100  0.994000  0.891400  1.0  -0.1406
  C  C502  1  0.609300  0.962600  0.927800  1.0  0.0338
  C  C503  1  0.661400  0.956500  0.969600  1.0  -0.4235
  C  C504  1  0.424100  0.902200  0.893300  1.0  -0.3694
  C  C505  1  0.397700  0.038900  0.515800  1.0  -0.3679
  C  C506  1  0.650800  0.105200  0.777400  1.0  -0.3308
  C  C507  1  0.717000  0.040000  0.821500  1.0  0.2939
  C  C508  1  0.651700  0.069300  0.818600  1.0  0.01
  C  C509  1  0.530400  0.826300  0.639800  1.0  0.6277
  C  C510  1  0.456000  0.798700  0.644600  1.0  0.1116
  C  C511  1  0.451600  0.720600  0.641600  1.0  -0.3288
  C  C512  1  0.409600  0.874000  0.693300  1.0  0.2888
  C  C513  1  0.417700  0.932100  0.669000  1.0  -0.187
  C  C514  1  0.387700  0.990500  0.680500  1.0  0.0857
  C  C515  1  0.351500  0.993000  0.717000  1.0  -0.0991
  C  C516  1  0.344900  0.936300  0.742700  1.0  0.1176
  C  C517  1  0.376900  0.880400  0.731500  1.0  -0.1433
  C  C518  1  0.388400  0.053700  0.653300  1.0  -0.4214
  C  C519  1  0.306500  0.936400  0.781800  1.0  -0.373
  C  C520  1  0.869000  0.149300  0.740100  1.0  0.3692
  C  C521  1  0.872200  0.140400  0.694700  1.0  0.102
  C  C522  1  0.799900  0.161000  0.674400  1.0  -0.3694
  C  C523  1  0.993600  0.162600  0.689100  1.0  0.2591
  C  C524  1  0.010000  0.110300  0.715200  1.0  -0.1598
  C  C525  1  0.080500  0.092600  0.728200  1.0  0.0737
  C  C526  1  0.132200  0.137600  0.712600  1.0  -0.0197
  C  C527  1  0.115600  0.192100  0.686500  1.0  0.1439
  C  C528  1  0.045300  0.202500  0.675200  1.0  -0.1755
  C  C529  1  0.098800  0.035600  0.759900  1.0  -0.3554
  C  C530  1  0.172000  0.233500  0.672700  1.0  -0.3693
  C  C531  1  0.162300  0.433400  0.017300  1.0  0.6588
  C  C532  1  0.129000  0.465300  0.975800  1.0  0.0951
  C  C533  1  0.216500  0.424000  0.926900  1.0  0.3192
  C  C534  1  0.207700  0.363000  0.940800  1.0  -0.1223
  C  C535  1  0.247600  0.308800  0.922000  1.0  0.0236
  C  C536  1  0.291000  0.325000  0.890100  1.0  0.0199
  C  C537  1  0.296100  0.390900  0.878100  1.0  0.0582
  C  C538  1  0.256900  0.436100  0.896700  1.0  -0.1299
  C  C539  1  0.241100  0.233900  0.936200  1.0  -0.3691
  C  C540  1  0.337900  0.410500  0.841000  1.0  -0.3654
  C  C541  1  0.790400  0.239600  0.936700  1.0  0.6538
  C  C542  1  0.770100  0.167700  0.931000  1.0  0.1445
  C  C543  1  0.825000  0.121700  0.954600  1.0  -0.3412
  C  C544  1  0.641700  0.164300  0.928600  1.0  0.3416
  C  C545  1  0.586500  0.138300  0.942900  1.0  -0.1792
  C  C546  1  0.520300  0.149700  0.923200  1.0  0.0461
  C  C547  1  0.513700  0.194600  0.889200  1.0  -0.0303
  C  C548  1  0.573300  0.221900  0.874100  1.0  0.0298
  C  C549  1  0.639200  0.205600  0.893700  1.0  -0.1899
  C  C550  1  0.456100  0.117500  0.940800  1.0  -0.3588
  C  C551  1  0.565700  0.271400  0.834100  1.0  -0.4168
  C  C552  1  0.313800  0.059600  0.730700  1.0  -0.0317
  C  C553  1  0.246400  0.073100  0.714500  1.0  -0.0943
  C  C554  1  0.209500  0.123900  0.731200  1.0  -0.0036
  C  C555  1  0.237300  0.165100  0.764600  1.0  0.0267
  C  C556  1  0.199100  0.213400  0.784800  1.0  -0.1071
  C  C557  1  0.227300  0.249500  0.817000  1.0  -0.0917
  C  C558  1  0.299900  0.237400  0.834700  1.0  0.0002
  C  C559  1  0.330700  0.273700  0.871300  1.0  -0.0396
  C  C560  1  0.399300  0.258700  0.885500  1.0  -0.1101
  C  C561  1  0.441100  0.207300  0.868000  1.0  0.0225
  C  C562  1  0.412000  0.173700  0.833400  1.0  -0.0017
  C  C563  1  0.448200  0.122200  0.814400  1.0  -0.1443
  C  C564  1  0.419100  0.085600  0.781600  1.0  -0.1195
  C  C565  1  0.346400  0.097900  0.764500  1.0  0.065
  C  C566  1  0.308900  0.146700  0.780400  1.0  0.0246
  C  C567  1  0.340400  0.188800  0.816400  1.0  -0.0818
  C  C568  1  0.756400  0.906900  0.639900  1.0  0.6375
  C  C569  1  0.795600  0.960100  0.670500  1.0  0.0948
  C  C570  1  0.785200  0.935000  0.716100  1.0  -0.3476
  C  C571  1  0.892500  0.994300  0.632400  1.0  0.2794
  C  C572  1  0.844900  0.017600  0.600700  1.0  -0.1965
  C  C573  1  0.872500  0.054900  0.567200  1.0  0.0348
  C  C574  1  0.944700  0.067300  0.568100  1.0  -0.0561
  C  C575  1  0.991800  0.040900  0.601900  1.0  0.0783
  C  C576  1  0.965400  0.003200  0.631600  1.0  -0.1385
  C  C577  1  0.973900  0.106800  0.533300  1.0  0.0181
  C  C578  1  0.069300  0.056100  0.602700  1.0  -0.3844
  C  C579  1  0.817700  0.084600  0.531800  1.0  -0.4216
  C  C580  1  0.973000  0.180000  0.533700  1.0  -0.0447
  C  C581  1  0.976000  0.321400  0.535000  1.0  0.0457
  C  C582  1  0.952100  0.280000  0.568200  1.0  -0.0247
  C  C583  1  0.950600  0.214700  0.568800  1.0  -0.1635
  C  C584  1  0.977100  0.391400  0.534300  1.0  0.0791
  C  C585  1  0.956800  0.426200  0.571800  1.0  0.006
  C  C586  1  0.003100  0.434900  0.607700  1.0  0.0011
  C  C587  1  0.985100  0.463700  0.645400  1.0  -0.1164
  C  C588  1  0.924300  0.495700  0.644800  1.0  0.2517
  C  C589  1  0.875900  0.494000  0.608600  1.0  -0.1402
  C  C590  1  0.890700  0.462600  0.572200  1.0  0.0337
  C  C591  1  0.838600  0.456500  0.530400  1.0  -0.424
  C  C592  1  0.075900  0.402200  0.606700  1.0  -0.3693
  C  C593  1  0.102300  0.538900  0.984200  1.0  -0.3675
  C  C594  1  0.849200  0.605200  0.722600  1.0  -0.3313
  C  C595  1  0.783000  0.540000  0.678500  1.0  0.293
  C  C596  1  0.848300  0.569300  0.681400  1.0  0.009
  C  C597  1  0.030400  0.326300  0.139800  1.0  0.6277
  C  C598  1  0.956000  0.298700  0.144600  1.0  0.1116
  C  C599  1  0.951600  0.220600  0.141600  1.0  -0.3288
  C  C600  1  0.909600  0.374000  0.193300  1.0  0.2888
  C  C601  1  0.917700  0.432100  0.169000  1.0  -0.187
  C  C602  1  0.887700  0.490500  0.180500  1.0  0.0857
  C  C603  1  0.851500  0.493000  0.217000  1.0  -0.0991
  C  C604  1  0.844900  0.436300  0.242700  1.0  0.1176
  C  C605  1  0.876900  0.380400  0.231500  1.0  -0.1433
  C  C606  1  0.888400  0.553700  0.153300  1.0  -0.4214
  C  C607  1  0.806500  0.436400  0.281800  1.0  -0.373
  C  C608  1  0.369000  0.649300  0.240100  1.0  0.3692
  C  C609  1  0.372200  0.640400  0.194700  1.0  0.102
  C  C610  1  0.299900  0.661000  0.174400  1.0  -0.3694
  C  C611  1  0.493600  0.662600  0.189100  1.0  0.2591
  C  C612  1  0.510000  0.610300  0.215200  1.0  -0.1598
  C  C613  1  0.580500  0.592600  0.228200  1.0  0.0737
  C  C614  1  0.632200  0.637600  0.212600  1.0  -0.0197
  C  C615  1  0.615600  0.692100  0.186500  1.0  0.1439
  C  C616  1  0.545300  0.702500  0.175200  1.0  -0.1755
  C  C617  1  0.598800  0.535600  0.259900  1.0  -0.3554
  C  C618  1  0.672000  0.733500  0.172700  1.0  -0.3693
  C  C619  1  0.662300  0.933400  0.517300  1.0  0.6588
  C  C620  1  0.629000  0.965300  0.475800  1.0  0.0951
  C  C621  1  0.716500  0.924000  0.426900  1.0  0.3192
  C  C622  1  0.707700  0.863000  0.440800  1.0  -0.1223
  C  C623  1  0.747600  0.808800  0.422000  1.0  0.0236
  C  C624  1  0.791000  0.825000  0.390100  1.0  0.0199
  C  C625  1  0.796100  0.890900  0.378100  1.0  0.0582
  C  C626  1  0.756900  0.936100  0.396700  1.0  -0.1299
  C  C627  1  0.741100  0.733900  0.436200  1.0  -0.3691
  C  C628  1  0.837900  0.910500  0.341000  1.0  -0.3654
  C  C629  1  0.290400  0.739600  0.436700  1.0  0.6538
  C  C630  1  0.270100  0.667700  0.431000  1.0  0.1445
  C  C631  1  0.325000  0.621700  0.454600  1.0  -0.3412
  C  C632  1  0.141700  0.664300  0.428600  1.0  0.3416
  C  C633  1  0.086500  0.638300  0.442900  1.0  -0.1792
  C  C634  1  0.020300  0.649700  0.423200  1.0  0.0461
  C  C635  1  0.013700  0.694600  0.389200  1.0  -0.0303
  C  C636  1  0.073300  0.721900  0.374100  1.0  0.0298
  C  C637  1  0.139200  0.705600  0.393700  1.0  -0.1899
  C  C638  1  0.956100  0.617500  0.440800  1.0  -0.3588
  C  C639  1  0.065700  0.771400  0.334100  1.0  -0.4168
  C  C640  1  0.813800  0.559600  0.230700  1.0  -0.0317
  C  C641  1  0.746400  0.573100  0.214500  1.0  -0.0943
  C  C642  1  0.709500  0.623900  0.231200  1.0  -0.0036
  C  C643  1  0.737300  0.665100  0.264600  1.0  0.0267
  C  C644  1  0.699100  0.713400  0.284800  1.0  -0.1071
  C  C645  1  0.727300  0.749500  0.317000  1.0  -0.0917
  C  C646  1  0.799900  0.737400  0.334700  1.0  0.0002
  C  C647  1  0.830700  0.773700  0.371300  1.0  -0.0396
  C  C648  1  0.899300  0.758700  0.385500  1.0  -0.1101
  C  C649  1  0.941100  0.707300  0.368000  1.0  0.0225
  C  C650  1  0.912000  0.673700  0.333400  1.0  -0.0017
  C  C651  1  0.948200  0.622200  0.314400  1.0  -0.1443
  C  C652  1  0.919100  0.585600  0.281600  1.0  -0.1195
  C  C653  1  0.846400  0.597900  0.264500  1.0  0.065
  C  C654  1  0.808900  0.646700  0.280400  1.0  0.0246
  C  C655  1  0.840400  0.688800  0.316400  1.0  -0.0818
  C  C656  1  0.256400  0.406900  0.139900  1.0  0.6375
  C  C657  1  0.295600  0.460100  0.170500  1.0  0.0948
  C  C658  1  0.285200  0.435000  0.216100  1.0  -0.3476
  C  C659  1  0.392500  0.494300  0.132400  1.0  0.2794
  C  C660  1  0.344900  0.517600  0.100700  1.0  -0.1965
  C  C661  1  0.372500  0.554900  0.067200  1.0  0.0348
  C  C662  1  0.444700  0.567300  0.068100  1.0  -0.0561
  C  C663  1  0.491800  0.540900  0.101900  1.0  0.0783
  C  C664  1  0.465400  0.503200  0.131600  1.0  -0.1385
  C  C665  1  0.473900  0.606800  0.033300  1.0  0.0181
  C  C666  1  0.569300  0.556100  0.102700  1.0  -0.3844
  C  C667  1  0.317700  0.584600  0.031800  1.0  -0.4216
  C  C668  1  0.473000  0.680000  0.033700  1.0  -0.0447
  C  C669  1  0.476000  0.821400  0.035000  1.0  0.0457
  C  C670  1  0.452100  0.780000  0.068200  1.0  -0.0247
  C  C671  1  0.450600  0.714700  0.068800  1.0  -0.1635
  C  C672  1  0.477100  0.891400  0.034300  1.0  0.0791
  C  C673  1  0.456800  0.926200  0.071800  1.0  0.006
  C  C674  1  0.503100  0.934900  0.107700  1.0  0.0011
  C  C675  1  0.485100  0.963700  0.145400  1.0  -0.1164
  C  C676  1  0.424300  0.995700  0.144800  1.0  0.2517
  C  C677  1  0.375900  0.994000  0.108600  1.0  -0.1402
  C  C678  1  0.390700  0.962600  0.072200  1.0  0.0337
  C  C679  1  0.338600  0.956500  0.030400  1.0  -0.424
  C  C680  1  0.575900  0.902200  0.106700  1.0  -0.3693
  C  C681  1  0.602300  0.038900  0.484200  1.0  -0.3675
  C  C682  1  0.349200  0.105200  0.222600  1.0  -0.3313
  C  C683  1  0.283000  0.040000  0.178500  1.0  0.293
  C  C684  1  0.348300  0.069300  0.181400  1.0  0.009
  C  C685  1  0.000000  0.072100  0.500000  1.0  -0.1226
  C  C686  1  0.000000  0.211600  0.500000  1.0  0.0397
  C  C687  1  0.000000  0.283500  0.500000  1.0  -0.0329
  C  C688  1  0.000000  0.420800  0.500000  1.0  -0.0506
  C  C689  1  0.500000  0.572100  0.000000  1.0  -0.1226
  C  C690  1  0.500000  0.711600  0.000000  1.0  0.0397
  C  C691  1  0.500000  0.783500  0.000000  1.0  -0.0329
  C  C692  1  0.500000  0.920800  0.000000  1.0  -0.0506
  O  O693  1  0.425800  0.822400  0.332300  1.0  -0.4532
  O  O694  1  0.462500  0.841300  0.395700  1.0  -0.5528
  O  O695  1  0.560700  0.814800  0.313700  1.0  -0.3104
  O  O696  1  0.238400  0.271300  0.037200  1.0  -0.5082
  O  O697  1  0.167200  0.260000  0.089600  1.0  -0.5847
  O  O698  1  0.292200  0.149100  0.050810  1.0  -0.3135
  O  O699  1  0.882800  0.399200  0.964900  1.0  -0.5687
  O  O700  1  0.778000  0.445200  0.968500  1.0  -0.5212
  O  O701  1  0.819200  0.478400  0.054400  1.0  -0.3127
  O  O702  1  0.148400  0.094400  0.235400  1.0  -0.632
  O  O703  1  0.113000  0.199600  0.242600  1.0  -0.4589
  O  O704  1  0.076000  0.183000  0.324200  1.0  -0.3942
  O  O705  1  0.309800  0.918800  0.369200  1.0  -0.5753
  O  O706  1  0.208700  0.863200  0.378800  1.0  -0.567
  O  O707  1  0.125200  0.957800  0.333000  1.0  -0.4044
  O  O708  1  0.228000  0.473900  0.313800  1.0  -0.4901
  O  O709  1  0.284500  0.554000  0.346100  1.0  -0.6047
  O  O710  1  0.095200  0.525400  0.318600  1.0  -0.2979
  O  O711  1  0.925800  0.322400  0.832300  1.0  -0.4532
  O  O712  1  0.962500  0.341300  0.895700  1.0  -0.553
  O  O713  1  0.060700  0.314800  0.813700  1.0  -0.3104
  O  O714  1  0.738400  0.771300  0.537200  1.0  -0.5082
  O  O715  1  0.667200  0.760000  0.589600  1.0  -0.5847
  O  O716  1  0.792200  0.649100  0.550810  1.0  -0.3135
  O  O717  1  0.382800  0.899200  0.464900  1.0  -0.5687
  O  O718  1  0.278000  0.945200  0.468500  1.0  -0.5212
  O  O719  1  0.319200  0.978400  0.554400  1.0  -0.3127
  O  O720  1  0.648400  0.594400  0.735400  1.0  -0.632
  O  O721  1  0.613000  0.699600  0.742600  1.0  -0.4589
  O  O722  1  0.576000  0.683000  0.824200  1.0  -0.3942
  O  O723  1  0.809800  0.418800  0.869200  1.0  -0.5753
  O  O724  1  0.708700  0.363200  0.878800  1.0  -0.567
  O  O725  1  0.625200  0.457800  0.833000  1.0  -0.4044
  O  O726  1  0.728000  0.973900  0.813800  1.0  -0.4901
  O  O727  1  0.784500  0.054000  0.846100  1.0  -0.6005
  O  O728  1  0.595200  0.025400  0.818600  1.0  -0.2979
  O  O729  1  0.574200  0.822400  0.667700  1.0  -0.4552
  O  O730  1  0.537500  0.841300  0.604300  1.0  -0.5555
  O  O731  1  0.439300  0.814800  0.686300  1.0  -0.3109
  O  O732  1  0.761600  0.271300  0.962800  1.0  -0.5088
  O  O733  1  0.832800  0.260000  0.910400  1.0  -0.5863
  O  O734  1  0.707800  0.149100  0.949190  1.0  -0.3175
  O  O735  1  0.117200  0.399200  0.035100  1.0  -0.5701
  O  O736  1  0.222000  0.445200  0.031500  1.0  -0.5217
  O  O737  1  0.180800  0.478400  0.945600  1.0  -0.3145
  O  O738  1  0.851600  0.094400  0.764600  1.0  -0.6325
  O  O739  1  0.887000  0.199600  0.757400  1.0  -0.4581
  O  O740  1  0.924000  0.183000  0.675800  1.0  -0.3958
  O  O741  1  0.690200  0.918800  0.630800  1.0  -0.5797
  O  O742  1  0.791300  0.863200  0.621200  1.0  -0.5677
  O  O743  1  0.874800  0.957800  0.667000  1.0  -0.4042
  O  O744  1  0.772000  0.473900  0.686200  1.0  -0.4906
  O  O745  1  0.715500  0.554000  0.653900  1.0  -0.6027
  O  O746  1  0.904800  0.525400  0.681400  1.0  -0.2948
  O  O747  1  0.074200  0.322400  0.167700  1.0  -0.4552
  O  O748  1  0.037500  0.341300  0.104300  1.0  -0.5556
  O  O749  1  0.939300  0.314800  0.186300  1.0  -0.3109
  O  O750  1  0.261600  0.771300  0.462800  1.0  -0.5088
  O  O751  1  0.332800  0.760000  0.410400  1.0  -0.5863
  O  O752  1  0.207800  0.649100  0.449190  1.0  -0.3175
  O  O753  1  0.617200  0.899200  0.535100  1.0  -0.5701
  O  O754  1  0.722000  0.945200  0.531500  1.0  -0.5217
  O  O755  1  0.680800  0.978400  0.445600  1.0  -0.3145
  O  O756  1  0.351600  0.594400  0.264600  1.0  -0.6325
  O  O757  1  0.387000  0.699600  0.257400  1.0  -0.4581
  O  O758  1  0.424000  0.683000  0.175800  1.0  -0.3958
  O  O759  1  0.190200  0.418800  0.130800  1.0  -0.5797
  O  O760  1  0.291300  0.363200  0.121200  1.0  -0.5677
  O  O761  1  0.374800  0.457800  0.167000  1.0  -0.4042
  O  O762  1  0.272000  0.973900  0.186200  1.0  -0.4906
  O  O763  1  0.215500  0.054000  0.153900  1.0  -0.5983
  O  O764  1  0.404800  0.025400  0.181400  1.0  -0.2948
