# generated using pymatgen
data_Cu3H26C46(NO6)2
_symmetry_space_group_name_H-M   'P 1'
_cell_length_a   19.25900000
_cell_length_b   19.25900000
_cell_length_c   61.22560000
_cell_angle_alpha   90.00000000
_cell_angle_beta   90.00000000
_cell_angle_gamma   90.00000000
_symmetry_Int_Tables_number   1
_chemical_formula_structural   Cu3H26C46(NO6)2
_chemical_formula_sum   'Cu24 H208 C368 N16 O96'
_cell_volume   22709.13102967
_cell_formula_units_Z   8
loop_
 _symmetry_equiv_pos_site_id
 _symmetry_equiv_pos_as_xyz
  1  'x, y, z'
loop_
 _atom_site_type_symbol
 _atom_site_label
 _atom_site_symmetry_multiplicity
 _atom_site_fract_x
 _atom_site_fract_y
 _atom_site_fract_z
 _atom_site_occupancy
 _atom_site_charge
  Cu  Cu1  1  0.500000  0.567060  0.497770  1.0  0.8495
  Cu  Cu2  1  0.000000  0.067060  0.997770  1.0  0.8495
  Cu  Cu3  1  0.000000  0.432940  0.997770  1.0  0.8493
  Cu  Cu4  1  0.500000  0.932940  0.497770  1.0  0.8493
  Cu  Cu5  1  0.682940  0.250000  0.747770  1.0  0.8502
  Cu  Cu6  1  0.817060  0.750000  0.247770  1.0  0.85
  Cu  Cu7  1  0.000000  0.567060  0.002230  1.0  0.8496
  Cu  Cu8  1  0.500000  0.067060  0.502230  1.0  0.8496
  Cu  Cu9  1  0.500000  0.432940  0.502230  1.0  0.8495
  Cu  Cu10  1  0.000000  0.932940  0.002230  1.0  0.8495
  Cu  Cu11  1  0.817060  0.250000  0.752230  1.0  0.8502
  Cu  Cu12  1  0.682940  0.750000  0.252230  1.0  0.8503
  Cu  Cu13  1  0.317060  0.750000  0.252230  1.0  0.8502
  Cu  Cu14  1  0.182940  0.250000  0.752230  1.0  0.8503
  Cu  Cu15  1  0.182940  0.750000  0.247770  1.0  0.8502
  Cu  Cu16  1  0.317060  0.250000  0.747770  1.0  0.85
  Cu  Cu17  1  0.000000  0.750000  0.603290  1.0  0.9115
  Cu  Cu18  1  0.500000  0.250000  0.103290  1.0  0.9093
  Cu  Cu19  1  0.500000  0.750000  0.853290  1.0  0.9093
  Cu  Cu20  1  0.000000  0.250000  0.353290  1.0  0.9093
  Cu  Cu21  1  0.500000  0.750000  0.896710  1.0  0.9093
  Cu  Cu22  1  0.000000  0.250000  0.396710  1.0  0.9118
  Cu  Cu23  1  0.000000  0.750000  0.646710  1.0  0.9093
  Cu  Cu24  1  0.500000  0.250000  0.146710  1.0  0.9093
  H  H25  1  0.822800  0.616900  0.593400  1.0  0.1184
  H  H26  1  0.712000  0.633300  0.578900  1.0  0.116
  H  H27  1  0.642500  0.619900  0.547700  1.0  0.1112
  H  H28  1  0.644400  0.411500  0.556300  1.0  0.1098
  H  H29  1  0.712700  0.425000  0.587600  1.0  0.1161
  H  H30  1  0.601100  0.690300  0.496100  1.0  0.1045
  H  H31  1  0.322800  0.116900  0.093400  1.0  0.1184
  H  H32  1  0.212000  0.133300  0.078900  1.0  0.116
  H  H33  1  0.142500  0.119900  0.047700  1.0  0.1112
  H  H34  1  0.144400  0.911500  0.056300  1.0  0.1095
  H  H35  1  0.212700  0.925000  0.087600  1.0  0.1165
  H  H36  1  0.101100  0.190300  0.996100  1.0  0.1041
  H  H37  1  0.677200  0.383100  0.093400  1.0  0.1184
  H  H38  1  0.788000  0.366700  0.078900  1.0  0.1167
  H  H39  1  0.857500  0.380100  0.047700  1.0  0.1105
  H  H40  1  0.855600  0.588500  0.056300  1.0  0.1096
  H  H41  1  0.787300  0.575000  0.087600  1.0  0.117
  H  H42  1  0.898900  0.309700  0.996100  1.0  0.104
  H  H43  1  0.177200  0.883100  0.593400  1.0  0.1184
  H  H44  1  0.288000  0.866700  0.578900  1.0  0.1167
  H  H45  1  0.357500  0.880100  0.547700  1.0  0.1105
  H  H46  1  0.355600  0.088500  0.556300  1.0  0.1096
  H  H47  1  0.287300  0.075000  0.587600  1.0  0.1167
  H  H48  1  0.398900  0.809700  0.496100  1.0  0.1044
  H  H49  1  0.633100  0.572800  0.843400  1.0  0.1185
  H  H50  1  0.616700  0.462000  0.828900  1.0  0.1158
  H  H51  1  0.630100  0.392500  0.797700  1.0  0.111
  H  H52  1  0.838500  0.394400  0.806300  1.0  0.1096
  H  H53  1  0.825000  0.462700  0.837600  1.0  0.1161
  H  H54  1  0.559700  0.351100  0.746100  1.0  0.1041
  H  H55  1  0.133100  0.072800  0.343400  1.0  0.1185
  H  H56  1  0.116700  0.962000  0.328900  1.0  0.1158
  H  H57  1  0.130100  0.892500  0.297700  1.0  0.111
  H  H58  1  0.338500  0.894400  0.306300  1.0  0.1096
  H  H59  1  0.325000  0.962700  0.337600  1.0  0.1169
  H  H60  1  0.059700  0.851100  0.246100  1.0  0.1041
  H  H61  1  0.866900  0.427200  0.343400  1.0  0.1186
  H  H62  1  0.883300  0.538000  0.328900  1.0  0.1163
  H  H63  1  0.869900  0.607500  0.297700  1.0  0.1106
  H  H64  1  0.661500  0.605600  0.306300  1.0  0.1093
  H  H65  1  0.675000  0.537300  0.337600  1.0  0.1165
  H  H66  1  0.940300  0.648900  0.246100  1.0  0.1044
  H  H67  1  0.366900  0.927200  0.843400  1.0  0.1186
  H  H68  1  0.383300  0.038000  0.828900  1.0  0.1163
  H  H69  1  0.369900  0.107500  0.797700  1.0  0.1106
  H  H70  1  0.161500  0.105600  0.806300  1.0  0.1093
  H  H71  1  0.175000  0.037300  0.837600  1.0  0.1172
  H  H72  1  0.440300  0.148900  0.746100  1.0  0.1044
  H  H73  1  0.677200  0.616900  0.906600  1.0  0.1181
  H  H74  1  0.788000  0.633300  0.921100  1.0  0.1164
  H  H75  1  0.857500  0.619900  0.952300  1.0  0.1106
  H  H76  1  0.855600  0.411500  0.943700  1.0  0.1093
  H  H77  1  0.787300  0.425000  0.912400  1.0  0.1165
  H  H78  1  0.898900  0.690300  0.003900  1.0  0.1039
  H  H79  1  0.177200  0.116900  0.406600  1.0  0.1181
  H  H80  1  0.288000  0.133300  0.421100  1.0  0.1164
  H  H81  1  0.357500  0.119900  0.452300  1.0  0.1106
  H  H82  1  0.355600  0.911500  0.443700  1.0  0.1096
  H  H83  1  0.287300  0.925000  0.412400  1.0  0.1163
  H  H84  1  0.398900  0.190300  0.503900  1.0  0.1043
  H  H85  1  0.822800  0.383100  0.406600  1.0  0.1182
  H  H86  1  0.712000  0.366700  0.421100  1.0  0.1169
  H  H87  1  0.642500  0.380100  0.452300  1.0  0.1104
  H  H88  1  0.644400  0.588500  0.443700  1.0  0.1095
  H  H89  1  0.712700  0.575000  0.412400  1.0  0.1166
  H  H90  1  0.601100  0.309700  0.503900  1.0  0.1044
  H  H91  1  0.322800  0.883100  0.906600  1.0  0.1182
  H  H92  1  0.212000  0.866700  0.921100  1.0  0.1169
  H  H93  1  0.142500  0.880100  0.952300  1.0  0.1104
  H  H94  1  0.144400  0.088500  0.943700  1.0  0.1094
  H  H95  1  0.212700  0.075000  0.912400  1.0  0.1169
  H  H96  1  0.101100  0.809700  0.003900  1.0  0.104
  H  H97  1  0.866900  0.572800  0.656600  1.0  0.1182
  H  H98  1  0.883300  0.462000  0.671100  1.0  0.1163
  H  H99  1  0.869900  0.392500  0.702300  1.0  0.1104
  H  H100  1  0.661500  0.394400  0.693700  1.0  0.1091
  H  H101  1  0.675000  0.462700  0.662400  1.0  0.1165
  H  H102  1  0.940300  0.351100  0.753900  1.0  0.1044
  H  H103  1  0.366900  0.072800  0.156600  1.0  0.1182
  H  H104  1  0.383300  0.962000  0.171100  1.0  0.1163
  H  H105  1  0.369900  0.892500  0.202300  1.0  0.1104
  H  H106  1  0.161500  0.894400  0.193700  1.0  0.1091
  H  H107  1  0.175000  0.962700  0.162400  1.0  0.1173
  H  H108  1  0.440300  0.851100  0.253900  1.0  0.1044
  H  H109  1  0.633100  0.427200  0.156600  1.0  0.1184
  H  H110  1  0.616700  0.538000  0.171100  1.0  0.116
  H  H111  1  0.630100  0.607500  0.202300  1.0  0.1106
  H  H112  1  0.838500  0.605600  0.193700  1.0  0.1093
  H  H113  1  0.825000  0.537300  0.162400  1.0  0.1163
  H  H114  1  0.559700  0.648900  0.253900  1.0  0.1046
  H  H115  1  0.133100  0.927200  0.656600  1.0  0.1184
  H  H116  1  0.116700  0.038000  0.671100  1.0  0.116
  H  H117  1  0.130100  0.107500  0.702300  1.0  0.1106
  H  H118  1  0.338500  0.105600  0.693700  1.0  0.1093
  H  H119  1  0.325000  0.037300  0.662400  1.0  0.117
  H  H120  1  0.059700  0.148900  0.753900  1.0  0.1046
  H  H121  1  0.177200  0.383100  0.406600  1.0  0.1182
  H  H122  1  0.288000  0.366700  0.421100  1.0  0.117
  H  H123  1  0.357500  0.380100  0.452300  1.0  0.1104
  H  H124  1  0.355600  0.588500  0.443700  1.0  0.1094
  H  H125  1  0.287300  0.575000  0.412400  1.0  0.1168
  H  H126  1  0.398900  0.309700  0.503900  1.0  0.1045
  H  H127  1  0.677200  0.883100  0.906600  1.0  0.1182
  H  H128  1  0.788000  0.866700  0.921100  1.0  0.117
  H  H129  1  0.857500  0.880100  0.952300  1.0  0.1104
  H  H130  1  0.855600  0.088500  0.943700  1.0  0.1093
  H  H131  1  0.787300  0.075000  0.912400  1.0  0.1171
  H  H132  1  0.898900  0.809700  0.003900  1.0  0.1039
  H  H133  1  0.322800  0.616900  0.906600  1.0  0.1181
  H  H134  1  0.212000  0.633300  0.921100  1.0  0.1162
  H  H135  1  0.142500  0.619900  0.952300  1.0  0.1108
  H  H136  1  0.144400  0.411500  0.943700  1.0  0.1093
  H  H137  1  0.212700  0.425000  0.912400  1.0  0.1164
  H  H138  1  0.101100  0.690300  0.003900  1.0  0.1041
  H  H139  1  0.822800  0.116900  0.406600  1.0  0.1181
  H  H140  1  0.712000  0.133300  0.421100  1.0  0.1162
  H  H141  1  0.642500  0.119900  0.452300  1.0  0.1108
  H  H142  1  0.644400  0.911500  0.443700  1.0  0.1095
  H  H143  1  0.712700  0.925000  0.412400  1.0  0.1162
  H  H144  1  0.601100  0.190300  0.503900  1.0  0.1044
  H  H145  1  0.366900  0.427200  0.156600  1.0  0.1183
  H  H146  1  0.383300  0.538000  0.171100  1.0  0.1165
  H  H147  1  0.369900  0.607500  0.202300  1.0  0.1103
  H  H148  1  0.161500  0.605600  0.193700  1.0  0.1093
  H  H149  1  0.175000  0.537300  0.162400  1.0  0.1163
  H  H150  1  0.440300  0.648900  0.253900  1.0  0.1045
  H  H151  1  0.866900  0.927200  0.656600  1.0  0.1183
  H  H152  1  0.883300  0.038000  0.671100  1.0  0.1165
  H  H153  1  0.869900  0.107500  0.702300  1.0  0.1103
  H  H154  1  0.661500  0.105600  0.693700  1.0  0.1093
  H  H155  1  0.675000  0.037300  0.662400  1.0  0.1171
  H  H156  1  0.940300  0.148900  0.753900  1.0  0.1045
  H  H157  1  0.133100  0.572800  0.656600  1.0  0.1183
  H  H158  1  0.116700  0.462000  0.671100  1.0  0.1161
  H  H159  1  0.130100  0.392500  0.702300  1.0  0.1107
  H  H160  1  0.338500  0.394400  0.693700  1.0  0.1092
  H  H161  1  0.325000  0.462700  0.662400  1.0  0.1165
  H  H162  1  0.059700  0.351100  0.753900  1.0  0.1041
  H  H163  1  0.633100  0.072800  0.156600  1.0  0.1183
  H  H164  1  0.616700  0.962000  0.171100  1.0  0.1161
  H  H165  1  0.630100  0.892500  0.202300  1.0  0.1107
  H  H166  1  0.838500  0.894400  0.193700  1.0  0.1092
  H  H167  1  0.825000  0.962700  0.162400  1.0  0.1173
  H  H168  1  0.559700  0.851100  0.253900  1.0  0.1041
  H  H169  1  0.322800  0.383100  0.093400  1.0  0.1186
  H  H170  1  0.212000  0.366700  0.078900  1.0  0.1167
  H  H171  1  0.142500  0.380100  0.047700  1.0  0.1105
  H  H172  1  0.144400  0.588500  0.056300  1.0  0.1099
  H  H173  1  0.212700  0.575000  0.087600  1.0  0.1169
  H  H174  1  0.101100  0.309700  0.996100  1.0  0.1041
  H  H175  1  0.822800  0.883100  0.593400  1.0  0.1186
  H  H176  1  0.712000  0.866700  0.578900  1.0  0.1167
  H  H177  1  0.642500  0.880100  0.547700  1.0  0.1105
  H  H178  1  0.644400  0.088500  0.556300  1.0  0.1099
  H  H179  1  0.712700  0.075000  0.587600  1.0  0.1165
  H  H180  1  0.601100  0.809700  0.496100  1.0  0.1044
  H  H181  1  0.177200  0.616900  0.593400  1.0  0.1183
  H  H182  1  0.288000  0.633300  0.578900  1.0  0.1161
  H  H183  1  0.357500  0.619900  0.547700  1.0  0.1109
  H  H184  1  0.355600  0.411500  0.556300  1.0  0.1098
  H  H185  1  0.287300  0.425000  0.587600  1.0  0.1163
  H  H186  1  0.398900  0.690300  0.496100  1.0  0.1043
  H  H187  1  0.677200  0.116900  0.093400  1.0  0.1183
  H  H188  1  0.788000  0.133300  0.078900  1.0  0.1161
  H  H189  1  0.857500  0.119900  0.047700  1.0  0.1109
  H  H190  1  0.855600  0.911500  0.056300  1.0  0.1095
  H  H191  1  0.787300  0.925000  0.087600  1.0  0.1166
  H  H192  1  0.898900  0.190300  0.996100  1.0  0.1038
  H  H193  1  0.133100  0.427200  0.343400  1.0  0.1186
  H  H194  1  0.116700  0.538000  0.328900  1.0  0.1158
  H  H195  1  0.130100  0.607500  0.297700  1.0  0.1109
  H  H196  1  0.338500  0.605600  0.306300  1.0  0.1096
  H  H197  1  0.325000  0.537300  0.337600  1.0  0.1163
  H  H198  1  0.059700  0.648900  0.246100  1.0  0.1045
  H  H199  1  0.633100  0.927200  0.843400  1.0  0.1186
  H  H200  1  0.616700  0.038000  0.828900  1.0  0.1158
  H  H201  1  0.630100  0.107500  0.797700  1.0  0.1109
  H  H202  1  0.838500  0.105600  0.806300  1.0  0.1096
  H  H203  1  0.825000  0.037300  0.837600  1.0  0.1169
  H  H204  1  0.559700  0.148900  0.746100  1.0  0.1045
  H  H205  1  0.366900  0.572800  0.843400  1.0  0.1185
  H  H206  1  0.383300  0.462000  0.828900  1.0  0.1161
  H  H207  1  0.369900  0.392500  0.797700  1.0  0.1107
  H  H208  1  0.161500  0.394400  0.806300  1.0  0.1092
  H  H209  1  0.175000  0.462700  0.837600  1.0  0.1162
  H  H210  1  0.440300  0.351100  0.746100  1.0  0.1044
  H  H211  1  0.866900  0.072800  0.343400  1.0  0.1185
  H  H212  1  0.883300  0.962000  0.328900  1.0  0.1161
  H  H213  1  0.869900  0.892500  0.297700  1.0  0.1107
  H  H214  1  0.661500  0.894400  0.306300  1.0  0.1092
  H  H215  1  0.675000  0.962700  0.337600  1.0  0.1171
  H  H216  1  0.940300  0.851100  0.246100  1.0  0.1044
  H  H217  1  0.716400  0.466400  0.625000  1.0  0.1075
  H  H218  1  0.216400  0.966400  0.125000  1.0  0.1075
  H  H219  1  0.783600  0.533600  0.125000  1.0  0.1081
  H  H220  1  0.283600  0.033600  0.625000  1.0  0.1081
  H  H221  1  0.783600  0.466400  0.875000  1.0  0.1082
  H  H222  1  0.283600  0.966400  0.375000  1.0  0.1082
  H  H223  1  0.716400  0.533600  0.375000  1.0  0.1081
  H  H224  1  0.216400  0.033600  0.875000  1.0  0.1081
  H  H225  1  0.283600  0.533600  0.375000  1.0  0.1081
  H  H226  1  0.783600  0.033600  0.875000  1.0  0.1081
  H  H227  1  0.216400  0.466400  0.875000  1.0  0.1075
  H  H228  1  0.716400  0.966400  0.375000  1.0  0.1075
  H  H229  1  0.216400  0.533600  0.125000  1.0  0.1081
  H  H230  1  0.716400  0.033600  0.625000  1.0  0.1081
  H  H231  1  0.283600  0.466400  0.625000  1.0  0.1082
  H  H232  1  0.783600  0.966400  0.125000  1.0  0.1082
  C  C233  1  0.762030  0.540310  0.606210  1.0  0.0432
  C  C234  1  0.636320  0.514080  0.549280  1.0  -0.1203
  C  C235  1  0.719070  0.530550  0.586380  1.0  0.053
  C  C236  1  0.589460  0.506500  0.530080  1.0  0.6916
  C  C237  1  0.813980  0.590720  0.606250  1.0  -0.0963
  C  C238  1  0.698090  0.588160  0.574400  1.0  -0.1309
  C  C239  1  0.656680  0.580330  0.555790  1.0  -0.0693
  C  C240  1  0.657690  0.456700  0.560980  1.0  -0.0656
  C  C241  1  0.698610  0.464720  0.579530  1.0  -0.14
  C  C242  1  0.558040  0.714290  0.496240  1.0  0.1422
  C  C243  1  0.262030  0.040310  0.106210  1.0  0.0432
  C  C244  1  0.136320  0.014080  0.049280  1.0  -0.1203
  C  C245  1  0.219070  0.030550  0.086380  1.0  0.053
  C  C246  1  0.089460  0.006500  0.030080  1.0  0.6916
  C  C247  1  0.313980  0.090720  0.106250  1.0  -0.0963
  C  C248  1  0.198090  0.088160  0.074400  1.0  -0.1309
  C  C249  1  0.156680  0.080330  0.055790  1.0  -0.0693
  C  C250  1  0.157690  0.956700  0.060980  1.0  -0.0656
  C  C251  1  0.198610  0.964720  0.079530  1.0  -0.14
  C  C252  1  0.058040  0.214290  0.996240  1.0  0.1425
  C  C253  1  0.737970  0.459690  0.106210  1.0  0.0433
  C  C254  1  0.863680  0.485920  0.049280  1.0  -0.1218
  C  C255  1  0.780930  0.469450  0.086380  1.0  0.053
  C  C256  1  0.910540  0.493500  0.030080  1.0  0.6915
  C  C257  1  0.686020  0.409280  0.106250  1.0  -0.0968
  C  C258  1  0.801910  0.411840  0.074400  1.0  -0.1329
  C  C259  1  0.843320  0.419670  0.055790  1.0  -0.0687
  C  C260  1  0.842310  0.543300  0.060980  1.0  -0.065
  C  C261  1  0.801390  0.535280  0.079530  1.0  -0.1421
  C  C262  1  0.941960  0.285710  0.996240  1.0  0.1429
  C  C263  1  0.237970  0.959690  0.606210  1.0  0.0433
  C  C264  1  0.363680  0.985920  0.549280  1.0  -0.1218
  C  C265  1  0.280930  0.969450  0.586380  1.0  0.053
  C  C266  1  0.410540  0.993500  0.530080  1.0  0.6915
  C  C267  1  0.186020  0.909280  0.606250  1.0  -0.0968
  C  C268  1  0.301910  0.911840  0.574400  1.0  -0.1329
  C  C269  1  0.343320  0.919670  0.555790  1.0  -0.0687
  C  C270  1  0.342310  0.043300  0.560980  1.0  -0.065
  C  C271  1  0.301390  0.035280  0.579530  1.0  -0.1421
  C  C272  1  0.441960  0.785710  0.496240  1.0  0.1429
  C  C273  1  0.709690  0.512030  0.856210  1.0  0.0433
  C  C274  1  0.735920  0.386320  0.799280  1.0  -0.1192
  C  C275  1  0.719450  0.469070  0.836380  1.0  0.0532
  C  C276  1  0.743500  0.339460  0.780080  1.0  0.6921
  C  C277  1  0.659280  0.563980  0.856250  1.0  -0.0972
  C  C278  1  0.661840  0.448090  0.824400  1.0  -0.1304
  C  C279  1  0.669670  0.406680  0.805790  1.0  -0.0694
  C  C280  1  0.793300  0.407690  0.810980  1.0  -0.0631
  C  C281  1  0.785280  0.448610  0.829530  1.0  -0.1372
  C  C282  1  0.535710  0.308040  0.746240  1.0  0.1415
  C  C283  1  0.209690  0.012030  0.356210  1.0  0.0433
  C  C284  1  0.235920  0.886320  0.299280  1.0  -0.1192
  C  C285  1  0.219450  0.969070  0.336380  1.0  0.0532
  C  C286  1  0.243500  0.839460  0.280080  1.0  0.6921
  C  C287  1  0.159280  0.063980  0.356250  1.0  -0.0972
  C  C288  1  0.161840  0.948090  0.324400  1.0  -0.1304
  C  C289  1  0.169670  0.906680  0.305790  1.0  -0.0694
  C  C290  1  0.293300  0.907690  0.310980  1.0  -0.0631
  C  C291  1  0.285280  0.948610  0.329530  1.0  -0.1352
  C  C292  1  0.035710  0.808040  0.246240  1.0  0.1415
  C  C293  1  0.790310  0.487970  0.356210  1.0  0.043
  C  C294  1  0.764080  0.613680  0.299280  1.0  -0.1195
  C  C295  1  0.780550  0.530930  0.336380  1.0  0.0529
  C  C296  1  0.756500  0.660540  0.280080  1.0  0.6916
  C  C297  1  0.840720  0.436020  0.356250  1.0  -0.0966
  C  C298  1  0.838160  0.551910  0.324400  1.0  -0.1273
  C  C299  1  0.830330  0.593320  0.305790  1.0  -0.0696
  C  C300  1  0.706700  0.592310  0.310980  1.0  -0.0641
  C  C301  1  0.714720  0.551390  0.329530  1.0  -0.1379
  C  C302  1  0.964290  0.691960  0.246240  1.0  0.1413
  C  C303  1  0.290310  0.987970  0.856210  1.0  0.043
  C  C304  1  0.264080  0.113680  0.799280  1.0  -0.1195
  C  C305  1  0.280550  0.030930  0.836380  1.0  0.0529
  C  C306  1  0.256500  0.160540  0.780080  1.0  0.6916
  C  C307  1  0.340720  0.936020  0.856250  1.0  -0.0966
  C  C308  1  0.338160  0.051910  0.824400  1.0  -0.1273
  C  C309  1  0.330330  0.093320  0.805790  1.0  -0.0696
  C  C310  1  0.206700  0.092310  0.810980  1.0  -0.0641
  C  C311  1  0.214720  0.051390  0.829530  1.0  -0.1367
  C  C312  1  0.464290  0.191960  0.746240  1.0  0.1428
  C  C313  1  0.737970  0.540310  0.893790  1.0  0.0432
  C  C314  1  0.863680  0.514080  0.950720  1.0  -0.1221
  C  C315  1  0.780930  0.530550  0.913620  1.0  0.053
  C  C316  1  0.910540  0.506500  0.969920  1.0  0.691
  C  C317  1  0.686020  0.590720  0.893750  1.0  -0.0973
  C  C318  1  0.801910  0.588160  0.925600  1.0  -0.1325
  C  C319  1  0.843320  0.580330  0.944210  1.0  -0.0688
  C  C320  1  0.842310  0.456700  0.939020  1.0  -0.0645
  C  C321  1  0.801390  0.464720  0.920470  1.0  -0.1401
  C  C322  1  0.941960  0.714290  0.003760  1.0  0.1422
  C  C323  1  0.237970  0.040310  0.393790  1.0  0.0432
  C  C324  1  0.363680  0.014080  0.450720  1.0  -0.1221
  C  C325  1  0.280930  0.030550  0.413620  1.0  0.053
  C  C326  1  0.410540  0.006500  0.469920  1.0  0.691
  C  C327  1  0.186020  0.090720  0.393750  1.0  -0.0973
  C  C328  1  0.301910  0.088160  0.425600  1.0  -0.1325
  C  C329  1  0.343320  0.080330  0.444210  1.0  -0.0688
  C  C330  1  0.342310  0.956700  0.439020  1.0  -0.0645
  C  C331  1  0.301390  0.964720  0.420470  1.0  -0.1401
  C  C332  1  0.441960  0.214290  0.503760  1.0  0.1422
  C  C333  1  0.762030  0.459690  0.393790  1.0  0.0432
  C  C334  1  0.636320  0.485920  0.450720  1.0  -0.1204
  C  C335  1  0.719070  0.469450  0.413620  1.0  0.0532
  C  C336  1  0.589460  0.493500  0.469920  1.0  0.6914
  C  C337  1  0.813980  0.409280  0.393750  1.0  -0.0963
  C  C338  1  0.698090  0.411840  0.425600  1.0  -0.1306
  C  C339  1  0.656680  0.419670  0.444210  1.0  -0.0696
  C  C340  1  0.657690  0.543300  0.439020  1.0  -0.0658
  C  C341  1  0.698610  0.535280  0.420470  1.0  -0.1407
  C  C342  1  0.558040  0.285710  0.503760  1.0  0.1429
  C  C343  1  0.262030  0.959690  0.893790  1.0  0.0432
  C  C344  1  0.136320  0.985920  0.950720  1.0  -0.1204
  C  C345  1  0.219070  0.969450  0.913620  1.0  0.0532
  C  C346  1  0.089460  0.993500  0.969920  1.0  0.6914
  C  C347  1  0.313980  0.909280  0.893750  1.0  -0.0963
  C  C348  1  0.198090  0.911840  0.925600  1.0  -0.1306
  C  C349  1  0.156680  0.919670  0.944210  1.0  -0.0696
  C  C350  1  0.157690  0.043300  0.939020  1.0  -0.0658
  C  C351  1  0.198610  0.035280  0.920470  1.0  -0.1407
  C  C352  1  0.058040  0.785710  0.003760  1.0  0.1429
  C  C353  1  0.790310  0.512030  0.643790  1.0  0.0429
  C  C354  1  0.764080  0.386320  0.700720  1.0  -0.1191
  C  C355  1  0.780550  0.469070  0.663620  1.0  0.053
  C  C356  1  0.756500  0.339460  0.719920  1.0  0.6915
  C  C357  1  0.840720  0.563980  0.643750  1.0  -0.0968
  C  C358  1  0.838160  0.448090  0.675600  1.0  -0.1279
  C  C359  1  0.830330  0.406680  0.694210  1.0  -0.0694
  C  C360  1  0.706700  0.407690  0.689020  1.0  -0.0641
  C  C361  1  0.714720  0.448610  0.670470  1.0  -0.1368
  C  C362  1  0.964290  0.308040  0.753760  1.0  0.1399
  C  C363  1  0.290310  0.012030  0.143790  1.0  0.0429
  C  C364  1  0.264080  0.886320  0.200720  1.0  -0.1191
  C  C365  1  0.280550  0.969070  0.163620  1.0  0.053
  C  C366  1  0.256500  0.839460  0.219920  1.0  0.6915
  C  C367  1  0.340720  0.063980  0.143750  1.0  -0.0968
  C  C368  1  0.338160  0.948090  0.175600  1.0  -0.1279
  C  C369  1  0.330330  0.906680  0.194210  1.0  -0.0694
  C  C370  1  0.206700  0.907690  0.189020  1.0  -0.0641
  C  C371  1  0.214720  0.948610  0.170470  1.0  -0.1354
  C  C372  1  0.464290  0.808040  0.253760  1.0  0.1401
  C  C373  1  0.709690  0.487970  0.143790  1.0  0.0433
  C  C374  1  0.735920  0.613680  0.200720  1.0  -0.119
  C  C375  1  0.719450  0.530930  0.163620  1.0  0.0535
  C  C376  1  0.743500  0.660540  0.219920  1.0  0.6915
  C  C377  1  0.659280  0.436020  0.143750  1.0  -0.0967
  C  C378  1  0.661840  0.551910  0.175600  1.0  -0.1301
  C  C379  1  0.669670  0.593320  0.194210  1.0  -0.0699
  C  C380  1  0.793300  0.592310  0.189020  1.0  -0.0622
  C  C381  1  0.785280  0.551390  0.170470  1.0  -0.1379
  C  C382  1  0.535710  0.691960  0.253760  1.0  0.1431
  C  C383  1  0.209690  0.987970  0.643790  1.0  0.0433
  C  C384  1  0.235920  0.113680  0.700720  1.0  -0.119
  C  C385  1  0.219450  0.030930  0.663620  1.0  0.0535
  C  C386  1  0.243500  0.160540  0.719920  1.0  0.6915
  C  C387  1  0.159280  0.936020  0.643750  1.0  -0.0967
  C  C388  1  0.161840  0.051910  0.675600  1.0  -0.1301
  C  C389  1  0.169670  0.093320  0.694210  1.0  -0.0699
  C  C390  1  0.293300  0.092310  0.689020  1.0  -0.0622
  C  C391  1  0.285280  0.051390  0.670470  1.0  -0.1361
  C  C392  1  0.035710  0.191960  0.753760  1.0  0.1434
  C  C393  1  0.237970  0.459690  0.393790  1.0  0.0433
  C  C394  1  0.363680  0.485920  0.450720  1.0  -0.1221
  C  C395  1  0.280930  0.469450  0.413620  1.0  0.0531
  C  C396  1  0.410540  0.493500  0.469920  1.0  0.6909
  C  C397  1  0.186020  0.409280  0.393750  1.0  -0.0965
  C  C398  1  0.301910  0.411840  0.425600  1.0  -0.1321
  C  C399  1  0.343320  0.419670  0.444210  1.0  -0.0689
  C  C400  1  0.342310  0.543300  0.439020  1.0  -0.0646
  C  C401  1  0.301390  0.535280  0.420470  1.0  -0.1417
  C  C402  1  0.441960  0.285710  0.503760  1.0  0.1424
  C  C403  1  0.737970  0.959690  0.893790  1.0  0.0433
  C  C404  1  0.863680  0.985920  0.950720  1.0  -0.1221
  C  C405  1  0.780930  0.969450  0.913620  1.0  0.0531
  C  C406  1  0.910540  0.993500  0.969920  1.0  0.6909
  C  C407  1  0.686020  0.909280  0.893750  1.0  -0.0965
  C  C408  1  0.801910  0.911840  0.925600  1.0  -0.1321
  C  C409  1  0.843320  0.919670  0.944210  1.0  -0.0689
  C  C410  1  0.842310  0.043300  0.939020  1.0  -0.0646
  C  C411  1  0.801390  0.035280  0.920470  1.0  -0.1417
  C  C412  1  0.941960  0.785710  0.003760  1.0  0.1424
  C  C413  1  0.262030  0.540310  0.893790  1.0  0.0431
  C  C414  1  0.136320  0.514080  0.950720  1.0  -0.1204
  C  C415  1  0.219070  0.530550  0.913620  1.0  0.0532
  C  C416  1  0.089460  0.506500  0.969920  1.0  0.6915
  C  C417  1  0.313980  0.590720  0.893750  1.0  -0.0957
  C  C418  1  0.198090  0.588160  0.925600  1.0  -0.1309
  C  C419  1  0.156680  0.580330  0.944210  1.0  -0.0689
  C  C420  1  0.157690  0.456700  0.939020  1.0  -0.0658
  C  C421  1  0.198610  0.464720  0.920470  1.0  -0.1396
  C  C422  1  0.058040  0.714290  0.003760  1.0  0.1423
  C  C423  1  0.762030  0.040310  0.393790  1.0  0.0431
  C  C424  1  0.636320  0.014080  0.450720  1.0  -0.1204
  C  C425  1  0.719070  0.030550  0.413620  1.0  0.0532
  C  C426  1  0.589460  0.006500  0.469920  1.0  0.6915
  C  C427  1  0.813980  0.090720  0.393750  1.0  -0.0957
  C  C428  1  0.698090  0.088160  0.425600  1.0  -0.1309
  C  C429  1  0.656680  0.080330  0.444210  1.0  -0.0689
  C  C430  1  0.657690  0.956700  0.439020  1.0  -0.0658
  C  C431  1  0.698610  0.964720  0.420470  1.0  -0.1396
  C  C432  1  0.558040  0.214290  0.503760  1.0  0.1432
  C  C433  1  0.290310  0.487970  0.143790  1.0  0.0429
  C  C434  1  0.264080  0.613680  0.200720  1.0  -0.1193
  C  C435  1  0.280550  0.530930  0.163620  1.0  0.053
  C  C436  1  0.256500  0.660540  0.219920  1.0  0.6913
  C  C437  1  0.340720  0.436020  0.143750  1.0  -0.0958
  C  C438  1  0.338160  0.551910  0.175600  1.0  -0.1278
  C  C439  1  0.330330  0.593320  0.194210  1.0  -0.069
  C  C440  1  0.206700  0.592310  0.189020  1.0  -0.0643
  C  C441  1  0.214720  0.551390  0.170470  1.0  -0.1373
  C  C442  1  0.464290  0.691960  0.253760  1.0  0.1415
  C  C443  1  0.790310  0.987970  0.643790  1.0  0.0429
  C  C444  1  0.764080  0.113680  0.700720  1.0  -0.1193
  C  C445  1  0.780550  0.030930  0.663620  1.0  0.053
  C  C446  1  0.756500  0.160540  0.719920  1.0  0.6913
  C  C447  1  0.840720  0.936020  0.643750  1.0  -0.0958
  C  C448  1  0.838160  0.051910  0.675600  1.0  -0.1278
  C  C449  1  0.830330  0.093320  0.694210  1.0  -0.069
  C  C450  1  0.706700  0.092310  0.689020  1.0  -0.0643
  C  C451  1  0.714720  0.051390  0.670470  1.0  -0.136
  C  C452  1  0.964290  0.191960  0.753760  1.0  0.1422
  C  C453  1  0.209690  0.512030  0.643790  1.0  0.0432
  C  C454  1  0.235920  0.386320  0.700720  1.0  -0.1188
  C  C455  1  0.219450  0.469070  0.663620  1.0  0.0534
  C  C456  1  0.243500  0.339460  0.719920  1.0  0.6918
  C  C457  1  0.159280  0.563980  0.643750  1.0  -0.0966
  C  C458  1  0.161840  0.448090  0.675600  1.0  -0.1301
  C  C459  1  0.169670  0.406680  0.694210  1.0  -0.0699
  C  C460  1  0.293300  0.407690  0.689020  1.0  -0.0623
  C  C461  1  0.285280  0.448610  0.670470  1.0  -0.1374
  C  C462  1  0.035710  0.308040  0.753760  1.0  0.1412
  C  C463  1  0.709690  0.012030  0.143790  1.0  0.0432
  C  C464  1  0.735920  0.886320  0.200720  1.0  -0.1188
  C  C465  1  0.719450  0.969070  0.163620  1.0  0.0534
  C  C466  1  0.743500  0.839460  0.219920  1.0  0.6918
  C  C467  1  0.659280  0.063980  0.143750  1.0  -0.0966
  C  C468  1  0.661840  0.948090  0.175600  1.0  -0.1301
  C  C469  1  0.669670  0.906680  0.194210  1.0  -0.0699
  C  C470  1  0.793300  0.907690  0.189020  1.0  -0.0623
  C  C471  1  0.785280  0.948610  0.170470  1.0  -0.1355
  C  C472  1  0.535710  0.808040  0.253760  1.0  0.1416
  C  C473  1  0.262030  0.459690  0.106210  1.0  0.0433
  C  C474  1  0.136320  0.485920  0.049280  1.0  -0.1202
  C  C475  1  0.219070  0.469450  0.086380  1.0  0.0531
  C  C476  1  0.089460  0.493500  0.030080  1.0  0.6916
  C  C477  1  0.313980  0.409280  0.106250  1.0  -0.0971
  C  C478  1  0.198090  0.411840  0.074400  1.0  -0.1313
  C  C479  1  0.156680  0.419670  0.055790  1.0  -0.0694
  C  C480  1  0.157690  0.543300  0.060980  1.0  -0.0663
  C  C481  1  0.198610  0.535280  0.079530  1.0  -0.1411
  C  C482  1  0.058040  0.285710  0.996240  1.0  0.1423
  C  C483  1  0.762030  0.959690  0.606210  1.0  0.0433
  C  C484  1  0.636320  0.985920  0.549280  1.0  -0.1202
  C  C485  1  0.719070  0.969450  0.586380  1.0  0.0531
  C  C486  1  0.589460  0.993500  0.530080  1.0  0.6916
  C  C487  1  0.813980  0.909280  0.606250  1.0  -0.0971
  C  C488  1  0.698090  0.911840  0.574400  1.0  -0.1313
  C  C489  1  0.656680  0.919670  0.555790  1.0  -0.0694
  C  C490  1  0.657690  0.043300  0.560980  1.0  -0.0663
  C  C491  1  0.698610  0.035280  0.579530  1.0  -0.1411
  C  C492  1  0.558040  0.785710  0.496240  1.0  0.1423
  C  C493  1  0.237970  0.540310  0.606210  1.0  0.0432
  C  C494  1  0.363680  0.514080  0.549280  1.0  -0.1218
  C  C495  1  0.280930  0.530550  0.586380  1.0  0.0529
  C  C496  1  0.410540  0.506500  0.530080  1.0  0.6916
  C  C497  1  0.186020  0.590720  0.606250  1.0  -0.0975
  C  C498  1  0.301910  0.588160  0.574400  1.0  -0.1325
  C  C499  1  0.343320  0.580330  0.555790  1.0  -0.0688
  C  C500  1  0.342310  0.456700  0.560980  1.0  -0.0642
  C  C501  1  0.301390  0.464720  0.579530  1.0  -0.1405
  C  C502  1  0.441960  0.714290  0.496240  1.0  0.1435
  C  C503  1  0.737970  0.040310  0.106210  1.0  0.0432
  C  C504  1  0.863680  0.014080  0.049280  1.0  -0.1218
  C  C505  1  0.780930  0.030550  0.086380  1.0  0.0529
  C  C506  1  0.910540  0.006500  0.030080  1.0  0.6916
  C  C507  1  0.686020  0.090720  0.106250  1.0  -0.0975
  C  C508  1  0.801910  0.088160  0.074400  1.0  -0.1325
  C  C509  1  0.843320  0.080330  0.055790  1.0  -0.0688
  C  C510  1  0.842310  0.956700  0.060980  1.0  -0.0642
  C  C511  1  0.801390  0.964720  0.079530  1.0  -0.1405
  C  C512  1  0.941960  0.214290  0.996240  1.0  0.1435
  C  C513  1  0.209690  0.487970  0.356210  1.0  0.0433
  C  C514  1  0.235920  0.613680  0.299280  1.0  -0.1191
  C  C515  1  0.219450  0.530930  0.336380  1.0  0.0533
  C  C516  1  0.243500  0.660540  0.280080  1.0  0.6918
  C  C517  1  0.159280  0.436020  0.356250  1.0  -0.0977
  C  C518  1  0.161840  0.551910  0.324400  1.0  -0.1305
  C  C519  1  0.169670  0.593320  0.305790  1.0  -0.0692
  C  C520  1  0.293300  0.592310  0.310980  1.0  -0.0629
  C  C521  1  0.285280  0.551390  0.329530  1.0  -0.1376
  C  C522  1  0.035710  0.691960  0.246240  1.0  0.1429
  C  C523  1  0.709690  0.987970  0.856210  1.0  0.0433
  C  C524  1  0.735920  0.113680  0.799280  1.0  -0.1191
  C  C525  1  0.719450  0.030930  0.836380  1.0  0.0533
  C  C526  1  0.743500  0.160540  0.780080  1.0  0.6918
  C  C527  1  0.659280  0.936020  0.856250  1.0  -0.0977
  C  C528  1  0.661840  0.051910  0.824400  1.0  -0.1305
  C  C529  1  0.669670  0.093320  0.805790  1.0  -0.0692
  C  C530  1  0.793300  0.092310  0.810980  1.0  -0.0629
  C  C531  1  0.785280  0.051390  0.829530  1.0  -0.1358
  C  C532  1  0.535710  0.191960  0.746240  1.0  0.1432
  C  C533  1  0.290310  0.512030  0.856210  1.0  0.0429
  C  C534  1  0.264080  0.386320  0.799280  1.0  -0.1196
  C  C535  1  0.280550  0.469070  0.836380  1.0  0.0528
  C  C536  1  0.256500  0.339460  0.780080  1.0  0.6919
  C  C537  1  0.340720  0.563980  0.856250  1.0  -0.0976
  C  C538  1  0.338160  0.448090  0.824400  1.0  -0.1274
  C  C539  1  0.330330  0.406680  0.805790  1.0  -0.0697
  C  C540  1  0.206700  0.407690  0.810980  1.0  -0.0637
  C  C541  1  0.214720  0.448610  0.829530  1.0  -0.1376
  C  C542  1  0.464290  0.308040  0.746240  1.0  0.1401
  C  C543  1  0.790310  0.012030  0.356210  1.0  0.0429
  C  C544  1  0.764080  0.886320  0.299280  1.0  -0.1196
  C  C545  1  0.780550  0.969070  0.336380  1.0  0.0528
  C  C546  1  0.756500  0.839460  0.280080  1.0  0.6919
  C  C547  1  0.840720  0.063980  0.356250  1.0  -0.0976
  C  C548  1  0.838160  0.948090  0.324400  1.0  -0.1274
  C  C549  1  0.830330  0.906680  0.305790  1.0  -0.0697
  C  C550  1  0.706700  0.907690  0.310980  1.0  -0.0637
  C  C551  1  0.714720  0.948610  0.329530  1.0  -0.1363
  C  C552  1  0.964290  0.808040  0.246240  1.0  0.1402
  C  C553  1  0.751290  0.501290  0.625000  1.0  -0.1608
  C  C554  1  0.853010  0.603010  0.625000  1.0  -0.1594
  C  C555  1  0.907590  0.657590  0.625000  1.0  0.6852
  C  C556  1  0.251290  0.001290  0.125000  1.0  -0.1608
  C  C557  1  0.353010  0.103010  0.125000  1.0  -0.1594
  C  C558  1  0.407590  0.157590  0.125000  1.0  0.6852
  C  C559  1  0.748710  0.498710  0.125000  1.0  -0.1598
  C  C560  1  0.646990  0.396990  0.125000  1.0  -0.1602
  C  C561  1  0.592410  0.342410  0.125000  1.0  0.6851
  C  C562  1  0.248710  0.998710  0.625000  1.0  -0.1598
  C  C563  1  0.146990  0.896990  0.625000  1.0  -0.1602
  C  C564  1  0.092410  0.842410  0.625000  1.0  0.6851
  C  C565  1  0.748710  0.501290  0.875000  1.0  -0.1594
  C  C566  1  0.646990  0.603010  0.875000  1.0  -0.16
  C  C567  1  0.592410  0.657590  0.875000  1.0  0.6853
  C  C568  1  0.248710  0.001290  0.375000  1.0  -0.1594
  C  C569  1  0.146990  0.103010  0.375000  1.0  -0.16
  C  C570  1  0.092410  0.157590  0.375000  1.0  0.6853
  C  C571  1  0.751290  0.498710  0.375000  1.0  -0.161
  C  C572  1  0.853010  0.396990  0.375000  1.0  -0.1589
  C  C573  1  0.907590  0.342410  0.375000  1.0  0.685
  C  C574  1  0.251290  0.998710  0.875000  1.0  -0.161
  C  C575  1  0.353010  0.896990  0.875000  1.0  -0.1589
  C  C576  1  0.407590  0.842410  0.875000  1.0  0.685
  C  C577  1  0.248710  0.498710  0.375000  1.0  -0.1598
  C  C578  1  0.146990  0.396990  0.375000  1.0  -0.1602
  C  C579  1  0.092410  0.342410  0.375000  1.0  0.6851
  C  C580  1  0.748710  0.998710  0.875000  1.0  -0.1598
  C  C581  1  0.646990  0.896990  0.875000  1.0  -0.1602
  C  C582  1  0.592410  0.842410  0.875000  1.0  0.6851
  C  C583  1  0.251290  0.501290  0.875000  1.0  -0.1608
  C  C584  1  0.353010  0.603010  0.875000  1.0  -0.1594
  C  C585  1  0.407590  0.657590  0.875000  1.0  0.6852
  C  C586  1  0.751290  0.001290  0.375000  1.0  -0.1608
  C  C587  1  0.853010  0.103010  0.375000  1.0  -0.1594
  C  C588  1  0.907590  0.157590  0.375000  1.0  0.6852
  C  C589  1  0.251290  0.498710  0.125000  1.0  -0.161
  C  C590  1  0.353010  0.396990  0.125000  1.0  -0.1589
  C  C591  1  0.407590  0.342410  0.125000  1.0  0.685
  C  C592  1  0.751290  0.998710  0.625000  1.0  -0.161
  C  C593  1  0.853010  0.896990  0.625000  1.0  -0.1589
  C  C594  1  0.907590  0.842410  0.625000  1.0  0.685
  C  C595  1  0.248710  0.501290  0.625000  1.0  -0.1594
  C  C596  1  0.146990  0.603010  0.625000  1.0  -0.16
  C  C597  1  0.092410  0.657590  0.625000  1.0  0.6853
  C  C598  1  0.748710  0.001290  0.125000  1.0  -0.1594
  C  C599  1  0.646990  0.103010  0.125000  1.0  -0.16
  C  C600  1  0.592410  0.157590  0.125000  1.0  0.6853
  N  N601  1  0.500000  0.678430  0.496430  1.0  -0.3121
  N  N602  1  0.000000  0.178430  0.996430  1.0  -0.3121
  N  N603  1  0.000000  0.321570  0.996430  1.0  -0.3114
  N  N604  1  0.500000  0.821570  0.496430  1.0  -0.3114
  N  N605  1  0.571570  0.250000  0.746430  1.0  -0.3019
  N  N606  1  0.928430  0.750000  0.246430  1.0  -0.3048
  N  N607  1  0.000000  0.678430  0.003570  1.0  -0.3123
  N  N608  1  0.500000  0.178430  0.503570  1.0  -0.3123
  N  N609  1  0.500000  0.321570  0.503570  1.0  -0.3117
  N  N610  1  0.000000  0.821570  0.003570  1.0  -0.3117
  N  N611  1  0.928430  0.250000  0.753570  1.0  -0.3038
  N  N612  1  0.571570  0.750000  0.253570  1.0  -0.3039
  N  N613  1  0.428430  0.750000  0.253570  1.0  -0.3038
  N  N614  1  0.071570  0.250000  0.753570  1.0  -0.3039
  N  N615  1  0.071570  0.750000  0.246430  1.0  -0.3019
  N  N616  1  0.428430  0.250000  0.746430  1.0  -0.3048
  O  O617  1  0.570320  0.446540  0.524810  1.0  -0.569
  O  O618  1  0.571100  0.561400  0.520580  1.0  -0.5863
  O  O619  1  0.928800  0.678670  0.606650  1.0  -0.5664
  O  O620  1  0.070320  0.946540  0.024810  1.0  -0.569
  O  O621  1  0.071100  0.061400  0.020580  1.0  -0.5863
  O  O622  1  0.428800  0.178670  0.106650  1.0  -0.5664
  O  O623  1  0.929680  0.553460  0.024810  1.0  -0.5685
  O  O624  1  0.928900  0.438600  0.020580  1.0  -0.5869
  O  O625  1  0.571200  0.321330  0.106650  1.0  -0.567
  O  O626  1  0.429680  0.053460  0.524810  1.0  -0.5685
  O  O627  1  0.428900  0.938600  0.520580  1.0  -0.5869
  O  O628  1  0.071200  0.821330  0.606650  1.0  -0.567
  O  O629  1  0.803460  0.320320  0.774810  1.0  -0.5676
  O  O630  1  0.688600  0.321100  0.770580  1.0  -0.5863
  O  O631  1  0.571330  0.678800  0.856650  1.0  -0.5683
  O  O632  1  0.303460  0.820320  0.274810  1.0  -0.5676
  O  O633  1  0.188600  0.821100  0.270580  1.0  -0.5863
  O  O634  1  0.071330  0.178800  0.356650  1.0  -0.5683
  O  O635  1  0.696540  0.679680  0.274810  1.0  -0.5668
  O  O636  1  0.811400  0.678900  0.270580  1.0  -0.5857
  O  O637  1  0.928670  0.321200  0.356650  1.0  -0.5685
  O  O638  1  0.196540  0.179680  0.774810  1.0  -0.5668
  O  O639  1  0.311400  0.178900  0.770580  1.0  -0.5857
  O  O640  1  0.428670  0.821200  0.856650  1.0  -0.5685
  O  O641  1  0.929680  0.446540  0.975190  1.0  -0.5682
  O  O642  1  0.928900  0.561400  0.979420  1.0  -0.585
  O  O643  1  0.571200  0.678670  0.893350  1.0  -0.5676
  O  O644  1  0.429680  0.946540  0.475190  1.0  -0.5682
  O  O645  1  0.428900  0.061400  0.479420  1.0  -0.585
  O  O646  1  0.071200  0.178670  0.393350  1.0  -0.5676
  O  O647  1  0.570320  0.553460  0.475190  1.0  -0.568
  O  O648  1  0.571100  0.438600  0.479420  1.0  -0.5851
  O  O649  1  0.928800  0.321330  0.393350  1.0  -0.5678
  O  O650  1  0.070320  0.053460  0.975190  1.0  -0.568
  O  O651  1  0.071100  0.938600  0.979420  1.0  -0.5851
  O  O652  1  0.428800  0.821330  0.893350  1.0  -0.5678
  O  O653  1  0.696540  0.320320  0.725190  1.0  -0.5669
  O  O654  1  0.811400  0.321100  0.729420  1.0  -0.5841
  O  O655  1  0.928670  0.678800  0.643350  1.0  -0.5693
  O  O656  1  0.196540  0.820320  0.225190  1.0  -0.5669
  O  O657  1  0.311400  0.821100  0.229420  1.0  -0.5841
  O  O658  1  0.428670  0.178800  0.143350  1.0  -0.5693
  O  O659  1  0.803460  0.679680  0.225190  1.0  -0.5672
  O  O660  1  0.688600  0.678900  0.229420  1.0  -0.5847
  O  O661  1  0.571330  0.321200  0.143350  1.0  -0.5693
  O  O662  1  0.303460  0.179680  0.725190  1.0  -0.5672
  O  O663  1  0.188600  0.178900  0.729420  1.0  -0.5847
  O  O664  1  0.071330  0.821200  0.643350  1.0  -0.5693
  O  O665  1  0.429680  0.553460  0.475190  1.0  -0.5685
  O  O666  1  0.428900  0.438600  0.479420  1.0  -0.5867
  O  O667  1  0.071200  0.321330  0.393350  1.0  -0.5678
  O  O668  1  0.929680  0.053460  0.975190  1.0  -0.5685
  O  O669  1  0.928900  0.938600  0.979420  1.0  -0.5867
  O  O670  1  0.571200  0.821330  0.893350  1.0  -0.5678
  O  O671  1  0.070320  0.446540  0.975190  1.0  -0.5686
  O  O672  1  0.071100  0.561400  0.979420  1.0  -0.5864
  O  O673  1  0.428800  0.678670  0.893350  1.0  -0.5673
  O  O674  1  0.570320  0.946540  0.475190  1.0  -0.5686
  O  O675  1  0.571100  0.061400  0.479420  1.0  -0.5864
  O  O676  1  0.928800  0.178670  0.393350  1.0  -0.5673
  O  O677  1  0.196540  0.679680  0.225190  1.0  -0.5674
  O  O678  1  0.311400  0.678900  0.229420  1.0  -0.5857
  O  O679  1  0.428670  0.321200  0.143350  1.0  -0.5692
  O  O680  1  0.696540  0.179680  0.725190  1.0  -0.5674
  O  O681  1  0.811400  0.178900  0.729420  1.0  -0.5857
  O  O682  1  0.928670  0.821200  0.643350  1.0  -0.5693
  O  O683  1  0.303460  0.320320  0.725190  1.0  -0.5673
  O  O684  1  0.188600  0.321100  0.729420  1.0  -0.5861
  O  O685  1  0.071330  0.678800  0.643350  1.0  -0.5692
  O  O686  1  0.803460  0.820320  0.225190  1.0  -0.5673
  O  O687  1  0.688600  0.821100  0.229420  1.0  -0.5861
  O  O688  1  0.571330  0.178800  0.143350  1.0  -0.5692
  O  O689  1  0.070320  0.553460  0.024810  1.0  -0.568
  O  O690  1  0.071100  0.438600  0.020580  1.0  -0.585
  O  O691  1  0.428800  0.321330  0.106650  1.0  -0.567
  O  O692  1  0.570320  0.053460  0.524810  1.0  -0.568
  O  O693  1  0.571100  0.938600  0.520580  1.0  -0.585
  O  O694  1  0.928800  0.821330  0.606650  1.0  -0.567
  O  O695  1  0.429680  0.446540  0.524810  1.0  -0.5686
  O  O696  1  0.428900  0.561400  0.520580  1.0  -0.5851
  O  O697  1  0.071200  0.678670  0.606650  1.0  -0.5665
  O  O698  1  0.929680  0.946540  0.024810  1.0  -0.5686
  O  O699  1  0.928900  0.061400  0.020580  1.0  -0.5851
  O  O700  1  0.571200  0.178670  0.106650  1.0  -0.5665
  O  O701  1  0.303460  0.679680  0.274810  1.0  -0.5672
  O  O702  1  0.188600  0.678900  0.270580  1.0  -0.5847
  O  O703  1  0.071330  0.321200  0.356650  1.0  -0.5686
  O  O704  1  0.803460  0.179680  0.774810  1.0  -0.5672
  O  O705  1  0.688600  0.178900  0.770580  1.0  -0.5847
  O  O706  1  0.571330  0.821200  0.856650  1.0  -0.5686
  O  O707  1  0.196540  0.320320  0.774810  1.0  -0.5667
  O  O708  1  0.311400  0.321100  0.770580  1.0  -0.5841
  O  O709  1  0.428670  0.678800  0.856650  1.0  -0.5681
  O  O710  1  0.696540  0.820320  0.274810  1.0  -0.5667
  O  O711  1  0.811400  0.821100  0.270580  1.0  -0.5841
  O  O712  1  0.928670  0.178800  0.356650  1.0  -0.5681
