# generated using pymatgen
data_MnH8(C9O2)2
_symmetry_space_group_name_H-M   'P 1'
_cell_length_a   26.07590000
_cell_length_b   26.07590000
_cell_length_c   26.07590000
_cell_angle_alpha   90.00000000
_cell_angle_beta   90.00000000
_cell_angle_gamma   90.00000000
_symmetry_Int_Tables_number   1
_chemical_formula_structural   MnH8(C9O2)2
_chemical_formula_sum   'Mn24 H192 C432 O96'
_cell_volume   17730.37498043
_cell_formula_units_Z   24
loop_
 _symmetry_equiv_pos_site_id
 _symmetry_equiv_pos_as_xyz
  1  'x, y, z'
loop_
 _atom_site_type_symbol
 _atom_site_label
 _atom_site_symmetry_multiplicity
 _atom_site_fract_x
 _atom_site_fract_y
 _atom_site_fract_z
 _atom_site_occupancy
 _atom_site_charge
  Mn  Mn1  1  0.606440  0.000000  0.500000  1.0  1.1662
  Mn  Mn2  1  0.393560  0.000000  0.500000  1.0  1.1662
  Mn  Mn3  1  0.500000  0.606440  0.000000  1.0  1.1652
  Mn  Mn4  1  0.500000  0.393560  0.000000  1.0  1.1668
  Mn  Mn5  1  0.000000  0.500000  0.606440  1.0  1.1664
  Mn  Mn6  1  0.000000  0.500000  0.393560  1.0  1.1664
  Mn  Mn7  1  0.000000  0.606440  0.500000  1.0  1.1652
  Mn  Mn8  1  0.000000  0.393560  0.500000  1.0  1.1668
  Mn  Mn9  1  0.606440  0.500000  0.000000  1.0  1.1662
  Mn  Mn10  1  0.393560  0.500000  0.000000  1.0  1.1662
  Mn  Mn11  1  0.500000  0.000000  0.393560  1.0  1.1664
  Mn  Mn12  1  0.500000  0.000000  0.606440  1.0  1.1664
  Mn  Mn13  1  0.106440  0.500000  0.000000  1.0  1.1662
  Mn  Mn14  1  0.893560  0.500000  0.000000  1.0  1.1662
  Mn  Mn15  1  0.000000  0.106440  0.500000  1.0  1.1652
  Mn  Mn16  1  0.000000  0.893560  0.500000  1.0  1.1668
  Mn  Mn17  1  0.500000  0.000000  0.106440  1.0  1.1664
  Mn  Mn18  1  0.500000  0.000000  0.893560  1.0  1.1664
  Mn  Mn19  1  0.500000  0.106440  0.000000  1.0  1.1652
  Mn  Mn20  1  0.500000  0.893560  0.000000  1.0  1.1668
  Mn  Mn21  1  0.106440  0.000000  0.500000  1.0  1.1662
  Mn  Mn22  1  0.893560  0.000000  0.500000  1.0  1.1662
  Mn  Mn23  1  0.000000  0.500000  0.893560  1.0  1.1664
  Mn  Mn24  1  0.000000  0.500000  0.106440  1.0  1.1664
  H  H25  1  0.572370  0.125130  0.680040  1.0  0.0853
  H  H26  1  0.611240  0.192560  0.718950  1.0  0.0974
  H  H27  1  0.427630  0.874870  0.680040  1.0  0.0849
  H  H28  1  0.388760  0.807440  0.718950  1.0  0.0973
  H  H29  1  0.427630  0.125130  0.319960  1.0  0.0849
  H  H30  1  0.388760  0.192560  0.281050  1.0  0.0976
  H  H31  1  0.572370  0.874870  0.319960  1.0  0.0849
  H  H32  1  0.611240  0.807440  0.281050  1.0  0.0971
  H  H33  1  0.680040  0.572370  0.125130  1.0  0.0844
  H  H34  1  0.718950  0.611240  0.192560  1.0  0.0975
  H  H35  1  0.680040  0.427630  0.874870  1.0  0.0848
  H  H36  1  0.718950  0.388760  0.807440  1.0  0.0976
  H  H37  1  0.319960  0.427630  0.125130  1.0  0.0847
  H  H38  1  0.281050  0.388760  0.192560  1.0  0.0971
  H  H39  1  0.319960  0.572370  0.874870  1.0  0.0844
  H  H40  1  0.281050  0.611240  0.807440  1.0  0.0973
  H  H41  1  0.125130  0.680040  0.572370  1.0  0.0844
  H  H42  1  0.192560  0.718950  0.611240  1.0  0.0973
  H  H43  1  0.874870  0.680040  0.427630  1.0  0.0848
  H  H44  1  0.807440  0.718950  0.388760  1.0  0.0976
  H  H45  1  0.125130  0.319960  0.427630  1.0  0.085
  H  H46  1  0.192560  0.281050  0.388760  1.0  0.0979
  H  H47  1  0.874870  0.319960  0.572370  1.0  0.0847
  H  H48  1  0.807440  0.281050  0.611240  1.0  0.0974
  H  H49  1  0.125130  0.572370  0.319960  1.0  0.0843
  H  H50  1  0.192560  0.611240  0.281050  1.0  0.097
  H  H51  1  0.874870  0.427630  0.319960  1.0  0.0847
  H  H52  1  0.807440  0.388760  0.281050  1.0  0.0975
  H  H53  1  0.125130  0.427630  0.680040  1.0  0.0848
  H  H54  1  0.192560  0.388760  0.718950  1.0  0.0972
  H  H55  1  0.874870  0.572370  0.680040  1.0  0.0846
  H  H56  1  0.807440  0.611240  0.718950  1.0  0.0975
  H  H57  1  0.572370  0.680040  0.874870  1.0  0.0843
  H  H58  1  0.611240  0.718950  0.807440  1.0  0.0967
  H  H59  1  0.427630  0.680040  0.125130  1.0  0.0848
  H  H60  1  0.388760  0.718950  0.192560  1.0  0.0964
  H  H61  1  0.427630  0.319960  0.874870  1.0  0.0848
  H  H62  1  0.388760  0.281050  0.807440  1.0  0.0972
  H  H63  1  0.572370  0.319960  0.125130  1.0  0.0849
  H  H64  1  0.611240  0.281050  0.192560  1.0  0.0965
  H  H65  1  0.680040  0.125130  0.427630  1.0  0.0851
  H  H66  1  0.718950  0.192560  0.388760  1.0  0.0985
  H  H67  1  0.680040  0.874870  0.572370  1.0  0.0848
  H  H68  1  0.718950  0.807440  0.611240  1.0  0.0982
  H  H69  1  0.319960  0.125130  0.572370  1.0  0.0846
  H  H70  1  0.281050  0.192560  0.611240  1.0  0.0981
  H  H71  1  0.319960  0.874870  0.427630  1.0  0.0845
  H  H72  1  0.281050  0.807440  0.388760  1.0  0.0986
  H  H73  1  0.427630  0.874870  0.319960  1.0  0.0849
  H  H74  1  0.388760  0.807440  0.281050  1.0  0.0977
  H  H75  1  0.572370  0.125130  0.319960  1.0  0.085
  H  H76  1  0.611240  0.192560  0.281050  1.0  0.0972
  H  H77  1  0.572370  0.874870  0.680040  1.0  0.0848
  H  H78  1  0.611240  0.807440  0.718950  1.0  0.0977
  H  H79  1  0.427630  0.125130  0.680040  1.0  0.0852
  H  H80  1  0.388760  0.192560  0.718950  1.0  0.0972
  H  H81  1  0.319960  0.427630  0.874870  1.0  0.0846
  H  H82  1  0.281050  0.388760  0.807440  1.0  0.0978
  H  H83  1  0.319960  0.572370  0.125130  1.0  0.0843
  H  H84  1  0.281050  0.611240  0.192560  1.0  0.0973
  H  H85  1  0.680040  0.572370  0.874870  1.0  0.0844
  H  H86  1  0.718950  0.611240  0.807440  1.0  0.0975
  H  H87  1  0.680040  0.427630  0.125130  1.0  0.0848
  H  H88  1  0.718950  0.388760  0.192560  1.0  0.0971
  H  H89  1  0.874870  0.319960  0.427630  1.0  0.0849
  H  H90  1  0.807440  0.281050  0.388760  1.0  0.0982
  H  H91  1  0.125130  0.319960  0.572370  1.0  0.0847
  H  H92  1  0.192560  0.281050  0.611240  1.0  0.0975
  H  H93  1  0.874870  0.680040  0.572370  1.0  0.0844
  H  H94  1  0.807440  0.718950  0.611240  1.0  0.0973
  H  H95  1  0.125130  0.680040  0.427630  1.0  0.0848
  H  H96  1  0.192560  0.718950  0.388760  1.0  0.0976
  H  H97  1  0.874870  0.427630  0.680040  1.0  0.0848
  H  H98  1  0.807440  0.388760  0.718950  1.0  0.0973
  H  H99  1  0.125130  0.572370  0.680040  1.0  0.0846
  H  H100  1  0.192560  0.611240  0.718950  1.0  0.0972
  H  H101  1  0.874870  0.572370  0.319960  1.0  0.0844
  H  H102  1  0.807440  0.611240  0.281050  1.0  0.097
  H  H103  1  0.125130  0.427630  0.319960  1.0  0.0848
  H  H104  1  0.192560  0.388760  0.281050  1.0  0.0975
  H  H105  1  0.427630  0.319960  0.125130  1.0  0.0847
  H  H106  1  0.388760  0.281050  0.192560  1.0  0.0967
  H  H107  1  0.572370  0.319960  0.874870  1.0  0.085
  H  H108  1  0.611240  0.281050  0.807440  1.0  0.0964
  H  H109  1  0.572370  0.680040  0.125130  1.0  0.0846
  H  H110  1  0.611240  0.718950  0.192560  1.0  0.0966
  H  H111  1  0.427630  0.680040  0.874870  1.0  0.0845
  H  H112  1  0.388760  0.718950  0.807440  1.0  0.0969
  H  H113  1  0.319960  0.874870  0.572370  1.0  0.0844
  H  H114  1  0.281050  0.807440  0.611240  1.0  0.098
  H  H115  1  0.319960  0.125130  0.427630  1.0  0.0849
  H  H116  1  0.281050  0.192560  0.388760  1.0  0.0986
  H  H117  1  0.680040  0.874870  0.427630  1.0  0.0849
  H  H118  1  0.718950  0.807440  0.388760  1.0  0.099
  H  H119  1  0.680040  0.125130  0.572370  1.0  0.0849
  H  H120  1  0.718950  0.192560  0.611240  1.0  0.098
  H  H121  1  0.072370  0.625130  0.180040  1.0  0.0853
  H  H122  1  0.111240  0.692560  0.218950  1.0  0.0974
  H  H123  1  0.927630  0.374870  0.180040  1.0  0.0849
  H  H124  1  0.888760  0.307440  0.218950  1.0  0.0973
  H  H125  1  0.927630  0.625130  0.819960  1.0  0.0849
  H  H126  1  0.888760  0.692560  0.781050  1.0  0.0976
  H  H127  1  0.072370  0.374870  0.819960  1.0  0.0849
  H  H128  1  0.111240  0.307440  0.781050  1.0  0.0971
  H  H129  1  0.180040  0.072370  0.625130  1.0  0.0844
  H  H130  1  0.218950  0.111240  0.692560  1.0  0.0975
  H  H131  1  0.180040  0.927630  0.374870  1.0  0.0848
  H  H132  1  0.218950  0.888760  0.307440  1.0  0.0976
  H  H133  1  0.819960  0.927630  0.625130  1.0  0.0847
  H  H134  1  0.781050  0.888760  0.692560  1.0  0.0971
  H  H135  1  0.819960  0.072370  0.374870  1.0  0.0844
  H  H136  1  0.781050  0.111240  0.307440  1.0  0.0973
  H  H137  1  0.625130  0.180040  0.072370  1.0  0.0844
  H  H138  1  0.692560  0.218950  0.111240  1.0  0.0973
  H  H139  1  0.374870  0.180040  0.927630  1.0  0.0848
  H  H140  1  0.307440  0.218950  0.888760  1.0  0.0976
  H  H141  1  0.625130  0.819960  0.927630  1.0  0.085
  H  H142  1  0.692560  0.781050  0.888760  1.0  0.0979
  H  H143  1  0.374870  0.819960  0.072370  1.0  0.0847
  H  H144  1  0.307440  0.781050  0.111240  1.0  0.0974
  H  H145  1  0.625130  0.072370  0.819960  1.0  0.0843
  H  H146  1  0.692560  0.111240  0.781050  1.0  0.097
  H  H147  1  0.374870  0.927630  0.819960  1.0  0.0847
  H  H148  1  0.307440  0.888760  0.781050  1.0  0.0975
  H  H149  1  0.625130  0.927630  0.180040  1.0  0.0848
  H  H150  1  0.692560  0.888760  0.218950  1.0  0.0972
  H  H151  1  0.374870  0.072370  0.180040  1.0  0.0846
  H  H152  1  0.307440  0.111240  0.218950  1.0  0.0975
  H  H153  1  0.072370  0.180040  0.374870  1.0  0.0843
  H  H154  1  0.111240  0.218950  0.307440  1.0  0.0967
  H  H155  1  0.927630  0.180040  0.625130  1.0  0.0848
  H  H156  1  0.888760  0.218950  0.692560  1.0  0.0964
  H  H157  1  0.927630  0.819960  0.374870  1.0  0.0848
  H  H158  1  0.888760  0.781050  0.307440  1.0  0.0972
  H  H159  1  0.072370  0.819960  0.625130  1.0  0.0849
  H  H160  1  0.111240  0.781050  0.692560  1.0  0.0965
  H  H161  1  0.180040  0.625130  0.927630  1.0  0.0851
  H  H162  1  0.218950  0.692560  0.888760  1.0  0.0985
  H  H163  1  0.180040  0.374870  0.072370  1.0  0.0848
  H  H164  1  0.218950  0.307440  0.111240  1.0  0.0982
  H  H165  1  0.819960  0.625130  0.072370  1.0  0.0846
  H  H166  1  0.781050  0.692560  0.111240  1.0  0.0981
  H  H167  1  0.819960  0.374870  0.927630  1.0  0.0845
  H  H168  1  0.781050  0.307440  0.888760  1.0  0.0986
  H  H169  1  0.927630  0.374870  0.819960  1.0  0.0849
  H  H170  1  0.888760  0.307440  0.781050  1.0  0.0977
  H  H171  1  0.072370  0.625130  0.819960  1.0  0.085
  H  H172  1  0.111240  0.692560  0.781050  1.0  0.0972
  H  H173  1  0.072370  0.374870  0.180040  1.0  0.0848
  H  H174  1  0.111240  0.307440  0.218950  1.0  0.0977
  H  H175  1  0.927630  0.625130  0.180040  1.0  0.0852
  H  H176  1  0.888760  0.692560  0.218950  1.0  0.0972
  H  H177  1  0.819960  0.927630  0.374870  1.0  0.0846
  H  H178  1  0.781050  0.888760  0.307440  1.0  0.0978
  H  H179  1  0.819960  0.072370  0.625130  1.0  0.0843
  H  H180  1  0.781050  0.111240  0.692560  1.0  0.0973
  H  H181  1  0.180040  0.072370  0.374870  1.0  0.0844
  H  H182  1  0.218950  0.111240  0.307440  1.0  0.0975
  H  H183  1  0.180040  0.927630  0.625130  1.0  0.0848
  H  H184  1  0.218950  0.888760  0.692560  1.0  0.0971
  H  H185  1  0.374870  0.819960  0.927630  1.0  0.0849
  H  H186  1  0.307440  0.781050  0.888760  1.0  0.0982
  H  H187  1  0.625130  0.819960  0.072370  1.0  0.0847
  H  H188  1  0.692560  0.781050  0.111240  1.0  0.0975
  H  H189  1  0.374870  0.180040  0.072370  1.0  0.0844
  H  H190  1  0.307440  0.218950  0.111240  1.0  0.0973
  H  H191  1  0.625130  0.180040  0.927630  1.0  0.0848
  H  H192  1  0.692560  0.218950  0.888760  1.0  0.0976
  H  H193  1  0.374870  0.927630  0.180040  1.0  0.0848
  H  H194  1  0.307440  0.888760  0.218950  1.0  0.0973
  H  H195  1  0.625130  0.072370  0.180040  1.0  0.0846
  H  H196  1  0.692560  0.111240  0.218950  1.0  0.0972
  H  H197  1  0.374870  0.072370  0.819960  1.0  0.0844
  H  H198  1  0.307440  0.111240  0.781050  1.0  0.097
  H  H199  1  0.625130  0.927630  0.819960  1.0  0.0848
  H  H200  1  0.692560  0.888760  0.781050  1.0  0.0975
  H  H201  1  0.927630  0.819960  0.625130  1.0  0.0847
  H  H202  1  0.888760  0.781050  0.692560  1.0  0.0967
  H  H203  1  0.072370  0.819960  0.374870  1.0  0.085
  H  H204  1  0.111240  0.781050  0.307440  1.0  0.0964
  H  H205  1  0.072370  0.180040  0.625130  1.0  0.0846
  H  H206  1  0.111240  0.218950  0.692560  1.0  0.0966
  H  H207  1  0.927630  0.180040  0.374870  1.0  0.0845
  H  H208  1  0.888760  0.218950  0.307440  1.0  0.0969
  H  H209  1  0.819960  0.374870  0.072370  1.0  0.0844
  H  H210  1  0.781050  0.307440  0.111240  1.0  0.098
  H  H211  1  0.819960  0.625130  0.927630  1.0  0.0849
  H  H212  1  0.781050  0.692560  0.888760  1.0  0.0986
  H  H213  1  0.180040  0.374870  0.927630  1.0  0.0849
  H  H214  1  0.218950  0.307440  0.888760  1.0  0.099
  H  H215  1  0.180040  0.625130  0.072370  1.0  0.0849
  H  H216  1  0.218950  0.692560  0.111240  1.0  0.098
  C  C217  1  0.602000  0.138900  0.665600  1.0  -0.0734
  C  C218  1  0.625200  0.179300  0.688900  1.0  -0.076
  C  C219  1  0.398000  0.861100  0.665600  1.0  -0.0723
  C  C220  1  0.374800  0.820700  0.688900  1.0  -0.075
  C  C221  1  0.398000  0.138900  0.334400  1.0  -0.0733
  C  C222  1  0.374800  0.179300  0.311100  1.0  -0.0759
  C  C223  1  0.602000  0.861100  0.334400  1.0  -0.0726
  C  C224  1  0.625200  0.820700  0.311100  1.0  -0.0763
  C  C225  1  0.665600  0.602000  0.138900  1.0  -0.0708
  C  C226  1  0.688900  0.625200  0.179300  1.0  -0.0807
  C  C227  1  0.665600  0.398000  0.861100  1.0  -0.071
  C  C228  1  0.688900  0.374800  0.820700  1.0  -0.079
  C  C229  1  0.334400  0.398000  0.138900  1.0  -0.071
  C  C230  1  0.311100  0.374800  0.179300  1.0  -0.0775
  C  C231  1  0.334400  0.602000  0.861100  1.0  -0.0703
  C  C232  1  0.311100  0.625200  0.820700  1.0  -0.078
  C  C233  1  0.138900  0.665600  0.602000  1.0  -0.0744
  C  C234  1  0.179300  0.688900  0.625200  1.0  -0.0755
  C  C235  1  0.861100  0.665600  0.398000  1.0  -0.0748
  C  C236  1  0.820700  0.688900  0.374800  1.0  -0.0765
  C  C237  1  0.138900  0.334400  0.398000  1.0  -0.0744
  C  C238  1  0.179300  0.311100  0.374800  1.0  -0.0744
  C  C239  1  0.861100  0.334400  0.602000  1.0  -0.0749
  C  C240  1  0.820700  0.311100  0.625200  1.0  -0.0742
  C  C241  1  0.138900  0.602000  0.334400  1.0  -0.0718
  C  C242  1  0.179300  0.625200  0.311100  1.0  -0.0782
  C  C243  1  0.861100  0.398000  0.334400  1.0  -0.0718
  C  C244  1  0.820700  0.374800  0.311100  1.0  -0.0771
  C  C245  1  0.138900  0.398000  0.665600  1.0  -0.0723
  C  C246  1  0.179300  0.374800  0.688900  1.0  -0.077
  C  C247  1  0.861100  0.602000  0.665600  1.0  -0.0731
  C  C248  1  0.820700  0.625200  0.688900  1.0  -0.0772
  C  C249  1  0.602000  0.665600  0.861100  1.0  -0.0725
  C  C250  1  0.625200  0.688900  0.820700  1.0  -0.0769
  C  C251  1  0.398000  0.665600  0.138900  1.0  -0.0725
  C  C252  1  0.374800  0.688900  0.179300  1.0  -0.0754
  C  C253  1  0.398000  0.334400  0.861100  1.0  -0.0727
  C  C254  1  0.374800  0.311100  0.820700  1.0  -0.0748
  C  C255  1  0.602000  0.334400  0.138900  1.0  -0.0727
  C  C256  1  0.625200  0.311100  0.179300  1.0  -0.075
  C  C257  1  0.665600  0.138900  0.398000  1.0  -0.0737
  C  C258  1  0.688900  0.179300  0.374800  1.0  -0.0784
  C  C259  1  0.665600  0.861100  0.602000  1.0  -0.0744
  C  C260  1  0.688900  0.820700  0.625200  1.0  -0.078
  C  C261  1  0.334400  0.138900  0.602000  1.0  -0.0741
  C  C262  1  0.311100  0.179300  0.625200  1.0  -0.0753
  C  C263  1  0.334400  0.861100  0.398000  1.0  -0.0734
  C  C264  1  0.311100  0.820700  0.374800  1.0  -0.0758
  C  C265  1  0.398000  0.861100  0.334400  1.0  -0.0731
  C  C266  1  0.374800  0.820700  0.311100  1.0  -0.0727
  C  C267  1  0.602000  0.138900  0.334400  1.0  -0.0734
  C  C268  1  0.625200  0.179300  0.311100  1.0  -0.0728
  C  C269  1  0.602000  0.861100  0.665600  1.0  -0.0733
  C  C270  1  0.625200  0.820700  0.688900  1.0  -0.0717
  C  C271  1  0.398000  0.138900  0.665600  1.0  -0.0729
  C  C272  1  0.374800  0.179300  0.688900  1.0  -0.0721
  C  C273  1  0.334400  0.398000  0.861100  1.0  -0.0711
  C  C274  1  0.311100  0.374800  0.820700  1.0  -0.0744
  C  C275  1  0.334400  0.602000  0.138900  1.0  -0.0705
  C  C276  1  0.311100  0.625200  0.179300  1.0  -0.0745
  C  C277  1  0.665600  0.602000  0.861100  1.0  -0.0712
  C  C278  1  0.688900  0.625200  0.820700  1.0  -0.0773
  C  C279  1  0.665600  0.398000  0.138900  1.0  -0.0708
  C  C280  1  0.688900  0.374800  0.179300  1.0  -0.0755
  C  C281  1  0.861100  0.334400  0.398000  1.0  -0.0747
  C  C282  1  0.820700  0.311100  0.374800  1.0  -0.0712
  C  C283  1  0.138900  0.334400  0.602000  1.0  -0.0749
  C  C284  1  0.179300  0.311100  0.625200  1.0  -0.0713
  C  C285  1  0.861100  0.665600  0.602000  1.0  -0.075
  C  C286  1  0.820700  0.688900  0.625200  1.0  -0.0712
  C  C287  1  0.138900  0.665600  0.398000  1.0  -0.0747
  C  C288  1  0.179300  0.688900  0.374800  1.0  -0.0728
  C  C289  1  0.861100  0.398000  0.665600  1.0  -0.0726
  C  C290  1  0.820700  0.374800  0.688900  1.0  -0.0735
  C  C291  1  0.138900  0.602000  0.665600  1.0  -0.0723
  C  C292  1  0.179300  0.625200  0.688900  1.0  -0.0745
  C  C293  1  0.861100  0.602000  0.334400  1.0  -0.0726
  C  C294  1  0.820700  0.625200  0.311100  1.0  -0.074
  C  C295  1  0.138900  0.398000  0.334400  1.0  -0.0722
  C  C296  1  0.179300  0.374800  0.311100  1.0  -0.0737
  C  C297  1  0.398000  0.334400  0.138900  1.0  -0.0733
  C  C298  1  0.374800  0.311100  0.179300  1.0  -0.0714
  C  C299  1  0.602000  0.334400  0.861100  1.0  -0.0731
  C  C300  1  0.625200  0.311100  0.820700  1.0  -0.0713
  C  C301  1  0.602000  0.665600  0.138900  1.0  -0.0725
  C  C302  1  0.625200  0.688900  0.179300  1.0  -0.0735
  C  C303  1  0.398000  0.665600  0.861100  1.0  -0.0727
  C  C304  1  0.374800  0.688900  0.820700  1.0  -0.0716
  C  C305  1  0.334400  0.861100  0.602000  1.0  -0.0738
  C  C306  1  0.311100  0.820700  0.625200  1.0  -0.0719
  C  C307  1  0.334400  0.138900  0.398000  1.0  -0.0731
  C  C308  1  0.311100  0.179300  0.374800  1.0  -0.0735
  C  C309  1  0.665600  0.861100  0.398000  1.0  -0.074
  C  C310  1  0.688900  0.820700  0.374800  1.0  -0.0749
  C  C311  1  0.665600  0.138900  0.602000  1.0  -0.0748
  C  C312  1  0.688900  0.179300  0.625200  1.0  -0.0743
  C  C313  1  0.621150  0.117700  0.621150  1.0  -0.1447
  C  C314  1  0.595140  0.074040  0.595140  1.0  0.7362
  C  C315  1  0.668800  0.200800  0.668800  1.0  -0.0972
  C  C316  1  0.692900  0.245700  0.692900  1.0  0.0994
  C  C317  1  0.378850  0.882300  0.621150  1.0  -0.1439
  C  C318  1  0.404860  0.925960  0.595140  1.0  0.7359
  C  C319  1  0.331200  0.799200  0.668800  1.0  -0.1005
  C  C320  1  0.307100  0.754300  0.692900  1.0  0.0981
  C  C321  1  0.378850  0.117700  0.378850  1.0  -0.144
  C  C322  1  0.404860  0.074040  0.404860  1.0  0.7373
  C  C323  1  0.331200  0.200800  0.331200  1.0  -0.0985
  C  C324  1  0.307100  0.245700  0.307100  1.0  0.0988
  C  C325  1  0.621150  0.882300  0.378850  1.0  -0.1437
  C  C326  1  0.595140  0.925960  0.404860  1.0  0.7361
  C  C327  1  0.668800  0.799200  0.331200  1.0  -0.0994
  C  C328  1  0.692900  0.754300  0.307100  1.0  0.0999
  C  C329  1  0.621150  0.621150  0.117700  1.0  -0.1475
  C  C330  1  0.595140  0.595140  0.074040  1.0  0.7371
  C  C331  1  0.668800  0.668800  0.200800  1.0  -0.1013
  C  C332  1  0.692900  0.692900  0.245700  1.0  0.0993
  C  C333  1  0.621150  0.378850  0.882300  1.0  -0.1464
  C  C334  1  0.595140  0.404860  0.925960  1.0  0.7378
  C  C335  1  0.668800  0.331200  0.799200  1.0  -0.0992
  C  C336  1  0.692900  0.307100  0.754300  1.0  0.1007
  C  C337  1  0.378850  0.378850  0.117700  1.0  -0.1459
  C  C338  1  0.404860  0.404860  0.074040  1.0  0.737
  C  C339  1  0.331200  0.331200  0.200800  1.0  -0.1029
  C  C340  1  0.307100  0.307100  0.245700  1.0  0.0991
  C  C341  1  0.378850  0.621150  0.882300  1.0  -0.1483
  C  C342  1  0.404860  0.595140  0.925960  1.0  0.7387
  C  C343  1  0.331200  0.668800  0.799200  1.0  -0.0996
  C  C344  1  0.307100  0.692900  0.754300  1.0  0.0987
  C  C345  1  0.117700  0.621150  0.621150  1.0  -0.1441
  C  C346  1  0.074040  0.595140  0.595140  1.0  0.7368
  C  C347  1  0.200800  0.668800  0.668800  1.0  -0.0998
  C  C348  1  0.245700  0.692900  0.692900  1.0  0.0964
  C  C349  1  0.882300  0.621150  0.378850  1.0  -0.1452
  C  C350  1  0.925960  0.595140  0.404860  1.0  0.7372
  C  C351  1  0.799200  0.668800  0.331200  1.0  -0.0989
  C  C352  1  0.754300  0.692900  0.307100  1.0  0.0972
  C  C353  1  0.117700  0.378850  0.378850  1.0  -0.1433
  C  C354  1  0.074040  0.404860  0.404860  1.0  0.7371
  C  C355  1  0.200800  0.331200  0.331200  1.0  -0.1002
  C  C356  1  0.245700  0.307100  0.307100  1.0  0.0983
  C  C357  1  0.882300  0.378850  0.621150  1.0  -0.1439
  C  C358  1  0.925960  0.404860  0.595140  1.0  0.7367
  C  C359  1  0.799200  0.331200  0.668800  1.0  -0.0991
  C  C360  1  0.754300  0.307100  0.692900  1.0  0.0982
  C  C361  1  0.117700  0.621150  0.378850  1.0  -0.1445
  C  C362  1  0.074040  0.595140  0.404860  1.0  0.7373
  C  C363  1  0.200800  0.668800  0.331200  1.0  -0.1001
  C  C364  1  0.245700  0.692900  0.307100  1.0  0.0987
  C  C365  1  0.882300  0.378850  0.378850  1.0  -0.1442
  C  C366  1  0.925960  0.404860  0.404860  1.0  0.737
  C  C367  1  0.799200  0.331200  0.331200  1.0  -0.0981
  C  C368  1  0.754300  0.307100  0.307100  1.0  0.0966
  C  C369  1  0.117700  0.378850  0.621150  1.0  -0.1426
  C  C370  1  0.074040  0.404860  0.595140  1.0  0.7372
  C  C371  1  0.200800  0.331200  0.668800  1.0  -0.1004
  C  C372  1  0.245700  0.307100  0.692900  1.0  0.0978
  C  C373  1  0.882300  0.621150  0.621150  1.0  -0.1448
  C  C374  1  0.925960  0.595140  0.595140  1.0  0.7364
  C  C375  1  0.799200  0.668800  0.668800  1.0  -0.0992
  C  C376  1  0.754300  0.692900  0.692900  1.0  0.0965
  C  C377  1  0.621150  0.621150  0.882300  1.0  -0.148
  C  C378  1  0.595140  0.595140  0.925960  1.0  0.738
  C  C379  1  0.668800  0.668800  0.799200  1.0  -0.0983
  C  C380  1  0.692900  0.692900  0.754300  1.0  0.0999
  C  C381  1  0.378850  0.621150  0.117700  1.0  -0.1469
  C  C382  1  0.404860  0.595140  0.074040  1.0  0.737
  C  C383  1  0.331200  0.668800  0.200800  1.0  -0.1028
  C  C384  1  0.307100  0.692900  0.245700  1.0  0.0987
  C  C385  1  0.378850  0.378850  0.882300  1.0  -0.1473
  C  C386  1  0.404860  0.404860  0.925960  1.0  0.7385
  C  C387  1  0.331200  0.331200  0.799200  1.0  -0.1004
  C  C388  1  0.307100  0.307100  0.754300  1.0  0.0997
  C  C389  1  0.621150  0.378850  0.117700  1.0  -0.1459
  C  C390  1  0.595140  0.404860  0.074040  1.0  0.7373
  C  C391  1  0.668800  0.331200  0.200800  1.0  -0.1014
  C  C392  1  0.692900  0.307100  0.245700  1.0  0.0999
  C  C393  1  0.621150  0.117700  0.378850  1.0  -0.1443
  C  C394  1  0.595140  0.074040  0.404860  1.0  0.7367
  C  C395  1  0.668800  0.200800  0.331200  1.0  -0.0975
  C  C396  1  0.692900  0.245700  0.307100  1.0  0.0995
  C  C397  1  0.621150  0.882300  0.621150  1.0  -0.1439
  C  C398  1  0.595140  0.925960  0.595140  1.0  0.7361
  C  C399  1  0.668800  0.799200  0.668800  1.0  -0.0997
  C  C400  1  0.692900  0.754300  0.692900  1.0  0.0992
  C  C401  1  0.378850  0.117700  0.621150  1.0  -0.1445
  C  C402  1  0.404860  0.074040  0.595140  1.0  0.7362
  C  C403  1  0.331200  0.200800  0.668800  1.0  -0.0982
  C  C404  1  0.307100  0.245700  0.692900  1.0  0.0986
  C  C405  1  0.378850  0.882300  0.378850  1.0  -0.1438
  C  C406  1  0.404860  0.925960  0.404860  1.0  0.7364
  C  C407  1  0.331200  0.799200  0.331200  1.0  -0.0998
  C  C408  1  0.307100  0.754300  0.307100  1.0  0.0991
  C  C409  1  0.734570  0.265430  0.670400  1.0  0.0551
  C  C410  1  0.265430  0.734570  0.670400  1.0  0.0558
  C  C411  1  0.265430  0.265430  0.329600  1.0  0.0551
  C  C412  1  0.734570  0.734570  0.329600  1.0  0.0521
  C  C413  1  0.670400  0.734570  0.265430  1.0  0.0517
  C  C414  1  0.670400  0.265430  0.734570  1.0  0.0516
  C  C415  1  0.329600  0.265430  0.265430  1.0  0.0575
  C  C416  1  0.329600  0.734570  0.734570  1.0  0.0572
  C  C417  1  0.265430  0.670400  0.734570  1.0  0.0509
  C  C418  1  0.734570  0.670400  0.265430  1.0  0.0508
  C  C419  1  0.265430  0.329600  0.265430  1.0  0.0513
  C  C420  1  0.734570  0.329600  0.734570  1.0  0.0506
  C  C421  1  0.265430  0.734570  0.329600  1.0  0.0535
  C  C422  1  0.734570  0.265430  0.329600  1.0  0.0529
  C  C423  1  0.265430  0.265430  0.670400  1.0  0.0548
  C  C424  1  0.734570  0.734570  0.670400  1.0  0.0568
  C  C425  1  0.734570  0.670400  0.734570  1.0  0.051
  C  C426  1  0.265430  0.670400  0.265430  1.0  0.0502
  C  C427  1  0.265430  0.329600  0.734570  1.0  0.0515
  C  C428  1  0.734570  0.329600  0.265430  1.0  0.0508
  C  C429  1  0.670400  0.265430  0.265430  1.0  0.0517
  C  C430  1  0.670400  0.734570  0.734570  1.0  0.0523
  C  C431  1  0.329600  0.265430  0.734570  1.0  0.0567
  C  C432  1  0.329600  0.734570  0.265430  1.0  0.0577
  C  C433  1  0.102000  0.638900  0.165600  1.0  -0.0734
  C  C434  1  0.125200  0.679300  0.188900  1.0  -0.076
  C  C435  1  0.898000  0.361100  0.165600  1.0  -0.0723
  C  C436  1  0.874800  0.320700  0.188900  1.0  -0.075
  C  C437  1  0.898000  0.638900  0.834400  1.0  -0.0733
  C  C438  1  0.874800  0.679300  0.811100  1.0  -0.0759
  C  C439  1  0.102000  0.361100  0.834400  1.0  -0.0726
  C  C440  1  0.125200  0.320700  0.811100  1.0  -0.0763
  C  C441  1  0.165600  0.102000  0.638900  1.0  -0.0708
  C  C442  1  0.188900  0.125200  0.679300  1.0  -0.0807
  C  C443  1  0.165600  0.898000  0.361100  1.0  -0.071
  C  C444  1  0.188900  0.874800  0.320700  1.0  -0.079
  C  C445  1  0.834400  0.898000  0.638900  1.0  -0.071
  C  C446  1  0.811100  0.874800  0.679300  1.0  -0.0775
  C  C447  1  0.834400  0.102000  0.361100  1.0  -0.0703
  C  C448  1  0.811100  0.125200  0.320700  1.0  -0.078
  C  C449  1  0.638900  0.165600  0.102000  1.0  -0.0744
  C  C450  1  0.679300  0.188900  0.125200  1.0  -0.0755
  C  C451  1  0.361100  0.165600  0.898000  1.0  -0.0748
  C  C452  1  0.320700  0.188900  0.874800  1.0  -0.0765
  C  C453  1  0.638900  0.834400  0.898000  1.0  -0.0744
  C  C454  1  0.679300  0.811100  0.874800  1.0  -0.0744
  C  C455  1  0.361100  0.834400  0.102000  1.0  -0.0749
  C  C456  1  0.320700  0.811100  0.125200  1.0  -0.0742
  C  C457  1  0.638900  0.102000  0.834400  1.0  -0.0718
  C  C458  1  0.679300  0.125200  0.811100  1.0  -0.0782
  C  C459  1  0.361100  0.898000  0.834400  1.0  -0.0718
  C  C460  1  0.320700  0.874800  0.811100  1.0  -0.0771
  C  C461  1  0.638900  0.898000  0.165600  1.0  -0.0723
  C  C462  1  0.679300  0.874800  0.188900  1.0  -0.077
  C  C463  1  0.361100  0.102000  0.165600  1.0  -0.0731
  C  C464  1  0.320700  0.125200  0.188900  1.0  -0.0772
  C  C465  1  0.102000  0.165600  0.361100  1.0  -0.0725
  C  C466  1  0.125200  0.188900  0.320700  1.0  -0.0769
  C  C467  1  0.898000  0.165600  0.638900  1.0  -0.0725
  C  C468  1  0.874800  0.188900  0.679300  1.0  -0.0754
  C  C469  1  0.898000  0.834400  0.361100  1.0  -0.0727
  C  C470  1  0.874800  0.811100  0.320700  1.0  -0.0748
  C  C471  1  0.102000  0.834400  0.638900  1.0  -0.0727
  C  C472  1  0.125200  0.811100  0.679300  1.0  -0.075
  C  C473  1  0.165600  0.638900  0.898000  1.0  -0.0737
  C  C474  1  0.188900  0.679300  0.874800  1.0  -0.0784
  C  C475  1  0.165600  0.361100  0.102000  1.0  -0.0744
  C  C476  1  0.188900  0.320700  0.125200  1.0  -0.078
  C  C477  1  0.834400  0.638900  0.102000  1.0  -0.0741
  C  C478  1  0.811100  0.679300  0.125200  1.0  -0.0753
  C  C479  1  0.834400  0.361100  0.898000  1.0  -0.0734
  C  C480  1  0.811100  0.320700  0.874800  1.0  -0.0758
  C  C481  1  0.898000  0.361100  0.834400  1.0  -0.0731
  C  C482  1  0.874800  0.320700  0.811100  1.0  -0.0727
  C  C483  1  0.102000  0.638900  0.834400  1.0  -0.0734
  C  C484  1  0.125200  0.679300  0.811100  1.0  -0.0728
  C  C485  1  0.102000  0.361100  0.165600  1.0  -0.0733
  C  C486  1  0.125200  0.320700  0.188900  1.0  -0.0717
  C  C487  1  0.898000  0.638900  0.165600  1.0  -0.0729
  C  C488  1  0.874800  0.679300  0.188900  1.0  -0.0721
  C  C489  1  0.834400  0.898000  0.361100  1.0  -0.0711
  C  C490  1  0.811100  0.874800  0.320700  1.0  -0.0744
  C  C491  1  0.834400  0.102000  0.638900  1.0  -0.0705
  C  C492  1  0.811100  0.125200  0.679300  1.0  -0.0745
  C  C493  1  0.165600  0.102000  0.361100  1.0  -0.0712
  C  C494  1  0.188900  0.125200  0.320700  1.0  -0.0773
  C  C495  1  0.165600  0.898000  0.638900  1.0  -0.0708
  C  C496  1  0.188900  0.874800  0.679300  1.0  -0.0755
  C  C497  1  0.361100  0.834400  0.898000  1.0  -0.0747
  C  C498  1  0.320700  0.811100  0.874800  1.0  -0.0712
  C  C499  1  0.638900  0.834400  0.102000  1.0  -0.0749
  C  C500  1  0.679300  0.811100  0.125200  1.0  -0.0713
  C  C501  1  0.361100  0.165600  0.102000  1.0  -0.075
  C  C502  1  0.320700  0.188900  0.125200  1.0  -0.0712
  C  C503  1  0.638900  0.165600  0.898000  1.0  -0.0747
  C  C504  1  0.679300  0.188900  0.874800  1.0  -0.0728
  C  C505  1  0.361100  0.898000  0.165600  1.0  -0.0726
  C  C506  1  0.320700  0.874800  0.188900  1.0  -0.0735
  C  C507  1  0.638900  0.102000  0.165600  1.0  -0.0723
  C  C508  1  0.679300  0.125200  0.188900  1.0  -0.0745
  C  C509  1  0.361100  0.102000  0.834400  1.0  -0.0726
  C  C510  1  0.320700  0.125200  0.811100  1.0  -0.074
  C  C511  1  0.638900  0.898000  0.834400  1.0  -0.0722
  C  C512  1  0.679300  0.874800  0.811100  1.0  -0.0737
  C  C513  1  0.898000  0.834400  0.638900  1.0  -0.0733
  C  C514  1  0.874800  0.811100  0.679300  1.0  -0.0714
  C  C515  1  0.102000  0.834400  0.361100  1.0  -0.0731
  C  C516  1  0.125200  0.811100  0.320700  1.0  -0.0713
  C  C517  1  0.102000  0.165600  0.638900  1.0  -0.0725
  C  C518  1  0.125200  0.188900  0.679300  1.0  -0.0735
  C  C519  1  0.898000  0.165600  0.361100  1.0  -0.0727
  C  C520  1  0.874800  0.188900  0.320700  1.0  -0.0716
  C  C521  1  0.834400  0.361100  0.102000  1.0  -0.0738
  C  C522  1  0.811100  0.320700  0.125200  1.0  -0.0719
  C  C523  1  0.834400  0.638900  0.898000  1.0  -0.0731
  C  C524  1  0.811100  0.679300  0.874800  1.0  -0.0735
  C  C525  1  0.165600  0.361100  0.898000  1.0  -0.074
  C  C526  1  0.188900  0.320700  0.874800  1.0  -0.0749
  C  C527  1  0.165600  0.638900  0.102000  1.0  -0.0748
  C  C528  1  0.188900  0.679300  0.125200  1.0  -0.0743
  C  C529  1  0.121150  0.617700  0.121150  1.0  -0.1447
  C  C530  1  0.095140  0.574040  0.095140  1.0  0.7362
  C  C531  1  0.168800  0.700800  0.168800  1.0  -0.0972
  C  C532  1  0.192900  0.745700  0.192900  1.0  0.0994
  C  C533  1  0.878850  0.382300  0.121150  1.0  -0.1439
  C  C534  1  0.904860  0.425960  0.095140  1.0  0.7359
  C  C535  1  0.831200  0.299200  0.168800  1.0  -0.1005
  C  C536  1  0.807100  0.254300  0.192900  1.0  0.0981
  C  C537  1  0.878850  0.617700  0.878850  1.0  -0.144
  C  C538  1  0.904860  0.574040  0.904860  1.0  0.7373
  C  C539  1  0.831200  0.700800  0.831200  1.0  -0.0985
  C  C540  1  0.807100  0.745700  0.807100  1.0  0.0988
  C  C541  1  0.121150  0.382300  0.878850  1.0  -0.1437
  C  C542  1  0.095140  0.425960  0.904860  1.0  0.7361
  C  C543  1  0.168800  0.299200  0.831200  1.0  -0.0994
  C  C544  1  0.192900  0.254300  0.807100  1.0  0.0999
  C  C545  1  0.121150  0.121150  0.617700  1.0  -0.1475
  C  C546  1  0.095140  0.095140  0.574040  1.0  0.7371
  C  C547  1  0.168800  0.168800  0.700800  1.0  -0.1013
  C  C548  1  0.192900  0.192900  0.745700  1.0  0.0993
  C  C549  1  0.121150  0.878850  0.382300  1.0  -0.1464
  C  C550  1  0.095140  0.904860  0.425960  1.0  0.7378
  C  C551  1  0.168800  0.831200  0.299200  1.0  -0.0992
  C  C552  1  0.192900  0.807100  0.254300  1.0  0.1007
  C  C553  1  0.878850  0.878850  0.617700  1.0  -0.1459
  C  C554  1  0.904860  0.904860  0.574040  1.0  0.737
  C  C555  1  0.831200  0.831200  0.700800  1.0  -0.1029
  C  C556  1  0.807100  0.807100  0.745700  1.0  0.0991
  C  C557  1  0.878850  0.121150  0.382300  1.0  -0.1483
  C  C558  1  0.904860  0.095140  0.425960  1.0  0.7387
  C  C559  1  0.831200  0.168800  0.299200  1.0  -0.0996
  C  C560  1  0.807100  0.192900  0.254300  1.0  0.0987
  C  C561  1  0.617700  0.121150  0.121150  1.0  -0.1441
  C  C562  1  0.574040  0.095140  0.095140  1.0  0.7368
  C  C563  1  0.700800  0.168800  0.168800  1.0  -0.0998
  C  C564  1  0.745700  0.192900  0.192900  1.0  0.0964
  C  C565  1  0.382300  0.121150  0.878850  1.0  -0.1452
  C  C566  1  0.425960  0.095140  0.904860  1.0  0.7372
  C  C567  1  0.299200  0.168800  0.831200  1.0  -0.0989
  C  C568  1  0.254300  0.192900  0.807100  1.0  0.0972
  C  C569  1  0.617700  0.878850  0.878850  1.0  -0.1433
  C  C570  1  0.574040  0.904860  0.904860  1.0  0.7371
  C  C571  1  0.700800  0.831200  0.831200  1.0  -0.1002
  C  C572  1  0.745700  0.807100  0.807100  1.0  0.0983
  C  C573  1  0.382300  0.878850  0.121150  1.0  -0.1439
  C  C574  1  0.425960  0.904860  0.095140  1.0  0.7367
  C  C575  1  0.299200  0.831200  0.168800  1.0  -0.0991
  C  C576  1  0.254300  0.807100  0.192900  1.0  0.0982
  C  C577  1  0.617700  0.121150  0.878850  1.0  -0.1445
  C  C578  1  0.574040  0.095140  0.904860  1.0  0.7373
  C  C579  1  0.700800  0.168800  0.831200  1.0  -0.1001
  C  C580  1  0.745700  0.192900  0.807100  1.0  0.0987
  C  C581  1  0.382300  0.878850  0.878850  1.0  -0.1442
  C  C582  1  0.425960  0.904860  0.904860  1.0  0.737
  C  C583  1  0.299200  0.831200  0.831200  1.0  -0.0981
  C  C584  1  0.254300  0.807100  0.807100  1.0  0.0966
  C  C585  1  0.617700  0.878850  0.121150  1.0  -0.1426
  C  C586  1  0.574040  0.904860  0.095140  1.0  0.7372
  C  C587  1  0.700800  0.831200  0.168800  1.0  -0.1004
  C  C588  1  0.745700  0.807100  0.192900  1.0  0.0978
  C  C589  1  0.382300  0.121150  0.121150  1.0  -0.1448
  C  C590  1  0.425960  0.095140  0.095140  1.0  0.7364
  C  C591  1  0.299200  0.168800  0.168800  1.0  -0.0992
  C  C592  1  0.254300  0.192900  0.192900  1.0  0.0965
  C  C593  1  0.121150  0.121150  0.382300  1.0  -0.148
  C  C594  1  0.095140  0.095140  0.425960  1.0  0.738
  C  C595  1  0.168800  0.168800  0.299200  1.0  -0.0983
  C  C596  1  0.192900  0.192900  0.254300  1.0  0.0999
  C  C597  1  0.878850  0.121150  0.617700  1.0  -0.1469
  C  C598  1  0.904860  0.095140  0.574040  1.0  0.737
  C  C599  1  0.831200  0.168800  0.700800  1.0  -0.1028
  C  C600  1  0.807100  0.192900  0.745700  1.0  0.0987
  C  C601  1  0.878850  0.878850  0.382300  1.0  -0.1473
  C  C602  1  0.904860  0.904860  0.425960  1.0  0.7385
  C  C603  1  0.831200  0.831200  0.299200  1.0  -0.1004
  C  C604  1  0.807100  0.807100  0.254300  1.0  0.0997
  C  C605  1  0.121150  0.878850  0.617700  1.0  -0.1459
  C  C606  1  0.095140  0.904860  0.574040  1.0  0.7373
  C  C607  1  0.168800  0.831200  0.700800  1.0  -0.1014
  C  C608  1  0.192900  0.807100  0.745700  1.0  0.0999
  C  C609  1  0.121150  0.617700  0.878850  1.0  -0.1443
  C  C610  1  0.095140  0.574040  0.904860  1.0  0.7367
  C  C611  1  0.168800  0.700800  0.831200  1.0  -0.0975
  C  C612  1  0.192900  0.745700  0.807100  1.0  0.0995
  C  C613  1  0.121150  0.382300  0.121150  1.0  -0.1439
  C  C614  1  0.095140  0.425960  0.095140  1.0  0.7361
  C  C615  1  0.168800  0.299200  0.168800  1.0  -0.0997
  C  C616  1  0.192900  0.254300  0.192900  1.0  0.0992
  C  C617  1  0.878850  0.617700  0.121150  1.0  -0.1445
  C  C618  1  0.904860  0.574040  0.095140  1.0  0.7362
  C  C619  1  0.831200  0.700800  0.168800  1.0  -0.0982
  C  C620  1  0.807100  0.745700  0.192900  1.0  0.0986
  C  C621  1  0.878850  0.382300  0.878850  1.0  -0.1438
  C  C622  1  0.904860  0.425960  0.904860  1.0  0.7364
  C  C623  1  0.831200  0.299200  0.831200  1.0  -0.0998
  C  C624  1  0.807100  0.254300  0.807100  1.0  0.0991
  C  C625  1  0.234570  0.765430  0.170400  1.0  0.0551
  C  C626  1  0.765430  0.234570  0.170400  1.0  0.0558
  C  C627  1  0.765430  0.765430  0.829600  1.0  0.0551
  C  C628  1  0.234570  0.234570  0.829600  1.0  0.0521
  C  C629  1  0.170400  0.234570  0.765430  1.0  0.0517
  C  C630  1  0.170400  0.765430  0.234570  1.0  0.0516
  C  C631  1  0.829600  0.765430  0.765430  1.0  0.0575
  C  C632  1  0.829600  0.234570  0.234570  1.0  0.0572
  C  C633  1  0.765430  0.170400  0.234570  1.0  0.0509
  C  C634  1  0.234570  0.170400  0.765430  1.0  0.0508
  C  C635  1  0.765430  0.829600  0.765430  1.0  0.0513
  C  C636  1  0.234570  0.829600  0.234570  1.0  0.0506
  C  C637  1  0.765430  0.234570  0.829600  1.0  0.0535
  C  C638  1  0.234570  0.765430  0.829600  1.0  0.0529
  C  C639  1  0.765430  0.765430  0.170400  1.0  0.0548
  C  C640  1  0.234570  0.234570  0.170400  1.0  0.0568
  C  C641  1  0.234570  0.170400  0.234570  1.0  0.051
  C  C642  1  0.765430  0.170400  0.765430  1.0  0.0502
  C  C643  1  0.765430  0.829600  0.234570  1.0  0.0515
  C  C644  1  0.234570  0.829600  0.765430  1.0  0.0508
  C  C645  1  0.170400  0.765430  0.765430  1.0  0.0517
  C  C646  1  0.170400  0.234570  0.234570  1.0  0.0523
  C  C647  1  0.829600  0.765430  0.234570  1.0  0.0567
  C  C648  1  0.829600  0.234570  0.765430  1.0  0.0577
  O  O649  1  0.614530  0.058410  0.555120  1.0  -0.6474
  O  O650  1  0.385470  0.941590  0.555120  1.0  -0.6461
  O  O651  1  0.385470  0.058410  0.444880  1.0  -0.6476
  O  O652  1  0.614530  0.941590  0.444880  1.0  -0.6471
  O  O653  1  0.555120  0.614530  0.058410  1.0  -0.6492
  O  O654  1  0.555120  0.385470  0.941590  1.0  -0.6483
  O  O655  1  0.444880  0.385470  0.058410  1.0  -0.648
  O  O656  1  0.444880  0.614530  0.941590  1.0  -0.649
  O  O657  1  0.058410  0.555120  0.614530  1.0  -0.6473
  O  O658  1  0.941590  0.555120  0.385470  1.0  -0.6469
  O  O659  1  0.058410  0.444880  0.385470  1.0  -0.6491
  O  O660  1  0.941590  0.444880  0.614530  1.0  -0.6498
  O  O661  1  0.058410  0.614530  0.444880  1.0  -0.6462
  O  O662  1  0.941590  0.385470  0.444880  1.0  -0.6461
  O  O663  1  0.058410  0.385470  0.555120  1.0  -0.6459
  O  O664  1  0.941590  0.614530  0.555120  1.0  -0.6456
  O  O665  1  0.614530  0.555120  0.941590  1.0  -0.6479
  O  O666  1  0.385470  0.555120  0.058410  1.0  -0.6485
  O  O667  1  0.385470  0.444880  0.941590  1.0  -0.6504
  O  O668  1  0.614530  0.444880  0.058410  1.0  -0.6507
  O  O669  1  0.555120  0.058410  0.385470  1.0  -0.6493
  O  O670  1  0.555120  0.941590  0.614530  1.0  -0.6488
  O  O671  1  0.444880  0.058410  0.614530  1.0  -0.6489
  O  O672  1  0.444880  0.941590  0.385470  1.0  -0.6489
  O  O673  1  0.385470  0.941590  0.444880  1.0  -0.6464
  O  O674  1  0.614530  0.058410  0.444880  1.0  -0.6476
  O  O675  1  0.614530  0.941590  0.555120  1.0  -0.6462
  O  O676  1  0.385470  0.058410  0.555120  1.0  -0.6472
  O  O677  1  0.444880  0.385470  0.941590  1.0  -0.6478
  O  O678  1  0.444880  0.614530  0.058410  1.0  -0.6486
  O  O679  1  0.555120  0.614530  0.941590  1.0  -0.6484
  O  O680  1  0.555120  0.385470  0.058410  1.0  -0.6498
  O  O681  1  0.941590  0.444880  0.385470  1.0  -0.6494
  O  O682  1  0.058410  0.444880  0.614530  1.0  -0.65
  O  O683  1  0.941590  0.555120  0.614530  1.0  -0.6472
  O  O684  1  0.058410  0.555120  0.385470  1.0  -0.6479
  O  O685  1  0.941590  0.385470  0.555120  1.0  -0.6457
  O  O686  1  0.058410  0.614530  0.555120  1.0  -0.6456
  O  O687  1  0.941590  0.614530  0.444880  1.0  -0.6459
  O  O688  1  0.058410  0.385470  0.444880  1.0  -0.6461
  O  O689  1  0.385470  0.444880  0.058410  1.0  -0.6507
  O  O690  1  0.614530  0.444880  0.941590  1.0  -0.6506
  O  O691  1  0.614530  0.555120  0.058410  1.0  -0.6485
  O  O692  1  0.385470  0.555120  0.941590  1.0  -0.6477
  O  O693  1  0.444880  0.941590  0.614530  1.0  -0.6487
  O  O694  1  0.444880  0.058410  0.385470  1.0  -0.6488
  O  O695  1  0.555120  0.941590  0.385470  1.0  -0.6495
  O  O696  1  0.555120  0.058410  0.614530  1.0  -0.649
  O  O697  1  0.114530  0.558410  0.055120  1.0  -0.6465
  O  O698  1  0.885470  0.441590  0.055120  1.0  -0.6461
  O  O699  1  0.885470  0.558410  0.944880  1.0  -0.6476
  O  O700  1  0.114530  0.441590  0.944880  1.0  -0.6471
  O  O701  1  0.055120  0.114530  0.558410  1.0  -0.6492
  O  O702  1  0.055120  0.885470  0.441590  1.0  -0.6483
  O  O703  1  0.944880  0.885470  0.558410  1.0  -0.649
  O  O704  1  0.944880  0.114530  0.441590  1.0  -0.649
  O  O705  1  0.558410  0.055120  0.114530  1.0  -0.6464
  O  O706  1  0.441590  0.055120  0.885470  1.0  -0.6469
  O  O707  1  0.558410  0.944880  0.885470  1.0  -0.65
  O  O708  1  0.441590  0.944880  0.114530  1.0  -0.6497
  O  O709  1  0.558410  0.114530  0.944880  1.0  -0.6462
  O  O710  1  0.441590  0.885470  0.944880  1.0  -0.6461
  O  O711  1  0.558410  0.885470  0.055120  1.0  -0.6459
  O  O712  1  0.441590  0.114530  0.055120  1.0  -0.6456
  O  O713  1  0.114530  0.055120  0.441590  1.0  -0.6478
  O  O714  1  0.885470  0.055120  0.558410  1.0  -0.6486
  O  O715  1  0.885470  0.944880  0.441590  1.0  -0.6504
  O  O716  1  0.114530  0.944880  0.558410  1.0  -0.6507
  O  O717  1  0.055120  0.558410  0.885470  1.0  -0.6493
  O  O718  1  0.055120  0.441590  0.114530  1.0  -0.6488
  O  O719  1  0.944880  0.558410  0.114530  1.0  -0.6489
  O  O720  1  0.944880  0.441590  0.885470  1.0  -0.6489
  O  O721  1  0.885470  0.441590  0.944880  1.0  -0.6464
  O  O722  1  0.114530  0.558410  0.944880  1.0  -0.6467
  O  O723  1  0.114530  0.441590  0.055120  1.0  -0.6472
  O  O724  1  0.885470  0.558410  0.055120  1.0  -0.6472
  O  O725  1  0.944880  0.885470  0.441590  1.0  -0.6478
  O  O726  1  0.944880  0.114530  0.558410  1.0  -0.6486
  O  O727  1  0.055120  0.114530  0.441590  1.0  -0.6495
  O  O728  1  0.055120  0.885470  0.558410  1.0  -0.6497
  O  O729  1  0.441590  0.944880  0.885470  1.0  -0.6485
  O  O730  1  0.558410  0.944880  0.114530  1.0  -0.6491
  O  O731  1  0.441590  0.055120  0.114530  1.0  -0.6472
  O  O732  1  0.558410  0.055120  0.885470  1.0  -0.6481
  O  O733  1  0.441590  0.885470  0.055120  1.0  -0.6457
  O  O734  1  0.558410  0.114530  0.055120  1.0  -0.6456
  O  O735  1  0.441590  0.114530  0.944880  1.0  -0.6459
  O  O736  1  0.558410  0.885470  0.944880  1.0  -0.6461
  O  O737  1  0.885470  0.944880  0.558410  1.0  -0.6507
  O  O738  1  0.114530  0.944880  0.441590  1.0  -0.6506
  O  O739  1  0.114530  0.055120  0.558410  1.0  -0.6485
  O  O740  1  0.885470  0.055120  0.441590  1.0  -0.6477
  O  O741  1  0.944880  0.441590  0.114530  1.0  -0.6487
  O  O742  1  0.944880  0.558410  0.885470  1.0  -0.6488
  O  O743  1  0.055120  0.441590  0.885470  1.0  -0.6495
  O  O744  1  0.055120  0.558410  0.114530  1.0  -0.649
