# generated using pymatgen
data_ZnSi2H21C14N2O
_symmetry_space_group_name_H-M   'P 1'
_cell_length_a   30.75610000
_cell_length_b   30.75610000
_cell_length_c   30.75610000
_cell_angle_alpha   90.00000000
_cell_angle_beta   90.00000000
_cell_angle_gamma   90.00000000
_symmetry_Int_Tables_number   1
_chemical_formula_structural   ZnSi2H21C14N2O
_chemical_formula_sum   'Zn48 Si96 H1008 C672 N96 O48'
_cell_volume   29093.35410160
_cell_formula_units_Z   48
loop_
 _symmetry_equiv_pos_site_id
 _symmetry_equiv_pos_as_xyz
  1  'x, y, z'
loop_
 _atom_site_type_symbol
 _atom_site_label
 _atom_site_symmetry_multiplicity
 _atom_site_fract_x
 _atom_site_fract_y
 _atom_site_fract_z
 _atom_site_occupancy
 _atom_site_charge
  Zn  Zn1  1  0.171460  0.125000  0.078540  1.0  0.8382
  Zn  Zn2  1  0.671460  0.625000  0.578540  1.0  0.8397
  Zn  Zn3  1  0.328540  0.875000  0.578540  1.0  0.8379
  Zn  Zn4  1  0.828540  0.625000  0.421460  1.0  0.8385
  Zn  Zn5  1  0.671460  0.375000  0.921460  1.0  0.8388
  Zn  Zn6  1  0.078540  0.171460  0.125000  1.0  0.8375
  Zn  Zn7  1  0.578540  0.671460  0.625000  1.0  0.8393
  Zn  Zn8  1  0.578540  0.328540  0.875000  1.0  0.8379
  Zn  Zn9  1  0.421460  0.828540  0.625000  1.0  0.8399
  Zn  Zn10  1  0.921460  0.671460  0.375000  1.0  0.8392
  Zn  Zn11  1  0.125000  0.078540  0.171460  1.0  0.8379
  Zn  Zn12  1  0.625000  0.578540  0.671460  1.0  0.8393
  Zn  Zn13  1  0.875000  0.578540  0.328540  1.0  0.8387
  Zn  Zn14  1  0.625000  0.421460  0.828540  1.0  0.8399
  Zn  Zn15  1  0.375000  0.921460  0.671460  1.0  0.839
  Zn  Zn16  1  0.875000  0.421460  0.171460  1.0  0.8376
  Zn  Zn17  1  0.375000  0.078540  0.828540  1.0  0.8401
  Zn  Zn18  1  0.125000  0.921460  0.328540  1.0  0.8384
  Zn  Zn19  1  0.921460  0.328540  0.125000  1.0  0.8385
  Zn  Zn20  1  0.078540  0.828540  0.375000  1.0  0.8393
  Zn  Zn21  1  0.421460  0.171460  0.875000  1.0  0.8378
  Zn  Zn22  1  0.828540  0.375000  0.078540  1.0  0.8394
  Zn  Zn23  1  0.328540  0.125000  0.921460  1.0  0.8371
  Zn  Zn24  1  0.171460  0.875000  0.421460  1.0  0.8373
  Zn  Zn25  1  0.828540  0.875000  0.921460  1.0  0.8371
  Zn  Zn26  1  0.328540  0.375000  0.421460  1.0  0.8385
  Zn  Zn27  1  0.671460  0.125000  0.421460  1.0  0.8373
  Zn  Zn28  1  0.171460  0.375000  0.578540  1.0  0.8397
  Zn  Zn29  1  0.328540  0.625000  0.078540  1.0  0.8394
  Zn  Zn30  1  0.921460  0.828540  0.875000  1.0  0.8381
  Zn  Zn31  1  0.421460  0.328540  0.375000  1.0  0.8395
  Zn  Zn32  1  0.421460  0.671460  0.125000  1.0  0.8382
  Zn  Zn33  1  0.578540  0.171460  0.375000  1.0  0.839
  Zn  Zn34  1  0.078540  0.328540  0.625000  1.0  0.8397
  Zn  Zn35  1  0.875000  0.921460  0.828540  1.0  0.8384
  Zn  Zn36  1  0.375000  0.421460  0.328540  1.0  0.8399
  Zn  Zn37  1  0.125000  0.421460  0.671460  1.0  0.8376
  Zn  Zn38  1  0.375000  0.578540  0.171460  1.0  0.8393
  Zn  Zn39  1  0.625000  0.078540  0.328540  1.0  0.8402
  Zn  Zn40  1  0.125000  0.578540  0.828540  1.0  0.8387
  Zn  Zn41  1  0.625000  0.921460  0.171460  1.0  0.839
  Zn  Zn42  1  0.875000  0.078540  0.671460  1.0  0.8379
  Zn  Zn43  1  0.078540  0.671460  0.875000  1.0  0.8375
  Zn  Zn44  1  0.921460  0.171460  0.625000  1.0  0.8395
  Zn  Zn45  1  0.578540  0.828540  0.125000  1.0  0.8379
  Zn  Zn46  1  0.171460  0.625000  0.921460  1.0  0.8388
  Zn  Zn47  1  0.671460  0.875000  0.078540  1.0  0.8382
  Zn  Zn48  1  0.828540  0.125000  0.578540  1.0  0.838
  Si  Si49  1  0.347090  0.144240  0.143140  1.0  1.068
  Si  Si50  1  0.847090  0.644240  0.643140  1.0  1.068
  Si  Si51  1  0.152910  0.855760  0.643140  1.0  1.0684
  Si  Si52  1  0.652910  0.355760  0.143140  1.0  1.0684
  Si  Si53  1  0.652910  0.644240  0.356860  1.0  1.0691
  Si  Si54  1  0.152910  0.144240  0.856860  1.0  1.0691
  Si  Si55  1  0.847090  0.355760  0.856860  1.0  1.0688
  Si  Si56  1  0.347090  0.855760  0.356860  1.0  1.0688
  Si  Si57  1  0.143140  0.347090  0.144240  1.0  1.0676
  Si  Si58  1  0.643140  0.847090  0.644240  1.0  1.0676
  Si  Si59  1  0.643140  0.152910  0.855760  1.0  1.0671
  Si  Si60  1  0.143140  0.652910  0.355760  1.0  1.0671
  Si  Si61  1  0.356860  0.652910  0.644240  1.0  1.0624
  Si  Si62  1  0.856860  0.152910  0.144240  1.0  1.0624
  Si  Si63  1  0.856860  0.847090  0.355760  1.0  1.0626
  Si  Si64  1  0.356860  0.347090  0.855760  1.0  1.0626
  Si  Si65  1  0.144240  0.143140  0.347090  1.0  1.0554
  Si  Si66  1  0.644240  0.643140  0.847090  1.0  1.0554
  Si  Si67  1  0.855760  0.643140  0.152910  1.0  1.0562
  Si  Si68  1  0.355760  0.143140  0.652910  1.0  1.0562
  Si  Si69  1  0.644240  0.356860  0.652910  1.0  1.0625
  Si  Si70  1  0.144240  0.856860  0.152910  1.0  1.0625
  Si  Si71  1  0.355760  0.856860  0.847090  1.0  1.0617
  Si  Si72  1  0.855760  0.356860  0.347090  1.0  1.0617
  Si  Si73  1  0.894240  0.597090  0.106860  1.0  1.0689
  Si  Si74  1  0.394240  0.097090  0.606860  1.0  1.0689
  Si  Si75  1  0.605760  0.402910  0.606860  1.0  1.0685
  Si  Si76  1  0.105760  0.902910  0.106860  1.0  1.0685
  Si  Si77  1  0.394240  0.902910  0.893140  1.0  1.0678
  Si  Si78  1  0.894240  0.402910  0.393140  1.0  1.0678
  Si  Si79  1  0.105760  0.097090  0.393140  1.0  1.0682
  Si  Si80  1  0.605760  0.597090  0.893140  1.0  1.0682
  Si  Si81  1  0.097090  0.393140  0.105760  1.0  1.0558
  Si  Si82  1  0.597090  0.893140  0.605760  1.0  1.0558
  Si  Si83  1  0.902910  0.893140  0.394240  1.0  1.0569
  Si  Si84  1  0.402910  0.393140  0.894240  1.0  1.0569
  Si  Si85  1  0.402910  0.606860  0.605760  1.0  1.0625
  Si  Si86  1  0.902910  0.106860  0.105760  1.0  1.0625
  Si  Si87  1  0.597090  0.106860  0.894240  1.0  1.0629
  Si  Si88  1  0.097090  0.606860  0.394240  1.0  1.0629
  Si  Si89  1  0.893140  0.394240  0.902910  1.0  1.0674
  Si  Si90  1  0.393140  0.894240  0.402910  1.0  1.0674
  Si  Si91  1  0.393140  0.105760  0.097090  1.0  1.0667
  Si  Si92  1  0.893140  0.605760  0.597090  1.0  1.0667
  Si  Si93  1  0.106860  0.894240  0.597090  1.0  1.0616
  Si  Si94  1  0.606860  0.394240  0.097090  1.0  1.0616
  Si  Si95  1  0.606860  0.605760  0.402910  1.0  1.0627
  Si  Si96  1  0.106860  0.105760  0.902910  1.0  1.0627
  Si  Si97  1  0.652910  0.855760  0.856860  1.0  1.0692
  Si  Si98  1  0.152910  0.355760  0.356860  1.0  1.0692
  Si  Si99  1  0.847090  0.144240  0.356860  1.0  1.0687
  Si  Si100  1  0.347090  0.644240  0.856860  1.0  1.0687
  Si  Si101  1  0.347090  0.355760  0.643140  1.0  1.0683
  Si  Si102  1  0.847090  0.855760  0.143140  1.0  1.0683
  Si  Si103  1  0.152910  0.644240  0.143140  1.0  1.0683
  Si  Si104  1  0.652910  0.144240  0.643140  1.0  1.0683
  Si  Si105  1  0.856860  0.652910  0.855760  1.0  1.0621
  Si  Si106  1  0.356860  0.152910  0.355760  1.0  1.0621
  Si  Si107  1  0.356860  0.847090  0.144240  1.0  1.0628
  Si  Si108  1  0.856860  0.347090  0.644240  1.0  1.0628
  Si  Si109  1  0.643140  0.347090  0.355760  1.0  1.0673
  Si  Si110  1  0.143140  0.847090  0.855760  1.0  1.0673
  Si  Si111  1  0.143140  0.152910  0.644240  1.0  1.0674
  Si  Si112  1  0.643140  0.652910  0.144240  1.0  1.0674
  Si  Si113  1  0.855760  0.856860  0.652910  1.0  1.0626
  Si  Si114  1  0.355760  0.356860  0.152910  1.0  1.0626
  Si  Si115  1  0.144240  0.356860  0.847090  1.0  1.0616
  Si  Si116  1  0.644240  0.856860  0.347090  1.0  1.0616
  Si  Si117  1  0.355760  0.643140  0.347090  1.0  1.0551
  Si  Si118  1  0.855760  0.143140  0.847090  1.0  1.0551
  Si  Si119  1  0.644240  0.143140  0.152910  1.0  1.0565
  Si  Si120  1  0.144240  0.643140  0.652910  1.0  1.0565
  Si  Si121  1  0.105760  0.402910  0.893140  1.0  1.0678
  Si  Si122  1  0.605760  0.902910  0.393140  1.0  1.0678
  Si  Si123  1  0.394240  0.597090  0.393140  1.0  1.0681
  Si  Si124  1  0.894240  0.097090  0.893140  1.0  1.0681
  Si  Si125  1  0.605760  0.097090  0.106860  1.0  1.0687
  Si  Si126  1  0.105760  0.597090  0.606860  1.0  1.0687
  Si  Si127  1  0.894240  0.902910  0.606860  1.0  1.0687
  Si  Si128  1  0.394240  0.402910  0.106860  1.0  1.0687
  Si  Si129  1  0.902910  0.606860  0.894240  1.0  1.0629
  Si  Si130  1  0.402910  0.106860  0.394240  1.0  1.0629
  Si  Si131  1  0.097090  0.106860  0.605760  1.0  1.0625
  Si  Si132  1  0.597090  0.606860  0.105760  1.0  1.0625
  Si  Si133  1  0.597090  0.393140  0.394240  1.0  1.0565
  Si  Si134  1  0.097090  0.893140  0.894240  1.0  1.0565
  Si  Si135  1  0.402910  0.893140  0.105760  1.0  1.0562
  Si  Si136  1  0.902910  0.393140  0.605760  1.0  1.0562
  Si  Si137  1  0.106860  0.605760  0.097090  1.0  1.062
  Si  Si138  1  0.606860  0.105760  0.597090  1.0  1.062
  Si  Si139  1  0.606860  0.894240  0.902910  1.0  1.0624
  Si  Si140  1  0.106860  0.394240  0.402910  1.0  1.0624
  Si  Si141  1  0.893140  0.105760  0.402910  1.0  1.0674
  Si  Si142  1  0.393140  0.605760  0.902910  1.0  1.0674
  Si  Si143  1  0.393140  0.394240  0.597090  1.0  1.0665
  Si  Si144  1  0.893140  0.894240  0.097090  1.0  1.0665
  H  H145  1  0.206800  0.209100  0.047300  1.0  0.0725
  H  H146  1  0.268000  0.250900  0.054000  1.0  0.0762
  H  H147  1  0.327500  0.225900  0.094300  1.0  0.0857
  H  H148  1  0.259700  0.116800  0.118200  1.0  0.0539
  H  H149  1  0.308600  0.084100  0.171900  1.0  0.1144
  H  H150  1  0.348500  0.095900  0.203100  1.0  0.126
  H  H151  1  0.305000  0.124400  0.204500  1.0  0.122
  H  H152  1  0.389500  0.208700  0.146000  1.0  0.1119
  H  H153  1  0.358200  0.206400  0.187500  1.0  0.1164
  H  H154  1  0.401700  0.177900  0.186100  1.0  0.1221
  H  H155  1  0.706800  0.709100  0.547300  1.0  0.0725
  H  H156  1  0.768000  0.750900  0.554000  1.0  0.0762
  H  H157  1  0.827500  0.725900  0.594300  1.0  0.0857
  H  H158  1  0.759700  0.616800  0.618200  1.0  0.0539
  H  H159  1  0.808600  0.584100  0.671900  1.0  0.1144
  H  H160  1  0.848500  0.595900  0.703100  1.0  0.126
  H  H161  1  0.805000  0.624400  0.704500  1.0  0.122
  H  H162  1  0.889500  0.708700  0.646000  1.0  0.1119
  H  H163  1  0.858200  0.706400  0.687500  1.0  0.1164
  H  H164  1  0.901700  0.677900  0.686100  1.0  0.1221
  H  H165  1  0.293200  0.790900  0.547300  1.0  0.0721
  H  H166  1  0.232000  0.749100  0.554000  1.0  0.0765
  H  H167  1  0.172500  0.774100  0.594300  1.0  0.0851
  H  H168  1  0.240300  0.883200  0.618200  1.0  0.0532
  H  H169  1  0.191400  0.915900  0.671900  1.0  0.114
  H  H170  1  0.151500  0.904100  0.703100  1.0  0.1252
  H  H171  1  0.195000  0.875600  0.704500  1.0  0.1217
  H  H172  1  0.110500  0.791300  0.646000  1.0  0.1122
  H  H173  1  0.141800  0.793600  0.687500  1.0  0.1165
  H  H174  1  0.098300  0.822100  0.686100  1.0  0.1225
  H  H175  1  0.793200  0.290900  0.047300  1.0  0.0721
  H  H176  1  0.732000  0.249100  0.054000  1.0  0.0765
  H  H177  1  0.672500  0.274100  0.094300  1.0  0.0851
  H  H178  1  0.740300  0.383200  0.118200  1.0  0.0532
  H  H179  1  0.691400  0.415900  0.171900  1.0  0.114
  H  H180  1  0.651500  0.404100  0.203100  1.0  0.1252
  H  H181  1  0.695000  0.375600  0.204500  1.0  0.1218
  H  H182  1  0.610500  0.291300  0.146000  1.0  0.1122
  H  H183  1  0.641800  0.293600  0.187500  1.0  0.1165
  H  H184  1  0.598300  0.322100  0.186100  1.0  0.1225
  H  H185  1  0.793200  0.709100  0.452700  1.0  0.0718
  H  H186  1  0.732000  0.750900  0.446000  1.0  0.0757
  H  H187  1  0.672500  0.725900  0.405700  1.0  0.0855
  H  H188  1  0.740300  0.616800  0.381800  1.0  0.0533
  H  H189  1  0.691400  0.584100  0.328100  1.0  0.1148
  H  H190  1  0.651500  0.595900  0.296900  1.0  0.1255
  H  H191  1  0.695000  0.624400  0.295500  1.0  0.1215
  H  H192  1  0.610500  0.708700  0.354000  1.0  0.1124
  H  H193  1  0.641800  0.706400  0.312500  1.0  0.1164
  H  H194  1  0.598300  0.677900  0.313900  1.0  0.123
  H  H195  1  0.293200  0.209100  0.952700  1.0  0.0718
  H  H196  1  0.232000  0.250900  0.946000  1.0  0.0757
  H  H197  1  0.172500  0.225900  0.905700  1.0  0.0855
  H  H198  1  0.240300  0.116800  0.881800  1.0  0.0533
  H  H199  1  0.191400  0.084100  0.828100  1.0  0.1148
  H  H200  1  0.151500  0.095900  0.796900  1.0  0.1255
  H  H201  1  0.195000  0.124400  0.795500  1.0  0.1215
  H  H202  1  0.110500  0.208700  0.854000  1.0  0.1124
  H  H203  1  0.141800  0.206400  0.812500  1.0  0.1164
  H  H204  1  0.098300  0.177900  0.813900  1.0  0.123
  H  H205  1  0.706800  0.290900  0.952700  1.0  0.0723
  H  H206  1  0.768000  0.249100  0.946000  1.0  0.0765
  H  H207  1  0.827500  0.274100  0.905700  1.0  0.0859
  H  H208  1  0.759700  0.383200  0.881800  1.0  0.0525
  H  H209  1  0.808600  0.415900  0.828100  1.0  0.1132
  H  H210  1  0.848500  0.404100  0.796900  1.0  0.1259
  H  H211  1  0.805000  0.375600  0.795500  1.0  0.1216
  H  H212  1  0.889500  0.291300  0.854000  1.0  0.1129
  H  H213  1  0.858200  0.293600  0.812500  1.0  0.1168
  H  H214  1  0.901700  0.322100  0.813900  1.0  0.122
  H  H215  1  0.206800  0.790900  0.452700  1.0  0.0723
  H  H216  1  0.268000  0.749100  0.446000  1.0  0.0765
  H  H217  1  0.327500  0.774100  0.405700  1.0  0.0859
  H  H218  1  0.259700  0.883200  0.381800  1.0  0.0525
  H  H219  1  0.308600  0.915900  0.328100  1.0  0.1132
  H  H220  1  0.348500  0.904100  0.296900  1.0  0.1259
  H  H221  1  0.305000  0.875600  0.295500  1.0  0.1217
  H  H222  1  0.389500  0.791300  0.354000  1.0  0.1129
  H  H223  1  0.358200  0.793600  0.312500  1.0  0.1168
  H  H224  1  0.401700  0.822100  0.313900  1.0  0.122
  H  H225  1  0.047300  0.206800  0.209100  1.0  0.0739
  H  H226  1  0.054000  0.268000  0.250900  1.0  0.0752
  H  H227  1  0.094300  0.327500  0.225900  1.0  0.0856
  H  H228  1  0.118200  0.259700  0.116800  1.0  0.0533
  H  H229  1  0.171900  0.308600  0.084100  1.0  0.1171
  H  H230  1  0.203100  0.348500  0.095900  1.0  0.1249
  H  H231  1  0.204500  0.305000  0.124400  1.0  0.1213
  H  H232  1  0.146000  0.389500  0.208700  1.0  0.1123
  H  H233  1  0.187500  0.358200  0.206400  1.0  0.1162
  H  H234  1  0.186100  0.401700  0.177900  1.0  0.1224
  H  H235  1  0.547300  0.706800  0.709100  1.0  0.0739
  H  H236  1  0.554000  0.768000  0.750900  1.0  0.0752
  H  H237  1  0.594300  0.827500  0.725900  1.0  0.0856
  H  H238  1  0.618200  0.759700  0.616800  1.0  0.0533
  H  H239  1  0.671900  0.808600  0.584100  1.0  0.1171
  H  H240  1  0.703100  0.848500  0.595900  1.0  0.1249
  H  H241  1  0.704500  0.805000  0.624400  1.0  0.1213
  H  H242  1  0.646000  0.889500  0.708700  1.0  0.1123
  H  H243  1  0.687500  0.858200  0.706400  1.0  0.1162
  H  H244  1  0.686100  0.901700  0.677900  1.0  0.1224
  H  H245  1  0.547300  0.293200  0.790900  1.0  0.0735
  H  H246  1  0.554000  0.232000  0.749100  1.0  0.0753
  H  H247  1  0.594300  0.172500  0.774100  1.0  0.0853
  H  H248  1  0.618200  0.240300  0.883200  1.0  0.0537
  H  H249  1  0.671900  0.191400  0.915900  1.0  0.1161
  H  H250  1  0.703100  0.151500  0.904100  1.0  0.1252
  H  H251  1  0.704500  0.195000  0.875600  1.0  0.1216
  H  H252  1  0.646000  0.110500  0.791300  1.0  0.1128
  H  H253  1  0.687500  0.141800  0.793600  1.0  0.1166
  H  H254  1  0.686100  0.098300  0.822100  1.0  0.1232
  H  H255  1  0.047300  0.793200  0.290900  1.0  0.0735
  H  H256  1  0.054000  0.732000  0.249100  1.0  0.0753
  H  H257  1  0.094300  0.672500  0.274100  1.0  0.0853
  H  H258  1  0.118200  0.740300  0.383200  1.0  0.0537
  H  H259  1  0.171900  0.691400  0.415900  1.0  0.1161
  H  H260  1  0.203100  0.651500  0.404100  1.0  0.1252
  H  H261  1  0.204500  0.695000  0.375600  1.0  0.1216
  H  H262  1  0.146000  0.610500  0.291300  1.0  0.1128
  H  H263  1  0.187500  0.641800  0.293600  1.0  0.1166
  H  H264  1  0.186100  0.598300  0.322100  1.0  0.1232
  H  H265  1  0.452700  0.793200  0.709100  1.0  0.0737
  H  H266  1  0.446000  0.732000  0.750900  1.0  0.0749
  H  H267  1  0.405700  0.672500  0.725900  1.0  0.0856
  H  H268  1  0.381800  0.740300  0.616800  1.0  0.053
  H  H269  1  0.328100  0.691400  0.584100  1.0  0.1165
  H  H270  1  0.296900  0.651500  0.595900  1.0  0.1245
  H  H271  1  0.295500  0.695000  0.624400  1.0  0.1212
  H  H272  1  0.354000  0.610500  0.708700  1.0  0.1129
  H  H273  1  0.312500  0.641800  0.706400  1.0  0.1159
  H  H274  1  0.313900  0.598300  0.677900  1.0  0.1228
  H  H275  1  0.952700  0.293200  0.209100  1.0  0.0737
  H  H276  1  0.946000  0.232000  0.250900  1.0  0.0749
  H  H277  1  0.905700  0.172500  0.225900  1.0  0.0856
  H  H278  1  0.881800  0.240300  0.116800  1.0  0.053
  H  H279  1  0.828100  0.191400  0.084100  1.0  0.1165
  H  H280  1  0.796900  0.151500  0.095900  1.0  0.1245
  H  H281  1  0.795500  0.195000  0.124400  1.0  0.1212
  H  H282  1  0.854000  0.110500  0.208700  1.0  0.1129
  H  H283  1  0.812500  0.141800  0.206400  1.0  0.1159
  H  H284  1  0.813900  0.098300  0.177900  1.0  0.1228
  H  H285  1  0.952700  0.706800  0.290900  1.0  0.0739
  H  H286  1  0.946000  0.768000  0.249100  1.0  0.0751
  H  H287  1  0.905700  0.827500  0.274100  1.0  0.0855
  H  H288  1  0.881800  0.759700  0.383200  1.0  0.0536
  H  H289  1  0.828100  0.808600  0.415900  1.0  0.117
  H  H290  1  0.796900  0.848500  0.404100  1.0  0.1249
  H  H291  1  0.795500  0.805000  0.375600  1.0  0.1214
  H  H292  1  0.854000  0.889500  0.291300  1.0  0.1124
  H  H293  1  0.812500  0.858200  0.293600  1.0  0.116
  H  H294  1  0.813900  0.901700  0.322100  1.0  0.1225
  H  H295  1  0.452700  0.206800  0.790900  1.0  0.0739
  H  H296  1  0.446000  0.268000  0.749100  1.0  0.0751
  H  H297  1  0.405700  0.327500  0.774100  1.0  0.0855
  H  H298  1  0.381800  0.259700  0.883200  1.0  0.0536
  H  H299  1  0.328100  0.308600  0.915900  1.0  0.117
  H  H300  1  0.296900  0.348500  0.904100  1.0  0.1249
  H  H301  1  0.295500  0.305000  0.875600  1.0  0.1214
  H  H302  1  0.354000  0.389500  0.791300  1.0  0.1124
  H  H303  1  0.312500  0.358200  0.793600  1.0  0.116
  H  H304  1  0.313900  0.401700  0.822100  1.0  0.1225
  H  H305  1  0.209100  0.047300  0.206800  1.0  0.0737
  H  H306  1  0.250900  0.054000  0.268000  1.0  0.0745
  H  H307  1  0.225900  0.094300  0.327500  1.0  0.0875
  H  H308  1  0.116800  0.118200  0.259700  1.0  0.0521
  H  H309  1  0.084100  0.171900  0.308600  1.0  0.1155
  H  H310  1  0.095900  0.203100  0.348500  1.0  0.1243
  H  H311  1  0.124400  0.204500  0.305000  1.0  0.1222
  H  H312  1  0.208700  0.146000  0.389500  1.0  0.113
  H  H313  1  0.206400  0.187500  0.358200  1.0  0.1166
  H  H314  1  0.177900  0.186100  0.401700  1.0  0.1227
  H  H315  1  0.709100  0.547300  0.706800  1.0  0.0737
  H  H316  1  0.750900  0.554000  0.768000  1.0  0.0745
  H  H317  1  0.725900  0.594300  0.827500  1.0  0.0875
  H  H318  1  0.616800  0.618200  0.759700  1.0  0.0521
  H  H319  1  0.584100  0.671900  0.808600  1.0  0.1155
  H  H320  1  0.595900  0.703100  0.848500  1.0  0.1243
  H  H321  1  0.624400  0.704500  0.805000  1.0  0.1222
  H  H322  1  0.708700  0.646000  0.889500  1.0  0.113
  H  H323  1  0.706400  0.687500  0.858200  1.0  0.1166
  H  H324  1  0.677900  0.686100  0.901700  1.0  0.1227
  H  H325  1  0.790900  0.547300  0.293200  1.0  0.0742
  H  H326  1  0.749100  0.554000  0.232000  1.0  0.0745
  H  H327  1  0.774100  0.594300  0.172500  1.0  0.0868
  H  H328  1  0.883200  0.618200  0.240300  1.0  0.0524
  H  H329  1  0.915900  0.671900  0.191400  1.0  0.1154
  H  H330  1  0.904100  0.703100  0.151500  1.0  0.1236
  H  H331  1  0.875600  0.704500  0.195000  1.0  0.1226
  H  H332  1  0.791300  0.646000  0.110500  1.0  0.1124
  H  H333  1  0.793600  0.687500  0.141800  1.0  0.1167
  H  H334  1  0.822100  0.686100  0.098300  1.0  0.1219
  H  H335  1  0.290900  0.047300  0.793200  1.0  0.0742
  H  H336  1  0.249100  0.054000  0.732000  1.0  0.0745
  H  H337  1  0.274100  0.094300  0.672500  1.0  0.0868
  H  H338  1  0.383200  0.118200  0.740300  1.0  0.0524
  H  H339  1  0.415900  0.171900  0.691400  1.0  0.1154
  H  H340  1  0.404100  0.203100  0.651500  1.0  0.1236
  H  H341  1  0.375600  0.204500  0.695000  1.0  0.1226
  H  H342  1  0.291300  0.146000  0.610500  1.0  0.1124
  H  H343  1  0.293600  0.187500  0.641800  1.0  0.1167
  H  H344  1  0.322100  0.186100  0.598300  1.0  0.1219
  H  H345  1  0.709100  0.452700  0.793200  1.0  0.0739
  H  H346  1  0.750900  0.446000  0.732000  1.0  0.0751
  H  H347  1  0.725900  0.405700  0.672500  1.0  0.0872
  H  H348  1  0.616800  0.381800  0.740300  1.0  0.0529
  H  H349  1  0.584100  0.328100  0.691400  1.0  0.1153
  H  H350  1  0.595900  0.296900  0.651500  1.0  0.1234
  H  H351  1  0.624400  0.295500  0.695000  1.0  0.1227
  H  H352  1  0.708700  0.354000  0.610500  1.0  0.1123
  H  H353  1  0.706400  0.312500  0.641800  1.0  0.117
  H  H354  1  0.677900  0.313900  0.598300  1.0  0.1219
  H  H355  1  0.209100  0.952700  0.293200  1.0  0.0739
  H  H356  1  0.250900  0.946000  0.232000  1.0  0.0751
  H  H357  1  0.225900  0.905700  0.172500  1.0  0.0872
  H  H358  1  0.116800  0.881800  0.240300  1.0  0.0529
  H  H359  1  0.084100  0.828100  0.191400  1.0  0.1153
  H  H360  1  0.095900  0.796900  0.151500  1.0  0.1234
  H  H361  1  0.124400  0.795500  0.195000  1.0  0.1227
  H  H362  1  0.208700  0.854000  0.110500  1.0  0.1123
  H  H363  1  0.206400  0.812500  0.141800  1.0  0.117
  H  H364  1  0.177900  0.813900  0.098300  1.0  0.1219
  H  H365  1  0.290900  0.952700  0.706800  1.0  0.0739
  H  H366  1  0.249100  0.946000  0.768000  1.0  0.0751
  H  H367  1  0.274100  0.905700  0.827500  1.0  0.0873
  H  H368  1  0.383200  0.881800  0.759700  1.0  0.0525
  H  H369  1  0.415900  0.828100  0.808600  1.0  0.1154
  H  H370  1  0.404100  0.796900  0.848500  1.0  0.1235
  H  H371  1  0.375600  0.795500  0.805000  1.0  0.1227
  H  H372  1  0.291300  0.854000  0.889500  1.0  0.1126
  H  H373  1  0.293600  0.812500  0.858200  1.0  0.1163
  H  H374  1  0.322100  0.813900  0.901700  1.0  0.1229
  H  H375  1  0.790900  0.452700  0.206800  1.0  0.0739
  H  H376  1  0.749100  0.446000  0.268000  1.0  0.0751
  H  H377  1  0.774100  0.405700  0.327500  1.0  0.0873
  H  H378  1  0.883200  0.381800  0.259700  1.0  0.0525
  H  H379  1  0.915900  0.328100  0.308600  1.0  0.1154
  H  H380  1  0.904100  0.296900  0.348500  1.0  0.1235
  H  H381  1  0.875600  0.295500  0.305000  1.0  0.1227
  H  H382  1  0.791300  0.354000  0.389500  1.0  0.1126
  H  H383  1  0.793600  0.312500  0.358200  1.0  0.1163
  H  H384  1  0.822100  0.313900  0.401700  1.0  0.1229
  H  H385  1  0.959100  0.456800  0.202700  1.0  0.0722
  H  H386  1  0.000900  0.518000  0.196000  1.0  0.0753
  H  H387  1  0.975900  0.577500  0.155700  1.0  0.0857
  H  H388  1  0.866800  0.509700  0.131800  1.0  0.052
  H  H389  1  0.834100  0.558600  0.078100  1.0  0.1143
  H  H390  1  0.845900  0.598500  0.046900  1.0  0.1247
  H  H391  1  0.874400  0.555000  0.045500  1.0  0.122
  H  H392  1  0.958700  0.639500  0.104000  1.0  0.1128
  H  H393  1  0.956400  0.608200  0.062500  1.0  0.1167
  H  H394  1  0.927900  0.651700  0.063900  1.0  0.1226
  H  H395  1  0.459100  0.956800  0.702700  1.0  0.0722
  H  H396  1  0.500900  0.018000  0.696000  1.0  0.0753
  H  H397  1  0.475900  0.077500  0.655700  1.0  0.0857
  H  H398  1  0.366800  0.009700  0.631800  1.0  0.052
  H  H399  1  0.334100  0.058600  0.578100  1.0  0.1143
  H  H400  1  0.345900  0.098500  0.546900  1.0  0.1247
  H  H401  1  0.374400  0.055000  0.545500  1.0  0.122
  H  H402  1  0.458700  0.139500  0.604000  1.0  0.1128
  H  H403  1  0.456400  0.108200  0.562500  1.0  0.1167
  H  H404  1  0.427900  0.151700  0.563900  1.0  0.1226
  H  H405  1  0.540900  0.543200  0.702700  1.0  0.0723
  H  H406  1  0.499100  0.482000  0.696000  1.0  0.075
  H  H407  1  0.524100  0.422500  0.655700  1.0  0.0855
  H  H408  1  0.633200  0.490300  0.631800  1.0  0.0521
  H  H409  1  0.665900  0.441400  0.578100  1.0  0.1137
  H  H410  1  0.654100  0.401500  0.546900  1.0  0.1245
  H  H411  1  0.625600  0.445000  0.545500  1.0  0.1226
  H  H412  1  0.541300  0.360500  0.604000  1.0  0.1132
  H  H413  1  0.543600  0.391800  0.562500  1.0  0.1167
  H  H414  1  0.572100  0.348300  0.563900  1.0  0.1228
  H  H415  1  0.040900  0.043200  0.202700  1.0  0.0723
  H  H416  1  0.999100  0.982000  0.196000  1.0  0.075
  H  H417  1  0.024100  0.922500  0.155700  1.0  0.0855
  H  H418  1  0.133200  0.990300  0.131800  1.0  0.0521
  H  H419  1  0.165900  0.941400  0.078100  1.0  0.1137
  H  H420  1  0.154100  0.901500  0.046900  1.0  0.1245
  H  H421  1  0.125600  0.945000  0.045500  1.0  0.1226
  H  H422  1  0.041300  0.860500  0.104000  1.0  0.1132
  H  H423  1  0.043600  0.891800  0.062500  1.0  0.1167
  H  H424  1  0.072100  0.848300  0.063900  1.0  0.1228
  H  H425  1  0.459100  0.043200  0.797300  1.0  0.0724
  H  H426  1  0.500900  0.982000  0.804000  1.0  0.0753
  H  H427  1  0.475900  0.922500  0.844300  1.0  0.0855
  H  H428  1  0.366800  0.990300  0.868200  1.0  0.0526
  H  H429  1  0.334100  0.941400  0.921900  1.0  0.115
  H  H430  1  0.345900  0.901500  0.953100  1.0  0.1242
  H  H431  1  0.374400  0.945000  0.954500  1.0  0.1218
  H  H432  1  0.458700  0.860500  0.896000  1.0  0.1122
  H  H433  1  0.456400  0.891800  0.937500  1.0  0.116
  H  H434  1  0.427900  0.848300  0.936100  1.0  0.1229
  H  H435  1  0.959100  0.543200  0.297300  1.0  0.0724
  H  H436  1  0.000900  0.482000  0.304000  1.0  0.0753
  H  H437  1  0.975900  0.422500  0.344300  1.0  0.0855
  H  H438  1  0.866800  0.490300  0.368200  1.0  0.0526
  H  H439  1  0.834100  0.441400  0.421900  1.0  0.115
  H  H440  1  0.845900  0.401500  0.453100  1.0  0.1242
  H  H441  1  0.874400  0.445000  0.454500  1.0  0.1218
  H  H442  1  0.958700  0.360500  0.396000  1.0  0.1122
  H  H443  1  0.956400  0.391800  0.437500  1.0  0.116
  H  H444  1  0.927900  0.348300  0.436100  1.0  0.1229
  H  H445  1  0.040900  0.956800  0.297300  1.0  0.0726
  H  H446  1  0.999100  0.018000  0.304000  1.0  0.0754
  H  H447  1  0.024100  0.077500  0.344300  1.0  0.0859
  H  H448  1  0.133200  0.009700  0.368200  1.0  0.0529
  H  H449  1  0.165900  0.058600  0.421900  1.0  0.1147
  H  H450  1  0.154100  0.098500  0.453100  1.0  0.1233
  H  H451  1  0.125600  0.055000  0.454500  1.0  0.1225
  H  H452  1  0.041300  0.139500  0.396000  1.0  0.112
  H  H453  1  0.043600  0.108200  0.437500  1.0  0.1162
  H  H454  1  0.072100  0.151700  0.436100  1.0  0.1218
  H  H455  1  0.540900  0.456800  0.797300  1.0  0.0726
  H  H456  1  0.499100  0.518000  0.804000  1.0  0.0754
  H  H457  1  0.524100  0.577500  0.844300  1.0  0.0859
  H  H458  1  0.633200  0.509700  0.868200  1.0  0.0529
  H  H459  1  0.665900  0.558600  0.921900  1.0  0.1147
  H  H460  1  0.654100  0.598500  0.953100  1.0  0.1233
  H  H461  1  0.625600  0.555000  0.954500  1.0  0.1225
  H  H462  1  0.541300  0.639500  0.896000  1.0  0.112
  H  H463  1  0.543600  0.608200  0.937500  1.0  0.1162
  H  H464  1  0.572100  0.651700  0.936100  1.0  0.1218
  H  H465  1  0.956800  0.297300  0.040900  1.0  0.0735
  H  H466  1  0.018000  0.304000  0.999100  1.0  0.0753
  H  H467  1  0.077500  0.344300  0.024100  1.0  0.0854
  H  H468  1  0.009700  0.368200  0.133200  1.0  0.053
  H  H469  1  0.058600  0.421900  0.165900  1.0  0.1153
  H  H470  1  0.098500  0.453100  0.154100  1.0  0.126
  H  H471  1  0.055000  0.454500  0.125600  1.0  0.1218
  H  H472  1  0.139500  0.396000  0.041300  1.0  0.1129
  H  H473  1  0.108200  0.437500  0.043600  1.0  0.1165
  H  H474  1  0.151700  0.436100  0.072100  1.0  0.1219
  H  H475  1  0.456800  0.797300  0.540900  1.0  0.0735
  H  H476  1  0.518000  0.804000  0.499100  1.0  0.0753
  H  H477  1  0.577500  0.844300  0.524100  1.0  0.0854
  H  H478  1  0.509700  0.868200  0.633200  1.0  0.053
  H  H479  1  0.558600  0.921900  0.665900  1.0  0.1153
  H  H480  1  0.598500  0.953100  0.654100  1.0  0.126
  H  H481  1  0.555000  0.954500  0.625600  1.0  0.1218
  H  H482  1  0.639500  0.896000  0.541300  1.0  0.1129
  H  H483  1  0.608200  0.937500  0.543600  1.0  0.1165
  H  H484  1  0.651700  0.936100  0.572100  1.0  0.1219
  H  H485  1  0.043200  0.797300  0.459100  1.0  0.0732
  H  H486  1  0.982000  0.804000  0.500900  1.0  0.075
  H  H487  1  0.922500  0.844300  0.475900  1.0  0.0855
  H  H488  1  0.990300  0.868200  0.366800  1.0  0.0526
  H  H489  1  0.941400  0.921900  0.334100  1.0  0.1164
  H  H490  1  0.901500  0.953100  0.345900  1.0  0.1258
  H  H491  1  0.945000  0.954500  0.374400  1.0  0.1204
  H  H492  1  0.860500  0.896000  0.458700  1.0  0.1128
  H  H493  1  0.891800  0.937500  0.456400  1.0  0.1155
  H  H494  1  0.848300  0.936100  0.427900  1.0  0.123
  H  H495  1  0.543200  0.297300  0.959100  1.0  0.0732
  H  H496  1  0.482000  0.304000  0.000900  1.0  0.075
  H  H497  1  0.422500  0.344300  0.975900  1.0  0.0855
  H  H498  1  0.490300  0.368200  0.866800  1.0  0.0526
  H  H499  1  0.441400  0.421900  0.834100  1.0  0.1164
  H  H500  1  0.401500  0.453100  0.845900  1.0  0.1258
  H  H501  1  0.445000  0.454500  0.874400  1.0  0.1204
  H  H502  1  0.360500  0.396000  0.958700  1.0  0.1128
  H  H503  1  0.391800  0.437500  0.956400  1.0  0.1155
  H  H504  1  0.348300  0.436100  0.927900  1.0  0.123
  H  H505  1  0.543200  0.702700  0.540900  1.0  0.0734
  H  H506  1  0.482000  0.696000  0.499100  1.0  0.0755
  H  H507  1  0.422500  0.655700  0.524100  1.0  0.0854
  H  H508  1  0.490300  0.631800  0.633200  1.0  0.0536
  H  H509  1  0.441400  0.578100  0.665900  1.0  0.1156
  H  H510  1  0.401500  0.546900  0.654100  1.0  0.1259
  H  H511  1  0.445000  0.545500  0.625600  1.0  0.1213
  H  H512  1  0.360500  0.604000  0.541300  1.0  0.1123
  H  H513  1  0.391800  0.562500  0.543600  1.0  0.1161
  H  H514  1  0.348300  0.563900  0.572100  1.0  0.1226
  H  H515  1  0.043200  0.202700  0.040900  1.0  0.0734
  H  H516  1  0.982000  0.196000  0.999100  1.0  0.0755
  H  H517  1  0.922500  0.155700  0.024100  1.0  0.0854
  H  H518  1  0.990300  0.131800  0.133200  1.0  0.0536
  H  H519  1  0.941400  0.078100  0.165900  1.0  0.1156
  H  H520  1  0.901500  0.046900  0.154100  1.0  0.1259
  H  H521  1  0.945000  0.045500  0.125600  1.0  0.1213
  H  H522  1  0.860500  0.104000  0.041300  1.0  0.1123
  H  H523  1  0.891800  0.062500  0.043600  1.0  0.1161
  H  H524  1  0.848300  0.063900  0.072100  1.0  0.1226
  H  H525  1  0.456800  0.202700  0.959100  1.0  0.0735
  H  H526  1  0.518000  0.196000  0.000900  1.0  0.0752
  H  H527  1  0.577500  0.155700  0.975900  1.0  0.0859
  H  H528  1  0.509700  0.131800  0.866800  1.0  0.053
  H  H529  1  0.558600  0.078100  0.834100  1.0  0.1155
  H  H530  1  0.598500  0.046900  0.845900  1.0  0.1262
  H  H531  1  0.555000  0.045500  0.874400  1.0  0.1212
  H  H532  1  0.639500  0.104000  0.958700  1.0  0.1116
  H  H533  1  0.608200  0.062500  0.956400  1.0  0.1161
  H  H534  1  0.651700  0.063900  0.927900  1.0  0.1217
  H  H535  1  0.956800  0.702700  0.459100  1.0  0.0735
  H  H536  1  0.018000  0.696000  0.500900  1.0  0.0752
  H  H537  1  0.077500  0.655700  0.475900  1.0  0.0859
  H  H538  1  0.009700  0.631800  0.366800  1.0  0.053
  H  H539  1  0.058600  0.578100  0.334100  1.0  0.1155
  H  H540  1  0.098500  0.546900  0.345900  1.0  0.1262
  H  H541  1  0.055000  0.545500  0.374400  1.0  0.1212
  H  H542  1  0.139500  0.604000  0.458700  1.0  0.1116
  H  H543  1  0.108200  0.562500  0.456400  1.0  0.1161
  H  H544  1  0.151700  0.563900  0.427900  1.0  0.1217
  H  H545  1  0.797300  0.459100  0.043200  1.0  0.0737
  H  H546  1  0.804000  0.500900  0.982000  1.0  0.0758
  H  H547  1  0.844300  0.475900  0.922500  1.0  0.0866
  H  H548  1  0.868200  0.366800  0.990300  1.0  0.0541
  H  H549  1  0.921900  0.334100  0.941400  1.0  0.116
  H  H550  1  0.953100  0.345900  0.901500  1.0  0.1237
  H  H551  1  0.954500  0.374400  0.945000  1.0  0.1221
  H  H552  1  0.896000  0.458700  0.860500  1.0  0.1126
  H  H553  1  0.937500  0.456400  0.891800  1.0  0.1168
  H  H554  1  0.936100  0.427900  0.848300  1.0  0.1224
  H  H555  1  0.297300  0.959100  0.543200  1.0  0.0737
  H  H556  1  0.304000  0.000900  0.482000  1.0  0.0758
  H  H557  1  0.344300  0.975900  0.422500  1.0  0.0866
  H  H558  1  0.368200  0.866800  0.490300  1.0  0.0541
  H  H559  1  0.421900  0.834100  0.441400  1.0  0.116
  H  H560  1  0.453100  0.845900  0.401500  1.0  0.1237
  H  H561  1  0.454500  0.874400  0.445000  1.0  0.1221
  H  H562  1  0.396000  0.958700  0.360500  1.0  0.1126
  H  H563  1  0.437500  0.956400  0.391800  1.0  0.1168
  H  H564  1  0.436100  0.927900  0.348300  1.0  0.1224
  H  H565  1  0.297300  0.040900  0.956800  1.0  0.0736
  H  H566  1  0.304000  0.999100  0.018000  1.0  0.0758
  H  H567  1  0.344300  0.024100  0.077500  1.0  0.087
  H  H568  1  0.368200  0.133200  0.009700  1.0  0.0531
  H  H569  1  0.421900  0.165900  0.058600  1.0  0.1153
  H  H570  1  0.453100  0.154100  0.098500  1.0  0.1242
  H  H571  1  0.454500  0.125600  0.055000  1.0  0.1224
  H  H572  1  0.396000  0.041300  0.139500  1.0  0.1129
  H  H573  1  0.437500  0.043600  0.108200  1.0  0.1169
  H  H574  1  0.436100  0.072100  0.151700  1.0  0.1228
  H  H575  1  0.797300  0.540900  0.456800  1.0  0.0736
  H  H576  1  0.804000  0.499100  0.518000  1.0  0.0758
  H  H577  1  0.844300  0.524100  0.577500  1.0  0.087
  H  H578  1  0.868200  0.633200  0.509700  1.0  0.0531
  H  H579  1  0.921900  0.665900  0.558600  1.0  0.1153
  H  H580  1  0.953100  0.654100  0.598500  1.0  0.1242
  H  H581  1  0.954500  0.625600  0.555000  1.0  0.1224
  H  H582  1  0.896000  0.541300  0.639500  1.0  0.1129
  H  H583  1  0.937500  0.543600  0.608200  1.0  0.1169
  H  H584  1  0.936100  0.572100  0.651700  1.0  0.1228
  H  H585  1  0.202700  0.959100  0.456800  1.0  0.0737
  H  H586  1  0.196000  0.000900  0.518000  1.0  0.0752
  H  H587  1  0.155700  0.975900  0.577500  1.0  0.0871
  H  H588  1  0.131800  0.866800  0.509700  1.0  0.0535
  H  H589  1  0.078100  0.834100  0.558600  1.0  0.1161
  H  H590  1  0.046900  0.845900  0.598500  1.0  0.1246
  H  H591  1  0.045500  0.874400  0.555000  1.0  0.1224
  H  H592  1  0.104000  0.958700  0.639500  1.0  0.1124
  H  H593  1  0.062500  0.956400  0.608200  1.0  0.1168
  H  H594  1  0.063900  0.927900  0.651700  1.0  0.1232
  H  H595  1  0.702700  0.459100  0.956800  1.0  0.0737
  H  H596  1  0.696000  0.500900  0.018000  1.0  0.0752
  H  H597  1  0.655700  0.475900  0.077500  1.0  0.0871
  H  H598  1  0.631800  0.366800  0.009700  1.0  0.0535
  H  H599  1  0.578100  0.334100  0.058600  1.0  0.1161
  H  H600  1  0.546900  0.345900  0.098500  1.0  0.1246
  H  H601  1  0.545500  0.374400  0.055000  1.0  0.1224
  H  H602  1  0.604000  0.458700  0.139500  1.0  0.1124
  H  H603  1  0.562500  0.456400  0.108200  1.0  0.1168
  H  H604  1  0.563900  0.427900  0.151700  1.0  0.1232
  H  H605  1  0.702700  0.540900  0.543200  1.0  0.074
  H  H606  1  0.696000  0.499100  0.482000  1.0  0.076
  H  H607  1  0.655700  0.524100  0.422500  1.0  0.0867
  H  H608  1  0.631800  0.633200  0.490300  1.0  0.0534
  H  H609  1  0.578100  0.665900  0.441400  1.0  0.1151
  H  H610  1  0.546900  0.654100  0.401500  1.0  0.1238
  H  H611  1  0.545500  0.625600  0.445000  1.0  0.1225
  H  H612  1  0.604000  0.541300  0.360500  1.0  0.1126
  H  H613  1  0.562500  0.543600  0.391800  1.0  0.1172
  H  H614  1  0.563900  0.572100  0.348300  1.0  0.122
  H  H615  1  0.202700  0.040900  0.043200  1.0  0.074
  H  H616  1  0.196000  0.999100  0.982000  1.0  0.076
  H  H617  1  0.155700  0.024100  0.922500  1.0  0.0867
  H  H618  1  0.131800  0.133200  0.990300  1.0  0.0534
  H  H619  1  0.078100  0.165900  0.941400  1.0  0.1151
  H  H620  1  0.046900  0.154100  0.901500  1.0  0.1238
  H  H621  1  0.045500  0.125600  0.945000  1.0  0.1225
  H  H622  1  0.104000  0.041300  0.860500  1.0  0.1126
  H  H623  1  0.062500  0.043600  0.891800  1.0  0.1172
  H  H624  1  0.063900  0.072100  0.848300  1.0  0.122
  H  H625  1  0.188500  0.061500  0.125000  1.0  0.3968
  H  H626  1  0.688500  0.561500  0.625000  1.0  0.3957
  H  H627  1  0.311500  0.938500  0.625000  1.0  0.3971
  H  H628  1  0.811500  0.561500  0.375000  1.0  0.3974
  H  H629  1  0.688500  0.438500  0.875000  1.0  0.3955
  H  H630  1  0.125000  0.188500  0.061500  1.0  0.4012
  H  H631  1  0.625000  0.688500  0.561500  1.0  0.4003
  H  H632  1  0.625000  0.311500  0.938500  1.0  0.4011
  H  H633  1  0.375000  0.811500  0.561500  1.0  0.4012
  H  H634  1  0.875000  0.688500  0.438500  1.0  0.4008
  H  H635  1  0.061500  0.125000  0.188500  1.0  0.397
  H  H636  1  0.561500  0.625000  0.688500  1.0  0.3959
  H  H637  1  0.938500  0.625000  0.311500  1.0  0.3941
  H  H638  1  0.561500  0.375000  0.811500  1.0  0.3963
  H  H639  1  0.438500  0.875000  0.688500  1.0  0.3948
  H  H640  1  0.811500  0.438500  0.125000  1.0  0.398
  H  H641  1  0.311500  0.061500  0.875000  1.0  0.3965
  H  H642  1  0.188500  0.938500  0.375000  1.0  0.3965
  H  H643  1  0.938500  0.375000  0.188500  1.0  0.3959
  H  H644  1  0.061500  0.875000  0.311500  1.0  0.3954
  H  H645  1  0.438500  0.125000  0.811500  1.0  0.3951
  H  H646  1  0.875000  0.311500  0.061500  1.0  0.4005
  H  H647  1  0.375000  0.188500  0.938500  1.0  0.4016
  H  H648  1  0.125000  0.811500  0.438500  1.0  0.4019
  H  H649  1  0.793200  0.790900  0.952700  1.0  0.0721
  H  H650  1  0.732000  0.749100  0.946000  1.0  0.0765
  H  H651  1  0.672500  0.774100  0.905700  1.0  0.0854
  H  H652  1  0.740300  0.883200  0.881800  1.0  0.0527
  H  H653  1  0.691400  0.915900  0.828100  1.0  0.1135
  H  H654  1  0.651500  0.904100  0.796900  1.0  0.1258
  H  H655  1  0.695000  0.875600  0.795500  1.0  0.1216
  H  H656  1  0.610500  0.791300  0.854000  1.0  0.113
  H  H657  1  0.641800  0.793600  0.812500  1.0  0.1165
  H  H658  1  0.598300  0.822100  0.813900  1.0  0.1228
  H  H659  1  0.293200  0.290900  0.452700  1.0  0.0721
  H  H660  1  0.232000  0.249100  0.446000  1.0  0.0765
  H  H661  1  0.172500  0.274100  0.405700  1.0  0.0854
  H  H662  1  0.240300  0.383200  0.381800  1.0  0.0527
  H  H663  1  0.191400  0.415900  0.328100  1.0  0.1135
  H  H664  1  0.151500  0.404100  0.296900  1.0  0.1258
  H  H665  1  0.195000  0.375600  0.295500  1.0  0.1216
  H  H666  1  0.110500  0.291300  0.354000  1.0  0.113
  H  H667  1  0.141800  0.293600  0.312500  1.0  0.1165
  H  H668  1  0.098300  0.322100  0.313900  1.0  0.1228
  H  H669  1  0.706800  0.209100  0.452700  1.0  0.0721
  H  H670  1  0.768000  0.250900  0.446000  1.0  0.0755
  H  H671  1  0.827500  0.225900  0.405700  1.0  0.0857
  H  H672  1  0.759700  0.116800  0.381800  1.0  0.0532
  H  H673  1  0.808600  0.084100  0.328100  1.0  0.1139
  H  H674  1  0.848500  0.095900  0.296900  1.0  0.1261
  H  H675  1  0.805000  0.124400  0.295500  1.0  0.1221
  H  H676  1  0.889500  0.208700  0.354000  1.0  0.1126
  H  H677  1  0.858200  0.206400  0.312500  1.0  0.1168
  H  H678  1  0.901700  0.177900  0.313900  1.0  0.1223
  H  H679  1  0.206800  0.709100  0.952700  1.0  0.0721
  H  H680  1  0.268000  0.750900  0.946000  1.0  0.0755
  H  H681  1  0.327500  0.725900  0.905700  1.0  0.0857
  H  H682  1  0.259700  0.616800  0.881800  1.0  0.0532
  H  H683  1  0.308600  0.584100  0.828100  1.0  0.1139
  H  H684  1  0.348500  0.595900  0.796900  1.0  0.1261
  H  H685  1  0.305000  0.624400  0.795500  1.0  0.1221
  H  H686  1  0.389500  0.708700  0.854000  1.0  0.1126
  H  H687  1  0.358200  0.706400  0.812500  1.0  0.1168
  H  H688  1  0.401700  0.677900  0.813900  1.0  0.1223
  H  H689  1  0.206800  0.290900  0.547300  1.0  0.0724
  H  H690  1  0.268000  0.249100  0.554000  1.0  0.0764
  H  H691  1  0.327500  0.274100  0.594300  1.0  0.0853
  H  H692  1  0.259700  0.383200  0.618200  1.0  0.0531
  H  H693  1  0.308600  0.415900  0.671900  1.0  0.114
  H  H694  1  0.348500  0.404100  0.703100  1.0  0.1255
  H  H695  1  0.305000  0.375600  0.704500  1.0  0.1219
  H  H696  1  0.389500  0.291300  0.646000  1.0  0.112
  H  H697  1  0.358200  0.293600  0.687500  1.0  0.1168
  H  H698  1  0.401700  0.322100  0.686100  1.0  0.1216
  H  H699  1  0.706800  0.790900  0.047300  1.0  0.0724
  H  H700  1  0.768000  0.749100  0.054000  1.0  0.0764
  H  H701  1  0.827500  0.774100  0.094300  1.0  0.0853
  H  H702  1  0.759700  0.883200  0.118200  1.0  0.0531
  H  H703  1  0.808600  0.915900  0.171900  1.0  0.114
  H  H704  1  0.848500  0.904100  0.203100  1.0  0.1255
  H  H705  1  0.805000  0.875600  0.204500  1.0  0.1218
  H  H706  1  0.889500  0.791300  0.146000  1.0  0.112
  H  H707  1  0.858200  0.793600  0.187500  1.0  0.1168
  H  H708  1  0.901700  0.822100  0.186100  1.0  0.1216
  H  H709  1  0.293200  0.709100  0.047300  1.0  0.0722
  H  H710  1  0.232000  0.750900  0.054000  1.0  0.0761
  H  H711  1  0.172500  0.725900  0.094300  1.0  0.0856
  H  H712  1  0.240300  0.616800  0.118200  1.0  0.0538
  H  H713  1  0.191400  0.584100  0.171900  1.0  0.1152
  H  H714  1  0.151500  0.595900  0.203100  1.0  0.1252
  H  H715  1  0.195000  0.624400  0.204500  1.0  0.1213
  H  H716  1  0.110500  0.708700  0.146000  1.0  0.1121
  H  H717  1  0.141800  0.706400  0.187500  1.0  0.116
  H  H718  1  0.098300  0.677900  0.186100  1.0  0.123
  H  H719  1  0.793200  0.209100  0.547300  1.0  0.0722
  H  H720  1  0.732000  0.250900  0.554000  1.0  0.0761
  H  H721  1  0.672500  0.225900  0.594300  1.0  0.0856
  H  H722  1  0.740300  0.116800  0.618200  1.0  0.0538
  H  H723  1  0.691400  0.084100  0.671900  1.0  0.1152
  H  H724  1  0.651500  0.095900  0.703100  1.0  0.1252
  H  H725  1  0.695000  0.124400  0.704500  1.0  0.1213
  H  H726  1  0.610500  0.208700  0.646000  1.0  0.1121
  H  H727  1  0.641800  0.206400  0.687500  1.0  0.116
  H  H728  1  0.598300  0.177900  0.686100  1.0  0.123
  H  H729  1  0.952700  0.793200  0.790900  1.0  0.0739
  H  H730  1  0.946000  0.732000  0.749100  1.0  0.0748
  H  H731  1  0.905700  0.672500  0.774100  1.0  0.0854
  H  H732  1  0.881800  0.740300  0.883200  1.0  0.0535
  H  H733  1  0.828100  0.691400  0.915900  1.0  0.1165
  H  H734  1  0.796900  0.651500  0.904100  1.0  0.125
  H  H735  1  0.795500  0.695000  0.875600  1.0  0.1219
  H  H736  1  0.854000  0.610500  0.791300  1.0  0.1126
  H  H737  1  0.812500  0.641800  0.793600  1.0  0.1166
  H  H738  1  0.813900  0.598300  0.822100  1.0  0.1229
  H  H739  1  0.452700  0.293200  0.290900  1.0  0.0739
  H  H740  1  0.446000  0.232000  0.249100  1.0  0.0748
  H  H741  1  0.405700  0.172500  0.274100  1.0  0.0854
  H  H742  1  0.381800  0.240300  0.383200  1.0  0.0535
  H  H743  1  0.328100  0.191400  0.415900  1.0  0.1165
  H  H744  1  0.296900  0.151500  0.404100  1.0  0.125
  H  H745  1  0.295500  0.195000  0.375600  1.0  0.1219
  H  H746  1  0.354000  0.110500  0.291300  1.0  0.1126
  H  H747  1  0.312500  0.141800  0.293600  1.0  0.1166
  H  H748  1  0.313900  0.098300  0.322100  1.0  0.1229
  H  H749  1  0.452700  0.706800  0.209100  1.0  0.0738
  H  H750  1  0.446000  0.768000  0.250900  1.0  0.0749
  H  H751  1  0.405700  0.827500  0.225900  1.0  0.0854
  H  H752  1  0.381800  0.759700  0.116800  1.0  0.053
  H  H753  1  0.328100  0.808600  0.084100  1.0  0.1169
  H  H754  1  0.296900  0.848500  0.095900  1.0  0.125
  H  H755  1  0.295500  0.805000  0.124400  1.0  0.1213
  H  H756  1  0.354000  0.889500  0.208700  1.0  0.1123
  H  H757  1  0.312500  0.858200  0.206400  1.0  0.1159
  H  H758  1  0.313900  0.901700  0.177900  1.0  0.1229
  H  H759  1  0.952700  0.206800  0.709100  1.0  0.0738
  H  H760  1  0.946000  0.268000  0.750900  1.0  0.0749
  H  H761  1  0.905700  0.327500  0.725900  1.0  0.0854
  H  H762  1  0.881800  0.259700  0.616800  1.0  0.053
  H  H763  1  0.828100  0.308600  0.584100  1.0  0.1169
  H  H764  1  0.796900  0.348500  0.595900  1.0  0.125
  H  H765  1  0.795500  0.305000  0.624400  1.0  0.1213
  H  H766  1  0.854000  0.389500  0.708700  1.0  0.1123
  H  H767  1  0.812500  0.358200  0.706400  1.0  0.1159
  H  H768  1  0.813900  0.401700  0.677900  1.0  0.1229
  H  H769  1  0.547300  0.206800  0.290900  1.0  0.0738
  H  H770  1  0.554000  0.268000  0.249100  1.0  0.0753
  H  H771  1  0.594300  0.327500  0.274100  1.0  0.0853
  H  H772  1  0.618200  0.259700  0.383200  1.0  0.0539
  H  H773  1  0.671900  0.308600  0.415900  1.0  0.1166
  H  H774  1  0.703100  0.348500  0.404100  1.0  0.1246
  H  H775  1  0.704500  0.305000  0.375600  1.0  0.1216
  H  H776  1  0.646000  0.389500  0.291300  1.0  0.1126
  H  H777  1  0.687500  0.358200  0.293600  1.0  0.1166
  H  H778  1  0.686100  0.401700  0.322100  1.0  0.1224
  H  H779  1  0.047300  0.706800  0.790900  1.0  0.0738
  H  H780  1  0.054000  0.768000  0.749100  1.0  0.0753
  H  H781  1  0.094300  0.827500  0.774100  1.0  0.0853
  H  H782  1  0.118200  0.759700  0.883200  1.0  0.0539
  H  H783  1  0.171900  0.808600  0.915900  1.0  0.1166
  H  H784  1  0.203100  0.848500  0.904100  1.0  0.1246
  H  H785  1  0.204500  0.805000  0.875600  1.0  0.1216
  H  H786  1  0.146000  0.889500  0.791300  1.0  0.1126
  H  H787  1  0.187500  0.858200  0.793600  1.0  0.1166
  H  H788  1  0.186100  0.901700  0.822100  1.0  0.1224
  H  H789  1  0.047300  0.293200  0.709100  1.0  0.0736
  H  H790  1  0.054000  0.232000  0.750900  1.0  0.0751
  H  H791  1  0.094300  0.172500  0.725900  1.0  0.0857
  H  H792  1  0.118200  0.240300  0.616800  1.0  0.0531
  H  H793  1  0.171900  0.191400  0.584100  1.0  0.1167
  H  H794  1  0.203100  0.151500  0.595900  1.0  0.1252
  H  H795  1  0.204500  0.195000  0.624400  1.0  0.1208
  H  H796  1  0.146000  0.110500  0.708700  1.0  0.1128
  H  H797  1  0.187500  0.141800  0.706400  1.0  0.1157
  H  H798  1  0.186100  0.098300  0.677900  1.0  0.1229
  H  H799  1  0.547300  0.793200  0.209100  1.0  0.0736
  H  H800  1  0.554000  0.732000  0.250900  1.0  0.0751
  H  H801  1  0.594300  0.672500  0.225900  1.0  0.0857
  H  H802  1  0.618200  0.740300  0.116800  1.0  0.0531
  H  H803  1  0.671900  0.691400  0.084100  1.0  0.1167
  H  H804  1  0.703100  0.651500  0.095900  1.0  0.1252
  H  H805  1  0.704500  0.695000  0.124400  1.0  0.1208
  H  H806  1  0.646000  0.610500  0.208700  1.0  0.1128
  H  H807  1  0.687500  0.641800  0.206400  1.0  0.1157
  H  H808  1  0.686100  0.598300  0.177900  1.0  0.1229
  H  H809  1  0.790900  0.952700  0.793200  1.0  0.0739
  H  H810  1  0.749100  0.946000  0.732000  1.0  0.0749
  H  H811  1  0.774100  0.905700  0.672500  1.0  0.087
  H  H812  1  0.883200  0.881800  0.740300  1.0  0.053
  H  H813  1  0.915900  0.828100  0.691400  1.0  0.1151
  H  H814  1  0.904100  0.796900  0.651500  1.0  0.1231
  H  H815  1  0.875600  0.795500  0.695000  1.0  0.1229
  H  H816  1  0.791300  0.854000  0.610500  1.0  0.1125
  H  H817  1  0.793600  0.812500  0.641800  1.0  0.1168
  H  H818  1  0.822100  0.813900  0.598300  1.0  0.1218
  H  H819  1  0.290900  0.452700  0.293200  1.0  0.0739
  H  H820  1  0.249100  0.446000  0.232000  1.0  0.0749
  H  H821  1  0.274100  0.405700  0.172500  1.0  0.087
  H  H822  1  0.383200  0.381800  0.240300  1.0  0.053
  H  H823  1  0.415900  0.328100  0.191400  1.0  0.1151
  H  H824  1  0.404100  0.296900  0.151500  1.0  0.1231
  H  H825  1  0.375600  0.295500  0.195000  1.0  0.1229
  H  H826  1  0.291300  0.354000  0.110500  1.0  0.1125
  H  H827  1  0.293600  0.312500  0.141800  1.0  0.1168
  H  H828  1  0.322100  0.313900  0.098300  1.0  0.1218
  H  H829  1  0.209100  0.452700  0.706800  1.0  0.0737
  H  H830  1  0.250900  0.446000  0.768000  1.0  0.0748
  H  H831  1  0.225900  0.405700  0.827500  1.0  0.0874
  H  H832  1  0.116800  0.381800  0.759700  1.0  0.0525
  H  H833  1  0.084100  0.328100  0.808600  1.0  0.1153
  H  H834  1  0.095900  0.296900  0.848500  1.0  0.1244
  H  H835  1  0.124400  0.295500  0.805000  1.0  0.1224
  H  H836  1  0.208700  0.354000  0.889500  1.0  0.1119
  H  H837  1  0.206400  0.312500  0.858200  1.0  0.1167
  H  H838  1  0.177900  0.313900  0.901700  1.0  0.1228
  H  H839  1  0.709100  0.952700  0.206800  1.0  0.0737
  H  H840  1  0.750900  0.946000  0.268000  1.0  0.0748
  H  H841  1  0.725900  0.905700  0.327500  1.0  0.0874
  H  H842  1  0.616800  0.881800  0.259700  1.0  0.0525
  H  H843  1  0.584100  0.828100  0.308600  1.0  0.1153
  H  H844  1  0.595900  0.796900  0.348500  1.0  0.1244
  H  H845  1  0.624400  0.795500  0.305000  1.0  0.1224
  H  H846  1  0.708700  0.854000  0.389500  1.0  0.1119
  H  H847  1  0.706400  0.812500  0.358200  1.0  0.1167
  H  H848  1  0.677900  0.813900  0.401700  1.0  0.1228
  H  H849  1  0.290900  0.547300  0.206800  1.0  0.0739
  H  H850  1  0.249100  0.554000  0.268000  1.0  0.0743
  H  H851  1  0.274100  0.594300  0.327500  1.0  0.0871
  H  H852  1  0.383200  0.618200  0.259700  1.0  0.0521
  H  H853  1  0.415900  0.671900  0.308600  1.0  0.1157
  H  H854  1  0.404100  0.703100  0.348500  1.0  0.1235
  H  H855  1  0.375600  0.704500  0.305000  1.0  0.1227
  H  H856  1  0.291300  0.646000  0.389500  1.0  0.113
  H  H857  1  0.293600  0.687500  0.358200  1.0  0.1166
  H  H858  1  0.322100  0.686100  0.401700  1.0  0.1227
  H  H859  1  0.790900  0.047300  0.706800  1.0  0.0739
  H  H860  1  0.749100  0.054000  0.768000  1.0  0.0743
  H  H861  1  0.774100  0.094300  0.827500  1.0  0.0871
  H  H862  1  0.883200  0.118200  0.759700  1.0  0.0521
  H  H863  1  0.915900  0.171900  0.808600  1.0  0.1157
  H  H864  1  0.904100  0.203100  0.848500  1.0  0.1235
  H  H865  1  0.875600  0.204500  0.805000  1.0  0.1227
  H  H866  1  0.791300  0.146000  0.889500  1.0  0.113
  H  H867  1  0.793600  0.187500  0.858200  1.0  0.1166
  H  H868  1  0.822100  0.186100  0.901700  1.0  0.1227
  H  H869  1  0.709100  0.047300  0.293200  1.0  0.0739
  H  H870  1  0.750900  0.054000  0.232000  1.0  0.0747
  H  H871  1  0.725900  0.094300  0.172500  1.0  0.0867
  H  H872  1  0.616800  0.118200  0.240300  1.0  0.0524
  H  H873  1  0.584100  0.171900  0.191400  1.0  0.1155
  H  H874  1  0.595900  0.203100  0.151500  1.0  0.1238
  H  H875  1  0.624400  0.204500  0.195000  1.0  0.1223
  H  H876  1  0.708700  0.146000  0.110500  1.0  0.1129
  H  H877  1  0.706400  0.187500  0.141800  1.0  0.1167
  H  H878  1  0.677900  0.186100  0.098300  1.0  0.1221
  H  H879  1  0.209100  0.547300  0.793200  1.0  0.0739
  H  H880  1  0.250900  0.554000  0.732000  1.0  0.0747
  H  H881  1  0.225900  0.594300  0.672500  1.0  0.0867
  H  H882  1  0.116800  0.618200  0.740300  1.0  0.0524
  H  H883  1  0.084100  0.671900  0.691400  1.0  0.1155
  H  H884  1  0.095900  0.703100  0.651500  1.0  0.1238
  H  H885  1  0.124400  0.704500  0.695000  1.0  0.1223
  H  H886  1  0.208700  0.646000  0.610500  1.0  0.1129
  H  H887  1  0.206400  0.687500  0.641800  1.0  0.1167
  H  H888  1  0.177900  0.686100  0.598300  1.0  0.1221
  H  H889  1  0.040900  0.543200  0.797300  1.0  0.0726
  H  H890  1  0.999100  0.482000  0.804000  1.0  0.0751
  H  H891  1  0.024100  0.422500  0.844300  1.0  0.0852
  H  H892  1  0.133200  0.490300  0.868200  1.0  0.0526
  H  H893  1  0.165900  0.441400  0.921900  1.0  0.1146
  H  H894  1  0.154100  0.401500  0.953100  1.0  0.1242
  H  H895  1  0.125600  0.445000  0.954500  1.0  0.1224
  H  H896  1  0.041300  0.360500  0.896000  1.0  0.1123
  H  H897  1  0.043600  0.391800  0.937500  1.0  0.1161
  H  H898  1  0.072100  0.348300  0.936100  1.0  0.123
  H  H899  1  0.540900  0.043200  0.297300  1.0  0.0726
  H  H900  1  0.499100  0.982000  0.304000  1.0  0.0751
  H  H901  1  0.524100  0.922500  0.344300  1.0  0.0852
  H  H902  1  0.633200  0.990300  0.368200  1.0  0.0526
  H  H903  1  0.665900  0.941400  0.421900  1.0  0.1146
  H  H904  1  0.654100  0.901500  0.453100  1.0  0.1242
  H  H905  1  0.625600  0.945000  0.454500  1.0  0.1224
  H  H906  1  0.541300  0.860500  0.396000  1.0  0.1123
  H  H907  1  0.543600  0.891800  0.437500  1.0  0.1161
  H  H908  1  0.572100  0.848300  0.436100  1.0  0.123
  H  H909  1  0.459100  0.456800  0.297300  1.0  0.0725
  H  H910  1  0.500900  0.518000  0.304000  1.0  0.0754
  H  H911  1  0.475900  0.577500  0.344300  1.0  0.0858
  H  H912  1  0.366800  0.509700  0.368200  1.0  0.0527
  H  H913  1  0.334100  0.558600  0.421900  1.0  0.1149
  H  H914  1  0.345900  0.598500  0.453100  1.0  0.1239
  H  H915  1  0.374400  0.555000  0.454500  1.0  0.1222
  H  H916  1  0.458700  0.639500  0.396000  1.0  0.1119
  H  H917  1  0.456400  0.608200  0.437500  1.0  0.1165
  H  H918  1  0.427900  0.651700  0.436100  1.0  0.1221
  H  H919  1  0.959100  0.956800  0.797300  1.0  0.0725
  H  H920  1  0.000900  0.018000  0.804000  1.0  0.0754
  H  H921  1  0.975900  0.077500  0.844300  1.0  0.0858
  H  H922  1  0.866800  0.009700  0.868200  1.0  0.0527
  H  H923  1  0.834100  0.058600  0.921900  1.0  0.1149
  H  H924  1  0.845900  0.098500  0.953100  1.0  0.1239
  H  H925  1  0.874400  0.055000  0.954500  1.0  0.1222
  H  H926  1  0.958700  0.139500  0.896000  1.0  0.1119
  H  H927  1  0.956400  0.108200  0.937500  1.0  0.1165
  H  H928  1  0.927900  0.151700  0.936100  1.0  0.1221
  H  H929  1  0.540900  0.956800  0.202700  1.0  0.0725
  H  H930  1  0.499100  0.018000  0.196000  1.0  0.0748
  H  H931  1  0.524100  0.077500  0.155700  1.0  0.0858
  H  H932  1  0.633200  0.009700  0.131800  1.0  0.0522
  H  H933  1  0.665900  0.058600  0.078100  1.0  0.1141
  H  H934  1  0.654100  0.098500  0.046900  1.0  0.1242
  H  H935  1  0.625600  0.055000  0.045500  1.0  0.1223
  H  H936  1  0.541300  0.139500  0.104000  1.0  0.1128
  H  H937  1  0.543600  0.108200  0.062500  1.0  0.1163
  H  H938  1  0.572100  0.151700  0.063900  1.0  0.1222
  H  H939  1  0.040900  0.456800  0.702700  1.0  0.0725
  H  H940  1  0.999100  0.518000  0.696000  1.0  0.0748
  H  H941  1  0.024100  0.577500  0.655700  1.0  0.0858
  H  H942  1  0.133200  0.509700  0.631800  1.0  0.0522
  H  H943  1  0.165900  0.558600  0.578100  1.0  0.1141
  H  H944  1  0.154100  0.598500  0.546900  1.0  0.1242
  H  H945  1  0.125600  0.555000  0.545500  1.0  0.1223
  H  H946  1  0.041300  0.639500  0.604000  1.0  0.1128
  H  H947  1  0.043600  0.608200  0.562500  1.0  0.1163
  H  H948  1  0.072100  0.651700  0.563900  1.0  0.1222
  H  H949  1  0.959100  0.043200  0.702700  1.0  0.072
  H  H950  1  0.000900  0.982000  0.696000  1.0  0.0751
  H  H951  1  0.975900  0.922500  0.655700  1.0  0.0859
  H  H952  1  0.866800  0.990300  0.631800  1.0  0.0521
  H  H953  1  0.834100  0.941400  0.578100  1.0  0.1143
  H  H954  1  0.845900  0.901500  0.546900  1.0  0.124
  H  H955  1  0.874400  0.945000  0.545500  1.0  0.122
  H  H956  1  0.958700  0.860500  0.604000  1.0  0.1133
  H  H957  1  0.956400  0.891800  0.562500  1.0  0.1167
  H  H958  1  0.927900  0.848300  0.563900  1.0  0.1229
  H  H959  1  0.459100  0.543200  0.202700  1.0  0.072
  H  H960  1  0.500900  0.482000  0.196000  1.0  0.0751
  H  H961  1  0.475900  0.422500  0.155700  1.0  0.0859
  H  H962  1  0.366800  0.490300  0.131800  1.0  0.0521
  H  H963  1  0.334100  0.441400  0.078100  1.0  0.1143
  H  H964  1  0.345900  0.401500  0.046900  1.0  0.124
  H  H965  1  0.374400  0.445000  0.045500  1.0  0.122
  H  H966  1  0.458700  0.360500  0.104000  1.0  0.1133
  H  H967  1  0.456400  0.391800  0.062500  1.0  0.1167
  H  H968  1  0.427900  0.348300  0.063900  1.0  0.1229
  H  H969  1  0.043200  0.702700  0.959100  1.0  0.0732
  H  H970  1  0.982000  0.696000  0.000900  1.0  0.0751
  H  H971  1  0.922500  0.655700  0.975900  1.0  0.0855
  H  H972  1  0.990300  0.631800  0.866800  1.0  0.053
  H  H973  1  0.941400  0.578100  0.834100  1.0  0.116
  H  H974  1  0.901500  0.546900  0.845900  1.0  0.1257
  H  H975  1  0.945000  0.545500  0.874400  1.0  0.1209
  H  H976  1  0.860500  0.604000  0.958700  1.0  0.1121
  H  H977  1  0.891800  0.562500  0.956400  1.0  0.116
  H  H978  1  0.848300  0.563900  0.927900  1.0  0.1225
  H  H979  1  0.543200  0.202700  0.459100  1.0  0.0732
  H  H980  1  0.482000  0.196000  0.500900  1.0  0.0751
  H  H981  1  0.422500  0.155700  0.475900  1.0  0.0855
  H  H982  1  0.490300  0.131800  0.366800  1.0  0.053
  H  H983  1  0.441400  0.078100  0.334100  1.0  0.116
  H  H984  1  0.401500  0.046900  0.345900  1.0  0.1257
  H  H985  1  0.445000  0.045500  0.374400  1.0  0.1209
  H  H986  1  0.360500  0.104000  0.458700  1.0  0.1121
  H  H987  1  0.391800  0.062500  0.456400  1.0  0.116
  H  H988  1  0.348300  0.063900  0.427900  1.0  0.1225
  H  H989  1  0.956800  0.202700  0.540900  1.0  0.0737
  H  H990  1  0.018000  0.196000  0.499100  1.0  0.0753
  H  H991  1  0.077500  0.155700  0.524100  1.0  0.0853
  H  H992  1  0.009700  0.131800  0.633200  1.0  0.0536
  H  H993  1  0.058600  0.078100  0.665900  1.0  0.1152
  H  H994  1  0.098500  0.046900  0.654100  1.0  0.1264
  H  H995  1  0.055000  0.045500  0.625600  1.0  0.1213
  H  H996  1  0.139500  0.104000  0.541300  1.0  0.1122
  H  H997  1  0.108200  0.062500  0.543600  1.0  0.1161
  H  H998  1  0.151700  0.063900  0.572100  1.0  0.122
  H  H999  1  0.456800  0.702700  0.040900  1.0  0.0737
  H  H1000  1  0.518000  0.696000  0.999100  1.0  0.0753
  H  H1001  1  0.577500  0.655700  0.024100  1.0  0.0853
  H  H1002  1  0.509700  0.631800  0.133200  1.0  0.0536
  H  H1003  1  0.558600  0.578100  0.165900  1.0  0.1152
  H  H1004  1  0.598500  0.546900  0.154100  1.0  0.1264
  H  H1005  1  0.555000  0.545500  0.125600  1.0  0.1213
  H  H1006  1  0.639500  0.604000  0.041300  1.0  0.1122
  H  H1007  1  0.608200  0.562500  0.043600  1.0  0.1161
  H  H1008  1  0.651700  0.563900  0.072100  1.0  0.122
  H  H1009  1  0.456800  0.297300  0.459100  1.0  0.0735
  H  H1010  1  0.518000  0.304000  0.500900  1.0  0.0749
  H  H1011  1  0.577500  0.344300  0.475900  1.0  0.0857
  H  H1012  1  0.509700  0.368200  0.366800  1.0  0.0524
  H  H1013  1  0.558600  0.421900  0.334100  1.0  0.1157
  H  H1014  1  0.598500  0.453100  0.345900  1.0  0.1261
  H  H1015  1  0.555000  0.454500  0.374400  1.0  0.1211
  H  H1016  1  0.639500  0.396000  0.458700  1.0  0.1128
  H  H1017  1  0.608200  0.437500  0.456400  1.0  0.1159
  H  H1018  1  0.651700  0.436100  0.427900  1.0  0.122
  H  H1019  1  0.956800  0.797300  0.959100  1.0  0.0735
  H  H1020  1  0.018000  0.804000  0.000900  1.0  0.0749
  H  H1021  1  0.077500  0.844300  0.975900  1.0  0.0857
  H  H1022  1  0.009700  0.868200  0.866800  1.0  0.0524
  H  H1023  1  0.058600  0.921900  0.834100  1.0  0.1157
  H  H1024  1  0.098500  0.953100  0.845900  1.0  0.1261
  H  H1025  1  0.055000  0.954500  0.874400  1.0  0.1211
  H  H1026  1  0.139500  0.896000  0.958700  1.0  0.1128
  H  H1027  1  0.108200  0.937500  0.956400  1.0  0.1159
  H  H1028  1  0.151700  0.936100  0.927900  1.0  0.122
  H  H1029  1  0.543200  0.797300  0.040900  1.0  0.0733
  H  H1030  1  0.482000  0.804000  0.999100  1.0  0.0753
  H  H1031  1  0.422500  0.844300  0.024100  1.0  0.0851
  H  H1032  1  0.490300  0.868200  0.133200  1.0  0.0533
  H  H1033  1  0.441400  0.921900  0.165900  1.0  0.1158
  H  H1034  1  0.401500  0.953100  0.154100  1.0  0.1258
  H  H1035  1  0.445000  0.954500  0.125600  1.0  0.1213
  H  H1036  1  0.360500  0.896000  0.041300  1.0  0.1124
  H  H1037  1  0.391800  0.937500  0.043600  1.0  0.1161
  H  H1038  1  0.348300  0.936100  0.072100  1.0  0.1228
  H  H1039  1  0.043200  0.297300  0.540900  1.0  0.0733
  H  H1040  1  0.982000  0.304000  0.499100  1.0  0.0753
  H  H1041  1  0.922500  0.344300  0.524100  1.0  0.0851
  H  H1042  1  0.990300  0.368200  0.633200  1.0  0.0533
  H  H1043  1  0.941400  0.421900  0.665900  1.0  0.1158
  H  H1044  1  0.901500  0.453100  0.654100  1.0  0.1258
  H  H1045  1  0.945000  0.454500  0.625600  1.0  0.1213
  H  H1046  1  0.860500  0.396000  0.541300  1.0  0.1124
  H  H1047  1  0.891800  0.437500  0.543600  1.0  0.1161
  H  H1048  1  0.848300  0.436100  0.572100  1.0  0.1228
  H  H1049  1  0.202700  0.540900  0.956800  1.0  0.0739
  H  H1050  1  0.196000  0.499100  0.018000  1.0  0.0756
  H  H1051  1  0.155700  0.524100  0.077500  1.0  0.087
  H  H1052  1  0.131800  0.633200  0.009700  1.0  0.0529
  H  H1053  1  0.078100  0.665900  0.058600  1.0  0.1152
  H  H1054  1  0.046900  0.654100  0.098500  1.0  0.1245
  H  H1055  1  0.045500  0.625600  0.055000  1.0  0.1222
  H  H1056  1  0.104000  0.541300  0.139500  1.0  0.1129
  H  H1057  1  0.062500  0.543600  0.108200  1.0  0.1168
  H  H1058  1  0.063900  0.572100  0.151700  1.0  0.1228
  H  H1059  1  0.702700  0.040900  0.456800  1.0  0.0739
  H  H1060  1  0.696000  0.999100  0.518000  1.0  0.0756
  H  H1061  1  0.655700  0.024100  0.577500  1.0  0.087
  H  H1062  1  0.631800  0.133200  0.509700  1.0  0.0529
  H  H1063  1  0.578100  0.165900  0.558600  1.0  0.1152
  H  H1064  1  0.546900  0.154100  0.598500  1.0  0.1245
  H  H1065  1  0.545500  0.125600  0.555000  1.0  0.1223
  H  H1066  1  0.604000  0.041300  0.639500  1.0  0.1129
  H  H1067  1  0.562500  0.043600  0.608200  1.0  0.1168
  H  H1068  1  0.563900  0.072100  0.651700  1.0  0.1228
  H  H1069  1  0.702700  0.959100  0.043200  1.0  0.0738
  H  H1070  1  0.696000  0.000900  0.982000  1.0  0.0752
  H  H1071  1  0.655700  0.975900  0.922500  1.0  0.0867
  H  H1072  1  0.631800  0.866800  0.990300  1.0  0.054
  H  H1073  1  0.578100  0.834100  0.941400  1.0  0.1161
  H  H1074  1  0.546900  0.845900  0.901500  1.0  0.1237
  H  H1075  1  0.545500  0.874400  0.945000  1.0  0.1224
  H  H1076  1  0.604000  0.958700  0.860500  1.0  0.1125
  H  H1077  1  0.562500  0.956400  0.891800  1.0  0.1169
  H  H1078  1  0.563900  0.927900  0.848300  1.0  0.1222
  H  H1079  1  0.202700  0.459100  0.543200  1.0  0.0738
  H  H1080  1  0.196000  0.500900  0.482000  1.0  0.0752
  H  H1081  1  0.155700  0.475900  0.422500  1.0  0.0867
  H  H1082  1  0.131800  0.366800  0.490300  1.0  0.054
  H  H1083  1  0.078100  0.334100  0.441400  1.0  0.1161
  H  H1084  1  0.046900  0.345900  0.401500  1.0  0.1237
  H  H1085  1  0.045500  0.374400  0.445000  1.0  0.1224
  H  H1086  1  0.104000  0.458700  0.360500  1.0  0.1125
  H  H1087  1  0.062500  0.456400  0.391800  1.0  0.1169
  H  H1088  1  0.063900  0.427900  0.348300  1.0  0.1222
  H  H1089  1  0.797300  0.040900  0.543200  1.0  0.0739
  H  H1090  1  0.804000  0.999100  0.482000  1.0  0.0757
  H  H1091  1  0.844300  0.024100  0.422500  1.0  0.0864
  H  H1092  1  0.868200  0.133200  0.490300  1.0  0.0535
  H  H1093  1  0.921900  0.165900  0.441400  1.0  0.115
  H  H1094  1  0.953100  0.154100  0.401500  1.0  0.124
  H  H1095  1  0.954500  0.125600  0.445000  1.0  0.1226
  H  H1096  1  0.896000  0.041300  0.360500  1.0  0.1127
  H  H1097  1  0.937500  0.043600  0.391800  1.0  0.1171
  H  H1098  1  0.936100  0.072100  0.348300  1.0  0.122
  H  H1099  1  0.297300  0.540900  0.043200  1.0  0.0739
  H  H1100  1  0.304000  0.499100  0.982000  1.0  0.0757
  H  H1101  1  0.344300  0.524100  0.922500  1.0  0.0864
  H  H1102  1  0.368200  0.633200  0.990300  1.0  0.0535
  H  H1103  1  0.421900  0.665900  0.941400  1.0  0.115
  H  H1104  1  0.453100  0.654100  0.901500  1.0  0.124
  H  H1105  1  0.454500  0.625600  0.945000  1.0  0.1225
  H  H1106  1  0.396000  0.541300  0.860500  1.0  0.1127
  H  H1107  1  0.437500  0.543600  0.891800  1.0  0.1171
  H  H1108  1  0.436100  0.572100  0.848300  1.0  0.122
  H  H1109  1  0.297300  0.459100  0.456800  1.0  0.0735
  H  H1110  1  0.304000  0.500900  0.518000  1.0  0.0757
  H  H1111  1  0.344300  0.475900  0.577500  1.0  0.0869
  H  H1112  1  0.368200  0.366800  0.509700  1.0  0.0538
  H  H1113  1  0.421900  0.334100  0.558600  1.0  0.1162
  H  H1114  1  0.453100  0.345900  0.598500  1.0  0.1241
  H  H1115  1  0.454500  0.374400  0.555000  1.0  0.1222
  H  H1116  1  0.396000  0.458700  0.639500  1.0  0.1125
  H  H1117  1  0.437500  0.456400  0.608200  1.0  0.1169
  H  H1118  1  0.436100  0.427900  0.651700  1.0  0.1233
  H  H1119  1  0.797300  0.959100  0.956800  1.0  0.0735
  H  H1120  1  0.804000  0.000900  0.018000  1.0  0.0757
  H  H1121  1  0.844300  0.975900  0.077500  1.0  0.0869
  H  H1122  1  0.868200  0.866800  0.009700  1.0  0.0538
  H  H1123  1  0.921900  0.834100  0.058600  1.0  0.1162
  H  H1124  1  0.953100  0.845900  0.098500  1.0  0.1241
  H  H1125  1  0.954500  0.874400  0.055000  1.0  0.1222
  H  H1126  1  0.896000  0.958700  0.139500  1.0  0.1125
  H  H1127  1  0.937500  0.956400  0.108200  1.0  0.1169
  H  H1128  1  0.936100  0.927900  0.151700  1.0  0.1233
  H  H1129  1  0.811500  0.938500  0.875000  1.0  0.3982
  H  H1130  1  0.311500  0.438500  0.375000  1.0  0.3972
  H  H1131  1  0.688500  0.061500  0.375000  1.0  0.3958
  H  H1132  1  0.188500  0.438500  0.625000  1.0  0.3963
  H  H1133  1  0.311500  0.561500  0.125000  1.0  0.3964
  H  H1134  1  0.875000  0.811500  0.938500  1.0  0.402
  H  H1135  1  0.375000  0.311500  0.438500  1.0  0.4011
  H  H1136  1  0.375000  0.688500  0.061500  1.0  0.4003
  H  H1137  1  0.625000  0.188500  0.438500  1.0  0.4015
  H  H1138  1  0.125000  0.311500  0.561500  1.0  0.4004
  H  H1139  1  0.938500  0.875000  0.811500  1.0  0.3951
  H  H1140  1  0.438500  0.375000  0.311500  1.0  0.3941
  H  H1141  1  0.061500  0.375000  0.688500  1.0  0.3959
  H  H1142  1  0.438500  0.625000  0.188500  1.0  0.3958
  H  H1143  1  0.561500  0.125000  0.311500  1.0  0.3953
  H  H1144  1  0.188500  0.561500  0.875000  1.0  0.3967
  H  H1145  1  0.688500  0.938500  0.125000  1.0  0.3956
  H  H1146  1  0.811500  0.061500  0.625000  1.0  0.3974
  H  H1147  1  0.061500  0.625000  0.811500  1.0  0.3964
  H  H1148  1  0.938500  0.125000  0.688500  1.0  0.3949
  H  H1149  1  0.561500  0.875000  0.188500  1.0  0.3969
  H  H1150  1  0.125000  0.688500  0.938500  1.0  0.4008
  H  H1151  1  0.625000  0.811500  0.061500  1.0  0.4013
  H  H1152  1  0.875000  0.188500  0.561500  1.0  0.4011
  C  C1153  1  0.230800  0.198400  0.063600  1.0  0.1016
  C  C1154  1  0.266900  0.223200  0.067600  1.0  -0.1528
  C  C1155  1  0.302200  0.208400  0.091500  1.0  -0.1005
  C  C1156  1  0.300600  0.167800  0.111200  1.0  -0.3016
  C  C1157  1  0.261900  0.144600  0.105100  1.0  0.1634
  C  C1158  1  0.324600  0.107900  0.185700  1.0  -0.7702
  C  C1159  1  0.377800  0.189700  0.168700  1.0  -0.7877
  C  C1160  1  0.730800  0.698400  0.563600  1.0  0.1016
  C  C1161  1  0.766900  0.723200  0.567600  1.0  -0.1528
  C  C1162  1  0.802200  0.708400  0.591500  1.0  -0.1005
  C  C1163  1  0.800600  0.667800  0.611200  1.0  -0.3017
  C  C1164  1  0.761900  0.644600  0.605100  1.0  0.1634
  C  C1165  1  0.824600  0.607900  0.685700  1.0  -0.7702
  C  C1166  1  0.877800  0.689700  0.668700  1.0  -0.7877
  C  C1167  1  0.269200  0.801600  0.563600  1.0  0.1019
  C  C1168  1  0.233100  0.776800  0.567600  1.0  -0.1521
  C  C1169  1  0.197800  0.791600  0.591500  1.0  -0.0998
  C  C1170  1  0.199400  0.832200  0.611200  1.0  -0.3014
  C  C1171  1  0.238100  0.855400  0.605100  1.0  0.1638
  C  C1172  1  0.175400  0.892100  0.685700  1.0  -0.7685
  C  C1173  1  0.122200  0.810300  0.668700  1.0  -0.7858
  C  C1174  1  0.769200  0.301600  0.063600  1.0  0.1019
  C  C1175  1  0.733100  0.276800  0.067600  1.0  -0.1521
  C  C1176  1  0.697800  0.291600  0.091500  1.0  -0.0998
  C  C1177  1  0.699400  0.332200  0.111200  1.0  -0.3014
  C  C1178  1  0.738100  0.355400  0.105100  1.0  0.1638
  C  C1179  1  0.675400  0.392100  0.185700  1.0  -0.7685
  C  C1180  1  0.622200  0.310300  0.168700  1.0  -0.7858
  C  C1181  1  0.769200  0.698400  0.436400  1.0  0.1009
  C  C1182  1  0.733100  0.723200  0.432400  1.0  -0.1532
  C  C1183  1  0.697800  0.708400  0.408500  1.0  -0.1007
  C  C1184  1  0.699400  0.667800  0.388800  1.0  -0.3021
  C  C1185  1  0.738100  0.644600  0.394900  1.0  0.1635
  C  C1186  1  0.675400  0.607900  0.314300  1.0  -0.7692
  C  C1187  1  0.622200  0.689700  0.331300  1.0  -0.7872
  C  C1188  1  0.269200  0.198400  0.936400  1.0  0.1009
  C  C1189  1  0.233100  0.223200  0.932400  1.0  -0.1532
  C  C1190  1  0.197800  0.208400  0.908500  1.0  -0.1007
  C  C1191  1  0.199400  0.167800  0.888800  1.0  -0.3021
  C  C1192  1  0.238100  0.144600  0.894900  1.0  0.1635
  C  C1193  1  0.175400  0.107900  0.814300  1.0  -0.7692
  C  C1194  1  0.122200  0.189700  0.831300  1.0  -0.7872
  C  C1195  1  0.730800  0.301600  0.936400  1.0  0.1021
  C  C1196  1  0.766900  0.276800  0.932400  1.0  -0.152
  C  C1197  1  0.802200  0.291600  0.908500  1.0  -0.1
  C  C1198  1  0.800600  0.332200  0.888800  1.0  -0.3018
  C  C1199  1  0.761900  0.355400  0.894900  1.0  0.1638
  C  C1200  1  0.824600  0.392100  0.814300  1.0  -0.7695
  C  C1201  1  0.877800  0.310300  0.831300  1.0  -0.786
  C  C1202  1  0.230800  0.801600  0.436400  1.0  0.1021
  C  C1203  1  0.266900  0.776800  0.432400  1.0  -0.152
  C  C1204  1  0.302200  0.791600  0.408500  1.0  -0.1
  C  C1205  1  0.300600  0.832200  0.388800  1.0  -0.3018
  C  C1206  1  0.261900  0.855400  0.394900  1.0  0.1638
  C  C1207  1  0.324600  0.892100  0.314300  1.0  -0.7695
  C  C1208  1  0.377800  0.810300  0.331300  1.0  -0.786
  C  C1209  1  0.063600  0.230800  0.198400  1.0  0.1027
  C  C1210  1  0.067600  0.266900  0.223200  1.0  -0.1564
  C  C1211  1  0.091500  0.302200  0.208400  1.0  -0.0998
  C  C1212  1  0.111200  0.300600  0.167800  1.0  -0.301
  C  C1213  1  0.105100  0.261900  0.144600  1.0  0.1646
  C  C1214  1  0.185700  0.324600  0.107900  1.0  -0.7638
  C  C1215  1  0.168700  0.377800  0.189700  1.0  -0.7957
  C  C1216  1  0.563600  0.730800  0.698400  1.0  0.1027
  C  C1217  1  0.567600  0.766900  0.723200  1.0  -0.1564
  C  C1218  1  0.591500  0.802200  0.708400  1.0  -0.0998
  C  C1219  1  0.611200  0.800600  0.667800  1.0  -0.301
  C  C1220  1  0.605100  0.761900  0.644600  1.0  0.1646
  C  C1221  1  0.685700  0.824600  0.607900  1.0  -0.7638
  C  C1222  1  0.668700  0.877800  0.689700  1.0  -0.7957
  C  C1223  1  0.563600  0.269200  0.801600  1.0  0.1024
  C  C1224  1  0.567600  0.233100  0.776800  1.0  -0.1555
  C  C1225  1  0.591500  0.197800  0.791600  1.0  -0.0997
  C  C1226  1  0.611200  0.199400  0.832200  1.0  -0.3006
  C  C1227  1  0.605100  0.238100  0.855400  1.0  0.1657
  C  C1228  1  0.685700  0.175400  0.892100  1.0  -0.7636
  C  C1229  1  0.668700  0.122200  0.810300  1.0  -0.7989
  C  C1230  1  0.063600  0.769200  0.301600  1.0  0.1024
  C  C1231  1  0.067600  0.733100  0.276800  1.0  -0.1555
  C  C1232  1  0.091500  0.697800  0.291600  1.0  -0.0997
  C  C1233  1  0.111200  0.699400  0.332200  1.0  -0.3006
  C  C1234  1  0.105100  0.738100  0.355400  1.0  0.1657
  C  C1235  1  0.185700  0.675400  0.392100  1.0  -0.7636
  C  C1236  1  0.168700  0.622200  0.310300  1.0  -0.7989
  C  C1237  1  0.436400  0.769200  0.698400  1.0  0.1017
  C  C1238  1  0.432400  0.733100  0.723200  1.0  -0.1551
  C  C1239  1  0.408500  0.697800  0.708400  1.0  -0.099
  C  C1240  1  0.388800  0.699400  0.667800  1.0  -0.3016
  C  C1241  1  0.394900  0.738100  0.644600  1.0  0.1649
  C  C1242  1  0.314300  0.675400  0.607900  1.0  -0.7636
  C  C1243  1  0.331300  0.622200  0.689700  1.0  -0.7966
  C  C1244  1  0.936400  0.269200  0.198400  1.0  0.1017
  C  C1245  1  0.932400  0.233100  0.223200  1.0  -0.1551
  C  C1246  1  0.908500  0.197800  0.208400  1.0  -0.099
  C  C1247  1  0.888800  0.199400  0.167800  1.0  -0.3016
  C  C1248  1  0.894900  0.238100  0.144600  1.0  0.1649
  C  C1249  1  0.814300  0.175400  0.107900  1.0  -0.7636
  C  C1250  1  0.831300  0.122200  0.189700  1.0  -0.7966
  C  C1251  1  0.936400  0.730800  0.301600  1.0  0.1015
  C  C1252  1  0.932400  0.766900  0.276800  1.0  -0.1548
  C  C1253  1  0.908500  0.802200  0.291600  1.0  -0.1005
  C  C1254  1  0.888800  0.800600  0.332200  1.0  -0.3014
  C  C1255  1  0.894900  0.761900  0.355400  1.0  0.1655
  C  C1256  1  0.814300  0.824600  0.392100  1.0  -0.7642
  C  C1257  1  0.831300  0.877800  0.310300  1.0  -0.798
  C  C1258  1  0.436400  0.230800  0.801600  1.0  0.1015
  C  C1259  1  0.432400  0.266900  0.776800  1.0  -0.1548
  C  C1260  1  0.408500  0.302200  0.791600  1.0  -0.1005
  C  C1261  1  0.388800  0.300600  0.832200  1.0  -0.3014
  C  C1262  1  0.394900  0.261900  0.855400  1.0  0.1655
  C  C1263  1  0.314300  0.324600  0.892100  1.0  -0.7642
  C  C1264  1  0.331300  0.377800  0.810300  1.0  -0.798
  C  C1265  1  0.198400  0.063600  0.230800  1.0  0.1032
  C  C1266  1  0.223200  0.067600  0.266900  1.0  -0.1548
  C  C1267  1  0.208400  0.091500  0.302200  1.0  -0.0949
  C  C1268  1  0.167800  0.111200  0.300600  1.0  -0.3041
  C  C1269  1  0.144600  0.105100  0.261900  1.0  0.1654
  C  C1270  1  0.107900  0.185700  0.324600  1.0  -0.7632
  C  C1271  1  0.189700  0.168700  0.377800  1.0  -0.7861
  C  C1272  1  0.698400  0.563600  0.730800  1.0  0.1032
  C  C1273  1  0.723200  0.567600  0.766900  1.0  -0.1548
  C  C1274  1  0.708400  0.591500  0.802200  1.0  -0.0949
  C  C1275  1  0.667800  0.611200  0.800600  1.0  -0.3041
  C  C1276  1  0.644600  0.605100  0.761900  1.0  0.1654
  C  C1277  1  0.607900  0.685700  0.824600  1.0  -0.7632
  C  C1278  1  0.689700  0.668700  0.877800  1.0  -0.7861
  C  C1279  1  0.801600  0.563600  0.269200  1.0  0.1035
  C  C1280  1  0.776800  0.567600  0.233100  1.0  -0.1562
  C  C1281  1  0.791600  0.591500  0.197800  1.0  -0.097
  C  C1282  1  0.832200  0.611200  0.199400  1.0  -0.3043
  C  C1283  1  0.855400  0.605100  0.238100  1.0  0.165
  C  C1284  1  0.892100  0.685700  0.175400  1.0  -0.7649
  C  C1285  1  0.810300  0.668700  0.122200  1.0  -0.7856
  C  C1286  1  0.301600  0.063600  0.769200  1.0  0.1035
  C  C1287  1  0.276800  0.067600  0.733100  1.0  -0.1562
  C  C1288  1  0.291600  0.091500  0.697800  1.0  -0.097
  C  C1289  1  0.332200  0.111200  0.699400  1.0  -0.3043
  C  C1290  1  0.355400  0.105100  0.738100  1.0  0.165
  C  C1291  1  0.392100  0.185700  0.675400  1.0  -0.7649
  C  C1292  1  0.310300  0.168700  0.622200  1.0  -0.7856
  C  C1293  1  0.698400  0.436400  0.769200  1.0  0.1029
  C  C1294  1  0.723200  0.432400  0.733100  1.0  -0.1557
  C  C1295  1  0.708400  0.408500  0.697800  1.0  -0.0972
  C  C1296  1  0.667800  0.388800  0.699400  1.0  -0.3048
  C  C1297  1  0.644600  0.394900  0.738100  1.0  0.1655
  C  C1298  1  0.607900  0.314300  0.675400  1.0  -0.764
  C  C1299  1  0.689700  0.331300  0.622200  1.0  -0.7865
  C  C1300  1  0.198400  0.936400  0.269200  1.0  0.1029
  C  C1301  1  0.223200  0.932400  0.233100  1.0  -0.1557
  C  C1302  1  0.208400  0.908500  0.197800  1.0  -0.0972
  C  C1303  1  0.167800  0.888800  0.199400  1.0  -0.3048
  C  C1304  1  0.144600  0.894900  0.238100  1.0  0.1655
  C  C1305  1  0.107900  0.814300  0.175400  1.0  -0.764
  C  C1306  1  0.189700  0.831300  0.122200  1.0  -0.7865
  C  C1307  1  0.301600  0.936400  0.730800  1.0  0.1053
  C  C1308  1  0.276800  0.932400  0.766900  1.0  -0.1571
  C  C1309  1  0.291600  0.908500  0.802200  1.0  -0.0959
  C  C1310  1  0.332200  0.888800  0.800600  1.0  -0.3037
  C  C1311  1  0.355400  0.894900  0.761900  1.0  0.1653
  C  C1312  1  0.392100  0.814300  0.824600  1.0  -0.7639
  C  C1313  1  0.310300  0.831300  0.877800  1.0  -0.7862
  C  C1314  1  0.801600  0.436400  0.230800  1.0  0.1053
  C  C1315  1  0.776800  0.432400  0.266900  1.0  -0.1571
  C  C1316  1  0.791600  0.408500  0.302200  1.0  -0.0959
  C  C1317  1  0.832200  0.388800  0.300600  1.0  -0.3037
  C  C1318  1  0.855400  0.394900  0.261900  1.0  0.1653
  C  C1319  1  0.892100  0.314300  0.324600  1.0  -0.7639
  C  C1320  1  0.810300  0.331300  0.377800  1.0  -0.7862
  C  C1321  1  0.948400  0.480800  0.186400  1.0  0.1019
  C  C1322  1  0.973200  0.516900  0.182400  1.0  -0.1551
  C  C1323  1  0.958400  0.552200  0.158500  1.0  -0.0996
  C  C1324  1  0.917800  0.550600  0.138800  1.0  -0.3028
  C  C1325  1  0.894600  0.511900  0.144900  1.0  0.1657
  C  C1326  1  0.857900  0.574600  0.064300  1.0  -0.7686
  C  C1327  1  0.939700  0.627800  0.081300  1.0  -0.7858
  C  C1328  1  0.448400  0.980800  0.686400  1.0  0.1019
  C  C1329  1  0.473200  0.016900  0.682400  1.0  -0.1551
  C  C1330  1  0.458400  0.052200  0.658500  1.0  -0.0996
  C  C1331  1  0.417800  0.050600  0.638800  1.0  -0.3028
  C  C1332  1  0.394600  0.011900  0.644900  1.0  0.1657
  C  C1333  1  0.357900  0.074600  0.564300  1.0  -0.7686
  C  C1334  1  0.439700  0.127800  0.581300  1.0  -0.7858
  C  C1335  1  0.551600  0.519200  0.686400  1.0  0.1023
  C  C1336  1  0.526800  0.483100  0.682400  1.0  -0.1562
  C  C1337  1  0.541600  0.447800  0.658500  1.0  -0.0997
  C  C1338  1  0.582200  0.449400  0.638800  1.0  -0.3024
  C  C1339  1  0.605400  0.488100  0.644900  1.0  0.1658
  C  C1340  1  0.642100  0.425400  0.564300  1.0  -0.7693
  C  C1341  1  0.560300  0.372200  0.581300  1.0  -0.7854
  C  C1342  1  0.051600  0.019200  0.186400  1.0  0.1023
  C  C1343  1  0.026800  0.983100  0.182400  1.0  -0.1562
  C  C1344  1  0.041600  0.947800  0.158500  1.0  -0.0997
  C  C1345  1  0.082200  0.949400  0.138800  1.0  -0.3024
  C  C1346  1  0.105400  0.988100  0.144900  1.0  0.1658
  C  C1347  1  0.142100  0.925400  0.064300  1.0  -0.7693
  C  C1348  1  0.060300  0.872200  0.081300  1.0  -0.7854
  C  C1349  1  0.448400  0.019200  0.813600  1.0  0.1023
  C  C1350  1  0.473200  0.983100  0.817600  1.0  -0.1545
  C  C1351  1  0.458400  0.947800  0.841500  1.0  -0.0991
  C  C1352  1  0.417800  0.949400  0.861200  1.0  -0.3016
  C  C1353  1  0.394600  0.988100  0.855100  1.0  0.1656
  C  C1354  1  0.357900  0.925400  0.935700  1.0  -0.7678
  C  C1355  1  0.439700  0.872200  0.918700  1.0  -0.786
  C  C1356  1  0.948400  0.519200  0.313600  1.0  0.1023
  C  C1357  1  0.973200  0.483100  0.317600  1.0  -0.1545
  C  C1358  1  0.958400  0.447800  0.341500  1.0  -0.0991
  C  C1359  1  0.917800  0.449400  0.361200  1.0  -0.3016
  C  C1360  1  0.894600  0.488100  0.355100  1.0  0.1656
  C  C1361  1  0.857900  0.425400  0.435700  1.0  -0.7678
  C  C1362  1  0.939700  0.372200  0.418700  1.0  -0.786
  C  C1363  1  0.051600  0.980800  0.313600  1.0  0.1028
  C  C1364  1  0.026800  0.016900  0.317600  1.0  -0.1566
  C  C1365  1  0.041600  0.052200  0.341500  1.0  -0.0998
  C  C1366  1  0.082200  0.050600  0.361200  1.0  -0.3018
  C  C1367  1  0.105400  0.011900  0.355100  1.0  0.1654
  C  C1368  1  0.142100  0.074600  0.435700  1.0  -0.7691
  C  C1369  1  0.060300  0.127800  0.418700  1.0  -0.7856
  C  C1370  1  0.551600  0.480800  0.813600  1.0  0.1028
  C  C1371  1  0.526800  0.516900  0.817600  1.0  -0.1566
  C  C1372  1  0.541600  0.552200  0.841500  1.0  -0.0998
  C  C1373  1  0.582200  0.550600  0.861200  1.0  -0.3018
  C  C1374  1  0.605400  0.511900  0.855100  1.0  0.1654
  C  C1375  1  0.642100  0.574600  0.935700  1.0  -0.7691
  C  C1376  1  0.560300  0.627800  0.918700  1.0  -0.7856
  C  C1377  1  0.980800  0.313600  0.051600  1.0  0.1008
  C  C1378  1  0.016900  0.317600  0.026800  1.0  -0.1523
  C  C1379  1  0.052200  0.341500  0.041600  1.0  -0.1006
  C  C1380  1  0.050600  0.361200  0.082200  1.0  -0.3022
  C  C1381  1  0.011900  0.355100  0.105400  1.0  0.1644
  C  C1382  1  0.074600  0.435700  0.142100  1.0  -0.7648
  C  C1383  1  0.127800  0.418700  0.060300  1.0  -0.7984
  C  C1384  1  0.480800  0.813600  0.551600  1.0  0.1008
  C  C1385  1  0.516900  0.817600  0.526800  1.0  -0.1523
  C  C1386  1  0.552200  0.841500  0.541600  1.0  -0.1006
  C  C1387  1  0.550600  0.861200  0.582200  1.0  -0.3022
  C  C1388  1  0.511900  0.855100  0.605400  1.0  0.1644
  C  C1389  1  0.574600  0.935700  0.642100  1.0  -0.7648
  C  C1390  1  0.627800  0.918700  0.560300  1.0  -0.7984
  C  C1391  1  0.019200  0.813600  0.448400  1.0  0.1008
  C  C1392  1  0.983100  0.817600  0.473200  1.0  -0.1527
  C  C1393  1  0.947800  0.841500  0.458400  1.0  -0.0996
  C  C1394  1  0.949400  0.861200  0.417800  1.0  -0.3023
  C  C1395  1  0.988100  0.855100  0.394600  1.0  0.1642
  C  C1396  1  0.925400  0.935700  0.357900  1.0  -0.7643
  C  C1397  1  0.872200  0.918700  0.439700  1.0  -0.796
  C  C1398  1  0.519200  0.313600  0.948400  1.0  0.1008
  C  C1399  1  0.483100  0.317600  0.973200  1.0  -0.1527
  C  C1400  1  0.447800  0.341500  0.958400  1.0  -0.0996
  C  C1401  1  0.449400  0.361200  0.917800  1.0  -0.3023
  C  C1402  1  0.488100  0.355100  0.894600  1.0  0.1642
  C  C1403  1  0.425400  0.435700  0.857900  1.0  -0.7643
  C  C1404  1  0.372200  0.418700  0.939700  1.0  -0.796
  C  C1405  1  0.519200  0.686400  0.551600  1.0  0.1011
  C  C1406  1  0.483100  0.682400  0.526800  1.0  -0.1526
  C  C1407  1  0.447800  0.658500  0.541600  1.0  -0.1008
  C  C1408  1  0.449400  0.638800  0.582200  1.0  -0.3021
  C  C1409  1  0.488100  0.644900  0.605400  1.0  0.165
  C  C1410  1  0.425400  0.564300  0.642100  1.0  -0.7643
  C  C1411  1  0.372200  0.581300  0.560300  1.0  -0.7981
  C  C1412  1  0.019200  0.186400  0.051600  1.0  0.1011
  C  C1413  1  0.983100  0.182400  0.026800  1.0  -0.1526
  C  C1414  1  0.947800  0.158500  0.041600  1.0  -0.1008
  C  C1415  1  0.949400  0.138800  0.082200  1.0  -0.3021
  C  C1416  1  0.988100  0.144900  0.105400  1.0  0.165
  C  C1417  1  0.925400  0.064300  0.142100  1.0  -0.7643
  C  C1418  1  0.872200  0.081300  0.060300  1.0  -0.7981
  C  C1419  1  0.480800  0.186400  0.948400  1.0  0.1018
  C  C1420  1  0.516900  0.182400  0.973200  1.0  -0.1534
  C  C1421  1  0.552200  0.158500  0.958400  1.0  -0.0996
  C  C1422  1  0.550600  0.138800  0.917800  1.0  -0.3024
  C  C1423  1  0.511900  0.144900  0.894600  1.0  0.1637
  C  C1424  1  0.574600  0.064300  0.857900  1.0  -0.7641
  C  C1425  1  0.627800  0.081300  0.939700  1.0  -0.7964
  C  C1426  1  0.980800  0.686400  0.448400  1.0  0.1018
  C  C1427  1  0.016900  0.682400  0.473200  1.0  -0.1534
  C  C1428  1  0.052200  0.658500  0.458400  1.0  -0.0996
  C  C1429  1  0.050600  0.638800  0.417800  1.0  -0.3024
  C  C1430  1  0.011900  0.644900  0.394600  1.0  0.1637
  C  C1431  1  0.074600  0.564300  0.357900  1.0  -0.7641
  C  C1432  1  0.127800  0.581300  0.439700  1.0  -0.7964
  C  C1433  1  0.813600  0.448400  0.019200  1.0  0.1034
  C  C1434  1  0.817600  0.473200  0.983100  1.0  -0.1563
  C  C1435  1  0.841500  0.458400  0.947800  1.0  -0.0973
  C  C1436  1  0.861200  0.417800  0.949400  1.0  -0.3029
  C  C1437  1  0.855100  0.394600  0.988100  1.0  0.1636
  C  C1438  1  0.935700  0.357900  0.925400  1.0  -0.7647
  C  C1439  1  0.918700  0.439700  0.872200  1.0  -0.7879
  C  C1440  1  0.313600  0.948400  0.519200  1.0  0.1034
  C  C1441  1  0.317600  0.973200  0.483100  1.0  -0.1563
  C  C1442  1  0.341500  0.958400  0.447800  1.0  -0.0973
  C  C1443  1  0.361200  0.917800  0.449400  1.0  -0.3029
  C  C1444  1  0.355100  0.894600  0.488100  1.0  0.1636
  C  C1445  1  0.435700  0.857900  0.425400  1.0  -0.7647
  C  C1446  1  0.418700  0.939700  0.372200  1.0  -0.7879
  C  C1447  1  0.313600  0.051600  0.980800  1.0  0.1052
  C  C1448  1  0.317600  0.026800  0.016900  1.0  -0.1554
  C  C1449  1  0.341500  0.041600  0.052200  1.0  -0.0952
  C  C1450  1  0.361200  0.082200  0.050600  1.0  -0.3018
  C  C1451  1  0.355100  0.105400  0.011900  1.0  0.1646
  C  C1452  1  0.435700  0.142100  0.074600  1.0  -0.764
  C  C1453  1  0.418700  0.060300  0.127800  1.0  -0.7862
  C  C1454  1  0.813600  0.551600  0.480800  1.0  0.1052
  C  C1455  1  0.817600  0.526800  0.516900  1.0  -0.1554
  C  C1456  1  0.841500  0.541600  0.552200  1.0  -0.0952
  C  C1457  1  0.861200  0.582200  0.550600  1.0  -0.3018
  C  C1458  1  0.855100  0.605400  0.511900  1.0  0.1646
  C  C1459  1  0.935700  0.642100  0.574600  1.0  -0.764
  C  C1460  1  0.918700  0.560300  0.627800  1.0  -0.7862
  C  C1461  1  0.186400  0.948400  0.480800  1.0  0.1037
  C  C1462  1  0.182400  0.973200  0.516900  1.0  -0.1553
  C  C1463  1  0.158500  0.958400  0.552200  1.0  -0.0954
  C  C1464  1  0.138800  0.917800  0.550600  1.0  -0.3028
  C  C1465  1  0.144900  0.894600  0.511900  1.0  0.1638
  C  C1466  1  0.064300  0.857900  0.574600  1.0  -0.7636
  C  C1467  1  0.081300  0.939700  0.627800  1.0  -0.7881
  C  C1468  1  0.686400  0.448400  0.980800  1.0  0.1037
  C  C1469  1  0.682400  0.473200  0.016900  1.0  -0.1553
  C  C1470  1  0.658500  0.458400  0.052200  1.0  -0.0954
  C  C1471  1  0.638800  0.417800  0.050600  1.0  -0.3028
  C  C1472  1  0.644900  0.394600  0.011900  1.0  0.1638
  C  C1473  1  0.564300  0.357900  0.074600  1.0  -0.7636
  C  C1474  1  0.581300  0.439700  0.127800  1.0  -0.7881
  C  C1475  1  0.686400  0.551600  0.519200  1.0  0.1039
  C  C1476  1  0.682400  0.526800  0.483100  1.0  -0.1543
  C  C1477  1  0.658500  0.541600  0.447800  1.0  -0.0966
  C  C1478  1  0.638800  0.582200  0.449400  1.0  -0.3033
  C  C1479  1  0.644900  0.605400  0.488100  1.0  0.1642
  C  C1480  1  0.564300  0.642100  0.425400  1.0  -0.7645
  C  C1481  1  0.581300  0.560300  0.372200  1.0  -0.786
  C  C1482  1  0.186400  0.051600  0.019200  1.0  0.1039
  C  C1483  1  0.182400  0.026800  0.983100  1.0  -0.1543
  C  C1484  1  0.158500  0.041600  0.947800  1.0  -0.0966
  C  C1485  1  0.138800  0.082200  0.949400  1.0  -0.3033
  C  C1486  1  0.144900  0.105400  0.988100  1.0  0.1642
  C  C1487  1  0.064300  0.142100  0.925400  1.0  -0.7645
  C  C1488  1  0.081300  0.060300  0.872200  1.0  -0.786
  C  C1489  1  0.769200  0.801600  0.936400  1.0  0.1018
  C  C1490  1  0.733100  0.776800  0.932400  1.0  -0.1523
  C  C1491  1  0.697800  0.791600  0.908500  1.0  -0.0999
  C  C1492  1  0.699400  0.832200  0.888800  1.0  -0.302
  C  C1493  1  0.738100  0.855400  0.894900  1.0  0.1641
  C  C1494  1  0.675400  0.892100  0.814300  1.0  -0.7689
  C  C1495  1  0.622200  0.810300  0.831300  1.0  -0.7857
  C  C1496  1  0.269200  0.301600  0.436400  1.0  0.1018
  C  C1497  1  0.233100  0.276800  0.432400  1.0  -0.1523
  C  C1498  1  0.197800  0.291600  0.408500  1.0  -0.0999
  C  C1499  1  0.199400  0.332200  0.388800  1.0  -0.302
  C  C1500  1  0.238100  0.355400  0.394900  1.0  0.1641
  C  C1501  1  0.175400  0.392100  0.314300  1.0  -0.7689
  C  C1502  1  0.122200  0.310300  0.331300  1.0  -0.7857
  C  C1503  1  0.730800  0.198400  0.436400  1.0  0.1016
  C  C1504  1  0.766900  0.223200  0.432400  1.0  -0.1533
  C  C1505  1  0.802200  0.208400  0.408500  1.0  -0.1006
  C  C1506  1  0.800600  0.167800  0.388800  1.0  -0.3021
  C  C1507  1  0.761900  0.144600  0.394900  1.0  0.1633
  C  C1508  1  0.824600  0.107900  0.314300  1.0  -0.7694
  C  C1509  1  0.877800  0.189700  0.331300  1.0  -0.7876
  C  C1510  1  0.230800  0.698400  0.936400  1.0  0.1016
  C  C1511  1  0.266900  0.723200  0.932400  1.0  -0.1533
  C  C1512  1  0.302200  0.708400  0.908500  1.0  -0.1006
  C  C1513  1  0.300600  0.667800  0.888800  1.0  -0.3021
  C  C1514  1  0.261900  0.644600  0.894900  1.0  0.1633
  C  C1515  1  0.324600  0.607900  0.814300  1.0  -0.7694
  C  C1516  1  0.377800  0.689700  0.831300  1.0  -0.7876
  C  C1517  1  0.230800  0.301600  0.563600  1.0  0.1021
  C  C1518  1  0.266900  0.276800  0.567600  1.0  -0.1519
  C  C1519  1  0.302200  0.291600  0.591500  1.0  -0.1
  C  C1520  1  0.300600  0.332200  0.611200  1.0  -0.3013
  C  C1521  1  0.261900  0.355400  0.605100  1.0  0.1637
  C  C1522  1  0.324600  0.392100  0.685700  1.0  -0.7694
  C  C1523  1  0.377800  0.310300  0.668700  1.0  -0.7859
  C  C1524  1  0.730800  0.801600  0.063600  1.0  0.1021
  C  C1525  1  0.766900  0.776800  0.067600  1.0  -0.1519
  C  C1526  1  0.802200  0.791600  0.091500  1.0  -0.1
  C  C1527  1  0.800600  0.832200  0.111200  1.0  -0.3013
  C  C1528  1  0.761900  0.855400  0.105100  1.0  0.1637
  C  C1529  1  0.824600  0.892100  0.185700  1.0  -0.7694
  C  C1530  1  0.877800  0.810300  0.168700  1.0  -0.7859
  C  C1531  1  0.269200  0.698400  0.063600  1.0  0.1012
  C  C1532  1  0.233100  0.723200  0.067600  1.0  -0.1526
  C  C1533  1  0.197800  0.708400  0.091500  1.0  -0.1003
  C  C1534  1  0.199400  0.667800  0.111200  1.0  -0.3014
  C  C1535  1  0.238100  0.644600  0.105100  1.0  0.1635
  C  C1536  1  0.175400  0.607900  0.185700  1.0  -0.7695
  C  C1537  1  0.122200  0.689700  0.168700  1.0  -0.7875
  C  C1538  1  0.769200  0.198400  0.563600  1.0  0.1012
  C  C1539  1  0.733100  0.223200  0.567600  1.0  -0.1526
  C  C1540  1  0.697800  0.208400  0.591500  1.0  -0.1003
  C  C1541  1  0.699400  0.167800  0.611200  1.0  -0.3014
  C  C1542  1  0.738100  0.144600  0.605100  1.0  0.1635
  C  C1543  1  0.675400  0.107900  0.685700  1.0  -0.7695
  C  C1544  1  0.622200  0.189700  0.668700  1.0  -0.7875
  C  C1545  1  0.936400  0.769200  0.801600  1.0  0.1017
  C  C1546  1  0.932400  0.733100  0.776800  1.0  -0.1545
  C  C1547  1  0.908500  0.697800  0.791600  1.0  -0.0996
  C  C1548  1  0.888800  0.699400  0.832200  1.0  -0.3012
  C  C1549  1  0.894900  0.738100  0.855400  1.0  0.1652
  C  C1550  1  0.814300  0.675400  0.892100  1.0  -0.7636
  C  C1551  1  0.831300  0.622200  0.810300  1.0  -0.7982
  C  C1552  1  0.436400  0.269200  0.301600  1.0  0.1017
  C  C1553  1  0.432400  0.233100  0.276800  1.0  -0.1545
  C  C1554  1  0.408500  0.197800  0.291600  1.0  -0.0996
  C  C1555  1  0.388800  0.199400  0.332200  1.0  -0.3012
  C  C1556  1  0.394900  0.238100  0.355400  1.0  0.1652
  C  C1557  1  0.314300  0.175400  0.392100  1.0  -0.7636
  C  C1558  1  0.331300  0.122200  0.310300  1.0  -0.7982
  C  C1559  1  0.436400  0.730800  0.198400  1.0  0.1019
  C  C1560  1  0.432400  0.766900  0.223200  1.0  -0.1553
  C  C1561  1  0.408500  0.802200  0.208400  1.0  -0.0995
  C  C1562  1  0.388800  0.800600  0.167800  1.0  -0.3017
  C  C1563  1  0.394900  0.761900  0.144600  1.0  0.1646
  C  C1564  1  0.314300  0.824600  0.107900  1.0  -0.7635
  C  C1565  1  0.331300  0.877800  0.189700  1.0  -0.7962
  C  C1566  1  0.936400  0.230800  0.698400  1.0  0.1019
  C  C1567  1  0.932400  0.266900  0.723200  1.0  -0.1553
  C  C1568  1  0.908500  0.302200  0.708400  1.0  -0.0995
  C  C1569  1  0.888800  0.300600  0.667800  1.0  -0.3017
  C  C1570  1  0.894900  0.261900  0.644600  1.0  0.1646
  C  C1571  1  0.814300  0.324600  0.607900  1.0  -0.7635
  C  C1572  1  0.831300  0.377800  0.689700  1.0  -0.7962
  C  C1573  1  0.563600  0.230800  0.301600  1.0  0.1022
  C  C1574  1  0.567600  0.266900  0.276800  1.0  -0.1557
  C  C1575  1  0.591500  0.302200  0.291600  1.0  -0.1005
  C  C1576  1  0.611200  0.300600  0.332200  1.0  -0.3005
  C  C1577  1  0.605100  0.261900  0.355400  1.0  0.1658
  C  C1578  1  0.685700  0.324600  0.392100  1.0  -0.764
  C  C1579  1  0.668700  0.377800  0.310300  1.0  -0.7983
  C  C1580  1  0.063600  0.730800  0.801600  1.0  0.1022
  C  C1581  1  0.067600  0.766900  0.776800  1.0  -0.1557
  C  C1582  1  0.091500  0.802200  0.791600  1.0  -0.1005
  C  C1583  1  0.111200  0.800600  0.832200  1.0  -0.3005
  C  C1584  1  0.105100  0.761900  0.855400  1.0  0.1657
  C  C1585  1  0.185700  0.824600  0.892100  1.0  -0.764
  C  C1586  1  0.168700  0.877800  0.810300  1.0  -0.7983
  C  C1587  1  0.063600  0.269200  0.698400  1.0  0.1023
  C  C1588  1  0.067600  0.233100  0.723200  1.0  -0.1561
  C  C1589  1  0.091500  0.197800  0.708400  1.0  -0.0994
  C  C1590  1  0.111200  0.199400  0.667800  1.0  -0.3011
  C  C1591  1  0.105100  0.238100  0.644600  1.0  0.165
  C  C1592  1  0.185700  0.175400  0.607900  1.0  -0.764
  C  C1593  1  0.168700  0.122200  0.689700  1.0  -0.7963
  C  C1594  1  0.563600  0.769200  0.198400  1.0  0.1023
  C  C1595  1  0.567600  0.733100  0.223200  1.0  -0.1561
  C  C1596  1  0.591500  0.697800  0.208400  1.0  -0.0994
  C  C1597  1  0.611200  0.699400  0.167800  1.0  -0.3011
  C  C1598  1  0.605100  0.738100  0.144600  1.0  0.165
  C  C1599  1  0.685700  0.675400  0.107900  1.0  -0.764
  C  C1600  1  0.668700  0.622200  0.189700  1.0  -0.7963
  C  C1601  1  0.801600  0.936400  0.769200  1.0  0.1038
  C  C1602  1  0.776800  0.932400  0.733100  1.0  -0.1571
  C  C1603  1  0.791600  0.908500  0.697800  1.0  -0.0969
  C  C1604  1  0.832200  0.888800  0.699400  1.0  -0.3044
  C  C1605  1  0.855400  0.894900  0.738100  1.0  0.1649
  C  C1606  1  0.892100  0.814300  0.675400  1.0  -0.7644
  C  C1607  1  0.810300  0.831300  0.622200  1.0  -0.7857
  C  C1608  1  0.301600  0.436400  0.269200  1.0  0.1038
  C  C1609  1  0.276800  0.432400  0.233100  1.0  -0.1571
  C  C1610  1  0.291600  0.408500  0.197800  1.0  -0.0969
  C  C1611  1  0.332200  0.388800  0.199400  1.0  -0.3044
  C  C1612  1  0.355400  0.394900  0.238100  1.0  0.1649
  C  C1613  1  0.392100  0.314300  0.175400  1.0  -0.7644
  C  C1614  1  0.310300  0.331300  0.122200  1.0  -0.7857
  C  C1615  1  0.198400  0.436400  0.730800  1.0  0.1038
  C  C1616  1  0.223200  0.432400  0.766900  1.0  -0.1557
  C  C1617  1  0.208400  0.408500  0.802200  1.0  -0.0952
  C  C1618  1  0.167800  0.388800  0.800600  1.0  -0.3038
  C  C1619  1  0.144600  0.394900  0.761900  1.0  0.1654
  C  C1620  1  0.107900  0.314300  0.824600  1.0  -0.7632
  C  C1621  1  0.189700  0.331300  0.877800  1.0  -0.7864
  C  C1622  1  0.698400  0.936400  0.230800  1.0  0.1038
  C  C1623  1  0.723200  0.932400  0.266900  1.0  -0.1557
  C  C1624  1  0.708400  0.908500  0.302200  1.0  -0.0952
  C  C1625  1  0.667800  0.888800  0.300600  1.0  -0.3038
  C  C1626  1  0.644600  0.894900  0.261900  1.0  0.1654
  C  C1627  1  0.607900  0.814300  0.324600  1.0  -0.7632
  C  C1628  1  0.689700  0.831300  0.377800  1.0  -0.7864
  C  C1629  1  0.301600  0.563600  0.230800  1.0  0.1044
  C  C1630  1  0.276800  0.567600  0.266900  1.0  -0.1563
  C  C1631  1  0.291600  0.591500  0.302200  1.0  -0.0955
  C  C1632  1  0.332200  0.611200  0.300600  1.0  -0.3039
  C  C1633  1  0.355400  0.605100  0.261900  1.0  0.1656
  C  C1634  1  0.392100  0.685700  0.324600  1.0  -0.7641
  C  C1635  1  0.310300  0.668700  0.377800  1.0  -0.786
  C  C1636  1  0.801600  0.063600  0.730800  1.0  0.1044
  C  C1637  1  0.776800  0.067600  0.766900  1.0  -0.1563
  C  C1638  1  0.791600  0.091500  0.802200  1.0  -0.0955
  C  C1639  1  0.832200  0.111200  0.800600  1.0  -0.3039
  C  C1640  1  0.855400  0.105100  0.761900  1.0  0.1656
  C  C1641  1  0.892100  0.185700  0.824600  1.0  -0.7641
  C  C1642  1  0.810300  0.168700  0.877800  1.0  -0.786
  C  C1643  1  0.698400  0.063600  0.269200  1.0  0.1028
  C  C1644  1  0.723200  0.067600  0.233100  1.0  -0.1547
  C  C1645  1  0.708400  0.091500  0.197800  1.0  -0.0972
  C  C1646  1  0.667800  0.111200  0.199400  1.0  -0.3047
  C  C1647  1  0.644600  0.105100  0.238100  1.0  0.1654
  C  C1648  1  0.607900  0.185700  0.175400  1.0  -0.7642
  C  C1649  1  0.689700  0.168700  0.122200  1.0  -0.7862
  C  C1650  1  0.198400  0.563600  0.769200  1.0  0.1028
  C  C1651  1  0.223200  0.567600  0.733100  1.0  -0.1547
  C  C1652  1  0.208400  0.591500  0.697800  1.0  -0.0972
  C  C1653  1  0.167800  0.611200  0.699400  1.0  -0.3047
  C  C1654  1  0.144600  0.605100  0.738100  1.0  0.1654
  C  C1655  1  0.107900  0.685700  0.675400  1.0  -0.7642
  C  C1656  1  0.189700  0.668700  0.622200  1.0  -0.7862
  C  C1657  1  0.051600  0.519200  0.813600  1.0  0.1035
  C  C1658  1  0.026800  0.483100  0.817600  1.0  -0.1563
  C  C1659  1  0.041600  0.447800  0.841500  1.0  -0.0996
  C  C1660  1  0.082200  0.449400  0.861200  1.0  -0.3018
  C  C1661  1  0.105400  0.488100  0.855100  1.0  0.1655
  C  C1662  1  0.142100  0.425400  0.935700  1.0  -0.7685
  C  C1663  1  0.060300  0.372200  0.918700  1.0  -0.7858
  C  C1664  1  0.551600  0.019200  0.313600  1.0  0.1035
  C  C1665  1  0.526800  0.983100  0.317600  1.0  -0.1563
  C  C1666  1  0.541600  0.947800  0.341500  1.0  -0.0996
  C  C1667  1  0.582200  0.949400  0.361200  1.0  -0.3018
  C  C1668  1  0.605400  0.988100  0.355100  1.0  0.1655
  C  C1669  1  0.642100  0.925400  0.435700  1.0  -0.7685
  C  C1670  1  0.560300  0.872200  0.418700  1.0  -0.7858
  C  C1671  1  0.448400  0.480800  0.313600  1.0  0.1017
  C  C1672  1  0.473200  0.516900  0.317600  1.0  -0.1549
  C  C1673  1  0.458400  0.552200  0.341500  1.0  -0.0994
  C  C1674  1  0.417800  0.550600  0.361200  1.0  -0.302
  C  C1675  1  0.394600  0.511900  0.355100  1.0  0.1658
  C  C1676  1  0.357900  0.574600  0.435700  1.0  -0.7688
  C  C1677  1  0.439700  0.627800  0.418700  1.0  -0.7856
  C  C1678  1  0.948400  0.980800  0.813600  1.0  0.1017
  C  C1679  1  0.973200  0.016900  0.817600  1.0  -0.1549
  C  C1680  1  0.958400  0.052200  0.841500  1.0  -0.0994
  C  C1681  1  0.917800  0.050600  0.861200  1.0  -0.302
  C  C1682  1  0.894600  0.011900  0.855100  1.0  0.1658
  C  C1683  1  0.857900  0.074600  0.935700  1.0  -0.7688
  C  C1684  1  0.939700  0.127800  0.918700  1.0  -0.7856
  C  C1685  1  0.551600  0.980800  0.186400  1.0  0.1027
  C  C1686  1  0.526800  0.016900  0.182400  1.0  -0.1564
  C  C1687  1  0.541600  0.052200  0.158500  1.0  -0.1
  C  C1688  1  0.582200  0.050600  0.138800  1.0  -0.3023
  C  C1689  1  0.605400  0.011900  0.144900  1.0  0.1655
  C  C1690  1  0.642100  0.074600  0.064300  1.0  -0.7688
  C  C1691  1  0.560300  0.127800  0.081300  1.0  -0.7852
  C  C1692  1  0.051600  0.480800  0.686400  1.0  0.1027
  C  C1693  1  0.026800  0.516900  0.682400  1.0  -0.1564
  C  C1694  1  0.041600  0.552200  0.658500  1.0  -0.1
  C  C1695  1  0.082200  0.550600  0.638800  1.0  -0.3023
  C  C1696  1  0.105400  0.511900  0.644900  1.0  0.1655
  C  C1697  1  0.142100  0.574600  0.564300  1.0  -0.7688
  C  C1698  1  0.060300  0.627800  0.581300  1.0  -0.7852
  C  C1699  1  0.948400  0.019200  0.686400  1.0  0.1015
  C  C1700  1  0.973200  0.983100  0.682400  1.0  -0.1548
  C  C1701  1  0.958400  0.947800  0.658500  1.0  -0.0991
  C  C1702  1  0.917800  0.949400  0.638800  1.0  -0.3027
  C  C1703  1  0.894600  0.988100  0.644900  1.0  0.1656
  C  C1704  1  0.857900  0.925400  0.564300  1.0  -0.7687
  C  C1705  1  0.939700  0.872200  0.581300  1.0  -0.7861
  C  C1706  1  0.448400  0.519200  0.186400  1.0  0.1015
  C  C1707  1  0.473200  0.483100  0.182400  1.0  -0.1548
  C  C1708  1  0.458400  0.447800  0.158500  1.0  -0.0991
  C  C1709  1  0.417800  0.449400  0.138800  1.0  -0.3027
  C  C1710  1  0.394600  0.488100  0.144900  1.0  0.1656
  C  C1711  1  0.357900  0.425400  0.064300  1.0  -0.7687
  C  C1712  1  0.439700  0.372200  0.081300  1.0  -0.7861
  C  C1713  1  0.019200  0.686400  0.948400  1.0  0.1013
  C  C1714  1  0.983100  0.682400  0.973200  1.0  -0.1534
  C  C1715  1  0.947800  0.658500  0.958400  1.0  -0.0999
  C  C1716  1  0.949400  0.638800  0.917800  1.0  -0.3025
  C  C1717  1  0.988100  0.644900  0.894600  1.0  0.1641
  C  C1718  1  0.925400  0.564300  0.857900  1.0  -0.7641
  C  C1719  1  0.872200  0.581300  0.939700  1.0  -0.7964
  C  C1720  1  0.519200  0.186400  0.448400  1.0  0.1013
  C  C1721  1  0.483100  0.182400  0.473200  1.0  -0.1534
  C  C1722  1  0.447800  0.158500  0.458400  1.0  -0.0999
  C  C1723  1  0.449400  0.138800  0.417800  1.0  -0.3025
  C  C1724  1  0.488100  0.144900  0.394600  1.0  0.1641
  C  C1725  1  0.425400  0.064300  0.357900  1.0  -0.7641
  C  C1726  1  0.372200  0.081300  0.439700  1.0  -0.7964
  C  C1727  1  0.980800  0.186400  0.551600  1.0  0.1012
  C  C1728  1  0.016900  0.182400  0.526800  1.0  -0.1527
  C  C1729  1  0.052200  0.158500  0.541600  1.0  -0.1007
  C  C1730  1  0.050600  0.138800  0.582200  1.0  -0.302
  C  C1731  1  0.011900  0.144900  0.605400  1.0  0.1649
  C  C1732  1  0.074600  0.064300  0.642100  1.0  -0.7649
  C  C1733  1  0.127800  0.081300  0.560300  1.0  -0.7988
  C  C1734  1  0.480800  0.686400  0.051600  1.0  0.1012
  C  C1735  1  0.516900  0.682400  0.026800  1.0  -0.1527
  C  C1736  1  0.552200  0.658500  0.041600  1.0  -0.1007
  C  C1737  1  0.550600  0.638800  0.082200  1.0  -0.302
  C  C1738  1  0.511900  0.644900  0.105400  1.0  0.1649
  C  C1739  1  0.574600  0.564300  0.142100  1.0  -0.7649
  C  C1740  1  0.627800  0.581300  0.060300  1.0  -0.7988
  C  C1741  1  0.480800  0.313600  0.448400  1.0  0.1016
  C  C1742  1  0.516900  0.317600  0.473200  1.0  -0.1524
  C  C1743  1  0.552200  0.341500  0.458400  1.0  -0.0992
  C  C1744  1  0.550600  0.361200  0.417800  1.0  -0.3023
  C  C1745  1  0.511900  0.355100  0.394600  1.0  0.1637
  C  C1746  1  0.574600  0.435700  0.357900  1.0  -0.7646
  C  C1747  1  0.627800  0.418700  0.439700  1.0  -0.7959
  C  C1748  1  0.980800  0.813600  0.948400  1.0  0.1016
  C  C1749  1  0.016900  0.817600  0.973200  1.0  -0.1524
  C  C1750  1  0.052200  0.841500  0.958400  1.0  -0.0992
  C  C1751  1  0.050600  0.861200  0.917800  1.0  -0.3023
  C  C1752  1  0.011900  0.855100  0.894600  1.0  0.1637
  C  C1753  1  0.074600  0.935700  0.857900  1.0  -0.7646
  C  C1754  1  0.127800  0.918700  0.939700  1.0  -0.7959
  C  C1755  1  0.519200  0.813600  0.051600  1.0  0.1005
  C  C1756  1  0.483100  0.817600  0.026800  1.0  -0.1525
  C  C1757  1  0.447800  0.841500  0.041600  1.0  -0.1008
  C  C1758  1  0.449400  0.861200  0.082200  1.0  -0.3022
  C  C1759  1  0.488100  0.855100  0.105400  1.0  0.1647
  C  C1760  1  0.425400  0.935700  0.142100  1.0  -0.7637
  C  C1761  1  0.372200  0.918700  0.060300  1.0  -0.7979
  C  C1762  1  0.019200  0.313600  0.551600  1.0  0.1005
  C  C1763  1  0.983100  0.317600  0.526800  1.0  -0.1525
  C  C1764  1  0.947800  0.341500  0.541600  1.0  -0.1008
  C  C1765  1  0.949400  0.361200  0.582200  1.0  -0.3022
  C  C1766  1  0.988100  0.355100  0.605400  1.0  0.1647
  C  C1767  1  0.925400  0.435700  0.642100  1.0  -0.7637
  C  C1768  1  0.872200  0.418700  0.560300  1.0  -0.7979
  C  C1769  1  0.186400  0.551600  0.980800  1.0  0.1045
  C  C1770  1  0.182400  0.526800  0.016900  1.0  -0.1545
  C  C1771  1  0.158500  0.541600  0.052200  1.0  -0.0948
  C  C1772  1  0.138800  0.582200  0.050600  1.0  -0.3026
  C  C1773  1  0.144900  0.605400  0.011900  1.0  0.1643
  C  C1774  1  0.064300  0.642100  0.074600  1.0  -0.7634
  C  C1775  1  0.081300  0.560300  0.127800  1.0  -0.7862
  C  C1776  1  0.686400  0.051600  0.480800  1.0  0.1045
  C  C1777  1  0.682400  0.026800  0.516900  1.0  -0.1545
  C  C1778  1  0.658500  0.041600  0.552200  1.0  -0.0948
  C  C1779  1  0.638800  0.082200  0.550600  1.0  -0.3026
  C  C1780  1  0.644900  0.105400  0.511900  1.0  0.1643
  C  C1781  1  0.564300  0.142100  0.574600  1.0  -0.7634
  C  C1782  1  0.581300  0.060300  0.627800  1.0  -0.7862
  C  C1783  1  0.686400  0.948400  0.019200  1.0  0.1027
  C  C1784  1  0.682400  0.973200  0.983100  1.0  -0.1553
  C  C1785  1  0.658500  0.958400  0.947800  1.0  -0.0969
  C  C1786  1  0.638800  0.917800  0.949400  1.0  -0.3037
  C  C1787  1  0.644900  0.894600  0.988100  1.0  0.1637
  C  C1788  1  0.564300  0.857900  0.925400  1.0  -0.7644
  C  C1789  1  0.581300  0.939700  0.872200  1.0  -0.7877
  C  C1790  1  0.186400  0.448400  0.519200  1.0  0.1027
  C  C1791  1  0.182400  0.473200  0.483100  1.0  -0.1553
  C  C1792  1  0.158500  0.458400  0.447800  1.0  -0.0969
  C  C1793  1  0.138800  0.417800  0.449400  1.0  -0.3037
  C  C1794  1  0.144900  0.394600  0.488100  1.0  0.1637
  C  C1795  1  0.064300  0.357900  0.425400  1.0  -0.7644
  C  C1796  1  0.081300  0.439700  0.372200  1.0  -0.7877
  C  C1797  1  0.813600  0.051600  0.519200  1.0  0.1045
  C  C1798  1  0.817600  0.026800  0.483100  1.0  -0.1551
  C  C1799  1  0.841500  0.041600  0.447800  1.0  -0.0968
  C  C1800  1  0.861200  0.082200  0.449400  1.0  -0.3025
  C  C1801  1  0.855100  0.105400  0.488100  1.0  0.1642
  C  C1802  1  0.935700  0.142100  0.425400  1.0  -0.7648
  C  C1803  1  0.918700  0.060300  0.372200  1.0  -0.7863
  C  C1804  1  0.313600  0.551600  0.019200  1.0  0.1045
  C  C1805  1  0.317600  0.526800  0.983100  1.0  -0.1551
  C  C1806  1  0.341500  0.541600  0.947800  1.0  -0.0968
  C  C1807  1  0.361200  0.582200  0.949400  1.0  -0.3025
  C  C1808  1  0.355100  0.605400  0.988100  1.0  0.1642
  C  C1809  1  0.435700  0.642100  0.925400  1.0  -0.7648
  C  C1810  1  0.418700  0.560300  0.872200  1.0  -0.7863
  C  C1811  1  0.313600  0.448400  0.480800  1.0  0.1047
  C  C1812  1  0.317600  0.473200  0.516900  1.0  -0.1563
  C  C1813  1  0.341500  0.458400  0.552200  1.0  -0.0961
  C  C1814  1  0.361200  0.417800  0.550600  1.0  -0.3021
  C  C1815  1  0.355100  0.394600  0.511900  1.0  0.164
  C  C1816  1  0.435700  0.357900  0.574600  1.0  -0.7641
  C  C1817  1  0.418700  0.439700  0.627800  1.0  -0.788
  C  C1818  1  0.813600  0.948400  0.980800  1.0  0.1047
  C  C1819  1  0.817600  0.973200  0.016900  1.0  -0.1563
  C  C1820  1  0.841500  0.958400  0.052200  1.0  -0.0961
  C  C1821  1  0.861200  0.917800  0.050600  1.0  -0.3021
  C  C1822  1  0.855100  0.894600  0.011900  1.0  0.164
  C  C1823  1  0.935700  0.857900  0.074600  1.0  -0.7641
  C  C1824  1  0.918700  0.939700  0.127800  1.0  -0.788
  N  N1825  1  0.227900  0.158800  0.082200  1.0  -0.3444
  N  N1826  1  0.727900  0.658800  0.582200  1.0  -0.3446
  N  N1827  1  0.272100  0.841200  0.582200  1.0  -0.3384
  N  N1828  1  0.772100  0.341200  0.082200  1.0  -0.343
  N  N1829  1  0.772100  0.658800  0.417800  1.0  -0.3427
  N  N1830  1  0.272100  0.158800  0.917800  1.0  -0.3426
  N  N1831  1  0.727900  0.341200  0.917800  1.0  -0.3445
  N  N1832  1  0.227900  0.841200  0.417800  1.0  -0.3428
  N  N1833  1  0.082200  0.227900  0.158800  1.0  -0.3465
  N  N1834  1  0.582200  0.727900  0.658800  1.0  -0.3467
  N  N1835  1  0.582200  0.272100  0.841200  1.0  -0.34
  N  N1836  1  0.082200  0.772100  0.341200  1.0  -0.3446
  N  N1837  1  0.417800  0.772100  0.658800  1.0  -0.343
  N  N1838  1  0.917800  0.272100  0.158800  1.0  -0.3429
  N  N1839  1  0.917800  0.727900  0.341200  1.0  -0.3459
  N  N1840  1  0.417800  0.227900  0.841200  1.0  -0.344
  N  N1841  1  0.158800  0.082200  0.227900  1.0  -0.3461
  N  N1842  1  0.658800  0.582200  0.727900  1.0  -0.346
  N  N1843  1  0.841200  0.582200  0.272100  1.0  -0.3392
  N  N1844  1  0.341200  0.082200  0.772100  1.0  -0.3435
  N  N1845  1  0.658800  0.417800  0.772100  1.0  -0.3443
  N  N1846  1  0.158800  0.917800  0.272100  1.0  -0.3438
  N  N1847  1  0.341200  0.917800  0.727900  1.0  -0.3449
  N  N1848  1  0.841200  0.417800  0.227900  1.0  -0.343
  N  N1849  1  0.908800  0.477900  0.167800  1.0  -0.3447
  N  N1850  1  0.408800  0.977900  0.667800  1.0  -0.343
  N  N1851  1  0.591200  0.522100  0.667800  1.0  -0.3424
  N  N1852  1  0.091200  0.022100  0.167800  1.0  -0.3424
  N  N1853  1  0.408800  0.022100  0.832200  1.0  -0.3419
  N  N1854  1  0.908800  0.522100  0.332200  1.0  -0.3414
  N  N1855  1  0.091200  0.977900  0.332200  1.0  -0.3434
  N  N1856  1  0.591200  0.477900  0.832200  1.0  -0.342
  N  N1857  1  0.977900  0.332200  0.091200  1.0  -0.3444
  N  N1858  1  0.477900  0.832200  0.591200  1.0  -0.3434
  N  N1859  1  0.022100  0.832200  0.408800  1.0  -0.3429
  N  N1860  1  0.522100  0.332200  0.908800  1.0  -0.3427
  N  N1861  1  0.522100  0.667800  0.591200  1.0  -0.3442
  N  N1862  1  0.022100  0.167800  0.091200  1.0  -0.3442
  N  N1863  1  0.477900  0.167800  0.908800  1.0  -0.3441
  N  N1864  1  0.977900  0.667800  0.408800  1.0  -0.3427
  N  N1865  1  0.832200  0.408800  0.022100  1.0  -0.3456
  N  N1866  1  0.332200  0.908800  0.522100  1.0  -0.3454
  N  N1867  1  0.332200  0.091200  0.977900  1.0  -0.3467
  N  N1868  1  0.832200  0.591200  0.477900  1.0  -0.3454
  N  N1869  1  0.167800  0.908800  0.477900  1.0  -0.3479
  N  N1870  1  0.667800  0.408800  0.977900  1.0  -0.3463
  N  N1871  1  0.667800  0.591200  0.522100  1.0  -0.3469
  N  N1872  1  0.167800  0.091200  0.022100  1.0  -0.3469
  N  N1873  1  0.772100  0.841200  0.917800  1.0  -0.3441
  N  N1874  1  0.272100  0.341200  0.417800  1.0  -0.3443
  N  N1875  1  0.727900  0.158800  0.417800  1.0  -0.3385
  N  N1876  1  0.227900  0.658800  0.917800  1.0  -0.3434
  N  N1877  1  0.227900  0.341200  0.582200  1.0  -0.3433
  N  N1878  1  0.727900  0.841200  0.082200  1.0  -0.3432
  N  N1879  1  0.272100  0.658800  0.082200  1.0  -0.3442
  N  N1880  1  0.772100  0.158800  0.582200  1.0  -0.3418
  N  N1881  1  0.917800  0.772100  0.841200  1.0  -0.3452
  N  N1882  1  0.417800  0.272100  0.341200  1.0  -0.3454
  N  N1883  1  0.417800  0.727900  0.158800  1.0  -0.3405
  N  N1884  1  0.917800  0.227900  0.658800  1.0  -0.345
  N  N1885  1  0.582200  0.227900  0.341200  1.0  -0.3446
  N  N1886  1  0.082200  0.727900  0.841200  1.0  -0.3446
  N  N1887  1  0.082200  0.272100  0.658800  1.0  -0.3449
  N  N1888  1  0.582200  0.772100  0.158800  1.0  -0.3427
  N  N1889  1  0.841200  0.917800  0.772100  1.0  -0.3443
  N  N1890  1  0.341200  0.417800  0.272100  1.0  -0.3445
  N  N1891  1  0.158800  0.417800  0.727900  1.0  -0.3396
  N  N1892  1  0.658800  0.917800  0.227900  1.0  -0.3441
  N  N1893  1  0.341200  0.582200  0.227900  1.0  -0.3438
  N  N1894  1  0.841200  0.082200  0.727900  1.0  -0.3439
  N  N1895  1  0.658800  0.082200  0.272100  1.0  -0.3458
  N  N1896  1  0.158800  0.582200  0.772100  1.0  -0.3436
  N  N1897  1  0.091200  0.522100  0.832200  1.0  -0.3422
  N  N1898  1  0.591200  0.022100  0.332200  1.0  -0.3407
  N  N1899  1  0.408800  0.477900  0.332200  1.0  -0.3444
  N  N1900  1  0.908800  0.977900  0.832200  1.0  -0.3444
  N  N1901  1  0.591200  0.977900  0.167800  1.0  -0.3422
  N  N1902  1  0.091200  0.477900  0.667800  1.0  -0.3419
  N  N1903  1  0.908800  0.022100  0.667800  1.0  -0.3431
  N  N1904  1  0.408800  0.522100  0.167800  1.0  -0.3422
  N  N1905  1  0.022100  0.667800  0.908800  1.0  -0.3439
  N  N1906  1  0.522100  0.167800  0.408800  1.0  -0.343
  N  N1907  1  0.977900  0.167800  0.591200  1.0  -0.3433
  N  N1908  1  0.477900  0.667800  0.091200  1.0  -0.3429
  N  N1909  1  0.477900  0.332200  0.408800  1.0  -0.3444
  N  N1910  1  0.977900  0.832200  0.908800  1.0  -0.3444
  N  N1911  1  0.522100  0.832200  0.091200  1.0  -0.3444
  N  N1912  1  0.022100  0.332200  0.591200  1.0  -0.3423
  N  N1913  1  0.167800  0.591200  0.977900  1.0  -0.3453
  N  N1914  1  0.667800  0.091200  0.477900  1.0  -0.3453
  N  N1915  1  0.667800  0.908800  0.022100  1.0  -0.3468
  N  N1916  1  0.167800  0.408800  0.522100  1.0  -0.3456
  N  N1917  1  0.832200  0.091200  0.522100  1.0  -0.3473
  N  N1918  1  0.332200  0.591200  0.022100  1.0  -0.3453
  N  N1919  1  0.332200  0.408800  0.477900  1.0  -0.3481
  N  N1920  1  0.832200  0.908800  0.977900  1.0  -0.3481
  O  O1921  1  0.166640  0.083360  0.125000  1.0  -1.0002
  O  O1922  1  0.666667  0.583360  0.625000  1.0  -1.0011
  O  O1923  1  0.333333  0.916640  0.625000  1.0  -1.0019
  O  O1924  1  0.833360  0.583360  0.375000  1.0  -0.9808
  O  O1925  1  0.666667  0.416640  0.875000  1.0  -0.9783
  O  O1926  1  0.125000  0.166640  0.083360  1.0  -0.9991
  O  O1927  1  0.625000  0.666667  0.583360  1.0  -0.9999
  O  O1928  1  0.625000  0.333333  0.916640  1.0  -1.0038
  O  O1929  1  0.375000  0.833360  0.583360  1.0  -0.9804
  O  O1930  1  0.875000  0.666667  0.416640  1.0  -0.9782
  O  O1931  1  0.083360  0.125000  0.166640  1.0  -0.9995
  O  O1932  1  0.583360  0.625000  0.666667  1.0  -1.0001
  O  O1933  1  0.916640  0.625000  0.333333  1.0  -1.0025
  O  O1934  1  0.583360  0.375000  0.833360  1.0  -0.9797
  O  O1935  1  0.416640  0.875000  0.666667  1.0  -0.9789
  O  O1936  1  0.833360  0.416640  0.125000  1.0  -0.981
  O  O1937  1  0.333333  0.083360  0.875000  1.0  -0.9799
  O  O1938  1  0.166640  0.916640  0.375000  1.0  -1.0026
  O  O1939  1  0.916640  0.375000  0.166640  1.0  -1.0028
  O  O1940  1  0.083360  0.875000  0.333333  1.0  -0.9785
  O  O1941  1  0.416640  0.125000  0.833360  1.0  -0.9813
  O  O1942  1  0.875000  0.333333  0.083360  1.0  -0.9792
  O  O1943  1  0.375000  0.166640  0.916640  1.0  -1.0027
  O  O1944  1  0.125000  0.833360  0.416640  1.0  -0.9825
  O  O1945  1  0.833360  0.916640  0.875000  1.0  -0.999
  O  O1946  1  0.333333  0.416640  0.375000  1.0  -0.9998
  O  O1947  1  0.666667  0.083360  0.375000  1.0  -1.0038
  O  O1948  1  0.166640  0.416640  0.625000  1.0  -0.9795
  O  O1949  1  0.333333  0.583360  0.125000  1.0  -0.9797
  O  O1950  1  0.875000  0.833360  0.916640  1.0  -1.0002
  O  O1951  1  0.375000  0.333333  0.416640  1.0  -1.0008
  O  O1952  1  0.375000  0.666667  0.083360  1.0  -1.0023
  O  O1953  1  0.625000  0.166640  0.416640  1.0  -0.9793
  O  O1954  1  0.125000  0.333333  0.583360  1.0  -0.979
  O  O1955  1  0.916640  0.875000  0.833360  1.0  -0.9995
  O  O1956  1  0.416640  0.375000  0.333333  1.0  -1.0
  O  O1957  1  0.083360  0.375000  0.666667  1.0  -1.0026
  O  O1958  1  0.416640  0.625000  0.166640  1.0  -0.9802
  O  O1959  1  0.583360  0.125000  0.333333  1.0  -0.9783
  O  O1960  1  0.166640  0.583360  0.875000  1.0  -0.9825
  O  O1961  1  0.666667  0.916640  0.125000  1.0  -0.9786
  O  O1962  1  0.833360  0.083360  0.625000  1.0  -1.0032
  O  O1963  1  0.083360  0.625000  0.833360  1.0  -1.0022
  O  O1964  1  0.916640  0.125000  0.666667  1.0  -0.9792
  O  O1965  1  0.583360  0.875000  0.166640  1.0  -0.9819
  O  O1966  1  0.125000  0.666667  0.916640  1.0  -0.9785
  O  O1967  1  0.625000  0.833360  0.083360  1.0  -1.0035
  O  O1968  1  0.875000  0.166640  0.583360  1.0  -0.9804
