# generated using pymatgen
data_Zn6H26C44O13
_symmetry_space_group_name_H-M   'P 1'
_cell_length_a   22.51500000
_cell_length_b   22.51500000
_cell_length_c   22.51500000
_cell_angle_alpha   90.00000000
_cell_angle_beta   90.00000000
_cell_angle_gamma   90.00000000
_symmetry_Int_Tables_number   1
_chemical_formula_structural   Zn6H26C44O13
_chemical_formula_sum   'Zn48 H208 C352 O104'
_cell_volume   11413.42144088
_cell_formula_units_Z   8
loop_
 _symmetry_equiv_pos_site_id
 _symmetry_equiv_pos_as_xyz
  1  'x, y, z'
loop_
 _atom_site_type_symbol
 _atom_site_label
 _atom_site_symmetry_multiplicity
 _atom_site_fract_x
 _atom_site_fract_y
 _atom_site_fract_z
 _atom_site_occupancy
 _atom_site_charge
  Zn  Zn1  1  0.677410  0.237390  0.203810  1.0  0.9119
  Zn  Zn2  1  0.822590  0.762610  0.703810  1.0  0.9102
  Zn  Zn3  1  0.322590  0.737390  0.296190  1.0  0.9116
  Zn  Zn4  1  0.177410  0.262610  0.796190  1.0  0.9126
  Zn  Zn5  1  0.203810  0.677410  0.237390  1.0  0.9063
  Zn  Zn6  1  0.703810  0.822590  0.762610  1.0  0.9045
  Zn  Zn7  1  0.296190  0.322590  0.737390  1.0  0.9058
  Zn  Zn8  1  0.796190  0.177410  0.262610  1.0  0.9075
  Zn  Zn9  1  0.237390  0.203810  0.677410  1.0  0.9111
  Zn  Zn10  1  0.762610  0.703810  0.822590  1.0  0.9106
  Zn  Zn11  1  0.737390  0.296190  0.322590  1.0  0.9111
  Zn  Zn12  1  0.262610  0.796190  0.177410  1.0  0.9107
  Zn  Zn13  1  0.822590  0.262610  0.296190  1.0  0.9112
  Zn  Zn14  1  0.677410  0.737390  0.796190  1.0  0.9126
  Zn  Zn15  1  0.177410  0.762610  0.203810  1.0  0.9122
  Zn  Zn16  1  0.322590  0.237390  0.703810  1.0  0.9101
  Zn  Zn17  1  0.296190  0.822590  0.262610  1.0  0.9057
  Zn  Zn18  1  0.796190  0.677410  0.737390  1.0  0.9078
  Zn  Zn19  1  0.203810  0.177410  0.762610  1.0  0.9062
  Zn  Zn20  1  0.703810  0.322590  0.237390  1.0  0.9045
  Zn  Zn21  1  0.262610  0.296190  0.822590  1.0  0.9109
  Zn  Zn22  1  0.737390  0.796190  0.677410  1.0  0.911
  Zn  Zn23  1  0.762610  0.203810  0.177410  1.0  0.9105
  Zn  Zn24  1  0.237390  0.703810  0.322590  1.0  0.9109
  Zn  Zn25  1  0.177410  0.737390  0.703810  1.0  0.9119
  Zn  Zn26  1  0.322590  0.262610  0.203810  1.0  0.9102
  Zn  Zn27  1  0.822590  0.237390  0.796190  1.0  0.9116
  Zn  Zn28  1  0.677410  0.762610  0.296190  1.0  0.9126
  Zn  Zn29  1  0.703810  0.177410  0.737390  1.0  0.9063
  Zn  Zn30  1  0.203810  0.322590  0.262610  1.0  0.9045
  Zn  Zn31  1  0.796190  0.822590  0.237390  1.0  0.9058
  Zn  Zn32  1  0.296190  0.677410  0.762610  1.0  0.9075
  Zn  Zn33  1  0.737390  0.703810  0.177410  1.0  0.9111
  Zn  Zn34  1  0.262610  0.203810  0.322590  1.0  0.9106
  Zn  Zn35  1  0.237390  0.796190  0.822590  1.0  0.9111
  Zn  Zn36  1  0.762610  0.296190  0.677410  1.0  0.9107
  Zn  Zn37  1  0.322590  0.762610  0.796190  1.0  0.9112
  Zn  Zn38  1  0.177410  0.237390  0.296190  1.0  0.9126
  Zn  Zn39  1  0.677410  0.262610  0.703810  1.0  0.9122
  Zn  Zn40  1  0.822590  0.737390  0.203810  1.0  0.9101
  Zn  Zn41  1  0.796190  0.322590  0.762610  1.0  0.9057
  Zn  Zn42  1  0.296190  0.177410  0.237390  1.0  0.9078
  Zn  Zn43  1  0.703810  0.677410  0.262610  1.0  0.9062
  Zn  Zn44  1  0.203810  0.822590  0.737390  1.0  0.9045
  Zn  Zn45  1  0.762610  0.796190  0.322590  1.0  0.9109
  Zn  Zn46  1  0.237390  0.296190  0.177410  1.0  0.911
  Zn  Zn47  1  0.262610  0.703810  0.677410  1.0  0.9105
  Zn  Zn48  1  0.737390  0.203810  0.822590  1.0  0.9109
  H  H49  1  0.670800  0.408000  0.062800  1.0  0.0952
  H  H50  1  0.650600  0.435100  0.966200  1.0  0.0951
  H  H51  1  0.649100  0.264600  0.917700  1.0  0.1037
  H  H52  1  0.672700  0.236900  0.013500  1.0  0.089
  H  H53  1  0.829200  0.592000  0.562800  1.0  0.095
  H  H54  1  0.849400  0.564900  0.466200  1.0  0.0957
  H  H55  1  0.850900  0.735400  0.417700  1.0  0.1048
  H  H56  1  0.827300  0.763100  0.513500  1.0  0.0892
  H  H57  1  0.329200  0.908000  0.437200  1.0  0.0951
  H  H58  1  0.349400  0.935100  0.533800  1.0  0.0947
  H  H59  1  0.350900  0.764600  0.582300  1.0  0.1033
  H  H60  1  0.327300  0.736900  0.486500  1.0  0.0888
  H  H61  1  0.170800  0.092000  0.937200  1.0  0.0945
  H  H62  1  0.150600  0.064900  0.033800  1.0  0.0952
  H  H63  1  0.149100  0.235400  0.082300  1.0  0.1038
  H  H64  1  0.172700  0.263100  0.986500  1.0  0.0893
  H  H65  1  0.062800  0.670800  0.408000  1.0  0.0967
  H  H66  1  0.966200  0.650600  0.435100  1.0  0.0955
  H  H67  1  0.917700  0.649100  0.264600  1.0  0.1051
  H  H68  1  0.013500  0.672700  0.236900  1.0  0.0912
  H  H69  1  0.562800  0.829200  0.592000  1.0  0.0966
  H  H70  1  0.466200  0.849400  0.564900  1.0  0.0971
  H  H71  1  0.417700  0.850900  0.735400  1.0  0.1047
  H  H72  1  0.513500  0.827300  0.763100  1.0  0.0915
  H  H73  1  0.437200  0.329200  0.908000  1.0  0.0973
  H  H74  1  0.533800  0.349400  0.935100  1.0  0.096
  H  H75  1  0.582300  0.350900  0.764600  1.0  0.1052
  H  H76  1  0.486500  0.327300  0.736900  1.0  0.0917
  H  H77  1  0.937200  0.170800  0.092000  1.0  0.0963
  H  H78  1  0.033800  0.150600  0.064900  1.0  0.096
  H  H79  1  0.082300  0.149100  0.235400  1.0  0.1058
  H  H80  1  0.986500  0.172700  0.263100  1.0  0.0919
  H  H81  1  0.408000  0.062800  0.670800  1.0  0.0965
  H  H82  1  0.435100  0.966200  0.650600  1.0  0.0965
  H  H83  1  0.264600  0.917700  0.649100  1.0  0.1039
  H  H84  1  0.236900  0.013500  0.672700  1.0  0.093
  H  H85  1  0.592000  0.562800  0.829200  1.0  0.0964
  H  H86  1  0.564900  0.466200  0.849400  1.0  0.0949
  H  H87  1  0.735400  0.417700  0.850900  1.0  0.1043
  H  H88  1  0.763100  0.513500  0.827300  1.0  0.0915
  H  H89  1  0.908000  0.437200  0.329200  1.0  0.0968
  H  H90  1  0.935100  0.533800  0.349400  1.0  0.0972
  H  H91  1  0.764600  0.582300  0.350900  1.0  0.1038
  H  H92  1  0.736900  0.486500  0.327300  1.0  0.0928
  H  H93  1  0.092000  0.937200  0.170800  1.0  0.0957
  H  H94  1  0.064900  0.033800  0.150600  1.0  0.0956
  H  H95  1  0.235400  0.082300  0.149100  1.0  0.1045
  H  H96  1  0.263100  0.986500  0.172700  1.0  0.0913
  H  H97  1  0.829200  0.092000  0.437200  1.0  0.095
  H  H98  1  0.849400  0.064900  0.533800  1.0  0.0954
  H  H99  1  0.850900  0.235400  0.582300  1.0  0.1043
  H  H100  1  0.827300  0.263100  0.486500  1.0  0.0893
  H  H101  1  0.670800  0.908000  0.937200  1.0  0.0947
  H  H102  1  0.650600  0.935100  0.033800  1.0  0.0947
  H  H103  1  0.649100  0.764600  0.082300  1.0  0.1029
  H  H104  1  0.672700  0.736900  0.986500  1.0  0.0885
  H  H105  1  0.170800  0.592000  0.062800  1.0  0.0953
  H  H106  1  0.150600  0.564900  0.966200  1.0  0.0955
  H  H107  1  0.149100  0.735400  0.917700  1.0  0.1047
  H  H108  1  0.172700  0.763100  0.013500  1.0  0.0893
  H  H109  1  0.329200  0.408000  0.562800  1.0  0.095
  H  H110  1  0.349400  0.435100  0.466200  1.0  0.095
  H  H111  1  0.350900  0.264600  0.417700  1.0  0.1038
  H  H112  1  0.327300  0.236900  0.513500  1.0  0.0893
  H  H113  1  0.437200  0.829200  0.092000  1.0  0.0967
  H  H114  1  0.533800  0.849400  0.064900  1.0  0.0957
  H  H115  1  0.582300  0.850900  0.235400  1.0  0.1055
  H  H116  1  0.486500  0.827300  0.263100  1.0  0.0918
  H  H117  1  0.937200  0.670800  0.908000  1.0  0.0969
  H  H118  1  0.033800  0.650600  0.935100  1.0  0.0965
  H  H119  1  0.082300  0.649100  0.764600  1.0  0.1052
  H  H120  1  0.986500  0.672700  0.736900  1.0  0.0916
  H  H121  1  0.062800  0.170800  0.592000  1.0  0.0962
  H  H122  1  0.966200  0.150600  0.564900  1.0  0.0972
  H  H123  1  0.917700  0.149100  0.735400  1.0  0.1048
  H  H124  1  0.013500  0.172700  0.763100  1.0  0.0917
  H  H125  1  0.562800  0.329200  0.408000  1.0  0.0971
  H  H126  1  0.466200  0.349400  0.435100  1.0  0.0954
  H  H127  1  0.417700  0.350900  0.264600  1.0  0.1053
  H  H128  1  0.513500  0.327300  0.236900  1.0  0.0912
  H  H129  1  0.092000  0.437200  0.829200  1.0  0.0965
  H  H130  1  0.064900  0.533800  0.849400  1.0  0.0954
  H  H131  1  0.235400  0.582300  0.850900  1.0  0.1043
  H  H132  1  0.263100  0.486500  0.827300  1.0  0.092
  H  H133  1  0.908000  0.937200  0.670800  1.0  0.0963
  H  H134  1  0.935100  0.033800  0.650600  1.0  0.0969
  H  H135  1  0.764600  0.082300  0.649100  1.0  0.1038
  H  H136  1  0.736900  0.986500  0.672700  1.0  0.0929
  H  H137  1  0.592000  0.062800  0.170800  1.0  0.0961
  H  H138  1  0.564900  0.966200  0.150600  1.0  0.0948
  H  H139  1  0.735400  0.917700  0.149100  1.0  0.1043
  H  H140  1  0.763100  0.013500  0.172700  1.0  0.0911
  H  H141  1  0.408000  0.562800  0.329200  1.0  0.0966
  H  H142  1  0.435100  0.466200  0.349400  1.0  0.0968
  H  H143  1  0.264600  0.417700  0.350900  1.0  0.1041
  H  H144  1  0.236900  0.513500  0.327300  1.0  0.0928
  H  H145  1  0.660600  0.339400  0.839400  1.0  0.0959
  H  H146  1  0.839400  0.660600  0.339400  1.0  0.0961
  H  H147  1  0.339400  0.839400  0.660600  1.0  0.0962
  H  H148  1  0.160600  0.160600  0.160600  1.0  0.0957
  H  H149  1  0.839400  0.160600  0.660600  1.0  0.0955
  H  H150  1  0.660600  0.839400  0.160600  1.0  0.0964
  H  H151  1  0.160600  0.660600  0.839400  1.0  0.0959
  H  H152  1  0.339400  0.339400  0.339400  1.0  0.096
  H  H153  1  0.170800  0.908000  0.562800  1.0  0.0952
  H  H154  1  0.150600  0.935100  0.466200  1.0  0.0951
  H  H155  1  0.149100  0.764600  0.417700  1.0  0.1038
  H  H156  1  0.172700  0.736900  0.513500  1.0  0.089
  H  H157  1  0.329200  0.092000  0.062800  1.0  0.095
  H  H158  1  0.349400  0.064900  0.966200  1.0  0.0957
  H  H159  1  0.350900  0.235400  0.917700  1.0  0.1049
  H  H160  1  0.327300  0.263100  0.013500  1.0  0.0892
  H  H161  1  0.829200  0.408000  0.937200  1.0  0.0951
  H  H162  1  0.849400  0.435100  0.033800  1.0  0.0947
  H  H163  1  0.850900  0.264600  0.082300  1.0  0.1034
  H  H164  1  0.827300  0.236900  0.986500  1.0  0.0888
  H  H165  1  0.670800  0.592000  0.437200  1.0  0.0945
  H  H166  1  0.650600  0.564900  0.533800  1.0  0.0952
  H  H167  1  0.649100  0.735400  0.582300  1.0  0.1038
  H  H168  1  0.672700  0.763100  0.486500  1.0  0.0893
  H  H169  1  0.562800  0.170800  0.908000  1.0  0.0967
  H  H170  1  0.466200  0.150600  0.935100  1.0  0.0955
  H  H171  1  0.417700  0.149100  0.764600  1.0  0.105
  H  H172  1  0.513500  0.172700  0.736900  1.0  0.0912
  H  H173  1  0.062800  0.329200  0.092000  1.0  0.0966
  H  H174  1  0.966200  0.349400  0.064900  1.0  0.0971
  H  H175  1  0.917700  0.350900  0.235400  1.0  0.1047
  H  H176  1  0.013500  0.327300  0.263100  1.0  0.0915
  H  H177  1  0.937200  0.829200  0.408000  1.0  0.0973
  H  H178  1  0.033800  0.849400  0.435100  1.0  0.096
  H  H179  1  0.082300  0.850900  0.264600  1.0  0.1051
  H  H180  1  0.986500  0.827300  0.236900  1.0  0.0917
  H  H181  1  0.437200  0.670800  0.592000  1.0  0.0963
  H  H182  1  0.533800  0.650600  0.564900  1.0  0.096
  H  H183  1  0.582300  0.649100  0.735400  1.0  0.1058
  H  H184  1  0.486500  0.672700  0.763100  1.0  0.0919
  H  H185  1  0.908000  0.562800  0.170800  1.0  0.0965
  H  H186  1  0.935100  0.466200  0.150600  1.0  0.0965
  H  H187  1  0.764600  0.417700  0.149100  1.0  0.1039
  H  H188  1  0.736900  0.513500  0.172700  1.0  0.093
  H  H189  1  0.092000  0.062800  0.329200  1.0  0.0964
  H  H190  1  0.064900  0.966200  0.349400  1.0  0.0949
  H  H191  1  0.235400  0.917700  0.350900  1.0  0.1043
  H  H192  1  0.263100  0.013500  0.327300  1.0  0.0915
  H  H193  1  0.408000  0.937200  0.829200  1.0  0.0968
  H  H194  1  0.435100  0.033800  0.849400  1.0  0.0972
  H  H195  1  0.264600  0.082300  0.850900  1.0  0.1038
  H  H196  1  0.236900  0.986500  0.827300  1.0  0.0928
  H  H197  1  0.592000  0.437200  0.670800  1.0  0.0957
  H  H198  1  0.564900  0.533800  0.650600  1.0  0.0956
  H  H199  1  0.735400  0.582300  0.649100  1.0  0.1045
  H  H200  1  0.763100  0.486500  0.672700  1.0  0.0913
  H  H201  1  0.329200  0.592000  0.937200  1.0  0.095
  H  H202  1  0.349400  0.564900  0.033800  1.0  0.0954
  H  H203  1  0.350900  0.735400  0.082300  1.0  0.1043
  H  H204  1  0.327300  0.763100  0.986500  1.0  0.0893
  H  H205  1  0.170800  0.408000  0.437200  1.0  0.0947
  H  H206  1  0.150600  0.435100  0.533800  1.0  0.0947
  H  H207  1  0.149100  0.264600  0.582300  1.0  0.103
  H  H208  1  0.172700  0.236900  0.486500  1.0  0.0885
  H  H209  1  0.670800  0.092000  0.562800  1.0  0.0953
  H  H210  1  0.650600  0.064900  0.466200  1.0  0.0955
  H  H211  1  0.649100  0.235400  0.417700  1.0  0.1047
  H  H212  1  0.672700  0.263100  0.513500  1.0  0.0893
  H  H213  1  0.829200  0.908000  0.062800  1.0  0.095
  H  H214  1  0.849400  0.935100  0.966200  1.0  0.095
  H  H215  1  0.850900  0.764600  0.917700  1.0  0.1039
  H  H216  1  0.827300  0.736900  0.013500  1.0  0.0893
  H  H217  1  0.937200  0.329200  0.592000  1.0  0.0967
  H  H218  1  0.033800  0.349400  0.564900  1.0  0.0957
  H  H219  1  0.082300  0.350900  0.735400  1.0  0.1055
  H  H220  1  0.986500  0.327300  0.763100  1.0  0.0918
  H  H221  1  0.437200  0.170800  0.408000  1.0  0.0969
  H  H222  1  0.533800  0.150600  0.435100  1.0  0.0965
  H  H223  1  0.582300  0.149100  0.264600  1.0  0.1052
  H  H224  1  0.486500  0.172700  0.236900  1.0  0.0916
  H  H225  1  0.562800  0.670800  0.092000  1.0  0.0962
  H  H226  1  0.466200  0.650600  0.064900  1.0  0.0972
  H  H227  1  0.417700  0.649100  0.235400  1.0  0.1048
  H  H228  1  0.513500  0.672700  0.263100  1.0  0.0917
  H  H229  1  0.062800  0.829200  0.908000  1.0  0.0971
  H  H230  1  0.966200  0.849400  0.935100  1.0  0.0954
  H  H231  1  0.917700  0.850900  0.764600  1.0  0.1052
  H  H232  1  0.013500  0.827300  0.736900  1.0  0.0912
  H  H233  1  0.592000  0.937200  0.329200  1.0  0.0965
  H  H234  1  0.564900  0.033800  0.349400  1.0  0.0954
  H  H235  1  0.735400  0.082300  0.350900  1.0  0.1043
  H  H236  1  0.763100  0.986500  0.327300  1.0  0.092
  H  H237  1  0.408000  0.437200  0.170800  1.0  0.0963
  H  H238  1  0.435100  0.533800  0.150600  1.0  0.0969
  H  H239  1  0.264600  0.582300  0.149100  1.0  0.1038
  H  H240  1  0.236900  0.486500  0.172700  1.0  0.0929
  H  H241  1  0.092000  0.562800  0.670800  1.0  0.0961
  H  H242  1  0.064900  0.466200  0.650600  1.0  0.0948
  H  H243  1  0.235400  0.417700  0.649100  1.0  0.1043
  H  H244  1  0.263100  0.513500  0.672700  1.0  0.0911
  H  H245  1  0.908000  0.062800  0.829200  1.0  0.0966
  H  H246  1  0.935100  0.966200  0.849400  1.0  0.0968
  H  H247  1  0.764600  0.917700  0.850900  1.0  0.1041
  H  H248  1  0.736900  0.013500  0.827300  1.0  0.0928
  H  H249  1  0.160600  0.839400  0.339400  1.0  0.0959
  H  H250  1  0.339400  0.160600  0.839400  1.0  0.0961
  H  H251  1  0.839400  0.339400  0.160600  1.0  0.0962
  H  H252  1  0.660600  0.660600  0.660600  1.0  0.0957
  H  H253  1  0.339400  0.660600  0.160600  1.0  0.0955
  H  H254  1  0.160600  0.339400  0.660600  1.0  0.0964
  H  H255  1  0.660600  0.160600  0.339400  1.0  0.0959
  H  H256  1  0.839400  0.839400  0.839400  1.0  0.096
  C  C257  1  0.674950  0.317920  0.048670  1.0  -0.1274
  C  C258  1  0.667240  0.378960  0.033560  1.0  -0.0808
  C  C259  1  0.654610  0.395200  0.975930  1.0  -0.1243
  C  C260  1  0.647940  0.352660  0.933020  1.0  0.0205
  C  C261  1  0.654170  0.293380  0.946870  1.0  -0.1461
  C  C262  1  0.668020  0.276970  0.004570  1.0  -0.0314
  C  C263  1  0.695700  0.298600  0.109030  1.0  0.6639
  C  C264  1  0.825050  0.682080  0.548670  1.0  -0.1286
  C  C265  1  0.832760  0.621040  0.533560  1.0  -0.0789
  C  C266  1  0.845390  0.604800  0.475930  1.0  -0.1216
  C  C267  1  0.852060  0.647340  0.433020  1.0  0.0221
  C  C268  1  0.845830  0.706620  0.446870  1.0  -0.1447
  C  C269  1  0.831980  0.723030  0.504570  1.0  -0.0299
  C  C270  1  0.804300  0.701400  0.609030  1.0  0.6647
  C  C271  1  0.325050  0.817920  0.451330  1.0  -0.1261
  C  C272  1  0.332760  0.878960  0.466440  1.0  -0.0798
  C  C273  1  0.345390  0.895200  0.524070  1.0  -0.1204
  C  C274  1  0.352060  0.852660  0.566980  1.0  0.0222
  C  C275  1  0.345830  0.793380  0.553130  1.0  -0.1463
  C  C276  1  0.331980  0.776970  0.495430  1.0  -0.0327
  C  C277  1  0.304300  0.798600  0.390970  1.0  0.6648
  C  C278  1  0.174950  0.182080  0.951330  1.0  -0.1274
  C  C279  1  0.167240  0.121040  0.966440  1.0  -0.0775
  C  C280  1  0.154610  0.104800  0.024070  1.0  -0.1218
  C  C281  1  0.147940  0.147340  0.066980  1.0  0.0207
  C  C282  1  0.154170  0.206620  0.053130  1.0  -0.1444
  C  C283  1  0.168020  0.223030  0.995430  1.0  -0.0296
  C  C284  1  0.195700  0.201400  0.890970  1.0  0.6627
  C  C285  1  0.048670  0.674950  0.317920  1.0  -0.127
  C  C286  1  0.033560  0.667240  0.378960  1.0  -0.0832
  C  C287  1  0.975930  0.654610  0.395200  1.0  -0.1144
  C  C288  1  0.933020  0.647940  0.352660  1.0  0.0205
  C  C289  1  0.946870  0.654170  0.293380  1.0  -0.1394
  C  C290  1  0.004570  0.668020  0.276970  1.0  -0.0244
  C  C291  1  0.109030  0.695700  0.298600  1.0  0.6597
  C  C292  1  0.548670  0.825050  0.682080  1.0  -0.1283
  C  C293  1  0.533560  0.832760  0.621040  1.0  -0.0822
  C  C294  1  0.475930  0.845390  0.604800  1.0  -0.1096
  C  C295  1  0.433020  0.852060  0.647340  1.0  0.0209
  C  C296  1  0.446870  0.845830  0.706620  1.0  -0.1396
  C  C297  1  0.504570  0.831980  0.723030  1.0  -0.0231
  C  C298  1  0.609030  0.804300  0.701400  1.0  0.6605
  C  C299  1  0.451330  0.325050  0.817920  1.0  -0.1289
  C  C300  1  0.466440  0.332760  0.878960  1.0  -0.0828
  C  C301  1  0.524070  0.345390  0.895200  1.0  -0.1121
  C  C302  1  0.566980  0.352060  0.852660  1.0  0.0217
  C  C303  1  0.553130  0.345830  0.793380  1.0  -0.1419
  C  C304  1  0.495430  0.331980  0.776970  1.0  -0.022
  C  C305  1  0.390970  0.304300  0.798600  1.0  0.6598
  C  C306  1  0.951330  0.174950  0.182080  1.0  -0.1287
  C  C307  1  0.966440  0.167240  0.121040  1.0  -0.0816
  C  C308  1  0.024070  0.154610  0.104800  1.0  -0.1073
  C  C309  1  0.066980  0.147940  0.147340  1.0  0.0217
  C  C310  1  0.053130  0.154170  0.206620  1.0  -0.1422
  C  C311  1  0.995430  0.168020  0.223030  1.0  -0.0236
  C  C312  1  0.890970  0.195700  0.201400  1.0  0.6606
  C  C313  1  0.317920  0.048670  0.674950  1.0  -0.1243
  C  C314  1  0.378960  0.033560  0.667240  1.0  -0.0803
  C  C315  1  0.395200  0.975930  0.654610  1.0  -0.1159
  C  C316  1  0.352660  0.933020  0.647940  1.0  0.0225
  C  C317  1  0.293380  0.946870  0.654170  1.0  -0.1437
  C  C318  1  0.276970  0.004570  0.668020  1.0  -0.0237
  C  C319  1  0.298600  0.109030  0.695700  1.0  0.6589
  C  C320  1  0.682080  0.548670  0.825050  1.0  -0.1255
  C  C321  1  0.621040  0.533560  0.832760  1.0  -0.0848
  C  C322  1  0.604800  0.475930  0.845390  1.0  -0.1179
  C  C323  1  0.647340  0.433020  0.852060  1.0  0.0215
  C  C324  1  0.706620  0.446870  0.845830  1.0  -0.1444
  C  C325  1  0.723030  0.504570  0.831980  1.0  -0.0234
  C  C326  1  0.701400  0.609030  0.804300  1.0  0.6593
  C  C327  1  0.817920  0.451330  0.325050  1.0  -0.1245
  C  C328  1  0.878960  0.466440  0.332760  1.0  -0.0821
  C  C329  1  0.895200  0.524070  0.345390  1.0  -0.1158
  C  C330  1  0.852660  0.566980  0.352060  1.0  0.0229
  C  C331  1  0.793380  0.553130  0.345830  1.0  -0.1446
  C  C332  1  0.776970  0.495430  0.331980  1.0  -0.0214
  C  C333  1  0.798600  0.390970  0.304300  1.0  0.6579
  C  C334  1  0.182080  0.951330  0.174950  1.0  -0.1253
  C  C335  1  0.121040  0.966440  0.167240  1.0  -0.0821
  C  C336  1  0.104800  0.024070  0.154610  1.0  -0.1171
  C  C337  1  0.147340  0.066980  0.147940  1.0  0.0208
  C  C338  1  0.206620  0.053130  0.154170  1.0  -0.1453
  C  C339  1  0.223030  0.995430  0.168020  1.0  -0.0242
  C  C340  1  0.201400  0.890970  0.195700  1.0  0.6587
  C  C341  1  0.825050  0.182080  0.451330  1.0  -0.1264
  C  C342  1  0.832760  0.121040  0.466440  1.0  -0.0787
  C  C343  1  0.845390  0.104800  0.524070  1.0  -0.1221
  C  C344  1  0.852060  0.147340  0.566980  1.0  0.0218
  C  C345  1  0.845830  0.206620  0.553130  1.0  -0.144
  C  C346  1  0.831980  0.223030  0.495430  1.0  -0.0303
  C  C347  1  0.804300  0.201400  0.390970  1.0  0.6637
  C  C348  1  0.674950  0.817920  0.951330  1.0  -0.127
  C  C349  1  0.667240  0.878960  0.966440  1.0  -0.08
  C  C350  1  0.654610  0.895200  0.024070  1.0  -0.1204
  C  C351  1  0.647940  0.852660  0.066980  1.0  0.0213
  C  C352  1  0.654170  0.793380  0.053130  1.0  -0.1462
  C  C353  1  0.668020  0.776970  0.995430  1.0  -0.0323
  C  C354  1  0.695700  0.798600  0.890970  1.0  0.6633
  C  C355  1  0.174950  0.682080  0.048670  1.0  -0.1279
  C  C356  1  0.167240  0.621040  0.033560  1.0  -0.078
  C  C357  1  0.154610  0.604800  0.975930  1.0  -0.1222
  C  C358  1  0.147940  0.647340  0.933020  1.0  0.0209
  C  C359  1  0.154170  0.706620  0.946870  1.0  -0.1454
  C  C360  1  0.168020  0.723030  0.004570  1.0  -0.0288
  C  C361  1  0.195700  0.701400  0.109030  1.0  0.6629
  C  C362  1  0.325050  0.317920  0.548670  1.0  -0.128
  C  C363  1  0.332760  0.378960  0.533560  1.0  -0.0796
  C  C364  1  0.345390  0.395200  0.475930  1.0  -0.1228
  C  C365  1  0.352060  0.352660  0.433020  1.0  0.0214
  C  C366  1  0.345830  0.293380  0.446870  1.0  -0.1456
  C  C367  1  0.331980  0.276970  0.504570  1.0  -0.0322
  C  C368  1  0.304300  0.298600  0.609030  1.0  0.6657
  C  C369  1  0.451330  0.825050  0.182080  1.0  -0.1288
  C  C370  1  0.466440  0.832760  0.121040  1.0  -0.0813
  C  C371  1  0.524070  0.845390  0.104800  1.0  -0.1076
  C  C372  1  0.566980  0.852060  0.147340  1.0  0.0217
  C  C373  1  0.553130  0.845830  0.206620  1.0  -0.1418
  C  C374  1  0.495430  0.831980  0.223030  1.0  -0.0227
  C  C375  1  0.390970  0.804300  0.201400  1.0  0.66
  C  C376  1  0.951330  0.674950  0.817920  1.0  -0.1287
  C  C377  1  0.966440  0.667240  0.878960  1.0  -0.0831
  C  C378  1  0.024070  0.654610  0.895200  1.0  -0.1129
  C  C379  1  0.066980  0.647940  0.852660  1.0  0.0217
  C  C380  1  0.053130  0.654170  0.793380  1.0  -0.1417
  C  C381  1  0.995430  0.668020  0.776970  1.0  -0.0226
  C  C382  1  0.890970  0.695700  0.798600  1.0  0.6598
  C  C383  1  0.048670  0.174950  0.682080  1.0  -0.127
  C  C384  1  0.033560  0.167240  0.621040  1.0  -0.0829
  C  C385  1  0.975930  0.154610  0.604800  1.0  -0.1096
  C  C386  1  0.933020  0.147940  0.647340  1.0  0.0205
  C  C387  1  0.946870  0.154170  0.706620  1.0  -0.1395
  C  C388  1  0.004570  0.168020  0.723030  1.0  -0.0247
  C  C389  1  0.109030  0.195700  0.701400  1.0  0.6608
  C  C390  1  0.548670  0.325050  0.317920  1.0  -0.1282
  C  C391  1  0.533560  0.332760  0.378960  1.0  -0.0821
  C  C392  1  0.475930  0.345390  0.395200  1.0  -0.1132
  C  C393  1  0.433020  0.352060  0.352660  1.0  0.0209
  C  C394  1  0.446870  0.345830  0.293380  1.0  -0.1403
  C  C395  1  0.504570  0.331980  0.276970  1.0  -0.0242
  C  C396  1  0.609030  0.304300  0.298600  1.0  0.6599
  C  C397  1  0.182080  0.451330  0.825050  1.0  -0.1243
  C  C398  1  0.121040  0.466440  0.832760  1.0  -0.0839
  C  C399  1  0.104800  0.524070  0.845390  1.0  -0.1161
  C  C400  1  0.147340  0.566980  0.852060  1.0  0.0216
  C  C401  1  0.206620  0.553130  0.845830  1.0  -0.1448
  C  C402  1  0.223030  0.495430  0.831980  1.0  -0.0243
  C  C403  1  0.201400  0.390970  0.804300  1.0  0.6595
  C  C404  1  0.817920  0.951330  0.674950  1.0  -0.1252
  C  C405  1  0.878960  0.966440  0.667240  1.0  -0.0814
  C  C406  1  0.895200  0.024070  0.654610  1.0  -0.1165
  C  C407  1  0.852660  0.066980  0.647940  1.0  0.0222
  C  C408  1  0.793380  0.053130  0.654170  1.0  -0.1447
  C  C409  1  0.776970  0.995430  0.668020  1.0  -0.0224
  C  C410  1  0.798600  0.890970  0.695700  1.0  0.6587
  C  C411  1  0.682080  0.048670  0.174950  1.0  -0.1244
  C  C412  1  0.621040  0.033560  0.167240  1.0  -0.0818
  C  C413  1  0.604800  0.975930  0.154610  1.0  -0.118
  C  C414  1  0.647340  0.933020  0.147940  1.0  0.0208
  C  C415  1  0.706620  0.946870  0.154170  1.0  -0.1448
  C  C416  1  0.723030  0.004570  0.168020  1.0  -0.0226
  C  C417  1  0.701400  0.109030  0.195700  1.0  0.6589
  C  C418  1  0.317920  0.548670  0.325050  1.0  -0.126
  C  C419  1  0.378960  0.533560  0.332760  1.0  -0.0816
  C  C420  1  0.395200  0.475930  0.345390  1.0  -0.1161
  C  C421  1  0.352660  0.433020  0.352060  1.0  0.0229
  C  C422  1  0.293380  0.446870  0.345830  1.0  -0.1436
  C  C423  1  0.276970  0.504570  0.331980  1.0  -0.023
  C  C424  1  0.298600  0.609030  0.304300  1.0  0.6578
  C  C425  1  0.635460  0.364540  0.864540  1.0  -0.107
  C  C426  1  0.864540  0.635460  0.364540  1.0  -0.1073
  C  C427  1  0.364540  0.864540  0.635460  1.0  -0.1079
  C  C428  1  0.135460  0.135460  0.135460  1.0  -0.1067
  C  C429  1  0.864540  0.135460  0.635460  1.0  -0.1075
  C  C430  1  0.635460  0.864540  0.135460  1.0  -0.107
  C  C431  1  0.135460  0.635460  0.864540  1.0  -0.1066
  C  C432  1  0.364540  0.364540  0.364540  1.0  -0.1076
  C  C433  1  0.174950  0.817920  0.548670  1.0  -0.1274
  C  C434  1  0.167240  0.878960  0.533560  1.0  -0.0808
  C  C435  1  0.154610  0.895200  0.475930  1.0  -0.1243
  C  C436  1  0.147940  0.852660  0.433020  1.0  0.0205
  C  C437  1  0.154170  0.793380  0.446870  1.0  -0.1461
  C  C438  1  0.168020  0.776970  0.504570  1.0  -0.0314
  C  C439  1  0.195700  0.798600  0.609030  1.0  0.6639
  C  C440  1  0.325050  0.182080  0.048670  1.0  -0.1286
  C  C441  1  0.332760  0.121040  0.033560  1.0  -0.0789
  C  C442  1  0.345390  0.104800  0.975930  1.0  -0.1216
  C  C443  1  0.352060  0.147340  0.933020  1.0  0.0221
  C  C444  1  0.345830  0.206620  0.946870  1.0  -0.1447
  C  C445  1  0.331980  0.223030  0.004570  1.0  -0.0299
  C  C446  1  0.304300  0.201400  0.109030  1.0  0.6647
  C  C447  1  0.825050  0.317920  0.951330  1.0  -0.1261
  C  C448  1  0.832760  0.378960  0.966440  1.0  -0.0798
  C  C449  1  0.845390  0.395200  0.024070  1.0  -0.1204
  C  C450  1  0.852060  0.352660  0.066980  1.0  0.0222
  C  C451  1  0.845830  0.293380  0.053130  1.0  -0.1463
  C  C452  1  0.831980  0.276970  0.995430  1.0  -0.0327
  C  C453  1  0.804300  0.298600  0.890970  1.0  0.6648
  C  C454  1  0.674950  0.682080  0.451330  1.0  -0.1274
  C  C455  1  0.667240  0.621040  0.466440  1.0  -0.0775
  C  C456  1  0.654610  0.604800  0.524070  1.0  -0.1218
  C  C457  1  0.647940  0.647340  0.566980  1.0  0.0207
  C  C458  1  0.654170  0.706620  0.553130  1.0  -0.1444
  C  C459  1  0.668020  0.723030  0.495430  1.0  -0.0296
  C  C460  1  0.695700  0.701400  0.390970  1.0  0.6627
  C  C461  1  0.548670  0.174950  0.817920  1.0  -0.127
  C  C462  1  0.533560  0.167240  0.878960  1.0  -0.0832
  C  C463  1  0.475930  0.154610  0.895200  1.0  -0.1144
  C  C464  1  0.433020  0.147940  0.852660  1.0  0.0205
  C  C465  1  0.446870  0.154170  0.793380  1.0  -0.1394
  C  C466  1  0.504570  0.168020  0.776970  1.0  -0.0244
  C  C467  1  0.609030  0.195700  0.798600  1.0  0.6597
  C  C468  1  0.048670  0.325050  0.182080  1.0  -0.1283
  C  C469  1  0.033560  0.332760  0.121040  1.0  -0.0822
  C  C470  1  0.975930  0.345390  0.104800  1.0  -0.1096
  C  C471  1  0.933020  0.352060  0.147340  1.0  0.0209
  C  C472  1  0.946870  0.345830  0.206620  1.0  -0.1396
  C  C473  1  0.004570  0.331980  0.223030  1.0  -0.0231
  C  C474  1  0.109030  0.304300  0.201400  1.0  0.6605
  C  C475  1  0.951330  0.825050  0.317920  1.0  -0.1289
  C  C476  1  0.966440  0.832760  0.378960  1.0  -0.0828
  C  C477  1  0.024070  0.845390  0.395200  1.0  -0.1121
  C  C478  1  0.066980  0.852060  0.352660  1.0  0.0217
  C  C479  1  0.053130  0.845830  0.293380  1.0  -0.1419
  C  C480  1  0.995430  0.831980  0.276970  1.0  -0.022
  C  C481  1  0.890970  0.804300  0.298600  1.0  0.6598
  C  C482  1  0.451330  0.674950  0.682080  1.0  -0.1287
  C  C483  1  0.466440  0.667240  0.621040  1.0  -0.0816
  C  C484  1  0.524070  0.654610  0.604800  1.0  -0.1073
  C  C485  1  0.566980  0.647940  0.647340  1.0  0.0217
  C  C486  1  0.553130  0.654170  0.706620  1.0  -0.1422
  C  C487  1  0.495430  0.668020  0.723030  1.0  -0.0236
  C  C488  1  0.390970  0.695700  0.701400  1.0  0.6606
  C  C489  1  0.817920  0.548670  0.174950  1.0  -0.1243
  C  C490  1  0.878960  0.533560  0.167240  1.0  -0.0803
  C  C491  1  0.895200  0.475930  0.154610  1.0  -0.1159
  C  C492  1  0.852660  0.433020  0.147940  1.0  0.0225
  C  C493  1  0.793380  0.446870  0.154170  1.0  -0.1437
  C  C494  1  0.776970  0.504570  0.168020  1.0  -0.0237
  C  C495  1  0.798600  0.609030  0.195700  1.0  0.6589
  C  C496  1  0.182080  0.048670  0.325050  1.0  -0.1255
  C  C497  1  0.121040  0.033560  0.332760  1.0  -0.0848
  C  C498  1  0.104800  0.975930  0.345390  1.0  -0.1179
  C  C499  1  0.147340  0.933020  0.352060  1.0  0.0215
  C  C500  1  0.206620  0.946870  0.345830  1.0  -0.1444
  C  C501  1  0.223030  0.004570  0.331980  1.0  -0.0234
  C  C502  1  0.201400  0.109030  0.304300  1.0  0.6593
  C  C503  1  0.317920  0.951330  0.825050  1.0  -0.1245
  C  C504  1  0.378960  0.966440  0.832760  1.0  -0.0821
  C  C505  1  0.395200  0.024070  0.845390  1.0  -0.1158
  C  C506  1  0.352660  0.066980  0.852060  1.0  0.0229
  C  C507  1  0.293380  0.053130  0.845830  1.0  -0.1446
  C  C508  1  0.276970  0.995430  0.831980  1.0  -0.0214
  C  C509  1  0.298600  0.890970  0.804300  1.0  0.6579
  C  C510  1  0.682080  0.451330  0.674950  1.0  -0.1253
  C  C511  1  0.621040  0.466440  0.667240  1.0  -0.0821
  C  C512  1  0.604800  0.524070  0.654610  1.0  -0.1171
  C  C513  1  0.647340  0.566980  0.647940  1.0  0.0208
  C  C514  1  0.706620  0.553130  0.654170  1.0  -0.1453
  C  C515  1  0.723030  0.495430  0.668020  1.0  -0.0242
  C  C516  1  0.701400  0.390970  0.695700  1.0  0.6587
  C  C517  1  0.325050  0.682080  0.951330  1.0  -0.1264
  C  C518  1  0.332760  0.621040  0.966440  1.0  -0.0787
  C  C519  1  0.345390  0.604800  0.024070  1.0  -0.1221
  C  C520  1  0.352060  0.647340  0.066980  1.0  0.0218
  C  C521  1  0.345830  0.706620  0.053130  1.0  -0.144
  C  C522  1  0.331980  0.723030  0.995430  1.0  -0.0303
  C  C523  1  0.304300  0.701400  0.890970  1.0  0.6637
  C  C524  1  0.174950  0.317920  0.451330  1.0  -0.127
  C  C525  1  0.167240  0.378960  0.466440  1.0  -0.08
  C  C526  1  0.154610  0.395200  0.524070  1.0  -0.1204
  C  C527  1  0.147940  0.352660  0.566980  1.0  0.0213
  C  C528  1  0.154170  0.293380  0.553130  1.0  -0.1462
  C  C529  1  0.168020  0.276970  0.495430  1.0  -0.0323
  C  C530  1  0.195700  0.298600  0.390970  1.0  0.6633
  C  C531  1  0.674950  0.182080  0.548670  1.0  -0.1279
  C  C532  1  0.667240  0.121040  0.533560  1.0  -0.078
  C  C533  1  0.654610  0.104800  0.475930  1.0  -0.1222
  C  C534  1  0.647940  0.147340  0.433020  1.0  0.0209
  C  C535  1  0.654170  0.206620  0.446870  1.0  -0.1454
  C  C536  1  0.668020  0.223030  0.504570  1.0  -0.0288
  C  C537  1  0.695700  0.201400  0.609030  1.0  0.6629
  C  C538  1  0.825050  0.817920  0.048670  1.0  -0.128
  C  C539  1  0.832760  0.878960  0.033560  1.0  -0.0796
  C  C540  1  0.845390  0.895200  0.975930  1.0  -0.1228
  C  C541  1  0.852060  0.852660  0.933020  1.0  0.0214
  C  C542  1  0.845830  0.793380  0.946870  1.0  -0.1456
  C  C543  1  0.831980  0.776970  0.004570  1.0  -0.0322
  C  C544  1  0.804300  0.798600  0.109030  1.0  0.6657
  C  C545  1  0.951330  0.325050  0.682080  1.0  -0.1288
  C  C546  1  0.966440  0.332760  0.621040  1.0  -0.0813
  C  C547  1  0.024070  0.345390  0.604800  1.0  -0.1076
  C  C548  1  0.066980  0.352060  0.647340  1.0  0.0217
  C  C549  1  0.053130  0.345830  0.706620  1.0  -0.1418
  C  C550  1  0.995430  0.331980  0.723030  1.0  -0.0227
  C  C551  1  0.890970  0.304300  0.701400  1.0  0.66
  C  C552  1  0.451330  0.174950  0.317920  1.0  -0.1287
  C  C553  1  0.466440  0.167240  0.378960  1.0  -0.0831
  C  C554  1  0.524070  0.154610  0.395200  1.0  -0.1129
  C  C555  1  0.566980  0.147940  0.352660  1.0  0.0217
  C  C556  1  0.553130  0.154170  0.293380  1.0  -0.1417
  C  C557  1  0.495430  0.168020  0.276970  1.0  -0.0226
  C  C558  1  0.390970  0.195700  0.298600  1.0  0.6598
  C  C559  1  0.548670  0.674950  0.182080  1.0  -0.127
  C  C560  1  0.533560  0.667240  0.121040  1.0  -0.0829
  C  C561  1  0.475930  0.654610  0.104800  1.0  -0.1096
  C  C562  1  0.433020  0.647940  0.147340  1.0  0.0205
  C  C563  1  0.446870  0.654170  0.206620  1.0  -0.1395
  C  C564  1  0.504570  0.668020  0.223030  1.0  -0.0247
  C  C565  1  0.609030  0.695700  0.201400  1.0  0.6608
  C  C566  1  0.048670  0.825050  0.817920  1.0  -0.1282
  C  C567  1  0.033560  0.832760  0.878960  1.0  -0.0821
  C  C568  1  0.975930  0.845390  0.895200  1.0  -0.1132
  C  C569  1  0.933020  0.852060  0.852660  1.0  0.0209
  C  C570  1  0.946870  0.845830  0.793380  1.0  -0.1403
  C  C571  1  0.004570  0.831980  0.776970  1.0  -0.0242
  C  C572  1  0.109030  0.804300  0.798600  1.0  0.6599
  C  C573  1  0.682080  0.951330  0.325050  1.0  -0.1243
  C  C574  1  0.621040  0.966440  0.332760  1.0  -0.0839
  C  C575  1  0.604800  0.024070  0.345390  1.0  -0.1161
  C  C576  1  0.647340  0.066980  0.352060  1.0  0.0216
  C  C577  1  0.706620  0.053130  0.345830  1.0  -0.1448
  C  C578  1  0.723030  0.995430  0.331980  1.0  -0.0243
  C  C579  1  0.701400  0.890970  0.304300  1.0  0.6595
  C  C580  1  0.317920  0.451330  0.174950  1.0  -0.1252
  C  C581  1  0.378960  0.466440  0.167240  1.0  -0.0814
  C  C582  1  0.395200  0.524070  0.154610  1.0  -0.1165
  C  C583  1  0.352660  0.566980  0.147940  1.0  0.0222
  C  C584  1  0.293380  0.553130  0.154170  1.0  -0.1447
  C  C585  1  0.276970  0.495430  0.168020  1.0  -0.0224
  C  C586  1  0.298600  0.390970  0.195700  1.0  0.6587
  C  C587  1  0.182080  0.548670  0.674950  1.0  -0.1244
  C  C588  1  0.121040  0.533560  0.667240  1.0  -0.0818
  C  C589  1  0.104800  0.475930  0.654610  1.0  -0.118
  C  C590  1  0.147340  0.433020  0.647940  1.0  0.0208
  C  C591  1  0.206620  0.446870  0.654170  1.0  -0.1448
  C  C592  1  0.223030  0.504570  0.668020  1.0  -0.0226
  C  C593  1  0.201400  0.609030  0.695700  1.0  0.6589
  C  C594  1  0.817920  0.048670  0.825050  1.0  -0.126
  C  C595  1  0.878960  0.033560  0.832760  1.0  -0.0816
  C  C596  1  0.895200  0.975930  0.845390  1.0  -0.1161
  C  C597  1  0.852660  0.933020  0.852060  1.0  0.0229
  C  C598  1  0.793380  0.946870  0.845830  1.0  -0.1436
  C  C599  1  0.776970  0.004570  0.831980  1.0  -0.023
  C  C600  1  0.798600  0.109030  0.804300  1.0  0.6578
  C  C601  1  0.135460  0.864540  0.364540  1.0  -0.107
  C  C602  1  0.364540  0.135460  0.864540  1.0  -0.1073
  C  C603  1  0.864540  0.364540  0.135460  1.0  -0.1079
  C  C604  1  0.635460  0.635460  0.635460  1.0  -0.1067
  C  C605  1  0.364540  0.635460  0.135460  1.0  -0.1075
  C  C606  1  0.135460  0.364540  0.635460  1.0  -0.107
  C  C607  1  0.635460  0.135460  0.364540  1.0  -0.1066
  C  C608  1  0.864540  0.864540  0.864540  1.0  -0.1076
  O  O609  1  0.705200  0.247600  0.115000  1.0  -0.672
  O  O610  1  0.698760  0.335150  0.150020  1.0  -0.6679
  O  O611  1  0.794800  0.752400  0.615000  1.0  -0.6743
  O  O612  1  0.801240  0.664850  0.650020  1.0  -0.6679
  O  O613  1  0.294800  0.747600  0.385000  1.0  -0.673
  O  O614  1  0.301240  0.835150  0.349980  1.0  -0.6679
  O  O615  1  0.205200  0.252400  0.885000  1.0  -0.6737
  O  O616  1  0.198760  0.164850  0.849980  1.0  -0.6689
  O  O617  1  0.115000  0.705200  0.247600  1.0  -0.6777
  O  O618  1  0.150020  0.698760  0.335150  1.0  -0.667
  O  O619  1  0.615000  0.794800  0.752400  1.0  -0.6736
  O  O620  1  0.650020  0.801240  0.664850  1.0  -0.668
  O  O621  1  0.385000  0.294800  0.747600  1.0  -0.6793
  O  O622  1  0.349980  0.301240  0.835150  1.0  -0.6664
  O  O623  1  0.885000  0.205200  0.252400  1.0  -0.6737
  O  O624  1  0.849980  0.198760  0.164850  1.0  -0.669
  O  O625  1  0.247600  0.115000  0.705200  1.0  -0.6739
  O  O626  1  0.335150  0.150020  0.698760  1.0  -0.6673
  O  O627  1  0.752400  0.615000  0.794800  1.0  -0.6744
  O  O628  1  0.664850  0.650020  0.801240  1.0  -0.6669
  O  O629  1  0.747600  0.385000  0.294800  1.0  -0.6735
  O  O630  1  0.835150  0.349980  0.301240  1.0  -0.6668
  O  O631  1  0.252400  0.885000  0.205200  1.0  -0.6734
  O  O632  1  0.164850  0.849980  0.198760  1.0  -0.6684
  O  O633  1  0.794800  0.252400  0.385000  1.0  -0.6738
  O  O634  1  0.801240  0.164850  0.349980  1.0  -0.6683
  O  O635  1  0.705200  0.747600  0.885000  1.0  -0.6718
  O  O636  1  0.698760  0.835150  0.849980  1.0  -0.6679
  O  O637  1  0.205200  0.752400  0.115000  1.0  -0.6741
  O  O638  1  0.198760  0.664850  0.150020  1.0  -0.6671
  O  O639  1  0.294800  0.247600  0.615000  1.0  -0.6733
  O  O640  1  0.301240  0.335150  0.650020  1.0  -0.6678
  O  O641  1  0.385000  0.794800  0.252400  1.0  -0.6737
  O  O642  1  0.349980  0.801240  0.164850  1.0  -0.6679
  O  O643  1  0.885000  0.705200  0.747600  1.0  -0.679
  O  O644  1  0.849980  0.698760  0.835150  1.0  -0.6673
  O  O645  1  0.115000  0.205200  0.752400  1.0  -0.6736
  O  O646  1  0.150020  0.198760  0.664850  1.0  -0.6678
  O  O647  1  0.615000  0.294800  0.247600  1.0  -0.6782
  O  O648  1  0.650020  0.301240  0.335150  1.0  -0.6661
  O  O649  1  0.252400  0.385000  0.794800  1.0  -0.6737
  O  O650  1  0.164850  0.349980  0.801240  1.0  -0.6666
  O  O651  1  0.747600  0.885000  0.705200  1.0  -0.6729
  O  O652  1  0.835150  0.849980  0.698760  1.0  -0.6675
  O  O653  1  0.752400  0.115000  0.205200  1.0  -0.6738
  O  O654  1  0.664850  0.150020  0.198760  1.0  -0.6671
  O  O655  1  0.247600  0.615000  0.294800  1.0  -0.6745
  O  O656  1  0.335150  0.650020  0.301240  1.0  -0.6665
  O  O657  1  0.750000  0.250000  0.250000  1.0  -0.8362
  O  O658  1  0.750000  0.750000  0.750000  1.0  -0.8362
  O  O659  1  0.250000  0.750000  0.250000  1.0  -0.8362
  O  O660  1  0.250000  0.250000  0.750000  1.0  -0.8362
  O  O661  1  0.205200  0.747600  0.615000  1.0  -0.672
  O  O662  1  0.198760  0.835150  0.650020  1.0  -0.668
  O  O663  1  0.294800  0.252400  0.115000  1.0  -0.6743
  O  O664  1  0.301240  0.164850  0.150020  1.0  -0.668
  O  O665  1  0.794800  0.247600  0.885000  1.0  -0.673
  O  O666  1  0.801240  0.335150  0.849980  1.0  -0.6681
  O  O667  1  0.705200  0.752400  0.385000  1.0  -0.6737
  O  O668  1  0.698760  0.664850  0.349980  1.0  -0.669
  O  O669  1  0.615000  0.205200  0.747600  1.0  -0.6777
  O  O670  1  0.650020  0.198760  0.835150  1.0  -0.6672
  O  O671  1  0.115000  0.294800  0.252400  1.0  -0.6736
  O  O672  1  0.150020  0.301240  0.164850  1.0  -0.6682
  O  O673  1  0.885000  0.794800  0.247600  1.0  -0.6793
  O  O674  1  0.849980  0.801240  0.335150  1.0  -0.6666
  O  O675  1  0.385000  0.705200  0.752400  1.0  -0.6737
  O  O676  1  0.349980  0.698760  0.664850  1.0  -0.6692
  O  O677  1  0.747600  0.615000  0.205200  1.0  -0.6739
  O  O678  1  0.835150  0.650020  0.198760  1.0  -0.6675
  O  O679  1  0.252400  0.115000  0.294800  1.0  -0.6744
  O  O680  1  0.164850  0.150020  0.301240  1.0  -0.6671
  O  O681  1  0.247600  0.885000  0.794800  1.0  -0.6735
  O  O682  1  0.335150  0.849980  0.801240  1.0  -0.667
  O  O683  1  0.752400  0.385000  0.705200  1.0  -0.6734
  O  O684  1  0.664850  0.349980  0.698760  1.0  -0.6686
  O  O685  1  0.294800  0.752400  0.885000  1.0  -0.6738
  O  O686  1  0.301240  0.664850  0.849980  1.0  -0.6687
  O  O687  1  0.205200  0.247600  0.385000  1.0  -0.6718
  O  O688  1  0.198760  0.335150  0.349980  1.0  -0.6682
  O  O689  1  0.705200  0.252400  0.615000  1.0  -0.6741
  O  O690  1  0.698760  0.164850  0.650020  1.0  -0.6674
  O  O691  1  0.794800  0.747600  0.115000  1.0  -0.6733
  O  O692  1  0.801240  0.835150  0.150020  1.0  -0.6681
  O  O693  1  0.885000  0.294800  0.752400  1.0  -0.6737
  O  O694  1  0.849980  0.301240  0.664850  1.0  -0.6683
  O  O695  1  0.385000  0.205200  0.247600  1.0  -0.679
  O  O696  1  0.349980  0.198760  0.335150  1.0  -0.6676
  O  O697  1  0.615000  0.705200  0.252400  1.0  -0.6736
  O  O698  1  0.650020  0.698760  0.164850  1.0  -0.6684
  O  O699  1  0.115000  0.794800  0.747600  1.0  -0.6782
  O  O700  1  0.150020  0.801240  0.835150  1.0  -0.6663
  O  O701  1  0.752400  0.885000  0.294800  1.0  -0.6737
  O  O702  1  0.664850  0.849980  0.301240  1.0  -0.6669
  O  O703  1  0.247600  0.385000  0.205200  1.0  -0.6729
  O  O704  1  0.335150  0.349980  0.198760  1.0  -0.6679
  O  O705  1  0.252400  0.615000  0.705200  1.0  -0.6738
  O  O706  1  0.164850  0.650020  0.698760  1.0  -0.6674
  O  O707  1  0.747600  0.115000  0.794800  1.0  -0.6745
  O  O708  1  0.835150  0.150020  0.801240  1.0  -0.6668
  O  O709  1  0.250000  0.250000  0.250000  1.0  -0.8362
  O  O710  1  0.250000  0.750000  0.750000  1.0  -0.8362
  O  O711  1  0.750000  0.250000  0.750000  1.0  -0.8362
  O  O712  1  0.750000  0.750000  0.250000  1.0  -0.8362
