# generated using pymatgen
data_Zn6H26C44O13
_symmetry_space_group_name_H-M   'P 1'
_cell_length_a   22.55970000
_cell_length_b   22.55970000
_cell_length_c   22.55970000
_cell_angle_alpha   90.00000000
_cell_angle_beta   90.00000000
_cell_angle_gamma   90.00000000
_symmetry_Int_Tables_number   1
_chemical_formula_structural   Zn6H26C44O13
_chemical_formula_sum   'Zn48 H208 C352 O104'
_cell_volume   11481.53516385
_cell_formula_units_Z   8
loop_
 _symmetry_equiv_pos_site_id
 _symmetry_equiv_pos_as_xyz
  1  'x, y, z'
loop_
 _atom_site_type_symbol
 _atom_site_label
 _atom_site_symmetry_multiplicity
 _atom_site_fract_x
 _atom_site_fract_y
 _atom_site_fract_z
 _atom_site_occupancy
 _atom_site_charge
  Zn  Zn1  1  0.427750  0.453720  0.012530  1.0  0.9039
  Zn  Zn2  1  0.072250  0.546280  0.512530  1.0  0.902
  Zn  Zn3  1  0.572250  0.953720  0.487470  1.0  0.9025
  Zn  Zn4  1  0.927750  0.046280  0.987470  1.0  0.9028
  Zn  Zn5  1  0.012530  0.427750  0.453720  1.0  0.9058
  Zn  Zn6  1  0.512530  0.072250  0.546280  1.0  0.9037
  Zn  Zn7  1  0.487470  0.572250  0.953720  1.0  0.904
  Zn  Zn8  1  0.987470  0.927750  0.046280  1.0  0.9069
  Zn  Zn9  1  0.453720  0.012530  0.427750  1.0  0.9053
  Zn  Zn10  1  0.546280  0.512530  0.072250  1.0  0.9048
  Zn  Zn11  1  0.953720  0.487470  0.572250  1.0  0.9068
  Zn  Zn12  1  0.046280  0.987470  0.927750  1.0  0.9043
  Zn  Zn13  1  0.572250  0.546280  0.987470  1.0  0.9018
  Zn  Zn14  1  0.927750  0.453720  0.487470  1.0  0.9039
  Zn  Zn15  1  0.427750  0.046280  0.512530  1.0  0.9037
  Zn  Zn16  1  0.072250  0.953720  0.012530  1.0  0.903
  Zn  Zn17  1  0.987470  0.572250  0.546280  1.0  0.9042
  Zn  Zn18  1  0.487470  0.927750  0.453720  1.0  0.9065
  Zn  Zn19  1  0.512530  0.427750  0.046280  1.0  0.9068
  Zn  Zn20  1  0.012530  0.072250  0.953720  1.0  0.9041
  Zn  Zn21  1  0.546280  0.987470  0.572250  1.0  0.9055
  Zn  Zn22  1  0.453720  0.487470  0.927750  1.0  0.9057
  Zn  Zn23  1  0.046280  0.512530  0.427750  1.0  0.9045
  Zn  Zn24  1  0.953720  0.012530  0.072250  1.0  0.9068
  Zn  Zn25  1  0.927750  0.953720  0.512530  1.0  0.9039
  Zn  Zn26  1  0.572250  0.046280  0.012530  1.0  0.902
  Zn  Zn27  1  0.072250  0.453720  0.987470  1.0  0.9025
  Zn  Zn28  1  0.427750  0.546280  0.487470  1.0  0.9028
  Zn  Zn29  1  0.512530  0.927750  0.953720  1.0  0.9058
  Zn  Zn30  1  0.012530  0.572250  0.046280  1.0  0.9037
  Zn  Zn31  1  0.987470  0.072250  0.453720  1.0  0.904
  Zn  Zn32  1  0.487470  0.427750  0.546280  1.0  0.9069
  Zn  Zn33  1  0.953720  0.512530  0.927750  1.0  0.9053
  Zn  Zn34  1  0.046280  0.012530  0.572250  1.0  0.9048
  Zn  Zn35  1  0.453720  0.987470  0.072250  1.0  0.9068
  Zn  Zn36  1  0.546280  0.487470  0.427750  1.0  0.9043
  Zn  Zn37  1  0.072250  0.046280  0.487470  1.0  0.9018
  Zn  Zn38  1  0.427750  0.953720  0.987470  1.0  0.9039
  Zn  Zn39  1  0.927750  0.546280  0.012530  1.0  0.9037
  Zn  Zn40  1  0.572250  0.453720  0.512530  1.0  0.903
  Zn  Zn41  1  0.487470  0.072250  0.046280  1.0  0.9042
  Zn  Zn42  1  0.987470  0.427750  0.953720  1.0  0.9065
  Zn  Zn43  1  0.012530  0.927750  0.546280  1.0  0.9068
  Zn  Zn44  1  0.512530  0.572250  0.453720  1.0  0.9041
  Zn  Zn45  1  0.046280  0.487470  0.072250  1.0  0.9055
  Zn  Zn46  1  0.953720  0.987470  0.427750  1.0  0.9057
  Zn  Zn47  1  0.546280  0.012530  0.927750  1.0  0.9045
  Zn  Zn48  1  0.453720  0.512530  0.572250  1.0  0.9068
  H  H49  1  0.344000  0.427600  0.185200  1.0  0.0828
  H  H50  1  0.314600  0.401700  0.280300  1.0  0.0867
  H  H51  1  0.485000  0.398400  0.332100  1.0  0.0897
  H  H52  1  0.514400  0.424300  0.237000  1.0  0.0949
  H  H53  1  0.156000  0.572400  0.685200  1.0  0.0829
  H  H54  1  0.185400  0.598300  0.780300  1.0  0.0886
  H  H55  1  0.015000  0.601600  0.832100  1.0  0.0896
  H  H56  1  0.985600  0.575700  0.737000  1.0  0.0956
  H  H57  1  0.656000  0.927600  0.314800  1.0  0.0833
  H  H58  1  0.685400  0.901700  0.219700  1.0  0.0886
  H  H59  1  0.515000  0.898400  0.167900  1.0  0.0899
  H  H60  1  0.485600  0.924300  0.263000  1.0  0.0951
  H  H61  1  0.844000  0.072400  0.814800  1.0  0.0834
  H  H62  1  0.814600  0.098300  0.719700  1.0  0.0865
  H  H63  1  0.985000  0.101600  0.667900  1.0  0.09
  H  H64  1  0.014400  0.075700  0.763000  1.0  0.0945
  H  H65  1  0.185200  0.344000  0.427600  1.0  0.0835
  H  H66  1  0.280300  0.314600  0.401700  1.0  0.0871
  H  H67  1  0.332100  0.485000  0.398400  1.0  0.0891
  H  H68  1  0.237000  0.514400  0.424300  1.0  0.0939
  H  H69  1  0.685200  0.156000  0.572400  1.0  0.0839
  H  H70  1  0.780300  0.185400  0.598300  1.0  0.0868
  H  H71  1  0.832100  0.015000  0.601600  1.0  0.0893
  H  H72  1  0.737000  0.985600  0.575700  1.0  0.0941
  H  H73  1  0.314800  0.656000  0.927600  1.0  0.0835
  H  H74  1  0.219700  0.685400  0.901700  1.0  0.0872
  H  H75  1  0.167900  0.515000  0.898400  1.0  0.0883
  H  H76  1  0.263000  0.485600  0.924300  1.0  0.0942
  H  H77  1  0.814800  0.844000  0.072400  1.0  0.0841
  H  H78  1  0.719700  0.814600  0.098300  1.0  0.0873
  H  H79  1  0.667900  0.985000  0.101600  1.0  0.0893
  H  H80  1  0.763000  0.014400  0.075700  1.0  0.0942
  H  H81  1  0.427600  0.185200  0.344000  1.0  0.0811
  H  H82  1  0.401700  0.280300  0.314600  1.0  0.0912
  H  H83  1  0.398400  0.332100  0.485000  1.0  0.0901
  H  H84  1  0.424300  0.237000  0.514400  1.0  0.0955
  H  H85  1  0.572400  0.685200  0.156000  1.0  0.0813
  H  H86  1  0.598300  0.780300  0.185400  1.0  0.0906
  H  H87  1  0.601600  0.832100  0.015000  1.0  0.0901
  H  H88  1  0.575700  0.737000  0.985600  1.0  0.0948
  H  H89  1  0.927600  0.314800  0.656000  1.0  0.0823
  H  H90  1  0.901700  0.219700  0.685400  1.0  0.09
  H  H91  1  0.898400  0.167900  0.515000  1.0  0.0909
  H  H92  1  0.924300  0.263000  0.485600  1.0  0.095
  H  H93  1  0.072400  0.814800  0.844000  1.0  0.0811
  H  H94  1  0.098300  0.719700  0.814600  1.0  0.0905
  H  H95  1  0.101600  0.667900  0.985000  1.0  0.091
  H  H96  1  0.075700  0.763000  0.014400  1.0  0.0947
  H  H97  1  0.656000  0.572400  0.814800  1.0  0.0835
  H  H98  1  0.685400  0.598300  0.719700  1.0  0.0881
  H  H99  1  0.515000  0.601600  0.667900  1.0  0.0899
  H  H100  1  0.485600  0.575700  0.763000  1.0  0.0956
  H  H101  1  0.844000  0.427600  0.314800  1.0  0.0831
  H  H102  1  0.814600  0.401700  0.219700  1.0  0.0866
  H  H103  1  0.985000  0.398400  0.167900  1.0  0.0901
  H  H104  1  0.014400  0.424300  0.263000  1.0  0.0948
  H  H105  1  0.344000  0.072400  0.685200  1.0  0.0829
  H  H106  1  0.314600  0.098300  0.780300  1.0  0.0863
  H  H107  1  0.485000  0.101600  0.832100  1.0  0.0898
  H  H108  1  0.514400  0.075700  0.737000  1.0  0.0946
  H  H109  1  0.156000  0.927600  0.185200  1.0  0.083
  H  H110  1  0.185400  0.901700  0.280300  1.0  0.0886
  H  H111  1  0.015000  0.898400  0.332100  1.0  0.0895
  H  H112  1  0.985600  0.924300  0.237000  1.0  0.0951
  H  H113  1  0.814800  0.656000  0.572400  1.0  0.0837
  H  H114  1  0.719700  0.685400  0.598300  1.0  0.0865
  H  H115  1  0.667900  0.515000  0.601600  1.0  0.0886
  H  H116  1  0.763000  0.485600  0.575700  1.0  0.0942
  H  H117  1  0.314800  0.844000  0.427600  1.0  0.0834
  H  H118  1  0.219700  0.814600  0.401700  1.0  0.0874
  H  H119  1  0.167900  0.985000  0.398400  1.0  0.0891
  H  H120  1  0.263000  0.014400  0.424300  1.0  0.0939
  H  H121  1  0.685200  0.344000  0.072400  1.0  0.0839
  H  H122  1  0.780300  0.314600  0.098300  1.0  0.0874
  H  H123  1  0.832100  0.485000  0.101600  1.0  0.0893
  H  H124  1  0.737000  0.514400  0.075700  1.0  0.0941
  H  H125  1  0.185200  0.156000  0.927600  1.0  0.0839
  H  H126  1  0.280300  0.185400  0.901700  1.0  0.0871
  H  H127  1  0.332100  0.015000  0.898400  1.0  0.0889
  H  H128  1  0.237000  0.985600  0.924300  1.0  0.094
  H  H129  1  0.572400  0.814800  0.656000  1.0  0.0813
  H  H130  1  0.598300  0.719700  0.685400  1.0  0.0899
  H  H131  1  0.601600  0.667900  0.515000  1.0  0.0906
  H  H132  1  0.575700  0.763000  0.485600  1.0  0.0949
  H  H133  1  0.427600  0.314800  0.844000  1.0  0.0811
  H  H134  1  0.401700  0.219700  0.814600  1.0  0.0904
  H  H135  1  0.398400  0.167900  0.985000  1.0  0.0911
  H  H136  1  0.424300  0.263000  0.014400  1.0  0.0953
  H  H137  1  0.072400  0.685200  0.344000  1.0  0.0811
  H  H138  1  0.098300  0.780300  0.314600  1.0  0.0911
  H  H139  1  0.101600  0.832100  0.485000  1.0  0.0903
  H  H140  1  0.075700  0.737000  0.514400  1.0  0.0949
  H  H141  1  0.927600  0.185200  0.156000  1.0  0.0826
  H  H142  1  0.901700  0.280300  0.185400  1.0  0.0907
  H  H143  1  0.898400  0.332100  0.015000  1.0  0.09
  H  H144  1  0.924300  0.237000  0.985600  1.0  0.0948
  H  H145  1  0.408800  0.408800  0.408800  1.0  0.0903
  H  H146  1  0.091200  0.591200  0.908800  1.0  0.0912
  H  H147  1  0.591200  0.908800  0.091200  1.0  0.0909
  H  H148  1  0.908800  0.091200  0.591200  1.0  0.0906
  H  H149  1  0.591200  0.591200  0.591200  1.0  0.091
  H  H150  1  0.908800  0.408800  0.091200  1.0  0.0904
  H  H151  1  0.408800  0.091200  0.908800  1.0  0.0909
  H  H152  1  0.091200  0.908800  0.408800  1.0  0.0904
  H  H153  1  0.844000  0.927600  0.685200  1.0  0.0828
  H  H154  1  0.814600  0.901700  0.780300  1.0  0.0867
  H  H155  1  0.985000  0.898400  0.832100  1.0  0.0897
  H  H156  1  0.014400  0.924300  0.737000  1.0  0.0949
  H  H157  1  0.656000  0.072400  0.185200  1.0  0.0829
  H  H158  1  0.685400  0.098300  0.280300  1.0  0.0886
  H  H159  1  0.515000  0.101600  0.332100  1.0  0.0896
  H  H160  1  0.485600  0.075700  0.237000  1.0  0.0956
  H  H161  1  0.156000  0.427600  0.814800  1.0  0.0833
  H  H162  1  0.185400  0.401700  0.719700  1.0  0.0886
  H  H163  1  0.015000  0.398400  0.667900  1.0  0.0899
  H  H164  1  0.985600  0.424300  0.763000  1.0  0.0951
  H  H165  1  0.344000  0.572400  0.314800  1.0  0.0834
  H  H166  1  0.314600  0.598300  0.219700  1.0  0.0865
  H  H167  1  0.485000  0.601600  0.167900  1.0  0.09
  H  H168  1  0.514400  0.575700  0.263000  1.0  0.0945
  H  H169  1  0.685200  0.844000  0.927600  1.0  0.0835
  H  H170  1  0.780300  0.814600  0.901700  1.0  0.0871
  H  H171  1  0.832100  0.985000  0.898400  1.0  0.0891
  H  H172  1  0.737000  0.014400  0.924300  1.0  0.0939
  H  H173  1  0.185200  0.656000  0.072400  1.0  0.0839
  H  H174  1  0.280300  0.685400  0.098300  1.0  0.0868
  H  H175  1  0.332100  0.515000  0.101600  1.0  0.0893
  H  H176  1  0.237000  0.485600  0.075700  1.0  0.0941
  H  H177  1  0.814800  0.156000  0.427600  1.0  0.0835
  H  H178  1  0.719700  0.185400  0.401700  1.0  0.0872
  H  H179  1  0.667900  0.015000  0.398400  1.0  0.0883
  H  H180  1  0.763000  0.985600  0.424300  1.0  0.0942
  H  H181  1  0.314800  0.344000  0.572400  1.0  0.0841
  H  H182  1  0.219700  0.314600  0.598300  1.0  0.0873
  H  H183  1  0.167900  0.485000  0.601600  1.0  0.0893
  H  H184  1  0.263000  0.514400  0.575700  1.0  0.0942
  H  H185  1  0.927600  0.685200  0.844000  1.0  0.0811
  H  H186  1  0.901700  0.780300  0.814600  1.0  0.0912
  H  H187  1  0.898400  0.832100  0.985000  1.0  0.0901
  H  H188  1  0.924300  0.737000  0.014400  1.0  0.0955
  H  H189  1  0.072400  0.185200  0.656000  1.0  0.0813
  H  H190  1  0.098300  0.280300  0.685400  1.0  0.0906
  H  H191  1  0.101600  0.332100  0.515000  1.0  0.0901
  H  H192  1  0.075700  0.237000  0.485600  1.0  0.0948
  H  H193  1  0.427600  0.814800  0.156000  1.0  0.0823
  H  H194  1  0.401700  0.719700  0.185400  1.0  0.09
  H  H195  1  0.398400  0.667900  0.015000  1.0  0.0909
  H  H196  1  0.424300  0.763000  0.985600  1.0  0.095
  H  H197  1  0.572400  0.314800  0.344000  1.0  0.0811
  H  H198  1  0.598300  0.219700  0.314600  1.0  0.0905
  H  H199  1  0.601600  0.167900  0.485000  1.0  0.091
  H  H200  1  0.575700  0.263000  0.514400  1.0  0.0947
  H  H201  1  0.156000  0.072400  0.314800  1.0  0.0835
  H  H202  1  0.185400  0.098300  0.219700  1.0  0.0881
  H  H203  1  0.015000  0.101600  0.167900  1.0  0.0899
  H  H204  1  0.985600  0.075700  0.263000  1.0  0.0956
  H  H205  1  0.344000  0.927600  0.814800  1.0  0.0831
  H  H206  1  0.314600  0.901700  0.719700  1.0  0.0866
  H  H207  1  0.485000  0.898400  0.667900  1.0  0.0901
  H  H208  1  0.514400  0.924300  0.763000  1.0  0.0948
  H  H209  1  0.844000  0.572400  0.185200  1.0  0.0829
  H  H210  1  0.814600  0.598300  0.280300  1.0  0.0863
  H  H211  1  0.985000  0.601600  0.332100  1.0  0.0898
  H  H212  1  0.014400  0.575700  0.237000  1.0  0.0946
  H  H213  1  0.656000  0.427600  0.685200  1.0  0.083
  H  H214  1  0.685400  0.401700  0.780300  1.0  0.0886
  H  H215  1  0.515000  0.398400  0.832100  1.0  0.0895
  H  H216  1  0.485600  0.424300  0.737000  1.0  0.0951
  H  H217  1  0.314800  0.156000  0.072400  1.0  0.0837
  H  H218  1  0.219700  0.185400  0.098300  1.0  0.0865
  H  H219  1  0.167900  0.015000  0.101600  1.0  0.0886
  H  H220  1  0.263000  0.985600  0.075700  1.0  0.0942
  H  H221  1  0.814800  0.344000  0.927600  1.0  0.0834
  H  H222  1  0.719700  0.314600  0.901700  1.0  0.0874
  H  H223  1  0.667900  0.485000  0.898400  1.0  0.0891
  H  H224  1  0.763000  0.514400  0.924300  1.0  0.0939
  H  H225  1  0.185200  0.844000  0.572400  1.0  0.0839
  H  H226  1  0.280300  0.814600  0.598300  1.0  0.0874
  H  H227  1  0.332100  0.985000  0.601600  1.0  0.0893
  H  H228  1  0.237000  0.014400  0.575700  1.0  0.0941
  H  H229  1  0.685200  0.656000  0.427600  1.0  0.0839
  H  H230  1  0.780300  0.685400  0.401700  1.0  0.0871
  H  H231  1  0.832100  0.515000  0.398400  1.0  0.0889
  H  H232  1  0.737000  0.485600  0.424300  1.0  0.094
  H  H233  1  0.072400  0.314800  0.156000  1.0  0.0813
  H  H234  1  0.098300  0.219700  0.185400  1.0  0.0899
  H  H235  1  0.101600  0.167900  0.015000  1.0  0.0906
  H  H236  1  0.075700  0.263000  0.985600  1.0  0.0949
  H  H237  1  0.927600  0.814800  0.344000  1.0  0.0811
  H  H238  1  0.901700  0.719700  0.314600  1.0  0.0904
  H  H239  1  0.898400  0.667900  0.485000  1.0  0.0911
  H  H240  1  0.924300  0.763000  0.514400  1.0  0.0953
  H  H241  1  0.572400  0.185200  0.844000  1.0  0.0811
  H  H242  1  0.598300  0.280300  0.814600  1.0  0.0911
  H  H243  1  0.601600  0.332100  0.985000  1.0  0.0903
  H  H244  1  0.575700  0.237000  0.014400  1.0  0.0949
  H  H245  1  0.427600  0.685200  0.656000  1.0  0.0826
  H  H246  1  0.401700  0.780300  0.685400  1.0  0.0907
  H  H247  1  0.398400  0.832100  0.515000  1.0  0.09
  H  H248  1  0.424300  0.737000  0.485600  1.0  0.0948
  H  H249  1  0.908800  0.908800  0.908800  1.0  0.0903
  H  H250  1  0.591200  0.091200  0.408800  1.0  0.0912
  H  H251  1  0.091200  0.408800  0.591200  1.0  0.0909
  H  H252  1  0.408800  0.591200  0.091200  1.0  0.0906
  H  H253  1  0.091200  0.091200  0.091200  1.0  0.091
  H  H254  1  0.408800  0.908800  0.591200  1.0  0.0904
  H  H255  1  0.908800  0.591200  0.408800  1.0  0.0909
  H  H256  1  0.591200  0.408800  0.908800  1.0  0.0904
  C  C257  1  0.452750  0.449230  0.141820  1.0  0.6583
  C  C258  1  0.432130  0.428530  0.201670  1.0  -0.1571
  C  C259  1  0.372280  0.421740  0.214650  1.0  -0.0492
  C  C260  1  0.354680  0.406200  0.271610  1.0  -0.1222
  C  C261  1  0.396920  0.397450  0.315600  1.0  0.0226
  C  C262  1  0.456770  0.404250  0.302630  1.0  -0.089
  C  C263  1  0.474370  0.419780  0.245660  1.0  -0.0305
  C  C264  1  0.047250  0.550770  0.641820  1.0  0.6592
  C  C265  1  0.067870  0.571470  0.701670  1.0  -0.1572
  C  C266  1  0.127720  0.578260  0.714650  1.0  -0.05
  C  C267  1  0.145320  0.593800  0.771610  1.0  -0.1204
  C  C268  1  0.103080  0.602550  0.815600  1.0  0.0235
  C  C269  1  0.043230  0.595750  0.802630  1.0  -0.0865
  C  C270  1  0.025630  0.580220  0.745660  1.0  -0.0315
  C  C271  1  0.547250  0.949230  0.358180  1.0  0.6581
  C  C272  1  0.567870  0.928530  0.298330  1.0  -0.1573
  C  C273  1  0.627720  0.921740  0.285350  1.0  -0.0495
  C  C274  1  0.645320  0.906200  0.228390  1.0  -0.1223
  C  C275  1  0.603080  0.897450  0.184400  1.0  0.0226
  C  C276  1  0.543230  0.904250  0.197370  1.0  -0.0892
  C  C277  1  0.525630  0.919780  0.254340  1.0  -0.0306
  C  C278  1  0.952750  0.050770  0.858180  1.0  0.6593
  C  C279  1  0.932130  0.071470  0.798330  1.0  -0.1579
  C  C280  1  0.872280  0.078260  0.785350  1.0  -0.0504
  C  C281  1  0.854680  0.093800  0.728390  1.0  -0.1233
  C  C282  1  0.896920  0.102550  0.684400  1.0  0.0222
  C  C283  1  0.956770  0.095750  0.697370  1.0  -0.0888
  C  C284  1  0.974370  0.080220  0.754340  1.0  -0.0293
  C  C285  1  0.141820  0.452750  0.449230  1.0  0.659
  C  C286  1  0.201670  0.432130  0.428530  1.0  -0.1572
  C  C287  1  0.214650  0.372280  0.421740  1.0  -0.0485
  C  C288  1  0.271610  0.354680  0.406200  1.0  -0.1243
  C  C289  1  0.315600  0.396920  0.397450  1.0  0.023
  C  C290  1  0.302630  0.456770  0.404250  1.0  -0.0923
  C  C291  1  0.245660  0.474370  0.419780  1.0  -0.0382
  C  C292  1  0.641820  0.047250  0.550770  1.0  0.6594
  C  C293  1  0.701670  0.067870  0.571470  1.0  -0.1581
  C  C294  1  0.714650  0.127720  0.578260  1.0  -0.0506
  C  C295  1  0.771610  0.145320  0.593800  1.0  -0.1252
  C  C296  1  0.815600  0.103080  0.602550  1.0  0.023
  C  C297  1  0.802630  0.043230  0.595750  1.0  -0.0925
  C  C298  1  0.745660  0.025630  0.580220  1.0  -0.0376
  C  C299  1  0.358180  0.547250  0.949230  1.0  0.6591
  C  C300  1  0.298330  0.567870  0.928530  1.0  -0.1592
  C  C301  1  0.285350  0.627720  0.921740  1.0  -0.0498
  C  C302  1  0.228390  0.645320  0.906200  1.0  -0.1238
  C  C303  1  0.184400  0.603080  0.897450  1.0  0.0216
  C  C304  1  0.197370  0.543230  0.904250  1.0  -0.091
  C  C305  1  0.254340  0.525630  0.919780  1.0  -0.0382
  C  C306  1  0.858180  0.952750  0.050770  1.0  0.6597
  C  C307  1  0.798330  0.932130  0.071470  1.0  -0.1605
  C  C308  1  0.785350  0.872280  0.078260  1.0  -0.0523
  C  C309  1  0.728390  0.854680  0.093800  1.0  -0.1222
  C  C310  1  0.684400  0.896920  0.102550  1.0  0.0209
  C  C311  1  0.697370  0.956770  0.095750  1.0  -0.09
  C  C312  1  0.754340  0.974370  0.080220  1.0  -0.0377
  C  C313  1  0.449230  0.141820  0.452750  1.0  0.6565
  C  C314  1  0.428530  0.201670  0.432130  1.0  -0.1566
  C  C315  1  0.421740  0.214650  0.372280  1.0  -0.0463
  C  C316  1  0.406200  0.271610  0.354680  1.0  -0.1212
  C  C317  1  0.397450  0.315600  0.396920  1.0  0.0227
  C  C318  1  0.404250  0.302630  0.456770  1.0  -0.0884
  C  C319  1  0.419780  0.245660  0.474370  1.0  -0.0259
  C  C320  1  0.550770  0.641820  0.047250  1.0  0.6578
  C  C321  1  0.571470  0.701670  0.067870  1.0  -0.1578
  C  C322  1  0.578260  0.714650  0.127720  1.0  -0.048
  C  C323  1  0.593800  0.771610  0.145320  1.0  -0.1228
  C  C324  1  0.602550  0.815600  0.103080  1.0  0.023
  C  C325  1  0.595750  0.802630  0.043230  1.0  -0.0889
  C  C326  1  0.580220  0.745660  0.025630  1.0  -0.0285
  C  C327  1  0.949230  0.358180  0.547250  1.0  0.6573
  C  C328  1  0.928530  0.298330  0.567870  1.0  -0.1566
  C  C329  1  0.921740  0.285350  0.627720  1.0  -0.0467
  C  C330  1  0.906200  0.228390  0.645320  1.0  -0.124
  C  C331  1  0.897450  0.184400  0.603080  1.0  0.0239
  C  C332  1  0.904250  0.197370  0.543230  1.0  -0.0865
  C  C333  1  0.919780  0.254340  0.525630  1.0  -0.0283
  C  C334  1  0.050770  0.858180  0.952750  1.0  0.6578
  C  C335  1  0.071470  0.798330  0.932130  1.0  -0.1578
  C  C336  1  0.078260  0.785350  0.872280  1.0  -0.048
  C  C337  1  0.093800  0.728390  0.854680  1.0  -0.1224
  C  C338  1  0.102550  0.684400  0.896920  1.0  0.0239
  C  C339  1  0.095750  0.697370  0.956770  1.0  -0.0864
  C  C340  1  0.080220  0.754340  0.974370  1.0  -0.0268
  C  C341  1  0.547250  0.550770  0.858180  1.0  0.6587
  C  C342  1  0.567870  0.571470  0.798330  1.0  -0.1576
  C  C343  1  0.627720  0.578260  0.785350  1.0  -0.0499
  C  C344  1  0.645320  0.593800  0.728390  1.0  -0.1217
  C  C345  1  0.603080  0.602550  0.684400  1.0  0.0224
  C  C346  1  0.543230  0.595750  0.697370  1.0  -0.088
  C  C347  1  0.525630  0.580220  0.754340  1.0  -0.031
  C  C348  1  0.952750  0.449230  0.358180  1.0  0.6583
  C  C349  1  0.932130  0.428530  0.298330  1.0  -0.1577
  C  C350  1  0.872280  0.421740  0.285350  1.0  -0.0493
  C  C351  1  0.854680  0.406200  0.228390  1.0  -0.1226
  C  C352  1  0.896920  0.397450  0.184400  1.0  0.0222
  C  C353  1  0.956770  0.404250  0.197370  1.0  -0.0892
  C  C354  1  0.974370  0.419780  0.254340  1.0  -0.0303
  C  C355  1  0.452750  0.050770  0.641820  1.0  0.6597
  C  C356  1  0.432130  0.071470  0.701670  1.0  -0.1578
  C  C357  1  0.372280  0.078260  0.714650  1.0  -0.0503
  C  C358  1  0.354680  0.093800  0.771610  1.0  -0.1225
  C  C359  1  0.396920  0.102550  0.815600  1.0  0.0231
  C  C360  1  0.456770  0.095750  0.802630  1.0  -0.0886
  C  C361  1  0.474370  0.080220  0.745660  1.0  -0.0291
  C  C362  1  0.047250  0.949230  0.141820  1.0  0.658
  C  C363  1  0.067870  0.928530  0.201670  1.0  -0.1569
  C  C364  1  0.127720  0.921740  0.214650  1.0  -0.0501
  C  C365  1  0.145320  0.906200  0.271610  1.0  -0.1216
  C  C366  1  0.103080  0.897450  0.315600  1.0  0.0232
  C  C367  1  0.043230  0.904250  0.302630  1.0  -0.0875
  C  C368  1  0.025630  0.919780  0.245660  1.0  -0.0312
  C  C369  1  0.858180  0.547250  0.550770  1.0  0.6595
  C  C370  1  0.798330  0.567870  0.571470  1.0  -0.1588
  C  C371  1  0.785350  0.627720  0.578260  1.0  -0.0517
  C  C372  1  0.728390  0.645320  0.593800  1.0  -0.1245
  C  C373  1  0.684400  0.603080  0.602550  1.0  0.0213
  C  C374  1  0.697370  0.543230  0.595750  1.0  -0.0899
  C  C375  1  0.754340  0.525630  0.580220  1.0  -0.0373
  C  C376  1  0.358180  0.952750  0.449230  1.0  0.6591
  C  C377  1  0.298330  0.932130  0.428530  1.0  -0.1588
  C  C378  1  0.285350  0.872280  0.421740  1.0  -0.0511
  C  C379  1  0.228390  0.854680  0.406200  1.0  -0.1233
  C  C380  1  0.184400  0.896920  0.397450  1.0  0.0215
  C  C381  1  0.197370  0.956770  0.404250  1.0  -0.0915
  C  C382  1  0.254340  0.974370  0.419780  1.0  -0.0372
  C  C383  1  0.641820  0.452750  0.050770  1.0  0.6595
  C  C384  1  0.701670  0.432130  0.071470  1.0  -0.1595
  C  C385  1  0.714650  0.372280  0.078260  1.0  -0.0492
  C  C386  1  0.771610  0.354680  0.093800  1.0  -0.123
  C  C387  1  0.815600  0.396920  0.102550  1.0  0.0226
  C  C388  1  0.802630  0.456770  0.095750  1.0  -0.0913
  C  C389  1  0.745660  0.474370  0.080220  1.0  -0.0395
  C  C390  1  0.141820  0.047250  0.949230  1.0  0.6594
  C  C391  1  0.201670  0.067870  0.928530  1.0  -0.1579
  C  C392  1  0.214650  0.127720  0.921740  1.0  -0.0489
  C  C393  1  0.271610  0.145320  0.906200  1.0  -0.1253
  C  C394  1  0.315600  0.103080  0.897450  1.0  0.0233
  C  C395  1  0.302630  0.043230  0.904250  1.0  -0.0931
  C  C396  1  0.245660  0.025630  0.919780  1.0  -0.038
  C  C397  1  0.550770  0.858180  0.547250  1.0  0.6581
  C  C398  1  0.571470  0.798330  0.567870  1.0  -0.1576
  C  C399  1  0.578260  0.785350  0.627720  1.0  -0.0475
  C  C400  1  0.593800  0.728390  0.645320  1.0  -0.1224
  C  C401  1  0.602550  0.684400  0.603080  1.0  0.0241
  C  C402  1  0.595750  0.697370  0.543230  1.0  -0.0876
  C  C403  1  0.580220  0.754340  0.525630  1.0  -0.0288
  C  C404  1  0.449230  0.358180  0.952750  1.0  0.6569
  C  C405  1  0.428530  0.298330  0.932130  1.0  -0.1561
  C  C406  1  0.421740  0.285350  0.872280  1.0  -0.0474
  C  C407  1  0.406200  0.228390  0.854680  1.0  -0.1217
  C  C408  1  0.397450  0.184400  0.896920  1.0  0.0237
  C  C409  1  0.404250  0.197370  0.956770  1.0  -0.0865
  C  C410  1  0.419780  0.254340  0.974370  1.0  -0.0257
  C  C411  1  0.050770  0.641820  0.452750  1.0  0.6573
  C  C412  1  0.071470  0.701670  0.432130  1.0  -0.1577
  C  C413  1  0.078260  0.714650  0.372280  1.0  -0.0488
  C  C414  1  0.093800  0.771610  0.354680  1.0  -0.1217
  C  C415  1  0.102550  0.815600  0.396920  1.0  0.023
  C  C416  1  0.095750  0.802630  0.456770  1.0  -0.0882
  C  C417  1  0.080220  0.745660  0.474370  1.0  -0.0274
  C  C418  1  0.949230  0.141820  0.047250  1.0  0.6566
  C  C419  1  0.928530  0.201670  0.067870  1.0  -0.1572
  C  C420  1  0.921740  0.214650  0.127720  1.0  -0.0448
  C  C421  1  0.906200  0.271610  0.145320  1.0  -0.1241
  C  C422  1  0.897450  0.315600  0.103080  1.0  0.0227
  C  C423  1  0.904250  0.302630  0.043230  1.0  -0.088
  C  C424  1  0.919780  0.245660  0.025630  1.0  -0.0271
  C  C425  1  0.383700  0.383700  0.383700  1.0  -0.0668
  C  C426  1  0.116300  0.616300  0.883700  1.0  -0.068
  C  C427  1  0.616300  0.883700  0.116300  1.0  -0.0657
  C  C428  1  0.883700  0.116300  0.616300  1.0  -0.065
  C  C429  1  0.616300  0.616300  0.616300  1.0  -0.0656
  C  C430  1  0.883700  0.383700  0.116300  1.0  -0.0649
  C  C431  1  0.383700  0.116300  0.883700  1.0  -0.067
  C  C432  1  0.116300  0.883700  0.383700  1.0  -0.0679
  C  C433  1  0.952750  0.949230  0.641820  1.0  0.6583
  C  C434  1  0.932130  0.928530  0.701670  1.0  -0.1571
  C  C435  1  0.872280  0.921740  0.714650  1.0  -0.0492
  C  C436  1  0.854680  0.906200  0.771610  1.0  -0.1222
  C  C437  1  0.896920  0.897450  0.815600  1.0  0.0226
  C  C438  1  0.956770  0.904250  0.802630  1.0  -0.089
  C  C439  1  0.974370  0.919780  0.745660  1.0  -0.0305
  C  C440  1  0.547250  0.050770  0.141820  1.0  0.6592
  C  C441  1  0.567870  0.071470  0.201670  1.0  -0.1572
  C  C442  1  0.627720  0.078260  0.214650  1.0  -0.05
  C  C443  1  0.645320  0.093800  0.271610  1.0  -0.1204
  C  C444  1  0.603080  0.102550  0.315600  1.0  0.0235
  C  C445  1  0.543230  0.095750  0.302630  1.0  -0.0865
  C  C446  1  0.525630  0.080220  0.245660  1.0  -0.0315
  C  C447  1  0.047250  0.449230  0.858180  1.0  0.6581
  C  C448  1  0.067870  0.428530  0.798330  1.0  -0.1573
  C  C449  1  0.127720  0.421740  0.785350  1.0  -0.0495
  C  C450  1  0.145320  0.406200  0.728390  1.0  -0.1223
  C  C451  1  0.103080  0.397450  0.684400  1.0  0.0226
  C  C452  1  0.043230  0.404250  0.697370  1.0  -0.0892
  C  C453  1  0.025630  0.419780  0.754340  1.0  -0.0306
  C  C454  1  0.452750  0.550770  0.358180  1.0  0.6593
  C  C455  1  0.432130  0.571470  0.298330  1.0  -0.1579
  C  C456  1  0.372280  0.578260  0.285350  1.0  -0.0504
  C  C457  1  0.354680  0.593800  0.228390  1.0  -0.1233
  C  C458  1  0.396920  0.602550  0.184400  1.0  0.0222
  C  C459  1  0.456770  0.595750  0.197370  1.0  -0.0888
  C  C460  1  0.474370  0.580220  0.254340  1.0  -0.0293
  C  C461  1  0.641820  0.952750  0.949230  1.0  0.659
  C  C462  1  0.701670  0.932130  0.928530  1.0  -0.1572
  C  C463  1  0.714650  0.872280  0.921740  1.0  -0.0485
  C  C464  1  0.771610  0.854680  0.906200  1.0  -0.1243
  C  C465  1  0.815600  0.896920  0.897450  1.0  0.023
  C  C466  1  0.802630  0.956770  0.904250  1.0  -0.0923
  C  C467  1  0.745660  0.974370  0.919780  1.0  -0.0382
  C  C468  1  0.141820  0.547250  0.050770  1.0  0.6594
  C  C469  1  0.201670  0.567870  0.071470  1.0  -0.1581
  C  C470  1  0.214650  0.627720  0.078260  1.0  -0.0506
  C  C471  1  0.271610  0.645320  0.093800  1.0  -0.1252
  C  C472  1  0.315600  0.603080  0.102550  1.0  0.023
  C  C473  1  0.302630  0.543230  0.095750  1.0  -0.0925
  C  C474  1  0.245660  0.525630  0.080220  1.0  -0.0376
  C  C475  1  0.858180  0.047250  0.449230  1.0  0.6591
  C  C476  1  0.798330  0.067870  0.428530  1.0  -0.1592
  C  C477  1  0.785350  0.127720  0.421740  1.0  -0.0498
  C  C478  1  0.728390  0.145320  0.406200  1.0  -0.1238
  C  C479  1  0.684400  0.103080  0.397450  1.0  0.0216
  C  C480  1  0.697370  0.043230  0.404250  1.0  -0.091
  C  C481  1  0.754340  0.025630  0.419780  1.0  -0.0382
  C  C482  1  0.358180  0.452750  0.550770  1.0  0.6597
  C  C483  1  0.298330  0.432130  0.571470  1.0  -0.1605
  C  C484  1  0.285350  0.372280  0.578260  1.0  -0.0523
  C  C485  1  0.228390  0.354680  0.593800  1.0  -0.1222
  C  C486  1  0.184400  0.396920  0.602550  1.0  0.0209
  C  C487  1  0.197370  0.456770  0.595750  1.0  -0.09
  C  C488  1  0.254340  0.474370  0.580220  1.0  -0.0377
  C  C489  1  0.949230  0.641820  0.952750  1.0  0.6565
  C  C490  1  0.928530  0.701670  0.932130  1.0  -0.1566
  C  C491  1  0.921740  0.714650  0.872280  1.0  -0.0463
  C  C492  1  0.906200  0.771610  0.854680  1.0  -0.1212
  C  C493  1  0.897450  0.815600  0.896920  1.0  0.0227
  C  C494  1  0.904250  0.802630  0.956770  1.0  -0.0884
  C  C495  1  0.919780  0.745660  0.974370  1.0  -0.0259
  C  C496  1  0.050770  0.141820  0.547250  1.0  0.6578
  C  C497  1  0.071470  0.201670  0.567870  1.0  -0.1578
  C  C498  1  0.078260  0.214650  0.627720  1.0  -0.048
  C  C499  1  0.093800  0.271610  0.645320  1.0  -0.1228
  C  C500  1  0.102550  0.315600  0.603080  1.0  0.023
  C  C501  1  0.095750  0.302630  0.543230  1.0  -0.0889
  C  C502  1  0.080220  0.245660  0.525630  1.0  -0.0285
  C  C503  1  0.449230  0.858180  0.047250  1.0  0.6573
  C  C504  1  0.428530  0.798330  0.067870  1.0  -0.1566
  C  C505  1  0.421740  0.785350  0.127720  1.0  -0.0467
  C  C506  1  0.406200  0.728390  0.145320  1.0  -0.124
  C  C507  1  0.397450  0.684400  0.103080  1.0  0.0239
  C  C508  1  0.404250  0.697370  0.043230  1.0  -0.0865
  C  C509  1  0.419780  0.754340  0.025630  1.0  -0.0283
  C  C510  1  0.550770  0.358180  0.452750  1.0  0.6578
  C  C511  1  0.571470  0.298330  0.432130  1.0  -0.1578
  C  C512  1  0.578260  0.285350  0.372280  1.0  -0.048
  C  C513  1  0.593800  0.228390  0.354680  1.0  -0.1224
  C  C514  1  0.602550  0.184400  0.396920  1.0  0.0239
  C  C515  1  0.595750  0.197370  0.456770  1.0  -0.0864
  C  C516  1  0.580220  0.254340  0.474370  1.0  -0.0268
  C  C517  1  0.047250  0.050770  0.358180  1.0  0.6587
  C  C518  1  0.067870  0.071470  0.298330  1.0  -0.1576
  C  C519  1  0.127720  0.078260  0.285350  1.0  -0.0499
  C  C520  1  0.145320  0.093800  0.228390  1.0  -0.1217
  C  C521  1  0.103080  0.102550  0.184400  1.0  0.0224
  C  C522  1  0.043230  0.095750  0.197370  1.0  -0.088
  C  C523  1  0.025630  0.080220  0.254340  1.0  -0.031
  C  C524  1  0.452750  0.949230  0.858180  1.0  0.6583
  C  C525  1  0.432130  0.928530  0.798330  1.0  -0.1577
  C  C526  1  0.372280  0.921740  0.785350  1.0  -0.0493
  C  C527  1  0.354680  0.906200  0.728390  1.0  -0.1226
  C  C528  1  0.396920  0.897450  0.684400  1.0  0.0222
  C  C529  1  0.456770  0.904250  0.697370  1.0  -0.0892
  C  C530  1  0.474370  0.919780  0.754340  1.0  -0.0303
  C  C531  1  0.952750  0.550770  0.141820  1.0  0.6597
  C  C532  1  0.932130  0.571470  0.201670  1.0  -0.1578
  C  C533  1  0.872280  0.578260  0.214650  1.0  -0.0503
  C  C534  1  0.854680  0.593800  0.271610  1.0  -0.1225
  C  C535  1  0.896920  0.602550  0.315600  1.0  0.0231
  C  C536  1  0.956770  0.595750  0.302630  1.0  -0.0886
  C  C537  1  0.974370  0.580220  0.245660  1.0  -0.0291
  C  C538  1  0.547250  0.449230  0.641820  1.0  0.658
  C  C539  1  0.567870  0.428530  0.701670  1.0  -0.1569
  C  C540  1  0.627720  0.421740  0.714650  1.0  -0.0501
  C  C541  1  0.645320  0.406200  0.771610  1.0  -0.1216
  C  C542  1  0.603080  0.397450  0.815600  1.0  0.0232
  C  C543  1  0.543230  0.404250  0.802630  1.0  -0.0875
  C  C544  1  0.525630  0.419780  0.745660  1.0  -0.0312
  C  C545  1  0.358180  0.047250  0.050770  1.0  0.6595
  C  C546  1  0.298330  0.067870  0.071470  1.0  -0.1588
  C  C547  1  0.285350  0.127720  0.078260  1.0  -0.0517
  C  C548  1  0.228390  0.145320  0.093800  1.0  -0.1245
  C  C549  1  0.184400  0.103080  0.102550  1.0  0.0213
  C  C550  1  0.197370  0.043230  0.095750  1.0  -0.0899
  C  C551  1  0.254340  0.025630  0.080220  1.0  -0.0373
  C  C552  1  0.858180  0.452750  0.949230  1.0  0.6591
  C  C553  1  0.798330  0.432130  0.928530  1.0  -0.1588
  C  C554  1  0.785350  0.372280  0.921740  1.0  -0.0511
  C  C555  1  0.728390  0.354680  0.906200  1.0  -0.1233
  C  C556  1  0.684400  0.396920  0.897450  1.0  0.0215
  C  C557  1  0.697370  0.456770  0.904250  1.0  -0.0915
  C  C558  1  0.754340  0.474370  0.919780  1.0  -0.0372
  C  C559  1  0.141820  0.952750  0.550770  1.0  0.6595
  C  C560  1  0.201670  0.932130  0.571470  1.0  -0.1595
  C  C561  1  0.214650  0.872280  0.578260  1.0  -0.0492
  C  C562  1  0.271610  0.854680  0.593800  1.0  -0.123
  C  C563  1  0.315600  0.896920  0.602550  1.0  0.0226
  C  C564  1  0.302630  0.956770  0.595750  1.0  -0.0913
  C  C565  1  0.245660  0.974370  0.580220  1.0  -0.0395
  C  C566  1  0.641820  0.547250  0.449230  1.0  0.6594
  C  C567  1  0.701670  0.567870  0.428530  1.0  -0.1579
  C  C568  1  0.714650  0.627720  0.421740  1.0  -0.0489
  C  C569  1  0.771610  0.645320  0.406200  1.0  -0.1253
  C  C570  1  0.815600  0.603080  0.397450  1.0  0.0233
  C  C571  1  0.802630  0.543230  0.404250  1.0  -0.0931
  C  C572  1  0.745660  0.525630  0.419780  1.0  -0.038
  C  C573  1  0.050770  0.358180  0.047250  1.0  0.6581
  C  C574  1  0.071470  0.298330  0.067870  1.0  -0.1576
  C  C575  1  0.078260  0.285350  0.127720  1.0  -0.0475
  C  C576  1  0.093800  0.228390  0.145320  1.0  -0.1224
  C  C577  1  0.102550  0.184400  0.103080  1.0  0.0241
  C  C578  1  0.095750  0.197370  0.043230  1.0  -0.0876
  C  C579  1  0.080220  0.254340  0.025630  1.0  -0.0288
  C  C580  1  0.949230  0.858180  0.452750  1.0  0.6569
  C  C581  1  0.928530  0.798330  0.432130  1.0  -0.1561
  C  C582  1  0.921740  0.785350  0.372280  1.0  -0.0474
  C  C583  1  0.906200  0.728390  0.354680  1.0  -0.1217
  C  C584  1  0.897450  0.684400  0.396920  1.0  0.0237
  C  C585  1  0.904250  0.697370  0.456770  1.0  -0.0865
  C  C586  1  0.919780  0.754340  0.474370  1.0  -0.0257
  C  C587  1  0.550770  0.141820  0.952750  1.0  0.6573
  C  C588  1  0.571470  0.201670  0.932130  1.0  -0.1577
  C  C589  1  0.578260  0.214650  0.872280  1.0  -0.0488
  C  C590  1  0.593800  0.271610  0.854680  1.0  -0.1217
  C  C591  1  0.602550  0.315600  0.896920  1.0  0.023
  C  C592  1  0.595750  0.302630  0.956770  1.0  -0.0882
  C  C593  1  0.580220  0.245660  0.974370  1.0  -0.0274
  C  C594  1  0.449230  0.641820  0.547250  1.0  0.6566
  C  C595  1  0.428530  0.701670  0.567870  1.0  -0.1572
  C  C596  1  0.421740  0.714650  0.627720  1.0  -0.0448
  C  C597  1  0.406200  0.771610  0.645320  1.0  -0.1241
  C  C598  1  0.397450  0.815600  0.603080  1.0  0.0227
  C  C599  1  0.404250  0.802630  0.543230  1.0  -0.088
  C  C600  1  0.419780  0.745660  0.525630  1.0  -0.0271
  C  C601  1  0.883700  0.883700  0.883700  1.0  -0.0668
  C  C602  1  0.616300  0.116300  0.383700  1.0  -0.068
  C  C603  1  0.116300  0.383700  0.616300  1.0  -0.0657
  C  C604  1  0.383700  0.616300  0.116300  1.0  -0.065
  C  C605  1  0.116300  0.116300  0.116300  1.0  -0.0656
  C  C606  1  0.383700  0.883700  0.616300  1.0  -0.0649
  C  C607  1  0.883700  0.616300  0.383700  1.0  -0.067
  C  C608  1  0.616300  0.383700  0.883700  1.0  -0.0679
  O  O609  1  0.415710  0.453110  0.101930  1.0  -0.6665
  O  O610  1  0.502950  0.465870  0.135010  1.0  -0.6795
  O  O611  1  0.084290  0.546890  0.601930  1.0  -0.666
  O  O612  1  0.997050  0.534130  0.635010  1.0  -0.6827
  O  O613  1  0.584290  0.953110  0.398070  1.0  -0.6653
  O  O614  1  0.497050  0.965870  0.364990  1.0  -0.6818
  O  O615  1  0.915710  0.046890  0.898070  1.0  -0.6654
  O  O616  1  0.002950  0.034130  0.864990  1.0  -0.6791
  O  O617  1  0.101930  0.415710  0.453110  1.0  -0.6656
  O  O618  1  0.135010  0.502950  0.465870  1.0  -0.681
  O  O619  1  0.601930  0.084290  0.546890  1.0  -0.6669
  O  O620  1  0.635010  0.997050  0.534130  1.0  -0.6812
  O  O621  1  0.398070  0.584290  0.953110  1.0  -0.6646
  O  O622  1  0.364990  0.497050  0.965870  1.0  -0.6804
  O  O623  1  0.898070  0.915710  0.046890  1.0  -0.6658
  O  O624  1  0.864990  0.002950  0.034130  1.0  -0.6806
  O  O625  1  0.453110  0.101930  0.415710  1.0  -0.6689
  O  O626  1  0.465870  0.135010  0.502950  1.0  -0.6855
  O  O627  1  0.546890  0.601930  0.084290  1.0  -0.6673
  O  O628  1  0.534130  0.635010  0.997050  1.0  -0.6866
  O  O629  1  0.953110  0.398070  0.584290  1.0  -0.6668
  O  O630  1  0.965870  0.364990  0.497050  1.0  -0.6856
  O  O631  1  0.046890  0.898070  0.915710  1.0  -0.6675
  O  O632  1  0.034130  0.864990  0.002950  1.0  -0.6853
  O  O633  1  0.584290  0.546890  0.898070  1.0  -0.6655
  O  O634  1  0.497050  0.534130  0.864990  1.0  -0.6819
  O  O635  1  0.915710  0.453110  0.398070  1.0  -0.6659
  O  O636  1  0.002950  0.465870  0.364990  1.0  -0.6797
  O  O637  1  0.415710  0.046890  0.601930  1.0  -0.6662
  O  O638  1  0.502950  0.034130  0.635010  1.0  -0.68
  O  O639  1  0.084290  0.953110  0.101930  1.0  -0.6657
  O  O640  1  0.997050  0.965870  0.135010  1.0  -0.6819
  O  O641  1  0.898070  0.584290  0.546890  1.0  -0.6668
  O  O642  1  0.864990  0.497050  0.534130  1.0  -0.6813
  O  O643  1  0.398070  0.915710  0.453110  1.0  -0.6649
  O  O644  1  0.364990  0.002950  0.465870  1.0  -0.6808
  O  O645  1  0.601930  0.415710  0.046890  1.0  -0.6661
  O  O646  1  0.635010  0.502950  0.034130  1.0  -0.6805
  O  O647  1  0.101930  0.084290  0.953110  1.0  -0.6649
  O  O648  1  0.135010  0.997050  0.965870  1.0  -0.6808
  O  O649  1  0.546890  0.898070  0.584290  1.0  -0.6671
  O  O650  1  0.534130  0.864990  0.497050  1.0  -0.6866
  O  O651  1  0.453110  0.398070  0.915710  1.0  -0.6682
  O  O652  1  0.465870  0.364990  0.002950  1.0  -0.6853
  O  O653  1  0.046890  0.601930  0.415710  1.0  -0.6684
  O  O654  1  0.034130  0.635010  0.502950  1.0  -0.6854
  O  O655  1  0.953110  0.101930  0.084290  1.0  -0.6675
  O  O656  1  0.965870  0.135010  0.997050  1.0  -0.6856
  O  O657  1  0.500000  0.500000  0.000000  1.0  -0.899
  O  O658  1  0.000000  0.500000  0.500000  1.0  -0.899
  O  O659  1  0.500000  0.000000  0.500000  1.0  -0.899
  O  O660  1  0.000000  0.000000  0.000000  1.0  -0.899
  O  O661  1  0.915710  0.953110  0.601930  1.0  -0.6665
  O  O662  1  0.002950  0.965870  0.635010  1.0  -0.6795
  O  O663  1  0.584290  0.046890  0.101930  1.0  -0.6661
  O  O664  1  0.497050  0.034130  0.135010  1.0  -0.6827
  O  O665  1  0.084290  0.453110  0.898070  1.0  -0.6653
  O  O666  1  0.997050  0.465870  0.864990  1.0  -0.6818
  O  O667  1  0.415710  0.546890  0.398070  1.0  -0.6655
  O  O668  1  0.502950  0.534130  0.364990  1.0  -0.6791
  O  O669  1  0.601930  0.915710  0.953110  1.0  -0.6655
  O  O670  1  0.635010  0.002950  0.965870  1.0  -0.681
  O  O671  1  0.101930  0.584290  0.046890  1.0  -0.6668
  O  O672  1  0.135010  0.497050  0.034130  1.0  -0.6812
  O  O673  1  0.898070  0.084290  0.453110  1.0  -0.6644
  O  O674  1  0.864990  0.997050  0.465870  1.0  -0.6804
  O  O675  1  0.398070  0.415710  0.546890  1.0  -0.6656
  O  O676  1  0.364990  0.502950  0.534130  1.0  -0.6806
  O  O677  1  0.953110  0.601930  0.915710  1.0  -0.6689
  O  O678  1  0.965870  0.635010  0.002950  1.0  -0.6855
  O  O679  1  0.046890  0.101930  0.584290  1.0  -0.6673
  O  O680  1  0.034130  0.135010  0.497050  1.0  -0.6866
  O  O681  1  0.453110  0.898070  0.084290  1.0  -0.6668
  O  O682  1  0.465870  0.864990  0.997050  1.0  -0.6856
  O  O683  1  0.546890  0.398070  0.415710  1.0  -0.6675
  O  O684  1  0.534130  0.364990  0.502950  1.0  -0.6853
  O  O685  1  0.084290  0.046890  0.398070  1.0  -0.6656
  O  O686  1  0.997050  0.034130  0.364990  1.0  -0.6819
  O  O687  1  0.415710  0.953110  0.898070  1.0  -0.6662
  O  O688  1  0.502950  0.965870  0.864990  1.0  -0.6797
  O  O689  1  0.915710  0.546890  0.101930  1.0  -0.6664
  O  O690  1  0.002950  0.534130  0.135010  1.0  -0.68
  O  O691  1  0.584290  0.453110  0.601930  1.0  -0.6657
  O  O692  1  0.497050  0.465870  0.635010  1.0  -0.6819
  O  O693  1  0.398070  0.084290  0.046890  1.0  -0.6668
  O  O694  1  0.364990  0.997050  0.034130  1.0  -0.6813
  O  O695  1  0.898070  0.415710  0.953110  1.0  -0.6649
  O  O696  1  0.864990  0.502950  0.965870  1.0  -0.6808
  O  O697  1  0.101930  0.915710  0.546890  1.0  -0.6662
  O  O698  1  0.135010  0.002950  0.534130  1.0  -0.6805
  O  O699  1  0.601930  0.584290  0.453110  1.0  -0.665
  O  O700  1  0.635010  0.497050  0.465870  1.0  -0.6808
  O  O701  1  0.046890  0.398070  0.084290  1.0  -0.6671
  O  O702  1  0.034130  0.364990  0.997050  1.0  -0.6866
  O  O703  1  0.953110  0.898070  0.415710  1.0  -0.6683
  O  O704  1  0.965870  0.864990  0.502950  1.0  -0.6853
  O  O705  1  0.546890  0.101930  0.915710  1.0  -0.6685
  O  O706  1  0.534130  0.135010  0.002950  1.0  -0.6854
  O  O707  1  0.453110  0.601930  0.584290  1.0  -0.6677
  O  O708  1  0.465870  0.635010  0.497050  1.0  -0.6856
  O  O709  1  0.000000  0.000000  0.500000  1.0  -0.899
  O  O710  1  0.500000  0.000000  0.000000  1.0  -0.899
  O  O711  1  0.000000  0.500000  0.000000  1.0  -0.899
  O  O712  1  0.500000  0.500000  0.500000  1.0  -0.899
