# generated using pymatgen
data_CdH18(C11O3)2
_symmetry_space_group_name_H-M   'P 1'
_cell_length_a   30.45460000
_cell_length_b   30.45460000
_cell_length_c   30.45460000
_cell_angle_alpha   80.29890000
_cell_angle_beta   80.29890000
_cell_angle_gamma   80.29890000
_symmetry_Int_Tables_number   1
_chemical_formula_structural   CdH18(C11O3)2
_chemical_formula_sum   'Cd36 H648 C792 O216'
_cell_volume   27157.20161723
_cell_formula_units_Z   36
loop_
 _symmetry_equiv_pos_site_id
 _symmetry_equiv_pos_as_xyz
  1  'x, y, z'
loop_
 _atom_site_type_symbol
 _atom_site_label
 _atom_site_symmetry_multiplicity
 _atom_site_fract_x
 _atom_site_fract_y
 _atom_site_fract_z
 _atom_site_occupancy
 _atom_site_charge
  Cd  Cd1  1  0.815620  0.812200  0.294960  1.0  0.9255
  Cd  Cd2  1  0.785730  0.813310  0.419710  1.0  1.1149
  Cd  Cd3  1  0.741520  0.855120  0.529930  1.0  0.9119
  Cd  Cd4  1  0.294960  0.815620  0.812200  1.0  0.9195
  Cd  Cd5  1  0.419710  0.785730  0.813310  1.0  1.1121
  Cd  Cd6  1  0.529930  0.741520  0.855120  1.0  0.9283
  Cd  Cd7  1  0.812200  0.294960  0.815620  1.0  0.9231
  Cd  Cd8  1  0.813310  0.419710  0.785730  1.0  1.1164
  Cd  Cd9  1  0.855120  0.529930  0.741520  1.0  0.9271
  Cd  Cd10  1  0.687800  0.684380  0.205040  1.0  0.9112
  Cd  Cd11  1  0.686690  0.714270  0.080290  1.0  1.1177
  Cd  Cd12  1  0.644880  0.758480  0.970070  1.0  0.9165
  Cd  Cd13  1  0.684380  0.205040  0.687800  1.0  0.9138
  Cd  Cd14  1  0.714270  0.080290  0.686690  1.0  1.113
  Cd  Cd15  1  0.758480  0.970070  0.644880  1.0  0.9268
  Cd  Cd16  1  0.205040  0.687800  0.684380  1.0  0.9221
  Cd  Cd17  1  0.080290  0.686690  0.714270  1.0  1.1129
  Cd  Cd18  1  0.970070  0.644880  0.758480  1.0  0.9205
  Cd  Cd19  1  0.184380  0.187800  0.705040  1.0  0.9141
  Cd  Cd20  1  0.214270  0.186690  0.580290  1.0  1.1136
  Cd  Cd21  1  0.258480  0.144880  0.470070  1.0  0.9145
  Cd  Cd22  1  0.705040  0.184380  0.187800  1.0  0.9127
  Cd  Cd23  1  0.580290  0.214270  0.186690  1.0  1.1102
  Cd  Cd24  1  0.470070  0.258480  0.144880  1.0  0.9185
  Cd  Cd25  1  0.187800  0.705040  0.184380  1.0  0.9231
  Cd  Cd26  1  0.186690  0.580290  0.214270  1.0  1.1149
  Cd  Cd27  1  0.144880  0.470070  0.258480  1.0  0.9232
  Cd  Cd28  1  0.312200  0.315620  0.794960  1.0  0.9193
  Cd  Cd29  1  0.313310  0.285730  0.919710  1.0  1.1152
  Cd  Cd30  1  0.355120  0.241520  0.029930  1.0  0.9087
  Cd  Cd31  1  0.315620  0.794960  0.312200  1.0  0.9271
  Cd  Cd32  1  0.285730  0.919710  0.313310  1.0  1.1133
  Cd  Cd33  1  0.241520  0.029930  0.355120  1.0  0.9274
  Cd  Cd34  1  0.794960  0.312200  0.315620  1.0  0.9198
  Cd  Cd35  1  0.919710  0.313310  0.285730  1.0  1.1138
  Cd  Cd36  1  0.029930  0.355120  0.241520  1.0  0.9255
  H  H37  1  0.872600  0.906700  0.416000  1.0  0.1159
  H  H38  1  0.927700  0.015900  0.351300  1.0  0.1322
  H  H39  1  0.912100  0.002300  0.283300  1.0  0.1205
  H  H40  1  0.875900  0.940500  0.280800  1.0  0.119
  H  H41  1  0.869300  0.944400  0.477300  1.0  0.0962
  H  H42  1  0.916200  0.912700  0.466000  1.0  0.1068
  H  H43  1  0.877100  0.024800  0.628500  1.0  0.1058
  H  H44  1  0.848800  0.043200  0.587400  1.0  0.1048
  H  H45  1  0.819600  0.097300  0.631200  1.0  0.1246
  H  H46  1  0.835600  0.225500  0.637300  1.0  0.1257
  H  H47  1  0.911300  0.210600  0.605300  1.0  0.1134
  H  H48  1  0.939300  0.141600  0.582700  1.0  0.1167
  H  H49  1  0.038300  0.964100  0.572700  1.0  0.0779
  H  H50  1  0.047700  0.941200  0.527700  1.0  0.0902
  H  H51  1  0.052500  0.820700  0.626600  1.0  0.137
  H  H52  1  0.187600  0.814700  0.610600  1.0  0.1239
  H  H53  1  0.181900  0.887200  0.569600  1.0  0.1087
  H  H54  1  0.111100  0.927300  0.557700  1.0  0.1229
  H  H55  1  0.841400  0.044300  0.522900  1.0  0.1112
  H  H56  1  0.845300  0.009500  0.488100  1.0  0.1114
  H  H57  1  0.823300  0.997000  0.539400  1.0  0.1292
  H  H58  1  0.981300  0.022200  0.611500  1.0  0.1237
  H  H59  1  0.940800  0.000200  0.643100  1.0  0.1128
  H  H60  1  0.988300  0.969800  0.631400  1.0  0.1167
  H  H61  1  0.008400  0.933600  0.456100  1.0  0.1251
  H  H62  1  0.021200  0.898600  0.499000  1.0  0.1002
  H  H63  1  0.980000  0.893200  0.475100  1.0  0.1064
  H  H64  1  0.744700  0.923200  0.368100  1.0  0.1113
  H  H65  1  0.780200  0.047400  0.326900  1.0  0.1333
  H  H66  1  0.792800  0.051000  0.398000  1.0  0.1001
  H  H67  1  0.780600  0.991600  0.457000  1.0  0.1328
  H  H68  1  0.760100  0.922700  0.283900  1.0  0.1051
  H  H69  1  0.711200  0.939700  0.309500  1.0  0.0961
  H  H70  1  0.785000  0.946400  0.117400  1.0  0.1007
  H  H71  1  0.744800  0.974600  0.091600  1.0  0.0928
  H  H72  1  0.719900  0.840900  0.086400  1.0  0.1295
  H  H73  1  0.742000  0.871500  0.950300  1.0  0.1357
  H  H74  1  0.768000  0.937500  0.958200  1.0  0.1102
  H  H75  1  0.768300  0.957000  0.028100  1.0  0.1199
  H  H76  1  0.620900  0.059100  0.168200  1.0  0.0945
  H  H77  1  0.616500  0.059200  0.221400  1.0  0.0936
  H  H78  1  0.556100  0.106400  0.195000  1.0  0.109
  H  H79  1  0.427000  0.107000  0.176800  1.0  0.1345
  H  H80  1  0.440300  0.028200  0.187700  1.0  0.1099
  H  H81  1  0.509400  0.989700  0.200600  1.0  0.1313
  H  H82  1  0.811100  0.935300  0.178600  1.0  0.1205
  H  H83  1  0.798700  0.919500  0.231400  1.0  0.1187
  H  H84  1  0.787400  0.891200  0.196000  1.0  0.1242
  H  H85  1  0.656900  0.972800  0.108400  1.0  0.1259
  H  H86  1  0.632000  0.019300  0.124000  1.0  0.1245
  H  H87  1  0.681000  0.016900  0.094800  1.0  0.1196
  H  H88  1  0.654000  0.981300  0.308900  1.0  0.1268
  H  H89  1  0.658700  0.032700  0.289100  1.0  0.1291
  H  H90  1  0.617300  0.011000  0.280200  1.0  0.112
  H  H91  1  0.416000  0.872600  0.906700  1.0  0.1148
  H  H92  1  0.351300  0.927700  0.015900  1.0  0.1318
  H  H93  1  0.283300  0.912100  0.002300  1.0  0.1182
  H  H94  1  0.280800  0.875900  0.940500  1.0  0.1172
  H  H95  1  0.477300  0.869300  0.944400  1.0  0.0963
  H  H96  1  0.466000  0.916200  0.912700  1.0  0.11
  H  H97  1  0.628500  0.877100  0.024800  1.0  0.1055
  H  H98  1  0.587400  0.848800  0.043200  1.0  0.1054
  H  H99  1  0.631200  0.819600  0.097300  1.0  0.1224
  H  H100  1  0.637300  0.835600  0.225500  1.0  0.1257
  H  H101  1  0.605300  0.911300  0.210600  1.0  0.1123
  H  H102  1  0.582700  0.939300  0.141600  1.0  0.1166
  H  H103  1  0.572700  0.038300  0.964100  1.0  0.0774
  H  H104  1  0.527700  0.047700  0.941200  1.0  0.0912
  H  H105  1  0.626600  0.052500  0.820700  1.0  0.1361
  H  H106  1  0.610600  0.187600  0.814700  1.0  0.1236
  H  H107  1  0.569600  0.181900  0.887200  1.0  0.1068
  H  H108  1  0.557700  0.111100  0.927300  1.0  0.1215
  H  H109  1  0.522900  0.841400  0.044300  1.0  0.1096
  H  H110  1  0.488100  0.845300  0.009500  1.0  0.108
  H  H111  1  0.539400  0.823300  0.997000  1.0  0.1271
  H  H112  1  0.611500  0.981300  0.022200  1.0  0.1256
  H  H113  1  0.643100  0.940800  0.000200  1.0  0.1158
  H  H114  1  0.631400  0.988300  0.969800  1.0  0.1152
  H  H115  1  0.456100  0.008400  0.933600  1.0  0.1245
  H  H116  1  0.499000  0.021200  0.898600  1.0  0.101
  H  H117  1  0.475100  0.980000  0.893200  1.0  0.1063
  H  H118  1  0.368100  0.744700  0.923200  1.0  0.1121
  H  H119  1  0.326900  0.780200  0.047400  1.0  0.1344
  H  H120  1  0.398000  0.792800  0.051000  1.0  0.0983
  H  H121  1  0.457000  0.780600  0.991600  1.0  0.1317
  H  H122  1  0.283900  0.760100  0.922700  1.0  0.1028
  H  H123  1  0.309500  0.711200  0.939700  1.0  0.0965
  H  H124  1  0.117400  0.785000  0.946400  1.0  0.0962
  H  H125  1  0.091600  0.744800  0.974600  1.0  0.0927
  H  H126  1  0.086400  0.719900  0.840900  1.0  0.1307
  H  H127  1  0.950300  0.742000  0.871500  1.0  0.136
  H  H128  1  0.958200  0.768000  0.937500  1.0  0.1095
  H  H129  1  0.028100  0.768300  0.957000  1.0  0.1183
  H  H130  1  0.168200  0.620900  0.059100  1.0  0.0975
  H  H131  1  0.221400  0.616500  0.059200  1.0  0.0937
  H  H132  1  0.195000  0.556100  0.106400  1.0  0.109
  H  H133  1  0.176800  0.427000  0.107000  1.0  0.1359
  H  H134  1  0.187700  0.440300  0.028200  1.0  0.1097
  H  H135  1  0.200600  0.509400  0.989700  1.0  0.1304
  H  H136  1  0.178600  0.811100  0.935300  1.0  0.1172
  H  H137  1  0.231400  0.798700  0.919500  1.0  0.1189
  H  H138  1  0.196000  0.787400  0.891200  1.0  0.1269
  H  H139  1  0.108400  0.656900  0.972800  1.0  0.1254
  H  H140  1  0.124000  0.632000  0.019300  1.0  0.1249
  H  H141  1  0.094800  0.681000  0.016900  1.0  0.1186
  H  H142  1  0.308900  0.654000  0.981300  1.0  0.1269
  H  H143  1  0.289100  0.658700  0.032700  1.0  0.1277
  H  H144  1  0.280200  0.617300  0.011000  1.0  0.1126
  H  H145  1  0.906700  0.416000  0.872600  1.0  0.1164
  H  H146  1  0.015900  0.351300  0.927700  1.0  0.1328
  H  H147  1  0.002300  0.283300  0.912100  1.0  0.12
  H  H148  1  0.940500  0.280800  0.875900  1.0  0.1179
  H  H149  1  0.944400  0.477300  0.869300  1.0  0.0943
  H  H150  1  0.912700  0.466000  0.916200  1.0  0.1065
  H  H151  1  0.024800  0.628500  0.877100  1.0  0.1061
  H  H152  1  0.043200  0.587400  0.848800  1.0  0.1037
  H  H153  1  0.097300  0.631200  0.819600  1.0  0.1225
  H  H154  1  0.225500  0.637300  0.835600  1.0  0.1249
  H  H155  1  0.210600  0.605300  0.911300  1.0  0.1133
  H  H156  1  0.141600  0.582700  0.939300  1.0  0.1157
  H  H157  1  0.964100  0.572700  0.038300  1.0  0.0762
  H  H158  1  0.941200  0.527700  0.047700  1.0  0.09
  H  H159  1  0.820700  0.626600  0.052500  1.0  0.1359
  H  H160  1  0.814700  0.610600  0.187600  1.0  0.1233
  H  H161  1  0.887200  0.569600  0.181900  1.0  0.1057
  H  H162  1  0.927300  0.557700  0.111100  1.0  0.121
  H  H163  1  0.044300  0.522900  0.841400  1.0  0.1121
  H  H164  1  0.009500  0.488100  0.845300  1.0  0.1109
  H  H165  1  0.997000  0.539400  0.823300  1.0  0.126
  H  H166  1  0.022200  0.611500  0.981300  1.0  0.1207
  H  H167  1  0.000200  0.643100  0.940800  1.0  0.1149
  H  H168  1  0.969800  0.631400  0.988300  1.0  0.1123
  H  H169  1  0.933600  0.456100  0.008400  1.0  0.1238
  H  H170  1  0.898600  0.499000  0.021200  1.0  0.0993
  H  H171  1  0.893200  0.475100  0.980000  1.0  0.1041
  H  H172  1  0.923200  0.368100  0.744700  1.0  0.1099
  H  H173  1  0.047400  0.326900  0.780200  1.0  0.1343
  H  H174  1  0.051000  0.398000  0.792800  1.0  0.0967
  H  H175  1  0.991600  0.457000  0.780600  1.0  0.1312
  H  H176  1  0.922700  0.283900  0.760100  1.0  0.1019
  H  H177  1  0.939700  0.309500  0.711200  1.0  0.0964
  H  H178  1  0.946400  0.117400  0.785000  1.0  0.0981
  H  H179  1  0.974600  0.091600  0.744800  1.0  0.0945
  H  H180  1  0.840900  0.086400  0.719900  1.0  0.1298
  H  H181  1  0.871500  0.950300  0.742000  1.0  0.1357
  H  H182  1  0.937500  0.958200  0.768000  1.0  0.1117
  H  H183  1  0.957000  0.028100  0.768300  1.0  0.1225
  H  H184  1  0.059100  0.168200  0.620900  1.0  0.0979
  H  H185  1  0.059200  0.221400  0.616500  1.0  0.0951
  H  H186  1  0.106400  0.195000  0.556100  1.0  0.1096
  H  H187  1  0.107000  0.176800  0.427000  1.0  0.1343
  H  H188  1  0.028200  0.187700  0.440300  1.0  0.1092
  H  H189  1  0.989700  0.200600  0.509400  1.0  0.1355
  H  H190  1  0.935300  0.178600  0.811100  1.0  0.1226
  H  H191  1  0.919500  0.231400  0.798700  1.0  0.1221
  H  H192  1  0.891200  0.196000  0.787400  1.0  0.1284
  H  H193  1  0.972800  0.108400  0.656900  1.0  0.1244
  H  H194  1  0.019300  0.124000  0.632000  1.0  0.1239
  H  H195  1  0.016900  0.094800  0.681000  1.0  0.1187
  H  H196  1  0.981300  0.308900  0.654000  1.0  0.1284
  H  H197  1  0.032700  0.289100  0.658700  1.0  0.1291
  H  H198  1  0.011000  0.280200  0.617300  1.0  0.1118
  H  H199  1  0.593300  0.627400  0.084000  1.0  0.1153
  H  H200  1  0.484100  0.572300  0.148700  1.0  0.132
  H  H201  1  0.497700  0.587900  0.216700  1.0  0.1194
  H  H202  1  0.559500  0.624100  0.219200  1.0  0.1182
  H  H203  1  0.555600  0.630700  0.022700  1.0  0.0962
  H  H204  1  0.587300  0.583800  0.034000  1.0  0.1081
  H  H205  1  0.475200  0.622900  0.871500  1.0  0.1056
  H  H206  1  0.456800  0.651200  0.912600  1.0  0.1055
  H  H207  1  0.402700  0.680400  0.868800  1.0  0.1246
  H  H208  1  0.274500  0.664400  0.862700  1.0  0.1255
  H  H209  1  0.289400  0.588700  0.894700  1.0  0.1133
  H  H210  1  0.358400  0.560700  0.917300  1.0  0.1165
  H  H211  1  0.535900  0.461700  0.927300  1.0  0.0787
  H  H212  1  0.558800  0.452300  0.972300  1.0  0.0904
  H  H213  1  0.679300  0.447500  0.873400  1.0  0.1365
  H  H214  1  0.685300  0.312400  0.889400  1.0  0.1235
  H  H215  1  0.612800  0.318100  0.930400  1.0  0.1074
  H  H216  1  0.572700  0.388900  0.942300  1.0  0.1217
  H  H217  1  0.455700  0.658600  0.977100  1.0  0.1077
  H  H218  1  0.490500  0.654700  0.011900  1.0  0.1104
  H  H219  1  0.503000  0.676700  0.960600  1.0  0.1281
  H  H220  1  0.477800  0.518700  0.888500  1.0  0.1213
  H  H221  1  0.499800  0.559200  0.856900  1.0  0.1151
  H  H222  1  0.530200  0.511700  0.868600  1.0  0.1156
  H  H223  1  0.566400  0.491600  0.043900  1.0  0.1243
  H  H224  1  0.601400  0.478800  0.001000  1.0  0.1005
  H  H225  1  0.606800  0.520000  0.024900  1.0  0.1063
  H  H226  1  0.576800  0.755300  0.131900  1.0  0.111
  H  H227  1  0.452600  0.719800  0.173100  1.0  0.1338
  H  H228  1  0.449000  0.707200  0.102000  1.0  0.1011
  H  H229  1  0.508400  0.719400  0.043000  1.0  0.1346
  H  H230  1  0.577300  0.739900  0.216100  1.0  0.1043
  H  H231  1  0.560300  0.788800  0.190500  1.0  0.0964
  H  H232  1  0.553600  0.715000  0.382600  1.0  0.0959
  H  H233  1  0.525400  0.755200  0.408400  1.0  0.0927
  H  H234  1  0.659100  0.780100  0.413600  1.0  0.1302
  H  H235  1  0.628500  0.758000  0.549700  1.0  0.1353
  H  H236  1  0.562500  0.732000  0.541800  1.0  0.1099
  H  H237  1  0.543000  0.731700  0.471900  1.0  0.1196
  H  H238  1  0.440900  0.879100  0.331800  1.0  0.0956
  H  H239  1  0.440800  0.883500  0.278600  1.0  0.0941
  H  H240  1  0.393600  0.943900  0.305000  1.0  0.1095
  H  H241  1  0.393000  0.073000  0.323200  1.0  0.1352
  H  H242  1  0.471800  0.059700  0.312300  1.0  0.1096
  H  H243  1  0.510300  0.990600  0.299400  1.0  0.1331
  H  H244  1  0.564700  0.688900  0.321400  1.0  0.1204
  H  H245  1  0.580500  0.701300  0.268600  1.0  0.1199
  H  H246  1  0.608800  0.712600  0.304000  1.0  0.1232
  H  H247  1  0.527200  0.843100  0.391600  1.0  0.126
  H  H248  1  0.480700  0.868000  0.376000  1.0  0.1238
  H  H249  1  0.483100  0.819000  0.405200  1.0  0.1187
  H  H250  1  0.518700  0.846000  0.191100  1.0  0.1255
  H  H251  1  0.467300  0.841300  0.210900  1.0  0.1291
  H  H252  1  0.489000  0.882700  0.219800  1.0  0.1132
  H  H253  1  0.627400  0.084000  0.593300  1.0  0.1166
  H  H254  1  0.572300  0.148700  0.484100  1.0  0.1313
  H  H255  1  0.587900  0.216700  0.497700  1.0  0.1205
  H  H256  1  0.624100  0.219200  0.559500  1.0  0.1188
  H  H257  1  0.630700  0.022700  0.555600  1.0  0.0956
  H  H258  1  0.583800  0.034000  0.587300  1.0  0.1098
  H  H259  1  0.622900  0.871500  0.475200  1.0  0.1062
  H  H260  1  0.651200  0.912600  0.456800  1.0  0.1073
  H  H261  1  0.680400  0.868800  0.402700  1.0  0.1225
  H  H262  1  0.664400  0.862700  0.274500  1.0  0.1256
  H  H263  1  0.588700  0.894700  0.289400  1.0  0.1125
  H  H264  1  0.560700  0.917300  0.358400  1.0  0.1171
  H  H265  1  0.461700  0.927300  0.535900  1.0  0.0765
  H  H266  1  0.452300  0.972300  0.558800  1.0  0.0923
  H  H267  1  0.447500  0.873400  0.679300  1.0  0.1353
  H  H268  1  0.312400  0.889400  0.685300  1.0  0.1229
  H  H269  1  0.318100  0.930400  0.612800  1.0  0.1058
  H  H270  1  0.388900  0.942300  0.572700  1.0  0.1225
  H  H271  1  0.658600  0.977100  0.455700  1.0  0.1086
  H  H272  1  0.654700  0.011900  0.490500  1.0  0.1116
  H  H273  1  0.676700  0.960600  0.503000  1.0  0.1269
  H  H274  1  0.518700  0.888500  0.477800  1.0  0.1214
  H  H275  1  0.559200  0.856900  0.499800  1.0  0.1154
  H  H276  1  0.511700  0.868600  0.530200  1.0  0.1156
  H  H277  1  0.491600  0.043900  0.566400  1.0  0.1251
  H  H278  1  0.478800  0.001000  0.601400  1.0  0.101
  H  H279  1  0.520000  0.024900  0.606800  1.0  0.1075
  H  H280  1  0.755300  0.131900  0.576800  1.0  0.1116
  H  H281  1  0.719800  0.173100  0.452600  1.0  0.1335
  H  H282  1  0.707200  0.102000  0.449000  1.0  0.0986
  H  H283  1  0.719400  0.043000  0.508400  1.0  0.1316
  H  H284  1  0.739900  0.216100  0.577300  1.0  0.103
  H  H285  1  0.788800  0.190500  0.560300  1.0  0.0958
  H  H286  1  0.715000  0.382600  0.553600  1.0  0.0979
  H  H287  1  0.755200  0.408400  0.525400  1.0  0.0924
  H  H288  1  0.780100  0.413600  0.659100  1.0  0.1284
  H  H289  1  0.758000  0.549700  0.628500  1.0  0.1354
  H  H290  1  0.732000  0.541800  0.562500  1.0  0.1102
  H  H291  1  0.731700  0.471900  0.543000  1.0  0.1202
  H  H292  1  0.879100  0.331800  0.440900  1.0  0.0964
  H  H293  1  0.883500  0.278600  0.440800  1.0  0.0945
  H  H294  1  0.943900  0.305000  0.393600  1.0  0.1083
  H  H295  1  0.073000  0.323200  0.393000  1.0  0.1341
  H  H296  1  0.059700  0.312300  0.471800  1.0  0.1085
  H  H297  1  0.990600  0.299400  0.510300  1.0  0.1303
  H  H298  1  0.688900  0.321400  0.564700  1.0  0.1197
  H  H299  1  0.701300  0.268600  0.580500  1.0  0.1193
  H  H300  1  0.712600  0.304000  0.608800  1.0  0.1274
  H  H301  1  0.843100  0.391600  0.527200  1.0  0.1253
  H  H302  1  0.868000  0.376000  0.480700  1.0  0.1236
  H  H303  1  0.819000  0.405200  0.483100  1.0  0.1201
  H  H304  1  0.846000  0.191100  0.518700  1.0  0.1278
  H  H305  1  0.841300  0.210900  0.467300  1.0  0.1274
  H  H306  1  0.882700  0.219800  0.489000  1.0  0.114
  H  H307  1  0.084000  0.593300  0.627400  1.0  0.1159
  H  H308  1  0.148700  0.484100  0.572300  1.0  0.13
  H  H309  1  0.216700  0.497700  0.587900  1.0  0.1202
  H  H310  1  0.219200  0.559500  0.624100  1.0  0.1167
  H  H311  1  0.022700  0.555600  0.630700  1.0  0.0951
  H  H312  1  0.034000  0.587300  0.583800  1.0  0.107
  H  H313  1  0.871500  0.475200  0.622900  1.0  0.104
  H  H314  1  0.912600  0.456800  0.651200  1.0  0.1021
  H  H315  1  0.868800  0.402700  0.680400  1.0  0.1231
  H  H316  1  0.862700  0.274500  0.664400  1.0  0.1254
  H  H317  1  0.894700  0.289400  0.588700  1.0  0.1129
  H  H318  1  0.917300  0.358400  0.560700  1.0  0.1161
  H  H319  1  0.927300  0.535900  0.461700  1.0  0.078
  H  H320  1  0.972300  0.558800  0.452300  1.0  0.0904
  H  H321  1  0.873400  0.679300  0.447500  1.0  0.1358
  H  H322  1  0.889400  0.685300  0.312400  1.0  0.1217
  H  H323  1  0.930400  0.612800  0.318100  1.0  0.1069
  H  H324  1  0.942300  0.572700  0.388900  1.0  0.1211
  H  H325  1  0.977100  0.455700  0.658600  1.0  0.1104
  H  H326  1  0.011900  0.490500  0.654700  1.0  0.1118
  H  H327  1  0.960600  0.503000  0.676700  1.0  0.1261
  H  H328  1  0.888500  0.477800  0.518700  1.0  0.122
  H  H329  1  0.856900  0.499800  0.559200  1.0  0.1148
  H  H330  1  0.868600  0.530200  0.511700  1.0  0.1159
  H  H331  1  0.043900  0.566400  0.491600  1.0  0.1249
  H  H332  1  0.001000  0.601400  0.478800  1.0  0.0987
  H  H333  1  0.024900  0.606800  0.520000  1.0  0.1042
  H  H334  1  0.131900  0.576800  0.755300  1.0  0.1109
  H  H335  1  0.173100  0.452600  0.719800  1.0  0.1345
  H  H336  1  0.102000  0.449000  0.707200  1.0  0.1005
  H  H337  1  0.043000  0.508400  0.719400  1.0  0.1319
  H  H338  1  0.216100  0.577300  0.739900  1.0  0.103
  H  H339  1  0.190500  0.560300  0.788800  1.0  0.0964
  H  H340  1  0.382600  0.553600  0.715000  1.0  0.1003
  H  H341  1  0.408400  0.525400  0.755200  1.0  0.0957
  H  H342  1  0.413600  0.659100  0.780100  1.0  0.1307
  H  H343  1  0.549700  0.628500  0.758000  1.0  0.136
  H  H344  1  0.541800  0.562500  0.732000  1.0  0.1095
  H  H345  1  0.471900  0.543000  0.731700  1.0  0.1195
  H  H346  1  0.331800  0.440900  0.879100  1.0  0.0971
  H  H347  1  0.278600  0.440800  0.883500  1.0  0.0936
  H  H348  1  0.305000  0.393600  0.943900  1.0  0.1106
  H  H349  1  0.323200  0.393000  0.073000  1.0  0.135
  H  H350  1  0.312300  0.471800  0.059700  1.0  0.108
  H  H351  1  0.299400  0.510300  0.990600  1.0  0.1321
  H  H352  1  0.321400  0.564700  0.688900  1.0  0.121
  H  H353  1  0.268600  0.580500  0.701300  1.0  0.1203
  H  H354  1  0.304000  0.608800  0.712600  1.0  0.1272
  H  H355  1  0.391600  0.527200  0.843100  1.0  0.1266
  H  H356  1  0.376000  0.480700  0.868000  1.0  0.124
  H  H357  1  0.405200  0.483100  0.819000  1.0  0.1178
  H  H358  1  0.191100  0.518700  0.846000  1.0  0.127
  H  H359  1  0.210900  0.467300  0.841300  1.0  0.1286
  H  H360  1  0.219800  0.489000  0.882700  1.0  0.112
  H  H361  1  0.127400  0.093300  0.584000  1.0  0.1154
  H  H362  1  0.072300  0.984100  0.648700  1.0  0.1324
  H  H363  1  0.087900  0.997700  0.716700  1.0  0.1211
  H  H364  1  0.124100  0.059500  0.719200  1.0  0.1183
  H  H365  1  0.130700  0.055600  0.522700  1.0  0.0958
  H  H366  1  0.083800  0.087300  0.534000  1.0  0.1066
  H  H367  1  0.122900  0.975200  0.371500  1.0  0.1062
  H  H368  1  0.151200  0.956800  0.412600  1.0  0.1042
  H  H369  1  0.180400  0.902700  0.368800  1.0  0.1246
  H  H370  1  0.164400  0.774500  0.362700  1.0  0.125
  H  H371  1  0.088700  0.789400  0.394700  1.0  0.1138
  H  H372  1  0.060700  0.858400  0.417300  1.0  0.117
  H  H373  1  0.961700  0.035900  0.427300  1.0  0.0789
  H  H374  1  0.952300  0.058800  0.472300  1.0  0.0893
  H  H375  1  0.947500  0.179300  0.373400  1.0  0.1355
  H  H376  1  0.812400  0.185300  0.389400  1.0  0.1229
  H  H377  1  0.818100  0.112800  0.430400  1.0  0.1079
  H  H378  1  0.888900  0.072700  0.442300  1.0  0.1227
  H  H379  1  0.158600  0.955700  0.477100  1.0  0.1104
  H  H380  1  0.154700  0.990500  0.511900  1.0  0.1109
  H  H381  1  0.176700  0.003000  0.460600  1.0  0.1287
  H  H382  1  0.018700  0.977800  0.388500  1.0  0.1243
  H  H383  1  0.059200  0.999800  0.356900  1.0  0.1125
  H  H384  1  0.011700  0.030200  0.368600  1.0  0.1155
  H  H385  1  0.991600  0.066400  0.543900  1.0  0.1247
  H  H386  1  0.978800  0.101400  0.501000  1.0  0.1
  H  H387  1  0.020000  0.106800  0.524900  1.0  0.1056
  H  H388  1  0.255300  0.076800  0.631900  1.0  0.1115
  H  H389  1  0.219800  0.952600  0.673100  1.0  0.1336
  H  H390  1  0.207200  0.949000  0.602000  1.0  0.1021
  H  H391  1  0.219400  0.008400  0.543000  1.0  0.1343
  H  H392  1  0.239900  0.077300  0.716100  1.0  0.105
  H  H393  1  0.288800  0.060300  0.690500  1.0  0.0957
  H  H394  1  0.215000  0.053600  0.882600  1.0  0.0978
  H  H395  1  0.255200  0.025400  0.908400  1.0  0.0932
  H  H396  1  0.280100  0.159100  0.913600  1.0  0.1294
  H  H397  1  0.258000  0.128500  0.049700  1.0  0.135
  H  H398  1  0.232000  0.062500  0.041800  1.0  0.1109
  H  H399  1  0.231700  0.043000  0.971900  1.0  0.12
  H  H400  1  0.379100  0.940900  0.831800  1.0  0.0946
  H  H401  1  0.383500  0.940800  0.778600  1.0  0.0934
  H  H402  1  0.443900  0.893600  0.805000  1.0  0.1085
  H  H403  1  0.573000  0.893000  0.823200  1.0  0.1341
  H  H404  1  0.559700  0.971800  0.812300  1.0  0.1087
  H  H405  1  0.490600  0.010300  0.799400  1.0  0.1313
  H  H406  1  0.188900  0.064700  0.821400  1.0  0.1181
  H  H407  1  0.201300  0.080500  0.768600  1.0  0.1196
  H  H408  1  0.212600  0.108800  0.804000  1.0  0.1254
  H  H409  1  0.343100  0.027200  0.891600  1.0  0.1266
  H  H410  1  0.368000  0.980700  0.876000  1.0  0.1237
  H  H411  1  0.319000  0.983100  0.905200  1.0  0.1188
  H  H412  1  0.346000  0.018700  0.691100  1.0  0.1269
  H  H413  1  0.341300  0.967300  0.710900  1.0  0.1286
  H  H414  1  0.382700  0.989000  0.719800  1.0  0.1125
  H  H415  1  0.584000  0.127400  0.093300  1.0  0.1153
  H  H416  1  0.648700  0.072300  0.984100  1.0  0.1308
  H  H417  1  0.716700  0.087900  0.997700  1.0  0.1184
  H  H418  1  0.719200  0.124100  0.059500  1.0  0.1171
  H  H419  1  0.522700  0.130700  0.055600  1.0  0.0953
  H  H420  1  0.534000  0.083800  0.087300  1.0  0.1092
  H  H421  1  0.371500  0.122900  0.975200  1.0  0.1044
  H  H422  1  0.412600  0.151200  0.956800  1.0  0.1053
  H  H423  1  0.368800  0.180400  0.902700  1.0  0.1232
  H  H424  1  0.362700  0.164400  0.774500  1.0  0.1257
  H  H425  1  0.394700  0.088700  0.789400  1.0  0.1122
  H  H426  1  0.417300  0.060700  0.858400  1.0  0.1167
  H  H427  1  0.427300  0.961700  0.035900  1.0  0.0769
  H  H428  1  0.472300  0.952300  0.058800  1.0  0.0917
  H  H429  1  0.373400  0.947500  0.179300  1.0  0.1347
  H  H430  1  0.389400  0.812400  0.185300  1.0  0.1232
  H  H431  1  0.430400  0.818100  0.112800  1.0  0.1066
  H  H432  1  0.442300  0.888900  0.072700  1.0  0.1211
  H  H433  1  0.477100  0.158600  0.955700  1.0  0.1081
  H  H434  1  0.511900  0.154700  0.990500  1.0  0.1122
  H  H435  1  0.460600  0.176700  0.003000  1.0  0.1254
  H  H436  1  0.388500  0.018700  0.977800  1.0  0.1241
  H  H437  1  0.356900  0.059200  0.999800  1.0  0.1157
  H  H438  1  0.368600  0.011700  0.030200  1.0  0.1153
  H  H439  1  0.543900  0.991600  0.066400  1.0  0.1241
  H  H440  1  0.501000  0.978800  0.101400  1.0  0.101
  H  H441  1  0.524900  0.020000  0.106800  1.0  0.1065
  H  H442  1  0.631900  0.255300  0.076800  1.0  0.1117
  H  H443  1  0.673100  0.219800  0.952600  1.0  0.134
  H  H444  1  0.602000  0.207200  0.949000  1.0  0.1001
  H  H445  1  0.543000  0.219400  0.008400  1.0  0.1317
  H  H446  1  0.716100  0.239900  0.077300  1.0  0.1035
  H  H447  1  0.690500  0.288800  0.060300  1.0  0.0968
  H  H448  1  0.882600  0.215000  0.053600  1.0  0.0959
  H  H449  1  0.908400  0.255200  0.025400  1.0  0.093
  H  H450  1  0.913600  0.280100  0.159100  1.0  0.1305
  H  H451  1  0.049700  0.258000  0.128500  1.0  0.1355
  H  H452  1  0.041800  0.232000  0.062500  1.0  0.1095
  H  H453  1  0.971900  0.231700  0.043000  1.0  0.1188
  H  H454  1  0.831800  0.379100  0.940900  1.0  0.0971
  H  H455  1  0.778600  0.383500  0.940800  1.0  0.0941
  H  H456  1  0.805000  0.443900  0.893600  1.0  0.1095
  H  H457  1  0.823200  0.573000  0.893000  1.0  0.136
  H  H458  1  0.812300  0.559700  0.971800  1.0  0.1097
  H  H459  1  0.799400  0.490600  0.010300  1.0  0.1301
  H  H460  1  0.821400  0.188900  0.064700  1.0  0.1202
  H  H461  1  0.768600  0.201300  0.080500  1.0  0.1182
  H  H462  1  0.804000  0.212600  0.108800  1.0  0.1275
  H  H463  1  0.891600  0.343100  0.027200  1.0  0.1264
  H  H464  1  0.876000  0.368000  0.980700  1.0  0.1242
  H  H465  1  0.905200  0.319000  0.983100  1.0  0.1193
  H  H466  1  0.691100  0.346000  0.018700  1.0  0.125
  H  H467  1  0.710900  0.341300  0.967300  1.0  0.1279
  H  H468  1  0.719800  0.382700  0.989000  1.0  0.1131
  H  H469  1  0.093300  0.584000  0.127400  1.0  0.1164
  H  H470  1  0.984100  0.648700  0.072300  1.0  0.132
  H  H471  1  0.997700  0.716700  0.087900  1.0  0.1205
  H  H472  1  0.059500  0.719200  0.124100  1.0  0.1188
  H  H473  1  0.055600  0.522700  0.130700  1.0  0.0958
  H  H474  1  0.087300  0.534000  0.083800  1.0  0.1102
  H  H475  1  0.975200  0.371500  0.122900  1.0  0.1061
  H  H476  1  0.956800  0.412600  0.151200  1.0  0.1041
  H  H477  1  0.902700  0.368800  0.180400  1.0  0.1227
  H  H478  1  0.774500  0.362700  0.164400  1.0  0.1252
  H  H479  1  0.789400  0.394700  0.088700  1.0  0.1135
  H  H480  1  0.858400  0.417300  0.060700  1.0  0.1158
  H  H481  1  0.035900  0.427300  0.961700  1.0  0.0782
  H  H482  1  0.058800  0.472300  0.952300  1.0  0.091
  H  H483  1  0.179300  0.373400  0.947500  1.0  0.1369
  H  H484  1  0.185300  0.389400  0.812400  1.0  0.1236
  H  H485  1  0.112800  0.430400  0.818100  1.0  0.1049
  H  H486  1  0.072700  0.442300  0.888900  1.0  0.1203
  H  H487  1  0.955700  0.477100  0.158600  1.0  0.1107
  H  H488  1  0.990500  0.511900  0.154700  1.0  0.1116
  H  H489  1  0.003000  0.460600  0.176700  1.0  0.1275
  H  H490  1  0.977800  0.388500  0.018700  1.0  0.1209
  H  H491  1  0.999800  0.356900  0.059200  1.0  0.1162
  H  H492  1  0.030200  0.368600  0.011700  1.0  0.1145
  H  H493  1  0.066400  0.543900  0.991600  1.0  0.1258
  H  H494  1  0.101400  0.501000  0.978800  1.0  0.0994
  H  H495  1  0.106800  0.524900  0.020000  1.0  0.1062
  H  H496  1  0.076800  0.631900  0.255300  1.0  0.1104
  H  H497  1  0.952600  0.673100  0.219800  1.0  0.1351
  H  H498  1  0.949000  0.602000  0.207200  1.0  0.0988
  H  H499  1  0.008400  0.543000  0.219400  1.0  0.1319
  H  H500  1  0.077300  0.716100  0.239900  1.0  0.1025
  H  H501  1  0.060300  0.690500  0.288800  1.0  0.0963
  H  H502  1  0.053600  0.882600  0.215000  1.0  0.0995
  H  H503  1  0.025400  0.908400  0.255200  1.0  0.0947
  H  H504  1  0.159100  0.913600  0.280100  1.0  0.1296
  H  H505  1  0.128500  0.049700  0.258000  1.0  0.1369
  H  H506  1  0.062500  0.041800  0.232000  1.0  0.1114
  H  H507  1  0.043000  0.971900  0.231700  1.0  0.1207
  H  H508  1  0.940900  0.831800  0.379100  1.0  0.0966
  H  H509  1  0.940800  0.778600  0.383500  1.0  0.0953
  H  H510  1  0.893600  0.805000  0.443900  1.0  0.1103
  H  H511  1  0.893000  0.823200  0.573000  1.0  0.1345
  H  H512  1  0.971800  0.812300  0.559700  1.0  0.1088
  H  H513  1  0.010300  0.799400  0.490600  1.0  0.134
  H  H514  1  0.064700  0.821400  0.188900  1.0  0.1209
  H  H515  1  0.080500  0.768600  0.201300  1.0  0.1207
  H  H516  1  0.108800  0.804000  0.212600  1.0  0.1248
  H  H517  1  0.027200  0.891600  0.343100  1.0  0.1242
  H  H518  1  0.980700  0.876000  0.368000  1.0  0.1241
  H  H519  1  0.983100  0.905200  0.319000  1.0  0.118
  H  H520  1  0.018700  0.691100  0.346000  1.0  0.1267
  H  H521  1  0.967300  0.710900  0.341300  1.0  0.129
  H  H522  1  0.989000  0.719800  0.382700  1.0  0.1117
  H  H523  1  0.406700  0.372600  0.916000  1.0  0.1157
  H  H524  1  0.515900  0.427700  0.851300  1.0  0.1324
  H  H525  1  0.502300  0.412100  0.783300  1.0  0.1196
  H  H526  1  0.440500  0.375900  0.780800  1.0  0.1184
  H  H527  1  0.444400  0.369300  0.977300  1.0  0.0956
  H  H528  1  0.412700  0.416200  0.966000  1.0  0.1079
  H  H529  1  0.524800  0.377100  0.128500  1.0  0.1056
  H  H530  1  0.543200  0.348800  0.087400  1.0  0.1043
  H  H531  1  0.597300  0.319600  0.131200  1.0  0.1243
  H  H532  1  0.725500  0.335600  0.137300  1.0  0.1252
  H  H533  1  0.710600  0.411300  0.105300  1.0  0.1129
  H  H534  1  0.641600  0.439300  0.082700  1.0  0.1171
  H  H535  1  0.464100  0.538300  0.072700  1.0  0.0762
  H  H536  1  0.441200  0.547700  0.027700  1.0  0.0899
  H  H537  1  0.320700  0.552500  0.126600  1.0  0.1378
  H  H538  1  0.314700  0.687600  0.110600  1.0  0.1237
  H  H539  1  0.387200  0.681900  0.069600  1.0  0.108
  H  H540  1  0.427300  0.611100  0.057700  1.0  0.1222
  H  H541  1  0.544300  0.341400  0.022900  1.0  0.11
  H  H542  1  0.509500  0.345300  0.988100  1.0  0.111
  H  H543  1  0.497000  0.323300  0.039400  1.0  0.1286
  H  H544  1  0.522200  0.481300  0.111500  1.0  0.1213
  H  H545  1  0.500200  0.440800  0.143100  1.0  0.1146
  H  H546  1  0.469800  0.488300  0.131400  1.0  0.1154
  H  H547  1  0.433600  0.508400  0.956100  1.0  0.1242
  H  H548  1  0.398600  0.521200  0.999000  1.0  0.1008
  H  H549  1  0.393200  0.480000  0.975100  1.0  0.1047
  H  H550  1  0.423200  0.244700  0.868100  1.0  0.1111
  H  H551  1  0.547400  0.280200  0.826900  1.0  0.1334
  H  H552  1  0.551000  0.292800  0.898000  1.0  0.1005
  H  H553  1  0.491600  0.280600  0.957000  1.0  0.1335
  H  H554  1  0.422700  0.260100  0.783900  1.0  0.1041
  H  H555  1  0.439700  0.211200  0.809500  1.0  0.0962
  H  H556  1  0.446400  0.285000  0.617400  1.0  0.0979
  H  H557  1  0.474600  0.244800  0.591600  1.0  0.0942
  H  H558  1  0.340900  0.219900  0.586400  1.0  0.1313
  H  H559  1  0.371500  0.242000  0.450300  1.0  0.1352
  H  H560  1  0.437500  0.268000  0.458200  1.0  0.11
  H  H561  1  0.457000  0.268300  0.528100  1.0  0.1198
  H  H562  1  0.559100  0.120900  0.668200  1.0  0.0962
  H  H563  1  0.559200  0.116500  0.721400  1.0  0.0941
  H  H564  1  0.606400  0.056100  0.695000  1.0  0.1093
  H  H565  1  0.607000  0.927000  0.676800  1.0  0.1348
  H  H566  1  0.528200  0.940300  0.687700  1.0  0.1103
  H  H567  1  0.489700  0.009400  0.700600  1.0  0.1327
  H  H568  1  0.435300  0.311100  0.678600  1.0  0.1197
  H  H569  1  0.419500  0.298700  0.731400  1.0  0.1191
  H  H570  1  0.391200  0.287400  0.696000  1.0  0.1271
  H  H571  1  0.472800  0.156900  0.608400  1.0  0.1256
  H  H572  1  0.519300  0.132000  0.624000  1.0  0.1238
  H  H573  1  0.516900  0.181000  0.594800  1.0  0.1195
  H  H574  1  0.481300  0.154000  0.808900  1.0  0.1267
  H  H575  1  0.532700  0.158700  0.789100  1.0  0.1295
  H  H576  1  0.511000  0.117300  0.780200  1.0  0.1119
  H  H577  1  0.372600  0.916000  0.406700  1.0  0.116
  H  H578  1  0.427700  0.851300  0.515900  1.0  0.1315
  H  H579  1  0.412100  0.783300  0.502300  1.0  0.1204
  H  H580  1  0.375900  0.780800  0.440500  1.0  0.1185
  H  H581  1  0.369300  0.977300  0.444400  1.0  0.0952
  H  H582  1  0.416200  0.966000  0.412700  1.0  0.1091
  H  H583  1  0.377100  0.128500  0.524800  1.0  0.105
  H  H584  1  0.348800  0.087400  0.543200  1.0  0.1054
  H  H585  1  0.319600  0.131200  0.597300  1.0  0.1226
  H  H586  1  0.335600  0.137300  0.725500  1.0  0.1264
  H  H587  1  0.411300  0.105300  0.710600  1.0  0.1126
  H  H588  1  0.439300  0.082700  0.641600  1.0  0.1169
  H  H589  1  0.538300  0.072700  0.464100  1.0  0.0768
  H  H590  1  0.547700  0.027700  0.441200  1.0  0.0919
  H  H591  1  0.552500  0.126600  0.320700  1.0  0.1357
  H  H592  1  0.687600  0.110600  0.314700  1.0  0.1238
  H  H593  1  0.681900  0.069600  0.387200  1.0  0.1057
  H  H594  1  0.611100  0.057700  0.427300  1.0  0.122
  H  H595  1  0.341400  0.022900  0.544300  1.0  0.1092
  H  H596  1  0.345300  0.988100  0.509500  1.0  0.1111
  H  H597  1  0.323300  0.039400  0.497000  1.0  0.1266
  H  H598  1  0.481300  0.111500  0.522200  1.0  0.1226
  H  H599  1  0.440800  0.143100  0.500200  1.0  0.1156
  H  H600  1  0.488300  0.131400  0.469800  1.0  0.1141
  H  H601  1  0.508400  0.956100  0.433600  1.0  0.124
  H  H602  1  0.521200  0.999000  0.398600  1.0  0.1005
  H  H603  1  0.480000  0.975100  0.393200  1.0  0.108
  H  H604  1  0.244700  0.868100  0.423200  1.0  0.1117
  H  H605  1  0.280200  0.826900  0.547400  1.0  0.1338
  H  H606  1  0.292800  0.898000  0.551000  1.0  0.0996
  H  H607  1  0.280600  0.957000  0.491600  1.0  0.1316
  H  H608  1  0.260100  0.783900  0.422700  1.0  0.1033
  H  H609  1  0.211200  0.809500  0.439700  1.0  0.0967
  H  H610  1  0.285000  0.617400  0.446400  1.0  0.0989
  H  H611  1  0.244800  0.591600  0.474600  1.0  0.0939
  H  H612  1  0.219900  0.586400  0.340900  1.0  0.1288
  H  H613  1  0.242000  0.450300  0.371500  1.0  0.135
  H  H614  1  0.268000  0.458200  0.437500  1.0  0.1106
  H  H615  1  0.268300  0.528100  0.457000  1.0  0.1198
  H  H616  1  0.120900  0.668200  0.559100  1.0  0.0978
  H  H617  1  0.116500  0.721400  0.559200  1.0  0.0936
  H  H618  1  0.056100  0.695000  0.606400  1.0  0.1082
  H  H619  1  0.927000  0.676800  0.607000  1.0  0.1341
  H  H620  1  0.940300  0.687700  0.528200  1.0  0.1089
  H  H621  1  0.009400  0.700600  0.489700  1.0  0.1304
  H  H622  1  0.311100  0.678600  0.435300  1.0  0.1196
  H  H623  1  0.298700  0.731400  0.419500  1.0  0.1195
  H  H624  1  0.287400  0.696000  0.391200  1.0  0.127
  H  H625  1  0.156900  0.608400  0.472800  1.0  0.1248
  H  H626  1  0.132000  0.624000  0.519300  1.0  0.1242
  H  H627  1  0.181000  0.594800  0.516900  1.0  0.1191
  H  H628  1  0.154000  0.808900  0.481300  1.0  0.1279
  H  H629  1  0.158700  0.789100  0.532700  1.0  0.1292
  H  H630  1  0.117300  0.780200  0.511000  1.0  0.1152
  H  H631  1  0.916000  0.406700  0.372600  1.0  0.1155
  H  H632  1  0.851300  0.515900  0.427700  1.0  0.1318
  H  H633  1  0.783300  0.502300  0.412100  1.0  0.1196
  H  H634  1  0.780800  0.440500  0.375900  1.0  0.1166
  H  H635  1  0.977300  0.444400  0.369300  1.0  0.0964
  H  H636  1  0.966000  0.412700  0.416200  1.0  0.1067
  H  H637  1  0.128500  0.524800  0.377100  1.0  0.1073
  H  H638  1  0.087400  0.543200  0.348800  1.0  0.105
  H  H639  1  0.131200  0.597300  0.319600  1.0  0.1226
  H  H640  1  0.137300  0.725500  0.335600  1.0  0.1254
  H  H641  1  0.105300  0.710600  0.411300  1.0  0.1127
  H  H642  1  0.082700  0.641600  0.439300  1.0  0.116
  H  H643  1  0.072700  0.464100  0.538300  1.0  0.0774
  H  H644  1  0.027700  0.441200  0.547700  1.0  0.0899
  H  H645  1  0.126600  0.320700  0.552500  1.0  0.1366
  H  H646  1  0.110600  0.314700  0.687600  1.0  0.1212
  H  H647  1  0.069600  0.387200  0.681900  1.0  0.107
  H  H648  1  0.057700  0.427300  0.611100  1.0  0.1208
  H  H649  1  0.022900  0.544300  0.341400  1.0  0.11
  H  H650  1  0.988100  0.509500  0.345300  1.0  0.1085
  H  H651  1  0.039400  0.497000  0.323300  1.0  0.1265
  H  H652  1  0.111500  0.522200  0.481300  1.0  0.1227
  H  H653  1  0.143100  0.500200  0.440800  1.0  0.1141
  H  H654  1  0.131400  0.469800  0.488300  1.0  0.1153
  H  H655  1  0.956100  0.433600  0.508400  1.0  0.1252
  H  H656  1  0.999000  0.398600  0.521200  1.0  0.0996
  H  H657  1  0.975100  0.393200  0.480000  1.0  0.1043
  H  H658  1  0.868100  0.423200  0.244700  1.0  0.1109
  H  H659  1  0.826900  0.547400  0.280200  1.0  0.1346
  H  H660  1  0.898000  0.551000  0.292800  1.0  0.1009
  H  H661  1  0.957000  0.491600  0.280600  1.0  0.1318
  H  H662  1  0.783900  0.422700  0.260100  1.0  0.1034
  H  H663  1  0.809500  0.439700  0.211200  1.0  0.0969
  H  H664  1  0.617400  0.446400  0.285000  1.0  0.0986
  H  H665  1  0.591600  0.474600  0.244800  1.0  0.0936
  H  H666  1  0.586400  0.340900  0.219900  1.0  0.131
  H  H667  1  0.450300  0.371500  0.242000  1.0  0.1361
  H  H668  1  0.458200  0.437500  0.268000  1.0  0.1108
  H  H669  1  0.528100  0.457000  0.268300  1.0  0.1204
  H  H670  1  0.668200  0.559100  0.120900  1.0  0.0973
  H  H671  1  0.721400  0.559200  0.116500  1.0  0.0942
  H  H672  1  0.695000  0.606400  0.056100  1.0  0.1094
  H  H673  1  0.676800  0.607000  0.927000  1.0  0.1348
  H  H674  1  0.687700  0.528200  0.940300  1.0  0.1086
  H  H675  1  0.700600  0.489700  0.009400  1.0  0.1318
  H  H676  1  0.678600  0.435300  0.311100  1.0  0.121
  H  H677  1  0.731400  0.419500  0.298700  1.0  0.1234
  H  H678  1  0.696000  0.391200  0.287400  1.0  0.1246
  H  H679  1  0.608400  0.472800  0.156900  1.0  0.1259
  H  H680  1  0.624000  0.519300  0.132000  1.0  0.1235
  H  H681  1  0.594800  0.516900  0.181000  1.0  0.1182
  H  H682  1  0.808900  0.481300  0.154000  1.0  0.1273
  H  H683  1  0.789100  0.532700  0.158700  1.0  0.1288
  H  H684  1  0.780200  0.511000  0.117300  1.0  0.112
  C  C685  1  0.846810  0.878330  0.348300  1.0  0.7078
  C  C686  1  0.870220  0.918000  0.347980  1.0  -0.1163
  C  C687  1  0.880260  0.926120  0.388950  1.0  -0.1637
  C  C688  1  0.901480  0.962890  0.389790  1.0  0.3007
  C  C689  1  0.913110  0.990830  0.350490  1.0  -0.1957
  C  C690  1  0.903820  0.982820  0.310220  1.0  -0.0883
  C  C691  1  0.882310  0.946070  0.308750  1.0  -0.0569
  C  C692  1  0.902210  0.943930  0.469490  1.0  0.0176
  C  C693  1  0.920480  0.959570  0.505960  1.0  -0.0503
  C  C694  1  0.892860  0.991020  0.531680  1.0  0.0474
  C  C695  1  0.908380  0.002260  0.568940  1.0  -0.0617
  C  C696  1  0.951420  0.984180  0.578930  1.0  0.054
  C  C697  1  0.980220  0.956870  0.550290  1.0  -0.0723
  C  C698  1  0.964650  0.944280  0.514220  1.0  0.0777
  C  C699  1  0.879440  0.036240  0.595940  1.0  0.0306
  C  C700  1  0.881450  0.113620  0.603040  1.0  0.2534
  C  C701  1  0.837880  0.120610  0.625040  1.0  -0.1035
  C  C702  1  0.821350  0.162600  0.637860  1.0  -0.0916
  C  C703  1  0.847730  0.196430  0.629580  1.0  -0.0623
  C  C704  1  0.892380  0.187880  0.609680  1.0  -0.0785
  C  C705  1  0.908870  0.147190  0.596530  1.0  -0.1328
  C  C706  1  0.773620  0.171960  0.659160  1.0  0.7032
  C  C707  1  0.028330  0.942370  0.557120  1.0  0.0309
  C  C708  1  0.074800  0.877930  0.590450  1.0  0.2328
  C  C709  1  0.078720  0.834460  0.615210  1.0  -0.1033
  C  C710  1  0.120330  0.811860  0.622840  1.0  -0.1161
  C  C711  1  0.158940  0.830940  0.605740  1.0  -0.0498
  C  C712  1  0.155600  0.873800  0.581400  1.0  -0.0947
  C  C713  1  0.113390  0.897590  0.573990  1.0  -0.2311
  C  C714  1  0.124130  0.765390  0.650510  1.0  0.7332
  C  C715  1  0.846550  0.012330  0.519390  1.0  -0.3257
  C  C716  1  0.966790  0.995090  0.619790  1.0  -0.3567
  C  C717  1  0.996400  0.914860  0.483330  1.0  -0.3385
  C  C718  1  0.754950  0.913170  0.454310  1.0  0.6515
  C  C719  1  0.761670  0.951770  0.417270  1.0  -0.1343
  C  C720  1  0.754110  0.949410  0.374210  1.0  -0.1831
  C  C721  1  0.759890  0.984190  0.340490  1.0  0.2435
  C  C722  1  0.775240  0.022940  0.350140  1.0  -0.2079
  C  C723  1  0.782560  0.024960  0.392160  1.0  -0.089
  C  C724  1  0.775800  0.989700  0.427400  1.0  -0.1435
  C  C725  1  0.735880  0.948880  0.285780  1.0  -0.0011
  C  C726  1  0.718400  0.962600  0.241000  1.0  -0.0478
  C  C727  1  0.743580  0.949880  0.201480  1.0  0.0723
  C  C728  1  0.725320  0.962020  0.162120  1.0  0.0407
  C  C729  1  0.682690  0.988890  0.161590  1.0  0.0602
  C  C730  1  0.659990  0.004790  0.199890  1.0  -0.0274
  C  C731  1  0.676890  0.990390  0.240590  1.0  0.0561
  C  C732  1  0.752160  0.950360  0.116460  1.0  -0.0059
  C  C733  1  0.743550  0.901450  0.064750  1.0  0.1603
  C  C734  1  0.729390  0.860750  0.060330  1.0  -0.1078
  C  C735  1  0.729240  0.849640  0.018340  1.0  -0.0957
  C  C736  1  0.742830  0.878630  0.979330  1.0  -0.1021
  C  C737  1  0.757700  0.918100  0.984300  1.0  -0.0719
  C  C738  1  0.758130  0.929730  0.025730  1.0  -0.166
  C  C739  1  0.713250  0.806050  0.014950  1.0  0.741
  C  C740  1  0.618760  0.039760  0.197960  1.0  0.0242
  C  C741  1  0.539460  0.044660  0.197660  1.0  0.3089
  C  C742  1  0.532440  0.090740  0.192440  1.0  -0.1456
  C  C743  1  0.491000  0.115400  0.183300  1.0  -0.1677
  C  C744  1  0.455820  0.091620  0.182020  1.0  -0.0854
  C  C745  1  0.463940  0.044540  0.188640  1.0  -0.0938
  C  C746  1  0.504880  0.021580  0.196280  1.0  -0.1433
  C  C747  1  0.483550  0.164750  0.179050  1.0  0.7004
  C  C748  1  0.789200  0.921600  0.201900  1.0  -0.3479
  C  C749  1  0.661190  0.000590  0.118290  1.0  -0.352
  C  C750  1  0.649310  0.005110  0.283510  1.0  -0.3455
  C  C751  1  0.348300  0.846810  0.878330  1.0  0.7152
  C  C752  1  0.347980  0.870220  0.918000  1.0  -0.1183
  C  C753  1  0.388950  0.880260  0.926120  1.0  -0.1647
  C  C754  1  0.389790  0.901480  0.962890  1.0  0.2989
  C  C755  1  0.350490  0.913110  0.990830  1.0  -0.1946
  C  C756  1  0.310220  0.903820  0.982820  1.0  -0.0963
  C  C757  1  0.308750  0.882310  0.946070  1.0  -0.0505
  C  C758  1  0.469490  0.902210  0.943930  1.0  0.0168
  C  C759  1  0.505960  0.920480  0.959570  1.0  -0.053
  C  C760  1  0.531680  0.892860  0.991020  1.0  0.0479
  C  C761  1  0.568940  0.908380  0.002260  1.0  -0.0581
  C  C762  1  0.578930  0.951420  0.984180  1.0  0.0582
  C  C763  1  0.550290  0.980220  0.956870  1.0  -0.0731
  C  C764  1  0.514220  0.964650  0.944280  1.0  0.0756
  C  C765  1  0.595940  0.879440  0.036240  1.0  0.031
  C  C766  1  0.603040  0.881450  0.113620  1.0  0.2533
  C  C767  1  0.625040  0.837880  0.120610  1.0  -0.1028
  C  C768  1  0.637860  0.821350  0.162600  1.0  -0.0923
  C  C769  1  0.629580  0.847730  0.196430  1.0  -0.066
  C  C770  1  0.609680  0.892380  0.187880  1.0  -0.0764
  C  C771  1  0.596530  0.908870  0.147190  1.0  -0.1309
  C  C772  1  0.659160  0.773620  0.171960  1.0  0.6946
  C  C773  1  0.557120  0.028330  0.942370  1.0  0.0318
  C  C774  1  0.590450  0.074800  0.877930  1.0  0.2351
  C  C775  1  0.615210  0.078720  0.834460  1.0  -0.1018
  C  C776  1  0.622840  0.120330  0.811860  1.0  -0.1331
  C  C777  1  0.605740  0.158940  0.830940  1.0  -0.0575
  C  C778  1  0.581400  0.155600  0.873800  1.0  -0.0896
  C  C779  1  0.573990  0.113390  0.897590  1.0  -0.2273
  C  C780  1  0.650510  0.124130  0.765390  1.0  0.7337
  C  C781  1  0.519390  0.846550  0.012330  1.0  -0.325
  C  C782  1  0.619790  0.966790  0.995090  1.0  -0.3572
  C  C783  1  0.483330  0.996400  0.914860  1.0  -0.3393
  C  C784  1  0.454310  0.754950  0.913170  1.0  0.6484
  C  C785  1  0.417270  0.761670  0.951770  1.0  -0.1356
  C  C786  1  0.374210  0.754110  0.949410  1.0  -0.1836
  C  C787  1  0.340490  0.759890  0.984190  1.0  0.2403
  C  C788  1  0.350140  0.775240  0.022940  1.0  -0.2097
  C  C789  1  0.392160  0.782560  0.024960  1.0  -0.0904
  C  C790  1  0.427400  0.775800  0.989700  1.0  -0.1465
  C  C791  1  0.285780  0.735880  0.948880  1.0  -0.0051
  C  C792  1  0.241000  0.718400  0.962600  1.0  -0.0504
  C  C793  1  0.201480  0.743580  0.949880  1.0  0.0686
  C  C794  1  0.162120  0.725320  0.962020  1.0  0.0367
  C  C795  1  0.161590  0.682690  0.988890  1.0  0.06
  C  C796  1  0.199890  0.659990  0.004790  1.0  -0.0252
  C  C797  1  0.240590  0.676890  0.990390  1.0  0.0561
  C  C798  1  0.116460  0.752160  0.950360  1.0  -0.0035
  C  C799  1  0.064750  0.743550  0.901450  1.0  0.1645
  C  C800  1  0.060330  0.729390  0.860750  1.0  -0.108
  C  C801  1  0.018340  0.729240  0.849640  1.0  -0.0931
  C  C802  1  0.979330  0.742830  0.878630  1.0  -0.1054
  C  C803  1  0.984300  0.757700  0.918100  1.0  -0.073
  C  C804  1  0.025730  0.758130  0.929730  1.0  -0.1701
  C  C805  1  0.014950  0.713250  0.806050  1.0  0.7459
  C  C806  1  0.197960  0.618760  0.039760  1.0  0.0164
  C  C807  1  0.197660  0.539460  0.044660  1.0  0.3066
  C  C808  1  0.192440  0.532440  0.090740  1.0  -0.1446
  C  C809  1  0.183300  0.491000  0.115400  1.0  -0.1744
  C  C810  1  0.182020  0.455820  0.091620  1.0  -0.0872
  C  C811  1  0.188640  0.463940  0.044540  1.0  -0.0887
  C  C812  1  0.196280  0.504880  0.021580  1.0  -0.1464
  C  C813  1  0.179050  0.483550  0.164750  1.0  0.7097
  C  C814  1  0.201900  0.789200  0.921600  1.0  -0.3463
  C  C815  1  0.118290  0.661190  0.000590  1.0  -0.3502
  C  C816  1  0.283510  0.649310  0.005110  1.0  -0.3432
  C  C817  1  0.878330  0.348300  0.846810  1.0  0.705
  C  C818  1  0.918000  0.347980  0.870220  1.0  -0.1155
  C  C819  1  0.926120  0.388950  0.880260  1.0  -0.164
  C  C820  1  0.962890  0.389790  0.901480  1.0  0.2973
  C  C821  1  0.990830  0.350490  0.913110  1.0  -0.1936
  C  C822  1  0.982820  0.310220  0.903820  1.0  -0.0889
  C  C823  1  0.946070  0.308750  0.882310  1.0  -0.0489
  C  C824  1  0.943930  0.469490  0.902210  1.0  0.0187
  C  C825  1  0.959570  0.505960  0.920480  1.0  -0.052
  C  C826  1  0.991020  0.531680  0.892860  1.0  0.048
  C  C827  1  0.002260  0.568940  0.908380  1.0  -0.0617
  C  C828  1  0.984180  0.578930  0.951420  1.0  0.0536
  C  C829  1  0.956870  0.550290  0.980220  1.0  -0.0693
  C  C830  1  0.944280  0.514220  0.964650  1.0  0.0785
  C  C831  1  0.036240  0.595940  0.879440  1.0  0.0296
  C  C832  1  0.113620  0.603040  0.881450  1.0  0.2523
  C  C833  1  0.120610  0.625040  0.837880  1.0  -0.1038
  C  C834  1  0.162600  0.637860  0.821350  1.0  -0.0918
  C  C835  1  0.196430  0.629580  0.847730  1.0  -0.0657
  C  C836  1  0.187880  0.609680  0.892380  1.0  -0.079
  C  C837  1  0.147190  0.596530  0.908870  1.0  -0.1339
  C  C838  1  0.171960  0.659160  0.773620  1.0  0.7021
  C  C839  1  0.942370  0.557120  0.028330  1.0  0.0292
  C  C840  1  0.877930  0.590450  0.074800  1.0  0.2369
  C  C841  1  0.834460  0.615210  0.078720  1.0  -0.1011
  C  C842  1  0.811860  0.622840  0.120330  1.0  -0.1301
  C  C843  1  0.830940  0.605740  0.158940  1.0  -0.0585
  C  C844  1  0.873800  0.581400  0.155600  1.0  -0.0932
  C  C845  1  0.897590  0.573990  0.113390  1.0  -0.2335
  C  C846  1  0.765390  0.650510  0.124130  1.0  0.7343
  C  C847  1  0.012330  0.519390  0.846550  1.0  -0.3262
  C  C848  1  0.995090  0.619790  0.966790  1.0  -0.3548
  C  C849  1  0.914860  0.483330  0.996400  1.0  -0.3384
  C  C850  1  0.913170  0.454310  0.754950  1.0  0.6492
  C  C851  1  0.951770  0.417270  0.761670  1.0  -0.1344
  C  C852  1  0.949410  0.374210  0.754110  1.0  -0.1829
  C  C853  1  0.984190  0.340490  0.759890  1.0  0.2417
  C  C854  1  0.022940  0.350140  0.775240  1.0  -0.2098
  C  C855  1  0.024960  0.392160  0.782560  1.0  -0.0919
  C  C856  1  0.989700  0.427400  0.775800  1.0  -0.1442
  C  C857  1  0.948880  0.285780  0.735880  1.0  -0.0022
  C  C858  1  0.962600  0.241000  0.718400  1.0  -0.0499
  C  C859  1  0.949880  0.201480  0.743580  1.0  0.0692
  C  C860  1  0.962020  0.162120  0.725320  1.0  0.038
  C  C861  1  0.988890  0.161590  0.682690  1.0  0.0598
  C  C862  1  0.004790  0.199890  0.659990  1.0  -0.0267
  C  C863  1  0.990390  0.240590  0.676890  1.0  0.056
  C  C864  1  0.950360  0.116460  0.752160  1.0  -0.0034
  C  C865  1  0.901450  0.064750  0.743550  1.0  0.1614
  C  C866  1  0.860750  0.060330  0.729390  1.0  -0.1107
  C  C867  1  0.849640  0.018340  0.729240  1.0  -0.0963
  C  C868  1  0.878630  0.979330  0.742830  1.0  -0.1009
  C  C869  1  0.918100  0.984300  0.757700  1.0  -0.0749
  C  C870  1  0.929730  0.025730  0.758130  1.0  -0.1705
  C  C871  1  0.806050  0.014950  0.713250  1.0  0.7401
  C  C872  1  0.039760  0.197960  0.618760  1.0  0.0216
  C  C873  1  0.044660  0.197660  0.539460  1.0  0.3068
  C  C874  1  0.090740  0.192440  0.532440  1.0  -0.1421
  C  C875  1  0.115400  0.183300  0.491000  1.0  -0.1751
  C  C876  1  0.091620  0.182020  0.455820  1.0  -0.0878
  C  C877  1  0.044540  0.188640  0.463940  1.0  -0.0859
  C  C878  1  0.021580  0.196280  0.504880  1.0  -0.1486
  C  C879  1  0.164750  0.179050  0.483550  1.0  0.6984
  C  C880  1  0.921600  0.201900  0.789200  1.0  -0.3483
  C  C881  1  0.000590  0.118290  0.661190  1.0  -0.3487
  C  C882  1  0.005110  0.283510  0.649310  1.0  -0.3456
  C  C883  1  0.621670  0.653190  0.151700  1.0  0.706
  C  C884  1  0.582000  0.629780  0.152020  1.0  -0.1164
  C  C885  1  0.573880  0.619740  0.111050  1.0  -0.1624
  C  C886  1  0.537110  0.598520  0.110210  1.0  0.2996
  C  C887  1  0.509170  0.586890  0.149510  1.0  -0.2008
  C  C888  1  0.517180  0.596180  0.189780  1.0  -0.0923
  C  C889  1  0.553930  0.617690  0.191250  1.0  -0.0548
  C  C890  1  0.556070  0.597790  0.030510  1.0  0.0174
  C  C891  1  0.540430  0.579520  0.994040  1.0  -0.0495
  C  C892  1  0.508980  0.607140  0.968320  1.0  0.0476
  C  C893  1  0.497740  0.591620  0.931060  1.0  -0.0597
  C  C894  1  0.515820  0.548580  0.921070  1.0  0.0523
  C  C895  1  0.543130  0.519780  0.949710  1.0  -0.0724
  C  C896  1  0.555720  0.535350  0.985780  1.0  0.0785
  C  C897  1  0.463760  0.620560  0.904060  1.0  0.0304
  C  C898  1  0.386380  0.618550  0.896960  1.0  0.253
  C  C899  1  0.379390  0.662120  0.874960  1.0  -0.1021
  C  C900  1  0.337400  0.678650  0.862140  1.0  -0.0925
  C  C901  1  0.303570  0.652270  0.870420  1.0  -0.0625
  C  C902  1  0.312120  0.607620  0.890320  1.0  -0.0801
  C  C903  1  0.352810  0.591130  0.903470  1.0  -0.1289
  C  C904  1  0.328040  0.726380  0.840840  1.0  0.7065
  C  C905  1  0.557630  0.471670  0.942880  1.0  0.0326
  C  C906  1  0.622070  0.425200  0.909550  1.0  0.2323
  C  C907  1  0.665540  0.421280  0.884790  1.0  -0.1053
  C  C908  1  0.688140  0.379670  0.877160  1.0  -0.1242
  C  C909  1  0.669060  0.341060  0.894260  1.0  -0.0559
  C  C910  1  0.626200  0.344400  0.918600  1.0  -0.0934
  C  C911  1  0.602410  0.386610  0.926010  1.0  -0.231
  C  C912  1  0.734610  0.375870  0.849490  1.0  0.7326
  C  C913  1  0.487670  0.653450  0.980610  1.0  -0.3245
  C  C914  1  0.504910  0.533210  0.880210  1.0  -0.3571
  C  C915  1  0.585140  0.503600  0.016670  1.0  -0.3396
  C  C916  1  0.586830  0.745050  0.045690  1.0  0.6474
  C  C917  1  0.548230  0.738330  0.082730  1.0  -0.135
  C  C918  1  0.550590  0.745890  0.125790  1.0  -0.1831
  C  C919  1  0.515810  0.740110  0.159510  1.0  0.2435
  C  C920  1  0.477060  0.724760  0.149860  1.0  -0.2105
  C  C921  1  0.475040  0.717440  0.107840  1.0  -0.0921
  C  C922  1  0.510300  0.724200  0.072600  1.0  -0.1424
  C  C923  1  0.551120  0.764120  0.214220  1.0  -0.0023
  C  C924  1  0.537400  0.781600  0.259000  1.0  -0.0492
  C  C925  1  0.550120  0.756420  0.298520  1.0  0.0706
  C  C926  1  0.537980  0.774680  0.337880  1.0  0.0378
  C  C927  1  0.511110  0.817310  0.338410  1.0  0.0613
  C  C928  1  0.495210  0.840010  0.300110  1.0  -0.0281
  C  C929  1  0.509610  0.823110  0.259410  1.0  0.0563
  C  C930  1  0.549640  0.747840  0.383540  1.0  -0.0013
  C  C931  1  0.598550  0.756450  0.435250  1.0  0.1637
  C  C932  1  0.639250  0.770610  0.439670  1.0  -0.1054
  C  C933  1  0.650360  0.770760  0.481660  1.0  -0.0957
  C  C934  1  0.621370  0.757170  0.520670  1.0  -0.1093
  C  C935  1  0.581900  0.742300  0.515700  1.0  -0.0742
  C  C936  1  0.570270  0.741870  0.474270  1.0  -0.1709
  C  C937  1  0.693950  0.786750  0.485050  1.0  0.7395
  C  C938  1  0.460240  0.881240  0.302040  1.0  0.022
  C  C939  1  0.455340  0.960540  0.302340  1.0  0.3084
  C  C940  1  0.409260  0.967560  0.307560  1.0  -0.1442
  C  C941  1  0.384600  0.009000  0.316700  1.0  -0.171
  C  C942  1  0.408380  0.044180  0.317980  1.0  -0.089
  C  C943  1  0.455460  0.036060  0.311360  1.0  -0.0892
  C  C944  1  0.478420  0.995120  0.303720  1.0  -0.1494
  C  C945  1  0.335250  0.016450  0.320950  1.0  0.7051
  C  C946  1  0.578400  0.710800  0.298100  1.0  -0.3493
  C  C947  1  0.499410  0.838810  0.381710  1.0  -0.3538
  C  C948  1  0.494890  0.850690  0.216490  1.0  -0.3455
  C  C949  1  0.653190  0.151700  0.621670  1.0  0.7137
  C  C950  1  0.629780  0.152020  0.582000  1.0  -0.1136
  C  C951  1  0.619740  0.111050  0.573880  1.0  -0.1619
  C  C952  1  0.598520  0.110210  0.537110  1.0  0.2999
  C  C953  1  0.586890  0.149510  0.509170  1.0  -0.1969
  C  C954  1  0.596180  0.189780  0.517180  1.0  -0.0874
  C  C955  1  0.617690  0.191250  0.553930  1.0  -0.0489
  C  C956  1  0.597790  0.030510  0.556070  1.0  0.0154
  C  C957  1  0.579520  0.994040  0.540430  1.0  -0.053
  C  C958  1  0.607140  0.968320  0.508980  1.0  0.0495
  C  C959  1  0.591620  0.931060  0.497740  1.0  -0.0602
  C  C960  1  0.548580  0.921070  0.515820  1.0  0.0561
  C  C961  1  0.519780  0.949710  0.543130  1.0  -0.0721
  C  C962  1  0.535350  0.985780  0.555720  1.0  0.0775
  C  C963  1  0.620560  0.904060  0.463760  1.0  0.0309
  C  C964  1  0.618550  0.896960  0.386380  1.0  0.2531
  C  C965  1  0.662120  0.874960  0.379390  1.0  -0.1032
  C  C966  1  0.678650  0.862140  0.337400  1.0  -0.0906
  C  C967  1  0.652270  0.870420  0.303570  1.0  -0.0647
  C  C968  1  0.607620  0.890320  0.312120  1.0  -0.0781
  C  C969  1  0.591130  0.903470  0.352810  1.0  -0.1322
  C  C970  1  0.726380  0.840840  0.328040  1.0  0.6998
  C  C971  1  0.471670  0.942880  0.557630  1.0  0.0307
  C  C972  1  0.425200  0.909550  0.622070  1.0  0.2348
  C  C973  1  0.421280  0.884790  0.665540  1.0  -0.099
  C  C974  1  0.379670  0.877160  0.688140  1.0  -0.1302
  C  C975  1  0.341060  0.894260  0.669060  1.0  -0.0548
  C  C976  1  0.344400  0.918600  0.626200  1.0  -0.0937
  C  C977  1  0.386610  0.926010  0.602410  1.0  -0.2298
  C  C978  1  0.375870  0.849490  0.734610  1.0  0.735
  C  C979  1  0.653450  0.980610  0.487670  1.0  -0.3252
  C  C980  1  0.533210  0.880210  0.504910  1.0  -0.3541
  C  C981  1  0.503600  0.016670  0.585140  1.0  -0.3384
  C  C982  1  0.745050  0.045690  0.586830  1.0  0.6501
  C  C983  1  0.738330  0.082730  0.548230  1.0  -0.1345
  C  C984  1  0.745890  0.125790  0.550590  1.0  -0.1818
  C  C985  1  0.740110  0.159510  0.515810  1.0  0.2423
  C  C986  1  0.724760  0.149860  0.477060  1.0  -0.2061
  C  C987  1  0.717440  0.107840  0.475040  1.0  -0.0904
  C  C988  1  0.724200  0.072600  0.510300  1.0  -0.1439
  C  C989  1  0.764120  0.214220  0.551120  1.0  -0.0063
  C  C990  1  0.781600  0.259000  0.537400  1.0  -0.0498
  C  C991  1  0.756420  0.298520  0.550120  1.0  0.0695
  C  C992  1  0.774680  0.337880  0.537980  1.0  0.0393
  C  C993  1  0.817310  0.338410  0.511110  1.0  0.057
  C  C994  1  0.840010  0.300110  0.495210  1.0  -0.0279
  C  C995  1  0.823110  0.259410  0.509610  1.0  0.0558
  C  C996  1  0.747840  0.383540  0.549640  1.0  -0.0047
  C  C997  1  0.756450  0.435250  0.598550  1.0  0.1591
  C  C998  1  0.770610  0.439670  0.639250  1.0  -0.109
  C  C999  1  0.770760  0.481660  0.650360  1.0  -0.0946
  C  C1000  1  0.757170  0.520670  0.621370  1.0  -0.0968
  C  C1001  1  0.742300  0.515700  0.581900  1.0  -0.0688
  C  C1002  1  0.741870  0.474270  0.570270  1.0  -0.1693
  C  C1003  1  0.786750  0.485050  0.693950  1.0  0.7456
  C  C1004  1  0.881240  0.302040  0.460240  1.0  0.0177
  C  C1005  1  0.960540  0.302340  0.455340  1.0  0.3074
  C  C1006  1  0.967560  0.307560  0.409260  1.0  -0.1438
  C  C1007  1  0.009000  0.316700  0.384600  1.0  -0.1741
  C  C1008  1  0.044180  0.317980  0.408380  1.0  -0.0832
  C  C1009  1  0.036060  0.311360  0.455460  1.0  -0.0916
  C  C1010  1  0.995120  0.303720  0.478420  1.0  -0.1449
  C  C1011  1  0.016450  0.320950  0.335250  1.0  0.7044
  C  C1012  1  0.710800  0.298100  0.578400  1.0  -0.3492
  C  C1013  1  0.838810  0.381710  0.499410  1.0  -0.3502
  C  C1014  1  0.850690  0.216490  0.494890  1.0  -0.3462
  C  C1015  1  0.151700  0.621670  0.653190  1.0  0.7112
  C  C1016  1  0.152020  0.582000  0.629780  1.0  -0.1157
  C  C1017  1  0.111050  0.573880  0.619740  1.0  -0.1643
  C  C1018  1  0.110210  0.537110  0.598520  1.0  0.2984
  C  C1019  1  0.149510  0.509170  0.586890  1.0  -0.1926
  C  C1020  1  0.189780  0.517180  0.596180  1.0  -0.0893
  C  C1021  1  0.191250  0.553930  0.617690  1.0  -0.05
  C  C1022  1  0.030510  0.556070  0.597790  1.0  0.0203
  C  C1023  1  0.994040  0.540430  0.579520  1.0  -0.0511
  C  C1024  1  0.968320  0.508980  0.607140  1.0  0.0487
  C  C1025  1  0.931060  0.497740  0.591620  1.0  -0.063
  C  C1026  1  0.921070  0.515820  0.548580  1.0  0.056
  C  C1027  1  0.949710  0.543130  0.519780  1.0  -0.0688
  C  C1028  1  0.985780  0.555720  0.535350  1.0  0.0788
  C  C1029  1  0.904060  0.463760  0.620560  1.0  0.0301
  C  C1030  1  0.896960  0.386380  0.618550  1.0  0.2531
  C  C1031  1  0.874960  0.379390  0.662120  1.0  -0.1019
  C  C1032  1  0.862140  0.337400  0.678650  1.0  -0.0922
  C  C1033  1  0.870420  0.303570  0.652270  1.0  -0.0637
  C  C1034  1  0.890320  0.312120  0.607620  1.0  -0.0778
  C  C1035  1  0.903470  0.352810  0.591130  1.0  -0.1304
  C  C1036  1  0.840840  0.328040  0.726380  1.0  0.6944
  C  C1037  1  0.942880  0.557630  0.471670  1.0  0.0294
  C  C1038  1  0.909550  0.622070  0.425200  1.0  0.2353
  C  C1039  1  0.884790  0.665540  0.421280  1.0  -0.1012
  C  C1040  1  0.877160  0.688140  0.379670  1.0  -0.1325
  C  C1041  1  0.894260  0.669060  0.341060  1.0  -0.0538
  C  C1042  1  0.918600  0.626200  0.344400  1.0  -0.0932
  C  C1043  1  0.926010  0.602410  0.386610  1.0  -0.2315
  C  C1044  1  0.849490  0.734610  0.375870  1.0  0.7353
  C  C1045  1  0.980610  0.487670  0.653450  1.0  -0.327
  C  C1046  1  0.880210  0.504910  0.533210  1.0  -0.3565
  C  C1047  1  0.016670  0.585140  0.503600  1.0  -0.3388
  C  C1048  1  0.045690  0.586830  0.745050  1.0  0.6505
  C  C1049  1  0.082730  0.548230  0.738330  1.0  -0.1359
  C  C1050  1  0.125790  0.550590  0.745890  1.0  -0.1804
  C  C1051  1  0.159510  0.515810  0.740110  1.0  0.2427
  C  C1052  1  0.149860  0.477060  0.724760  1.0  -0.2098
  C  C1053  1  0.107840  0.475040  0.717440  1.0  -0.0926
  C  C1054  1  0.072600  0.510300  0.724200  1.0  -0.1459
  C  C1055  1  0.214220  0.551120  0.764120  1.0  -0.0026
  C  C1056  1  0.259000  0.537400  0.781600  1.0  -0.0501
  C  C1057  1  0.298520  0.550120  0.756420  1.0  0.0678
  C  C1058  1  0.337880  0.537980  0.774680  1.0  0.0377
  C  C1059  1  0.338410  0.511110  0.817310  1.0  0.0608
  C  C1060  1  0.300110  0.495210  0.840010  1.0  -0.0255
  C  C1061  1  0.259410  0.509610  0.823110  1.0  0.0556
  C  C1062  1  0.383540  0.549640  0.747840  1.0  -0.0033
  C  C1063  1  0.435250  0.598550  0.756450  1.0  0.1637
  C  C1064  1  0.439670  0.639250  0.770610  1.0  -0.1113
  C  C1065  1  0.481660  0.650360  0.770760  1.0  -0.0952
  C  C1066  1  0.520670  0.621370  0.757170  1.0  -0.1024
  C  C1067  1  0.515700  0.581900  0.742300  1.0  -0.0752
  C  C1068  1  0.474270  0.570270  0.741870  1.0  -0.1648
  C  C1069  1  0.485050  0.693950  0.786750  1.0  0.741
  C  C1070  1  0.302040  0.460240  0.881240  1.0  0.0223
  C  C1071  1  0.302340  0.455340  0.960540  1.0  0.3081
  C  C1072  1  0.307560  0.409260  0.967560  1.0  -0.1411
  C  C1073  1  0.316700  0.384600  0.009000  1.0  -0.1714
  C  C1074  1  0.317980  0.408380  0.044180  1.0  -0.0889
  C  C1075  1  0.311360  0.455460  0.036060  1.0  -0.0885
  C  C1076  1  0.303720  0.478420  0.995120  1.0  -0.1427
  C  C1077  1  0.320950  0.335250  0.016450  1.0  0.698
  C  C1078  1  0.298100  0.578400  0.710800  1.0  -0.3487
  C  C1079  1  0.381710  0.499410  0.838810  1.0  -0.3511
  C  C1080  1  0.216490  0.494890  0.850690  1.0  -0.3448
  C  C1081  1  0.153190  0.121670  0.651700  1.0  0.71
  C  C1082  1  0.129780  0.082000  0.652020  1.0  -0.1161
  C  C1083  1  0.119740  0.073880  0.611050  1.0  -0.1634
  C  C1084  1  0.098520  0.037110  0.610210  1.0  0.3004
  C  C1085  1  0.086890  0.009170  0.649510  1.0  -0.1984
  C  C1086  1  0.096180  0.017180  0.689780  1.0  -0.0884
  C  C1087  1  0.117690  0.053930  0.691250  1.0  -0.0547
  C  C1088  1  0.097790  0.056070  0.530510  1.0  0.0191
  C  C1089  1  0.079520  0.040430  0.494040  1.0  -0.0497
  C  C1090  1  0.107140  0.008980  0.468320  1.0  0.0489
  C  C1091  1  0.091620  0.997740  0.431060  1.0  -0.0623
  C  C1092  1  0.048580  0.015820  0.421070  1.0  0.0542
  C  C1093  1  0.019780  0.043130  0.449710  1.0  -0.0738
  C  C1094  1  0.035350  0.055720  0.485780  1.0  0.0792
  C  C1095  1  0.120560  0.963760  0.404060  1.0  0.0292
  C  C1096  1  0.118550  0.886380  0.396960  1.0  0.2535
  C  C1097  1  0.162120  0.879390  0.374960  1.0  -0.1024
  C  C1098  1  0.178650  0.837400  0.362140  1.0  -0.0914
  C  C1099  1  0.152270  0.803570  0.370420  1.0  -0.0624
  C  C1100  1  0.107620  0.812120  0.390320  1.0  -0.0793
  C  C1101  1  0.091130  0.852810  0.403470  1.0  -0.1316
  C  C1102  1  0.226380  0.828040  0.340840  1.0  0.7046
  C  C1103  1  0.971670  0.057630  0.442880  1.0  0.0328
  C  C1104  1  0.925200  0.122070  0.409550  1.0  0.2326
  C  C1105  1  0.921280  0.165540  0.384790  1.0  -0.1041
  C  C1106  1  0.879670  0.188140  0.377160  1.0  -0.1234
  C  C1107  1  0.841060  0.169060  0.394260  1.0  -0.0509
  C  C1108  1  0.844400  0.126200  0.418600  1.0  -0.0951
  C  C1109  1  0.886610  0.102410  0.426010  1.0  -0.2287
  C  C1110  1  0.875870  0.234610  0.349490  1.0  0.7329
  C  C1111  1  0.153450  0.987670  0.480610  1.0  -0.3263
  C  C1112  1  0.033210  0.004910  0.380210  1.0  -0.3579
  C  C1113  1  0.003600  0.085140  0.516670  1.0  -0.3383
  C  C1114  1  0.245050  0.086830  0.545690  1.0  0.653
  C  C1115  1  0.238330  0.048230  0.582730  1.0  -0.135
  C  C1116  1  0.245890  0.050590  0.625790  1.0  -0.1815
  C  C1117  1  0.240110  0.015810  0.659510  1.0  0.2431
  C  C1118  1  0.224760  0.977060  0.649860  1.0  -0.2087
  C  C1119  1  0.217440  0.975040  0.607840  1.0  -0.0909
  C  C1120  1  0.224200  0.010300  0.572600  1.0  -0.1412
  C  C1121  1  0.264120  0.051120  0.714220  1.0  -0.0021
  C  C1122  1  0.281600  0.037400  0.759000  1.0  -0.0502
  C  C1123  1  0.256420  0.050120  0.798520  1.0  0.0724
  C  C1124  1  0.274680  0.037980  0.837880  1.0  0.0399
  C  C1125  1  0.317310  0.011110  0.838410  1.0  0.0603
  C  C1126  1  0.340010  0.995210  0.800110  1.0  -0.0273
  C  C1127  1  0.323110  0.009610  0.759410  1.0  0.0554
  C  C1128  1  0.247840  0.049640  0.883540  1.0  -0.004
  C  C1129  1  0.256450  0.098550  0.935250  1.0  0.1614
  C  C1130  1  0.270610  0.139250  0.939670  1.0  -0.1106
  C  C1131  1  0.270760  0.150360  0.981660  1.0  -0.0943
  C  C1132  1  0.257170  0.121370  0.020670  1.0  -0.1021
  C  C1133  1  0.242300  0.081900  0.015700  1.0  -0.0739
  C  C1134  1  0.241870  0.070270  0.974270  1.0  -0.1672
  C  C1135  1  0.286750  0.193950  0.985050  1.0  0.7421
  C  C1136  1  0.381240  0.960240  0.802040  1.0  0.0225
  C  C1137  1  0.460540  0.955340  0.802340  1.0  0.3079
  C  C1138  1  0.467560  0.909260  0.807560  1.0  -0.1438
  C  C1139  1  0.509000  0.884600  0.816700  1.0  -0.1713
  C  C1140  1  0.544180  0.908380  0.817980  1.0  -0.0854
  C  C1141  1  0.536060  0.955460  0.811360  1.0  -0.0921
  C  C1142  1  0.495120  0.978420  0.803720  1.0  -0.1444
  C  C1143  1  0.516450  0.835250  0.820950  1.0  0.6991
  C  C1144  1  0.210800  0.078400  0.798100  1.0  -0.3489
  C  C1145  1  0.338810  0.999410  0.881710  1.0  -0.3542
  C  C1146  1  0.350690  0.994890  0.716490  1.0  -0.345
  C  C1147  1  0.651700  0.153190  0.121670  1.0  0.7139
  C  C1148  1  0.652020  0.129780  0.082000  1.0  -0.1176
  C  C1149  1  0.611050  0.119740  0.073880  1.0  -0.164
  C  C1150  1  0.610210  0.098520  0.037110  1.0  0.3002
  C  C1151  1  0.649510  0.086890  0.009170  1.0  -0.1957
  C  C1152  1  0.689780  0.096180  0.017180  1.0  -0.0947
  C  C1153  1  0.691250  0.117690  0.053930  1.0  -0.0496
  C  C1154  1  0.530510  0.097790  0.056070  1.0  0.0156
  C  C1155  1  0.494040  0.079520  0.040430  1.0  -0.0515
  C  C1156  1  0.468320  0.107140  0.008980  1.0  0.0467
  C  C1157  1  0.431060  0.091620  0.997740  1.0  -0.0599
  C  C1158  1  0.421070  0.048580  0.015820  1.0  0.0581
  C  C1159  1  0.449710  0.019780  0.043130  1.0  -0.0715
  C  C1160  1  0.485780  0.035350  0.055720  1.0  0.0772
  C  C1161  1  0.404060  0.120560  0.963760  1.0  0.0323
  C  C1162  1  0.396960  0.118550  0.886380  1.0  0.2531
  C  C1163  1  0.374960  0.162120  0.879390  1.0  -0.1031
  C  C1164  1  0.362140  0.178650  0.837400  1.0  -0.0945
  C  C1165  1  0.370420  0.152270  0.803570  1.0  -0.0657
  C  C1166  1  0.390320  0.107620  0.812120  1.0  -0.0788
  C  C1167  1  0.403470  0.091130  0.852810  1.0  -0.1295
  C  C1168  1  0.340840  0.226380  0.828040  1.0  0.6964
  C  C1169  1  0.442880  0.971670  0.057630  1.0  0.0277
  C  C1170  1  0.409550  0.925200  0.122070  1.0  0.2355
  C  C1171  1  0.384790  0.921280  0.165540  1.0  -0.1005
  C  C1172  1  0.377160  0.879670  0.188140  1.0  -0.1323
  C  C1173  1  0.394260  0.841060  0.169060  1.0  -0.0582
  C  C1174  1  0.418600  0.844400  0.126200  1.0  -0.0911
  C  C1175  1  0.426010  0.886610  0.102410  1.0  -0.231
  C  C1176  1  0.349490  0.875870  0.234610  1.0  0.735
  C  C1177  1  0.480610  0.153450  0.987670  1.0  -0.3248
  C  C1178  1  0.380210  0.033210  0.004910  1.0  -0.3573
  C  C1179  1  0.516670  0.003600  0.085140  1.0  -0.3397
  C  C1180  1  0.545690  0.245050  0.086830  1.0  0.6487
  C  C1181  1  0.582730  0.238330  0.048230  1.0  -0.1363
  C  C1182  1  0.625790  0.245890  0.050590  1.0  -0.1822
  C  C1183  1  0.659510  0.240110  0.015810  1.0  0.2404
  C  C1184  1  0.649860  0.224760  0.977060  1.0  -0.2089
  C  C1185  1  0.607840  0.217440  0.975040  1.0  -0.0909
  C  C1186  1  0.572600  0.224200  0.010300  1.0  -0.1455
  C  C1187  1  0.714220  0.264120  0.051120  1.0  -0.0056
  C  C1188  1  0.759000  0.281600  0.037400  1.0  -0.0491
  C  C1189  1  0.798520  0.256420  0.050120  1.0  0.0679
  C  C1190  1  0.837880  0.274680  0.037980  1.0  0.0385
  C  C1191  1  0.838410  0.317310  0.011110  1.0  0.0588
  C  C1192  1  0.800110  0.340010  0.995210  1.0  -0.0267
  C  C1193  1  0.759410  0.323110  0.009610  1.0  0.0565
  C  C1194  1  0.883540  0.247840  0.049640  1.0  1e-04
  C  C1195  1  0.935250  0.256450  0.098550  1.0  0.1617
  C  C1196  1  0.939670  0.270610  0.139250  1.0  -0.1065
  C  C1197  1  0.981660  0.270760  0.150360  1.0  -0.0941
  C  C1198  1  0.020670  0.257170  0.121370  1.0  -0.1049
  C  C1199  1  0.015700  0.242300  0.081900  1.0  -0.0756
  C  C1200  1  0.974270  0.241870  0.070270  1.0  -0.1732
  C  C1201  1  0.985050  0.286750  0.193950  1.0  0.7461
  C  C1202  1  0.802040  0.381240  0.960240  1.0  0.0167
  C  C1203  1  0.802340  0.460540  0.955340  1.0  0.3073
  C  C1204  1  0.807560  0.467560  0.909260  1.0  -0.1451
  C  C1205  1  0.816700  0.509000  0.884600  1.0  -0.1715
  C  C1206  1  0.817980  0.544180  0.908380  1.0  -0.0872
  C  C1207  1  0.811360  0.536060  0.955460  1.0  -0.087
  C  C1208  1  0.803720  0.495120  0.978420  1.0  -0.1472
  C  C1209  1  0.820950  0.516450  0.835250  1.0  0.7074
  C  C1210  1  0.798100  0.210800  0.078400  1.0  -0.3494
  C  C1211  1  0.881710  0.338810  0.999410  1.0  -0.3503
  C  C1212  1  0.716490  0.350690  0.994890  1.0  -0.3433
  C  C1213  1  0.121670  0.651700  0.153190  1.0  0.7064
  C  C1214  1  0.082000  0.652020  0.129780  1.0  -0.1125
  C  C1215  1  0.073880  0.611050  0.119740  1.0  -0.1632
  C  C1216  1  0.037110  0.610210  0.098520  1.0  0.2975
  C  C1217  1  0.009170  0.649510  0.086890  1.0  -0.1981
  C  C1218  1  0.017180  0.689780  0.096180  1.0  -0.0875
  C  C1219  1  0.053930  0.691250  0.117690  1.0  -0.048
  C  C1220  1  0.056070  0.530510  0.097790  1.0  0.0192
  C  C1221  1  0.040430  0.494040  0.079520  1.0  -0.0524
  C  C1222  1  0.008980  0.468320  0.107140  1.0  0.0494
  C  C1223  1  0.997740  0.431060  0.091620  1.0  -0.061
  C  C1224  1  0.015820  0.421070  0.048580  1.0  0.0557
  C  C1225  1  0.043130  0.449710  0.019780  1.0  -0.0711
  C  C1226  1  0.055720  0.485780  0.035350  1.0  0.0765
  C  C1227  1  0.963760  0.404060  0.120560  1.0  0.0303
  C  C1228  1  0.886380  0.396960  0.118550  1.0  0.252
  C  C1229  1  0.879390  0.374960  0.162120  1.0  -0.1029
  C  C1230  1  0.837400  0.362140  0.178650  1.0  -0.0936
  C  C1231  1  0.803570  0.370420  0.152270  1.0  -0.065
  C  C1232  1  0.812120  0.390320  0.107620  1.0  -0.0788
  C  C1233  1  0.852810  0.403470  0.091130  1.0  -0.1329
  C  C1234  1  0.828040  0.340840  0.226380  1.0  0.7015
  C  C1235  1  0.057630  0.442880  0.971670  1.0  0.0292
  C  C1236  1  0.122070  0.409550  0.925200  1.0  0.2356
  C  C1237  1  0.165540  0.384790  0.921280  1.0  -0.1002
  C  C1238  1  0.188140  0.377160  0.879670  1.0  -0.129
  C  C1239  1  0.169060  0.394260  0.841060  1.0  -0.0591
  C  C1240  1  0.126200  0.418600  0.844400  1.0  -0.0933
  C  C1241  1  0.102410  0.426010  0.886610  1.0  -0.2324
  C  C1242  1  0.234610  0.349490  0.875870  1.0  0.7332
  C  C1243  1  0.987670  0.480610  0.153450  1.0  -0.3254
  C  C1244  1  0.004910  0.380210  0.033210  1.0  -0.3546
  C  C1245  1  0.085140  0.516670  0.003600  1.0  -0.3382
  C  C1246  1  0.086830  0.545690  0.245050  1.0  0.6476
  C  C1247  1  0.048230  0.582730  0.238330  1.0  -0.1342
  C  C1248  1  0.050590  0.625790  0.245890  1.0  -0.1814
  C  C1249  1  0.015810  0.659510  0.240110  1.0  0.2416
  C  C1250  1  0.977060  0.649860  0.224760  1.0  -0.2073
  C  C1251  1  0.975040  0.607840  0.217440  1.0  -0.0937
  C  C1252  1  0.010300  0.572600  0.224200  1.0  -0.1451
  C  C1253  1  0.051120  0.714220  0.264120  1.0  -0.0027
  C  C1254  1  0.037400  0.759000  0.281600  1.0  -0.0498
  C  C1255  1  0.050120  0.798520  0.256420  1.0  0.0662
  C  C1256  1  0.037980  0.837880  0.274680  1.0  0.0375
  C  C1257  1  0.011110  0.838410  0.317310  1.0  0.0597
  C  C1258  1  0.995210  0.800110  0.340010  1.0  -0.027
  C  C1259  1  0.009610  0.759410  0.323110  1.0  0.0554
  C  C1260  1  0.049640  0.883540  0.247840  1.0  -0.0039
  C  C1261  1  0.098550  0.935250  0.256450  1.0  0.162
  C  C1262  1  0.139250  0.939670  0.270610  1.0  -0.1101
  C  C1263  1  0.150360  0.981660  0.270760  1.0  -0.0959
  C  C1264  1  0.121370  0.020670  0.257170  1.0  -0.0991
  C  C1265  1  0.081900  0.015700  0.242300  1.0  -0.0711
  C  C1266  1  0.070270  0.974270  0.241870  1.0  -0.1687
  C  C1267  1  0.193950  0.985050  0.286750  1.0  0.7379
  C  C1268  1  0.960240  0.802040  0.381240  1.0  0.0223
  C  C1269  1  0.955340  0.802340  0.460540  1.0  0.3071
  C  C1270  1  0.909260  0.807560  0.467560  1.0  -0.1416
  C  C1271  1  0.884600  0.816700  0.509000  1.0  -0.1757
  C  C1272  1  0.908380  0.817980  0.544180  1.0  -0.0853
  C  C1273  1  0.955460  0.811360  0.536060  1.0  -0.0885
  C  C1274  1  0.978420  0.803720  0.495120  1.0  -0.1462
  C  C1275  1  0.835250  0.820950  0.516450  1.0  0.7011
  C  C1276  1  0.078400  0.798100  0.210800  1.0  -0.3487
  C  C1277  1  0.999410  0.881710  0.338810  1.0  -0.3483
  C  C1278  1  0.994890  0.716490  0.350690  1.0  -0.3473
  C  C1279  1  0.378330  0.346810  0.848300  1.0  0.7043
  C  C1280  1  0.418000  0.370220  0.847980  1.0  -0.1146
  C  C1281  1  0.426120  0.380260  0.888950  1.0  -0.163
  C  C1282  1  0.462890  0.401480  0.889790  1.0  0.2998
  C  C1283  1  0.490830  0.413110  0.850490  1.0  -0.1959
  C  C1284  1  0.482820  0.403820  0.810220  1.0  -0.0927
  C  C1285  1  0.446070  0.382310  0.808750  1.0  -0.0566
  C  C1286  1  0.443930  0.402210  0.969490  1.0  0.0181
  C  C1287  1  0.459570  0.420480  0.005960  1.0  -0.0504
  C  C1288  1  0.491020  0.392860  0.031680  1.0  0.0477
  C  C1289  1  0.502260  0.408380  0.068940  1.0  -0.0625
  C  C1290  1  0.484180  0.451420  0.078930  1.0  0.0528
  C  C1291  1  0.456870  0.480220  0.050290  1.0  -0.0725
  C  C1292  1  0.444280  0.464650  0.014220  1.0  0.0788
  C  C1293  1  0.536240  0.379440  0.095940  1.0  0.0292
  C  C1294  1  0.613620  0.381450  0.103040  1.0  0.2526
  C  C1295  1  0.620610  0.337880  0.125040  1.0  -0.1031
  C  C1296  1  0.662600  0.321350  0.137860  1.0  -0.0882
  C  C1297  1  0.696430  0.347730  0.129580  1.0  -0.0617
  C  C1298  1  0.687880  0.392380  0.109680  1.0  -0.0789
  C  C1299  1  0.647190  0.408870  0.096530  1.0  -0.1294
  C  C1300  1  0.671960  0.273620  0.159160  1.0  0.7091
  C  C1301  1  0.442370  0.528330  0.057120  1.0  0.0322
  C  C1302  1  0.377930  0.574800  0.090450  1.0  0.2327
  C  C1303  1  0.334460  0.578720  0.115210  1.0  -0.1041
  C  C1304  1  0.311860  0.620330  0.122840  1.0  -0.1162
  C  C1305  1  0.330940  0.658940  0.105740  1.0  -0.0569
  C  C1306  1  0.373800  0.655600  0.081400  1.0  -0.0946
  C  C1307  1  0.397590  0.613390  0.073990  1.0  -0.2351
  C  C1308  1  0.265390  0.624130  0.150510  1.0  0.734
  C  C1309  1  0.512330  0.346550  0.019390  1.0  -0.3265
  C  C1310  1  0.495090  0.466790  0.119790  1.0  -0.3569
  C  C1311  1  0.414860  0.496400  0.983330  1.0  -0.3379
  C  C1312  1  0.413170  0.254950  0.954310  1.0  0.6463
  C  C1313  1  0.451770  0.261670  0.917270  1.0  -0.1347
  C  C1314  1  0.449410  0.254110  0.874210  1.0  -0.1835
  C  C1315  1  0.484190  0.259890  0.840490  1.0  0.2429
  C  C1316  1  0.522940  0.275240  0.850140  1.0  -0.2113
  C  C1317  1  0.524960  0.282560  0.892160  1.0  -0.0912
  C  C1318  1  0.489700  0.275800  0.927400  1.0  -0.1451
  C  C1319  1  0.448880  0.235880  0.785780  1.0  -0.0002
  C  C1320  1  0.462600  0.218400  0.741000  1.0  -0.0474
  C  C1321  1  0.449880  0.243580  0.701480  1.0  0.0686
  C  C1322  1  0.462020  0.225320  0.662120  1.0  0.0379
  C  C1323  1  0.488890  0.182690  0.661590  1.0  0.0591
  C  C1324  1  0.504790  0.159990  0.699890  1.0  -0.0273
  C  C1325  1  0.490390  0.176890  0.740590  1.0  0.0565
  C  C1326  1  0.450360  0.252160  0.616460  1.0  -0.0021
  C  C1327  1  0.401450  0.243550  0.564750  1.0  0.1632
  C  C1328  1  0.360750  0.229390  0.560330  1.0  -0.1088
  C  C1329  1  0.349640  0.229240  0.518340  1.0  -0.0947
  C  C1330  1  0.378630  0.242830  0.479330  1.0  -0.1069
  C  C1331  1  0.418100  0.257700  0.484300  1.0  -0.0704
  C  C1332  1  0.429730  0.258130  0.525730  1.0  -0.1685
  C  C1333  1  0.306050  0.213250  0.514950  1.0  0.7389
  C  C1334  1  0.539760  0.118760  0.697960  1.0  0.0221
  C  C1335  1  0.544660  0.039460  0.697660  1.0  0.3088
  C  C1336  1  0.590740  0.032440  0.692440  1.0  -0.1442
  C  C1337  1  0.615400  0.991000  0.683300  1.0  -0.1715
  C  C1338  1  0.591620  0.955820  0.682020  1.0  -0.0898
  C  C1339  1  0.544540  0.963940  0.688640  1.0  -0.0894
  C  C1340  1  0.521580  0.004880  0.696280  1.0  -0.149
  C  C1341  1  0.664750  0.983550  0.679050  1.0  0.7032
  C  C1342  1  0.421600  0.289200  0.701900  1.0  -0.3481
  C  C1343  1  0.500590  0.161190  0.618290  1.0  -0.3521
  C  C1344  1  0.505110  0.149310  0.783510  1.0  -0.346
  C  C1345  1  0.346810  0.848300  0.378330  1.0  0.7151
  C  C1346  1  0.370220  0.847980  0.418000  1.0  -0.1145
  C  C1347  1  0.380260  0.888950  0.426120  1.0  -0.1639
  C  C1348  1  0.401480  0.889790  0.462890  1.0  0.2985
  C  C1349  1  0.413110  0.850490  0.490830  1.0  -0.1946
  C  C1350  1  0.403820  0.810220  0.482820  1.0  -0.0896
  C  C1351  1  0.382310  0.808750  0.446070  1.0  -0.0489
  C  C1352  1  0.402210  0.969490  0.443930  1.0  0.016
  C  C1353  1  0.420480  0.005960  0.459570  1.0  -0.0524
  C  C1354  1  0.392860  0.031680  0.491020  1.0  0.0473
  C  C1355  1  0.408380  0.068940  0.502260  1.0  -0.0593
  C  C1356  1  0.451420  0.078930  0.484180  1.0  0.0552
  C  C1357  1  0.480220  0.050290  0.456870  1.0  -0.0733
  C  C1358  1  0.464650  0.014220  0.444280  1.0  0.0782
  C  C1359  1  0.379440  0.095940  0.536240  1.0  0.0309
  C  C1360  1  0.381450  0.103040  0.613620  1.0  0.2534
  C  C1361  1  0.337880  0.125040  0.620610  1.0  -0.1029
  C  C1362  1  0.321350  0.137860  0.662600  1.0  -0.0942
  C  C1363  1  0.347730  0.129580  0.696430  1.0  -0.0664
  C  C1364  1  0.392380  0.109680  0.687880  1.0  -0.0774
  C  C1365  1  0.408870  0.096530  0.647190  1.0  -0.1332
  C  C1366  1  0.273620  0.159160  0.671960  1.0  0.698
  C  C1367  1  0.528330  0.057120  0.442370  1.0  0.0321
  C  C1368  1  0.574800  0.090450  0.377930  1.0  0.2349
  C  C1369  1  0.578720  0.115210  0.334460  1.0  -0.0983
  C  C1370  1  0.620330  0.122840  0.311860  1.0  -0.1321
  C  C1371  1  0.658940  0.105740  0.330940  1.0  -0.056
  C  C1372  1  0.655600  0.081400  0.373800  1.0  -0.0923
  C  C1373  1  0.613390  0.073990  0.397590  1.0  -0.2294
  C  C1374  1  0.624130  0.150510  0.265390  1.0  0.7348
  C  C1375  1  0.346550  0.019390  0.512330  1.0  -0.3255
  C  C1376  1  0.466790  0.119790  0.495090  1.0  -0.3546
  C  C1377  1  0.496400  0.983330  0.414860  1.0  -0.3393
  C  C1378  1  0.254950  0.954310  0.413170  1.0  0.6503
  C  C1379  1  0.261670  0.917270  0.451770  1.0  -0.1341
  C  C1380  1  0.254110  0.874210  0.449410  1.0  -0.1829
  C  C1381  1  0.259890  0.840490  0.484190  1.0  0.2424
  C  C1382  1  0.275240  0.850140  0.522940  1.0  -0.207
  C  C1383  1  0.282560  0.892160  0.524960  1.0  -0.0888
  C  C1384  1  0.275800  0.927400  0.489700  1.0  -0.1425
  C  C1385  1  0.235880  0.785780  0.448880  1.0  -0.0038
  C  C1386  1  0.218400  0.741000  0.462600  1.0  -0.0488
  C  C1387  1  0.243580  0.701480  0.449880  1.0  0.0735
  C  C1388  1  0.225320  0.662120  0.462020  1.0  0.0405
  C  C1389  1  0.182690  0.661590  0.488890  1.0  0.0595
  C  C1390  1  0.159990  0.699890  0.504790  1.0  -0.0267
  C  C1391  1  0.176890  0.740590  0.490390  1.0  0.0573
  C  C1392  1  0.252160  0.616460  0.450360  1.0  -0.0039
  C  C1393  1  0.243550  0.564750  0.401450  1.0  0.16
  C  C1394  1  0.229390  0.560330  0.360750  1.0  -0.1063
  C  C1395  1  0.229240  0.518340  0.349640  1.0  -0.0951
  C  C1396  1  0.242830  0.479330  0.378630  1.0  -0.0967
  C  C1397  1  0.257700  0.484300  0.418100  1.0  -0.0714
  C  C1398  1  0.258130  0.525730  0.429730  1.0  -0.1709
  C  C1399  1  0.213250  0.514950  0.306050  1.0  0.7481
  C  C1400  1  0.118760  0.697960  0.539760  1.0  0.0165
  C  C1401  1  0.039460  0.697660  0.544660  1.0  0.307
  C  C1402  1  0.032440  0.692440  0.590740  1.0  -0.1437
  C  C1403  1  0.991000  0.683300  0.615400  1.0  -0.1736
  C  C1404  1  0.955820  0.682020  0.591620  1.0  -0.0807
  C  C1405  1  0.963940  0.688640  0.544540  1.0  -0.0941
  C  C1406  1  0.004880  0.696280  0.521580  1.0  -0.146
  C  C1407  1  0.983550  0.679050  0.664750  1.0  0.7061
  C  C1408  1  0.289200  0.701900  0.421600  1.0  -0.3479
  C  C1409  1  0.161190  0.618290  0.500590  1.0  -0.3504
  C  C1410  1  0.149310  0.783510  0.505110  1.0  -0.3442
  C  C1411  1  0.848300  0.378330  0.346810  1.0  0.7103
  C  C1412  1  0.847980  0.418000  0.370220  1.0  -0.1173
  C  C1413  1  0.888950  0.426120  0.380260  1.0  -0.1644
  C  C1414  1  0.889790  0.462890  0.401480  1.0  0.2982
  C  C1415  1  0.850490  0.490830  0.413110  1.0  -0.191
  C  C1416  1  0.810220  0.482820  0.403820  1.0  -0.0908
  C  C1417  1  0.808750  0.446070  0.382310  1.0  -0.0517
  C  C1418  1  0.969490  0.443930  0.402210  1.0  0.0195
  C  C1419  1  0.005960  0.459570  0.420480  1.0  -0.0529
  C  C1420  1  0.031680  0.491020  0.392860  1.0  0.0511
  C  C1421  1  0.068940  0.502260  0.408380  1.0  -0.0626
  C  C1422  1  0.078930  0.484180  0.451420  1.0  0.0579
  C  C1423  1  0.050290  0.456870  0.480220  1.0  -0.0697
  C  C1424  1  0.014220  0.444280  0.464650  1.0  0.0755
  C  C1425  1  0.095940  0.536240  0.379440  1.0  0.03
  C  C1426  1  0.103040  0.613620  0.381450  1.0  0.2533
  C  C1427  1  0.125040  0.620610  0.337880  1.0  -0.1025
  C  C1428  1  0.137860  0.662600  0.321350  1.0  -0.0905
  C  C1429  1  0.129580  0.696430  0.347730  1.0  -0.0627
  C  C1430  1  0.109680  0.687880  0.392380  1.0  -0.077
  C  C1431  1  0.096530  0.647190  0.408870  1.0  -0.1323
  C  C1432  1  0.159160  0.671960  0.273620  1.0  0.6922
  C  C1433  1  0.057120  0.442370  0.528330  1.0  0.0322
  C  C1434  1  0.090450  0.377930  0.574800  1.0  0.2355
  C  C1435  1  0.115210  0.334460  0.578720  1.0  -0.1028
  C  C1436  1  0.122840  0.311860  0.620330  1.0  -0.133
  C  C1437  1  0.105740  0.330940  0.658940  1.0  -0.0527
  C  C1438  1  0.081400  0.373800  0.655600  1.0  -0.0909
  C  C1439  1  0.073990  0.397590  0.613390  1.0  -0.2293
  C  C1440  1  0.150510  0.265390  0.624130  1.0  0.7345
  C  C1441  1  0.019390  0.512330  0.346550  1.0  -0.3252
  C  C1442  1  0.119790  0.495090  0.466790  1.0  -0.3573
  C  C1443  1  0.983330  0.414860  0.496400  1.0  -0.3388
  C  C1444  1  0.954310  0.413170  0.254950  1.0  0.6493
  C  C1445  1  0.917270  0.451770  0.261670  1.0  -0.1348
  C  C1446  1  0.874210  0.449410  0.254110  1.0  -0.183
  C  C1447  1  0.840490  0.484190  0.259890  1.0  0.2424
  C  C1448  1  0.850140  0.522940  0.275240  1.0  -0.2086
  C  C1449  1  0.892160  0.524960  0.282560  1.0  -0.0888
  C  C1450  1  0.927400  0.489700  0.275800  1.0  -0.1471
  C  C1451  1  0.785780  0.448880  0.235880  1.0  -0.0033
  C  C1452  1  0.741000  0.462600  0.218400  1.0  -0.0511
  C  C1453  1  0.701480  0.449880  0.243580  1.0  0.0701
  C  C1454  1  0.662120  0.462020  0.225320  1.0  0.0358
  C  C1455  1  0.661590  0.488890  0.182690  1.0  0.0599
  C  C1456  1  0.699890  0.504790  0.159990  1.0  -0.0255
  C  C1457  1  0.740590  0.490390  0.176890  1.0  0.0555
  C  C1458  1  0.616460  0.450360  0.252160  1.0  -0.0042
  C  C1459  1  0.564750  0.401450  0.243550  1.0  0.1637
  C  C1460  1  0.560330  0.360750  0.229390  1.0  -0.1101
  C  C1461  1  0.518340  0.349640  0.229240  1.0  -0.0928
  C  C1462  1  0.479330  0.378630  0.242830  1.0  -0.1022
  C  C1463  1  0.484300  0.418100  0.257700  1.0  -0.0753
  C  C1464  1  0.525730  0.429730  0.258130  1.0  -0.1652
  C  C1465  1  0.514950  0.306050  0.213250  1.0  0.7405
  C  C1466  1  0.697960  0.539760  0.118760  1.0  0.0231
  C  C1467  1  0.697660  0.544660  0.039460  1.0  0.3076
  C  C1468  1  0.692440  0.590740  0.032440  1.0  -0.1437
  C  C1469  1  0.683300  0.615400  0.991000  1.0  -0.1687
  C  C1470  1  0.682020  0.591620  0.955820  1.0  -0.0898
  C  C1471  1  0.688640  0.544540  0.963940  1.0  -0.0864
  C  C1472  1  0.696280  0.521580  0.004880  1.0  -0.1424
  C  C1473  1  0.679050  0.664750  0.983550  1.0  0.7004
  C  C1474  1  0.701900  0.421600  0.289200  1.0  -0.3484
  C  C1475  1  0.618290  0.500590  0.161190  1.0  -0.35
  C  C1476  1  0.783510  0.505110  0.149310  1.0  -0.3435
  O  O1477  1  0.838040  0.872480  0.310750  1.0  -0.6029
  O  O1478  1  0.838150  0.854230  0.385260  1.0  -0.6106
  O  O1479  1  0.912300  0.973310  0.428370  1.0  -0.2627
  O  O1480  1  0.901570  0.075310  0.585470  1.0  -0.2745
  O  O1481  1  0.751180  0.141600  0.675870  1.0  -0.689
  O  O1482  1  0.755970  0.212820  0.658300  1.0  -0.599
  O  O1483  1  0.032030  0.897900  0.584180  1.0  -0.2842
  O  O1484  1  0.088780  0.752390  0.672280  1.0  -0.6268
  O  O1485  1  0.163430  0.744030  0.649850  1.0  -0.7113
  O  O1486  1  0.760990  0.916670  0.492980  1.0  -0.5719
  O  O1487  1  0.742670  0.878840  0.444910  1.0  -0.6745
  O  O1488  1  0.753250  0.986250  0.297340  1.0  -0.2629
  O  O1489  1  0.739190  0.909360  0.110220  1.0  -0.289
  O  O1490  1  0.693180  0.806380  0.980780  1.0  -0.6703
  O  O1491  1  0.719110  0.774040  0.045510  1.0  -0.6762
  O  O1492  1  0.579490  0.017790  0.204990  1.0  -0.2615
  O  O1493  1  0.448210  0.185610  0.162810  1.0  -0.6548
  O  O1494  1  0.512130  0.186290  0.187400  1.0  -0.7186
  O  O1495  1  0.310750  0.838040  0.872480  1.0  -0.6005
  O  O1496  1  0.385260  0.838150  0.854230  1.0  -0.6106
  O  O1497  1  0.428370  0.912300  0.973310  1.0  -0.2621
  O  O1498  1  0.585470  0.901570  0.075310  1.0  -0.2736
  O  O1499  1  0.675870  0.751180  0.141600  1.0  -0.6868
  O  O1500  1  0.658300  0.755970  0.212820  1.0  -0.5952
  O  O1501  1  0.584180  0.032030  0.897900  1.0  -0.2803
  O  O1502  1  0.672280  0.088780  0.752390  1.0  -0.6315
  O  O1503  1  0.649850  0.163430  0.744030  1.0  -0.7247
  O  O1504  1  0.492980  0.760990  0.916670  1.0  -0.5759
  O  O1505  1  0.444910  0.742670  0.878840  1.0  -0.6801
  O  O1506  1  0.297340  0.753250  0.986250  1.0  -0.2636
  O  O1507  1  0.110220  0.739190  0.909360  1.0  -0.2907
  O  O1508  1  0.980780  0.693180  0.806380  1.0  -0.6668
  O  O1509  1  0.045510  0.719110  0.774040  1.0  -0.6712
  O  O1510  1  0.204990  0.579490  0.017790  1.0  -0.2561
  O  O1511  1  0.162810  0.448210  0.185610  1.0  -0.6555
  O  O1512  1  0.187400  0.512130  0.186290  1.0  -0.7166
  O  O1513  1  0.872480  0.310750  0.838040  1.0  -0.6003
  O  O1514  1  0.854230  0.385260  0.838150  1.0  -0.6109
  O  O1515  1  0.973310  0.428370  0.912300  1.0  -0.2643
  O  O1516  1  0.075310  0.585470  0.901570  1.0  -0.2746
  O  O1517  1  0.141600  0.675870  0.751180  1.0  -0.6874
  O  O1518  1  0.212820  0.658300  0.755970  1.0  -0.5897
  O  O1519  1  0.897900  0.584180  0.032030  1.0  -0.283
  O  O1520  1  0.752390  0.672280  0.088780  1.0  -0.6309
  O  O1521  1  0.744030  0.649850  0.163430  1.0  -0.7101
  O  O1522  1  0.916670  0.492980  0.760990  1.0  -0.5715
  O  O1523  1  0.878840  0.444910  0.742670  1.0  -0.6753
  O  O1524  1  0.986250  0.297340  0.753250  1.0  -0.2622
  O  O1525  1  0.909360  0.110220  0.739190  1.0  -0.2884
  O  O1526  1  0.806380  0.980780  0.693180  1.0  -0.6664
  O  O1527  1  0.774040  0.045510  0.719110  1.0  -0.674
  O  O1528  1  0.017790  0.204990  0.579490  1.0  -0.2614
  O  O1529  1  0.185610  0.162810  0.448210  1.0  -0.6558
  O  O1530  1  0.186290  0.187400  0.512130  1.0  -0.7209
  O  O1531  1  0.627520  0.661960  0.189250  1.0  -0.6022
  O  O1532  1  0.645770  0.661850  0.114740  1.0  -0.6103
  O  O1533  1  0.526690  0.587700  0.071630  1.0  -0.2658
  O  O1534  1  0.424690  0.598430  0.914530  1.0  -0.2752
  O  O1535  1  0.358400  0.748820  0.824130  1.0  -0.6868
  O  O1536  1  0.287180  0.744030  0.841700  1.0  -0.5938
  O  O1537  1  0.602100  0.467970  0.915820  1.0  -0.2781
  O  O1538  1  0.747610  0.411220  0.827720  1.0  -0.6312
  O  O1539  1  0.755970  0.336570  0.850150  1.0  -0.7156
  O  O1540  1  0.583330  0.739010  0.007020  1.0  -0.5755
  O  O1541  1  0.621160  0.757330  0.055090  1.0  -0.6742
  O  O1542  1  0.513750  0.746750  0.202660  1.0  -0.2634
  O  O1543  1  0.590640  0.760810  0.389780  1.0  -0.289
  O  O1544  1  0.693620  0.806820  0.519220  1.0  -0.6701
  O  O1545  1  0.725960  0.780890  0.454490  1.0  -0.6746
  O  O1546  1  0.482210  0.920510  0.295010  1.0  -0.2598
  O  O1547  1  0.314390  0.051790  0.337190  1.0  -0.6584
  O  O1548  1  0.313710  0.987870  0.312600  1.0  -0.7191
  O  O1549  1  0.661960  0.189250  0.627520  1.0  -0.6026
  O  O1550  1  0.661850  0.114740  0.645770  1.0  -0.6102
  O  O1551  1  0.587700  0.071630  0.526690  1.0  -0.2631
  O  O1552  1  0.598430  0.914530  0.424690  1.0  -0.2743
  O  O1553  1  0.748820  0.824130  0.358400  1.0  -0.6863
  O  O1554  1  0.744030  0.841700  0.287180  1.0  -0.591
  O  O1555  1  0.467970  0.915820  0.602100  1.0  -0.2863
  O  O1556  1  0.411220  0.827720  0.747610  1.0  -0.6311
  O  O1557  1  0.336570  0.850150  0.755970  1.0  -0.7105
  O  O1558  1  0.739010  0.007020  0.583330  1.0  -0.5687
  O  O1559  1  0.757330  0.055090  0.621160  1.0  -0.6786
  O  O1560  1  0.746750  0.202660  0.513750  1.0  -0.2625
  O  O1561  1  0.760810  0.389780  0.590640  1.0  -0.2875
  O  O1562  1  0.806820  0.519220  0.693620  1.0  -0.6658
  O  O1563  1  0.780890  0.454490  0.725960  1.0  -0.6739
  O  O1564  1  0.920510  0.295010  0.482210  1.0  -0.2569
  O  O1565  1  0.051790  0.337190  0.314390  1.0  -0.6485
  O  O1566  1  0.987870  0.312600  0.313710  1.0  -0.7187
  O  O1567  1  0.189250  0.627520  0.661960  1.0  -0.5974
  O  O1568  1  0.114740  0.645770  0.661850  1.0  -0.6093
  O  O1569  1  0.071630  0.526690  0.587700  1.0  -0.2646
  O  O1570  1  0.914530  0.424690  0.598430  1.0  -0.2737
  O  O1571  1  0.824130  0.358400  0.748820  1.0  -0.6885
  O  O1572  1  0.841700  0.287180  0.744030  1.0  -0.5842
  O  O1573  1  0.915820  0.602100  0.467970  1.0  -0.2794
  O  O1574  1  0.827720  0.747610  0.411220  1.0  -0.6276
  O  O1575  1  0.850150  0.755970  0.336570  1.0  -0.7131
  O  O1576  1  0.007020  0.583330  0.739010  1.0  -0.5727
  O  O1577  1  0.055090  0.621160  0.757330  1.0  -0.679
  O  O1578  1  0.202660  0.513750  0.746750  1.0  -0.2639
  O  O1579  1  0.389780  0.590640  0.760810  1.0  -0.2895
  O  O1580  1  0.519220  0.693620  0.806820  1.0  -0.6652
  O  O1581  1  0.454490  0.725960  0.780890  1.0  -0.6707
  O  O1582  1  0.295010  0.482210  0.920510  1.0  -0.2606
  O  O1583  1  0.337190  0.314390  0.051790  1.0  -0.6603
  O  O1584  1  0.312600  0.313710  0.987870  1.0  -0.7197
  O  O1585  1  0.161960  0.127520  0.689250  1.0  -0.6046
  O  O1586  1  0.161850  0.145770  0.614740  1.0  -0.6096
  O  O1587  1  0.087700  0.026690  0.571630  1.0  -0.2645
  O  O1588  1  0.098430  0.924690  0.414530  1.0  -0.2747
  O  O1589  1  0.248820  0.858400  0.324130  1.0  -0.6869
  O  O1590  1  0.244030  0.787180  0.341700  1.0  -0.5937
  O  O1591  1  0.967970  0.102100  0.415820  1.0  -0.2812
  O  O1592  1  0.911220  0.247610  0.327720  1.0  -0.6284
  O  O1593  1  0.836570  0.255970  0.350150  1.0  -0.7131
  O  O1594  1  0.239010  0.083330  0.507020  1.0  -0.5749
  O  O1595  1  0.257330  0.121160  0.555090  1.0  -0.6729
  O  O1596  1  0.246750  0.013750  0.702660  1.0  -0.2627
  O  O1597  1  0.260810  0.090640  0.889780  1.0  -0.2907
  O  O1598  1  0.306820  0.193620  0.019220  1.0  -0.6764
  O  O1599  1  0.280890  0.225960  0.954490  1.0  -0.676
  O  O1600  1  0.420510  0.982210  0.795010  1.0  -0.2603
  O  O1601  1  0.551790  0.814390  0.837190  1.0  -0.653
  O  O1602  1  0.487870  0.813710  0.812600  1.0  -0.7214
  O  O1603  1  0.689250  0.161960  0.127520  1.0  -0.6014
  O  O1604  1  0.614740  0.161850  0.145770  1.0  -0.6099
  O  O1605  1  0.571630  0.087700  0.026690  1.0  -0.2636
  O  O1606  1  0.414530  0.098430  0.924690  1.0  -0.2745
  O  O1607  1  0.324130  0.248820  0.858400  1.0  -0.6884
  O  O1608  1  0.341700  0.244030  0.787180  1.0  -0.592
  O  O1609  1  0.415820  0.967970  0.102100  1.0  -0.281
  O  O1610  1  0.327720  0.911220  0.247610  1.0  -0.6341
  O  O1611  1  0.350150  0.836570  0.255970  1.0  -0.7167
  O  O1612  1  0.507020  0.239010  0.083330  1.0  -0.5747
  O  O1613  1  0.555090  0.257330  0.121160  1.0  -0.6799
  O  O1614  1  0.702660  0.246750  0.013750  1.0  -0.2633
  O  O1615  1  0.889780  0.260810  0.090640  1.0  -0.2901
  O  O1616  1  0.019220  0.306820  0.193620  1.0  -0.6617
  O  O1617  1  0.954490  0.280890  0.225960  1.0  -0.6738
  O  O1618  1  0.795010  0.420510  0.982210  1.0  -0.2581
  O  O1619  1  0.837190  0.551790  0.814390  1.0  -0.6543
  O  O1620  1  0.812600  0.487870  0.813710  1.0  -0.7173
  O  O1621  1  0.127520  0.689250  0.161960  1.0  -0.601
  O  O1622  1  0.145770  0.614740  0.161850  1.0  -0.6109
  O  O1623  1  0.026690  0.571630  0.087700  1.0  -0.265
  O  O1624  1  0.924690  0.414530  0.098430  1.0  -0.2745
  O  O1625  1  0.858400  0.324130  0.248820  1.0  -0.6855
  O  O1626  1  0.787180  0.341700  0.244030  1.0  -0.5905
  O  O1627  1  0.102100  0.415820  0.967970  1.0  -0.2816
  O  O1628  1  0.247610  0.327720  0.911220  1.0  -0.6316
  O  O1629  1  0.255970  0.350150  0.836570  1.0  -0.7084
  O  O1630  1  0.083330  0.507020  0.239010  1.0  -0.5704
  O  O1631  1  0.121160  0.555090  0.257330  1.0  -0.6742
  O  O1632  1  0.013750  0.702660  0.246750  1.0  -0.2623
  O  O1633  1  0.090640  0.889780  0.260810  1.0  -0.2873
  O  O1634  1  0.193620  0.019220  0.306820  1.0  -0.6675
  O  O1635  1  0.225960  0.954490  0.280890  1.0  -0.6716
  O  O1636  1  0.982210  0.795010  0.420510  1.0  -0.2597
  O  O1637  1  0.814390  0.837190  0.551790  1.0  -0.6541
  O  O1638  1  0.813710  0.812600  0.487870  1.0  -0.7212
  O  O1639  1  0.372480  0.338040  0.810750  1.0  -0.6009
  O  O1640  1  0.354230  0.338150  0.885260  1.0  -0.6106
  O  O1641  1  0.473310  0.412300  0.928370  1.0  -0.2637
  O  O1642  1  0.575310  0.401570  0.085470  1.0  -0.2737
  O  O1643  1  0.641600  0.251180  0.175870  1.0  -0.6877
  O  O1644  1  0.712820  0.255970  0.158300  1.0  -0.596
  O  O1645  1  0.397900  0.532030  0.084180  1.0  -0.278
  O  O1646  1  0.252390  0.588780  0.172280  1.0  -0.6292
  O  O1647  1  0.244030  0.663430  0.149850  1.0  -0.7215
  O  O1648  1  0.416670  0.260990  0.992980  1.0  -0.5733
  O  O1649  1  0.378840  0.242670  0.944910  1.0  -0.6763
  O  O1650  1  0.486250  0.253250  0.797340  1.0  -0.263
  O  O1651  1  0.409360  0.239190  0.610220  1.0  -0.2907
  O  O1652  1  0.306380  0.193180  0.480780  1.0  -0.6704
  O  O1653  1  0.274040  0.219110  0.545510  1.0  -0.6744
  O  O1654  1  0.517790  0.079490  0.704990  1.0  -0.2596
  O  O1655  1  0.685610  0.948210  0.662810  1.0  -0.6528
  O  O1656  1  0.686290  0.012130  0.687400  1.0  -0.7173
  O  O1657  1  0.338040  0.810750  0.372480  1.0  -0.6027
  O  O1658  1  0.338150  0.885260  0.354230  1.0  -0.6098
  O  O1659  1  0.412300  0.928370  0.473310  1.0  -0.2641
  O  O1660  1  0.401570  0.085470  0.575310  1.0  -0.2762
  O  O1661  1  0.251180  0.175870  0.641600  1.0  -0.6883
  O  O1662  1  0.255970  0.158300  0.712820  1.0  -0.5925
  O  O1663  1  0.532030  0.084180  0.397900  1.0  -0.2813
  O  O1664  1  0.588780  0.172280  0.252390  1.0  -0.6303
  O  O1665  1  0.663430  0.149850  0.244030  1.0  -0.7088
  O  O1666  1  0.260990  0.992980  0.416670  1.0  -0.5709
  O  O1667  1  0.242670  0.944910  0.378840  1.0  -0.6787
  O  O1668  1  0.253250  0.797340  0.486250  1.0  -0.262
  O  O1669  1  0.239190  0.610220  0.409360  1.0  -0.2867
  O  O1670  1  0.193180  0.480780  0.306380  1.0  -0.664
  O  O1671  1  0.219110  0.545510  0.274040  1.0  -0.6764
  O  O1672  1  0.079490  0.704990  0.517790  1.0  -0.2583
  O  O1673  1  0.948210  0.662810  0.685610  1.0  -0.6461
  O  O1674  1  0.012130  0.687400  0.686290  1.0  -0.7172
  O  O1675  1  0.810750  0.372480  0.338040  1.0  -0.5985
  O  O1676  1  0.885260  0.354230  0.338150  1.0  -0.6111
  O  O1677  1  0.928370  0.473310  0.412300  1.0  -0.2618
  O  O1678  1  0.085470  0.575310  0.401570  1.0  -0.2731
  O  O1679  1  0.175870  0.641600  0.251180  1.0  -0.6854
  O  O1680  1  0.158300  0.712820  0.255970  1.0  -0.5899
  O  O1681  1  0.084180  0.397900  0.532030  1.0  -0.2822
  O  O1682  1  0.172280  0.252390  0.588780  1.0  -0.6284
  O  O1683  1  0.149850  0.244030  0.663430  1.0  -0.7152
  O  O1684  1  0.992980  0.416670  0.260990  1.0  -0.5743
  O  O1685  1  0.944910  0.378840  0.242670  1.0  -0.6765
  O  O1686  1  0.797340  0.486250  0.253250  1.0  -0.2629
  O  O1687  1  0.610220  0.409360  0.239190  1.0  -0.2897
  O  O1688  1  0.480780  0.306380  0.193180  1.0  -0.6691
  O  O1689  1  0.545510  0.274040  0.219110  1.0  -0.6736
  O  O1690  1  0.704990  0.517790  0.079490  1.0  -0.2616
  O  O1691  1  0.662810  0.685610  0.948210  1.0  -0.6599
  O  O1692  1  0.687400  0.686290  0.012130  1.0  -0.7193
