# generated using pymatgen
data_ZnH18(C11O3)2
_symmetry_space_group_name_H-M   'P 1'
_cell_length_a   30.09130000
_cell_length_b   30.09130000
_cell_length_c   30.09130000
_cell_angle_alpha   80.28440000
_cell_angle_beta   80.28440000
_cell_angle_gamma   80.28440000
_symmetry_Int_Tables_number   1
_chemical_formula_structural   ZnH18(C11O3)2
_chemical_formula_sum   'Zn36 H648 C792 O216'
_cell_volume   26193.88231890
_cell_formula_units_Z   36
loop_
 _symmetry_equiv_pos_site_id
 _symmetry_equiv_pos_as_xyz
  1  'x, y, z'
loop_
 _atom_site_type_symbol
 _atom_site_label
 _atom_site_symmetry_multiplicity
 _atom_site_fract_x
 _atom_site_fract_y
 _atom_site_fract_z
 _atom_site_occupancy
 _atom_site_charge
  Zn  Zn1  1  0.805360  0.302500  0.814720  1.0  1.0456
  Zn  Zn2  1  0.805690  0.419250  0.785910  1.0  1.0815
  Zn  Zn3  1  0.251030  0.157970  0.481290  1.0  1.0172
  Zn  Zn4  1  0.814720  0.805360  0.302500  1.0  1.0474
  Zn  Zn5  1  0.785910  0.805690  0.419250  1.0  1.08
  Zn  Zn6  1  0.481290  0.251030  0.157970  1.0  1.0189
  Zn  Zn7  1  0.302500  0.814720  0.805360  1.0  1.0482
  Zn  Zn8  1  0.419250  0.785900  0.805690  1.0  1.0819
  Zn  Zn9  1  0.157970  0.481290  0.251030  1.0  1.0232
  Zn  Zn10  1  0.197500  0.694640  0.685280  1.0  1.0479
  Zn  Zn11  1  0.080750  0.694310  0.714090  1.0  1.0814
  Zn  Zn12  1  0.342030  0.248970  0.018710  1.0  1.0162
  Zn  Zn13  1  0.694640  0.685280  0.197500  1.0  1.0445
  Zn  Zn14  1  0.694310  0.714090  0.080750  1.0  1.0819
  Zn  Zn15  1  0.248970  0.018710  0.342030  1.0  1.0206
  Zn  Zn16  1  0.685280  0.197500  0.694640  1.0  1.0477
  Zn  Zn17  1  0.714100  0.080750  0.694310  1.0  1.083
  Zn  Zn18  1  0.018710  0.342030  0.248970  1.0  1.0183
  Zn  Zn19  1  0.194640  0.697500  0.185280  1.0  1.0453
  Zn  Zn20  1  0.194310  0.580750  0.214090  1.0  1.0829
  Zn  Zn21  1  0.748970  0.842030  0.518710  1.0  1.0195
  Zn  Zn22  1  0.185280  0.194640  0.697500  1.0  1.0468
  Zn  Zn23  1  0.214090  0.194310  0.580750  1.0  1.0813
  Zn  Zn24  1  0.518710  0.748970  0.842030  1.0  1.0212
  Zn  Zn25  1  0.697500  0.185280  0.194640  1.0  1.0492
  Zn  Zn26  1  0.580750  0.214090  0.194310  1.0  1.0852
  Zn  Zn27  1  0.842030  0.518710  0.748970  1.0  1.0233
  Zn  Zn28  1  0.802500  0.305360  0.314720  1.0  1.0452
  Zn  Zn29  1  0.919250  0.305690  0.285910  1.0  1.0795
  Zn  Zn30  1  0.657970  0.751030  0.981290  1.0  1.0133
  Zn  Zn31  1  0.305360  0.314720  0.802500  1.0  1.0472
  Zn  Zn32  1  0.305690  0.285910  0.919250  1.0  1.0811
  Zn  Zn33  1  0.751030  0.981290  0.657970  1.0  1.0198
  Zn  Zn34  1  0.314720  0.802500  0.305360  1.0  1.0455
  Zn  Zn35  1  0.285910  0.919250  0.305690  1.0  1.0866
  Zn  Zn36  1  0.981290  0.657970  0.751030  1.0  1.016
  H  H37  1  0.924300  0.280100  0.882000  1.0  0.1164
  H  H38  1  0.984900  0.280400  0.919800  1.0  0.1129
  H  H39  1  0.003800  0.348600  0.930800  1.0  0.1257
  H  H40  1  0.898700  0.416600  0.870100  1.0  0.1185
  H  H41  1  0.941900  0.477500  0.865900  1.0  0.0891
  H  H42  1  0.908100  0.469400  0.911400  1.0  0.0906
  H  H43  1  0.924700  0.468900  0.018600  1.0  0.1064
  H  H44  1  0.883000  0.504400  0.004700  1.0  0.1216
  H  H45  1  0.901700  0.463800  0.977100  1.0  0.1251
  H  H46  1  0.995600  0.539300  0.820000  1.0  0.1179
  H  H47  1  0.042300  0.520300  0.837600  1.0  0.1207
  H  H48  1  0.005700  0.488000  0.841400  1.0  0.1147
  H  H49  1  0.025300  0.605100  0.984300  1.0  0.1193
  H  H50  1  0.009200  0.638000  0.942000  1.0  0.1186
  H  H51  1  0.974900  0.629800  0.986900  1.0  0.1132
  H  H52  1  0.029300  0.626100  0.878300  1.0  0.096
  H  H53  1  0.041500  0.588900  0.845400  1.0  0.0781
  H  H54  1  0.096800  0.635400  0.818900  1.0  0.1122
  H  H55  1  0.154400  0.559700  0.922800  1.0  0.1234
  H  H56  1  0.965700  0.568700  0.038300  1.0  0.0714
  H  H57  1  0.940900  0.525400  0.046400  1.0  0.0751
  H  H58  1  0.824400  0.630100  0.054300  1.0  0.1259
  H  H59  1  0.823400  0.615900  0.189500  1.0  0.1223
  H  H60  1  0.891300  0.568700  0.182600  1.0  0.0944
  H  H61  1  0.929100  0.554500  0.111600  1.0  0.1174
  H  H62  1  0.845100  0.083200  0.723100  1.0  0.1229
  H  H63  1  0.960000  0.011200  0.762400  1.0  0.1224
  H  H64  1  0.933200  0.944600  0.761300  1.0  0.1213
  H  H65  1  0.862600  0.947100  0.739400  1.0  0.1165
  H  H66  1  0.878900  0.144200  0.735100  1.0  0.0829
  H  H67  1  0.900400  0.126100  0.689100  1.0  0.0902
  H  H68  1  0.910900  0.213000  0.801100  1.0  0.1106
  H  H69  1  0.893300  0.171200  0.788500  1.0  0.1054
  H  H70  1  0.871500  0.220900  0.771400  1.0  0.1329
  H  H71  1  0.999400  0.306300  0.677500  1.0  0.1079
  H  H72  1  0.017800  0.286500  0.631800  1.0  0.1138
  H  H73  1  0.046200  0.274100  0.672500  1.0  0.121
  H  H74  1  0.992200  0.133900  0.615000  1.0  0.1139
  H  H75  1  0.960200  0.107800  0.653600  1.0  0.1106
  H  H76  1  0.012200  0.103900  0.656800  1.0  0.1203
  H  H77  1  0.007100  0.295900  0.521200  1.0  0.131
  H  H78  1  0.052000  0.320200  0.457100  1.0  0.1028
  H  H79  1  0.128200  0.290300  0.444100  1.0  0.1261
  H  H80  1  0.111100  0.201800  0.559000  1.0  0.1185
  H  H81  1  0.938500  0.308900  0.717200  1.0  0.0991
  H  H82  1  0.918100  0.281900  0.763400  1.0  0.0742
  H  H83  1  0.918700  0.364300  0.751800  1.0  0.1042
  H  H84  1  0.988000  0.456100  0.776700  1.0  0.1101
  H  H85  1  0.048100  0.399800  0.789700  1.0  0.0989
  H  H86  1  0.045700  0.323800  0.782600  1.0  0.1476
  H  H87  1  0.066100  0.209700  0.626700  1.0  0.0743
  H  H88  1  0.047800  0.169800  0.611100  1.0  0.0684
  H  H89  1  0.227700  0.638300  0.827900  1.0  0.1169
  H  H90  1  0.222800  0.584700  0.892400  1.0  0.1114
  H  H91  1  0.882000  0.924300  0.280100  1.0  0.1183
  H  H92  1  0.919800  0.984900  0.280400  1.0  0.1145
  H  H93  1  0.930800  0.003800  0.348600  1.0  0.1255
  H  H94  1  0.870100  0.898700  0.416600  1.0  0.1183
  H  H95  1  0.865900  0.941900  0.477500  1.0  0.0898
  H  H96  1  0.911400  0.908100  0.469400  1.0  0.0858
  H  H97  1  0.018600  0.924700  0.468900  1.0  0.1062
  H  H98  1  0.004700  0.883000  0.504400  1.0  0.1229
  H  H99  1  0.977100  0.901700  0.463800  1.0  0.1266
  H  H100  1  0.820000  0.995600  0.539300  1.0  0.1194
  H  H101  1  0.837600  0.042300  0.520300  1.0  0.1207
  H  H102  1  0.841400  0.005700  0.488000  1.0  0.1158
  H  H103  1  0.984300  0.025300  0.605100  1.0  0.1214
  H  H104  1  0.942000  0.009200  0.638000  1.0  0.1172
  H  H105  1  0.986900  0.974900  0.629800  1.0  0.1167
  H  H106  1  0.878300  0.029300  0.626100  1.0  0.0946
  H  H107  1  0.845400  0.041500  0.588900  1.0  0.0769
  H  H108  1  0.818900  0.096800  0.635400  1.0  0.1128
  H  H109  1  0.922800  0.154400  0.559700  1.0  0.1237
  H  H110  1  0.038300  0.965700  0.568700  1.0  0.0729
  H  H111  1  0.046400  0.940900  0.525400  1.0  0.075
  H  H112  1  0.054300  0.824400  0.630100  1.0  0.1253
  H  H113  1  0.189500  0.823400  0.615900  1.0  0.1218
  H  H114  1  0.182600  0.891300  0.568700  1.0  0.0967
  H  H115  1  0.111600  0.929100  0.554500  1.0  0.1191
  H  H116  1  0.723100  0.845100  0.083200  1.0  0.1209
  H  H117  1  0.762400  0.960000  0.011200  1.0  0.1252
  H  H118  1  0.761300  0.933200  0.944600  1.0  0.1196
  H  H119  1  0.739400  0.862600  0.947100  1.0  0.116
  H  H120  1  0.735100  0.878900  0.144200  1.0  0.0852
  H  H121  1  0.689100  0.900400  0.126100  1.0  0.0877
  H  H122  1  0.801100  0.910900  0.213000  1.0  0.1094
  H  H123  1  0.788500  0.893300  0.171200  1.0  0.1042
  H  H124  1  0.771400  0.871500  0.220900  1.0  0.1312
  H  H125  1  0.677500  0.999400  0.306300  1.0  0.1048
  H  H126  1  0.631800  0.017800  0.286500  1.0  0.1131
  H  H127  1  0.672500  0.046200  0.274100  1.0  0.1221
  H  H128  1  0.615000  0.992200  0.133900  1.0  0.1142
  H  H129  1  0.653600  0.960200  0.107800  1.0  0.1117
  H  H130  1  0.656800  0.012200  0.103900  1.0  0.1205
  H  H131  1  0.521200  0.007100  0.295900  1.0  0.131
  H  H132  1  0.457100  0.052000  0.320200  1.0  0.1027
  H  H133  1  0.444100  0.128200  0.290300  1.0  0.1257
  H  H134  1  0.559000  0.111100  0.201800  1.0  0.1184
  H  H135  1  0.717200  0.938500  0.308900  1.0  0.0993
  H  H136  1  0.763400  0.918100  0.281900  1.0  0.0772
  H  H137  1  0.751800  0.918700  0.364300  1.0  0.104
  H  H138  1  0.776700  0.988000  0.456100  1.0  0.1121
  H  H139  1  0.789700  0.048100  0.399800  1.0  0.1026
  H  H140  1  0.782600  0.045700  0.323800  1.0  0.1472
  H  H141  1  0.626700  0.066100  0.209700  1.0  0.0732
  H  H142  1  0.611100  0.047800  0.169800  1.0  0.0684
  H  H143  1  0.827900  0.227700  0.638300  1.0  0.1169
  H  H144  1  0.892400  0.222800  0.584700  1.0  0.1122
  H  H145  1  0.280100  0.882000  0.924300  1.0  0.1146
  H  H146  1  0.280400  0.919800  0.984900  1.0  0.1132
  H  H147  1  0.348600  0.930800  0.003800  1.0  0.124
  H  H148  1  0.416600  0.870100  0.898700  1.0  0.1173
  H  H149  1  0.477500  0.865900  0.941900  1.0  0.0906
  H  H150  1  0.469400  0.911400  0.908100  1.0  0.0897
  H  H151  1  0.468900  0.018600  0.924700  1.0  0.1073
  H  H152  1  0.504400  0.004700  0.883000  1.0  0.1214
  H  H153  1  0.463800  0.977100  0.901700  1.0  0.1249
  H  H154  1  0.539300  0.820000  0.995600  1.0  0.1167
  H  H155  1  0.520300  0.837600  0.042300  1.0  0.1188
  H  H156  1  0.488000  0.841400  0.005700  1.0  0.1138
  H  H157  1  0.605100  0.984300  0.025300  1.0  0.1218
  H  H158  1  0.638000  0.942000  0.009200  1.0  0.1199
  H  H159  1  0.629800  0.986900  0.974900  1.0  0.114
  H  H160  1  0.626100  0.878300  0.029300  1.0  0.0948
  H  H161  1  0.588900  0.845400  0.041500  1.0  0.0769
  H  H162  1  0.635400  0.818900  0.096800  1.0  0.1126
  H  H163  1  0.559700  0.922800  0.154400  1.0  0.1239
  H  H164  1  0.568700  0.038300  0.965700  1.0  0.0744
  H  H165  1  0.525400  0.046400  0.940900  1.0  0.0767
  H  H166  1  0.630100  0.054300  0.824400  1.0  0.1241
  H  H167  1  0.615900  0.189500  0.823400  1.0  0.1224
  H  H168  1  0.568700  0.182600  0.891300  1.0  0.0956
  H  H169  1  0.554500  0.111600  0.929100  1.0  0.1162
  H  H170  1  0.083200  0.723100  0.845100  1.0  0.1235
  H  H171  1  0.011200  0.762400  0.960000  1.0  0.125
  H  H172  1  0.944600  0.761300  0.933200  1.0  0.1205
  H  H173  1  0.947100  0.739400  0.862600  1.0  0.116
  H  H174  1  0.144200  0.735100  0.878900  1.0  0.084
  H  H175  1  0.126100  0.689100  0.900400  1.0  0.0905
  H  H176  1  0.213000  0.801100  0.910900  1.0  0.1083
  H  H177  1  0.171200  0.788500  0.893300  1.0  0.1051
  H  H178  1  0.220900  0.771400  0.871500  1.0  0.1318
  H  H179  1  0.306300  0.677500  0.999400  1.0  0.1086
  H  H180  1  0.286500  0.631800  0.017800  1.0  0.1141
  H  H181  1  0.274100  0.672500  0.046200  1.0  0.1207
  H  H182  1  0.133900  0.615000  0.992200  1.0  0.1132
  H  H183  1  0.107800  0.653600  0.960200  1.0  0.1109
  H  H184  1  0.103900  0.656800  0.012200  1.0  0.1193
  H  H185  1  0.295900  0.521200  0.007100  1.0  0.1307
  H  H186  1  0.320200  0.457100  0.052000  1.0  0.1049
  H  H187  1  0.290300  0.444100  0.128200  1.0  0.1251
  H  H188  1  0.201800  0.559000  0.111100  1.0  0.1193
  H  H189  1  0.308900  0.717200  0.938500  1.0  0.1004
  H  H190  1  0.281900  0.763400  0.918100  1.0  0.0728
  H  H191  1  0.364300  0.751800  0.918700  1.0  0.105
  H  H192  1  0.456100  0.776700  0.988000  1.0  0.1109
  H  H193  1  0.399800  0.789700  0.048100  1.0  0.1012
  H  H194  1  0.323800  0.782600  0.045700  1.0  0.1482
  H  H195  1  0.209700  0.626700  0.066100  1.0  0.0751
  H  H196  1  0.169800  0.611100  0.047800  1.0  0.0676
  H  H197  1  0.638300  0.827900  0.227700  1.0  0.1179
  H  H198  1  0.584700  0.892400  0.222800  1.0  0.1114
  H  H199  1  0.219900  0.575700  0.618000  1.0  0.1156
  H  H200  1  0.219600  0.515100  0.580200  1.0  0.1138
  H  H201  1  0.151400  0.496200  0.569200  1.0  0.123
  H  H202  1  0.083400  0.601300  0.629900  1.0  0.1177
  H  H203  1  0.022500  0.558100  0.634100  1.0  0.0897
  H  H204  1  0.030600  0.591900  0.588600  1.0  0.0886
  H  H205  1  0.031100  0.575300  0.481400  1.0  0.1067
  H  H206  1  0.995600  0.617000  0.495300  1.0  0.1228
  H  H207  1  0.036200  0.598300  0.522900  1.0  0.1246
  H  H208  1  0.960700  0.504400  0.680000  1.0  0.1166
  H  H209  1  0.979700  0.457700  0.662400  1.0  0.1208
  H  H210  1  0.012000  0.494300  0.658600  1.0  0.1186
  H  H211  1  0.894900  0.474700  0.515700  1.0  0.1206
  H  H212  1  0.862000  0.490800  0.558000  1.0  0.1181
  H  H213  1  0.870200  0.525100  0.513100  1.0  0.1159
  H  H214  1  0.873900  0.470700  0.621700  1.0  0.0929
  H  H215  1  0.911100  0.458500  0.654600  1.0  0.0772
  H  H216  1  0.864600  0.403200  0.681100  1.0  0.112
  H  H217  1  0.940300  0.345600  0.577200  1.0  0.124
  H  H218  1  0.931300  0.534300  0.461700  1.0  0.0744
  H  H219  1  0.974600  0.559100  0.453600  1.0  0.0769
  H  H220  1  0.869900  0.675600  0.445700  1.0  0.1259
  H  H221  1  0.884100  0.676600  0.310500  1.0  0.1208
  H  H222  1  0.931300  0.608700  0.317400  1.0  0.0971
  H  H223  1  0.945500  0.570900  0.388400  1.0  0.1189
  H  H224  1  0.416800  0.654900  0.776900  1.0  0.1231
  H  H225  1  0.488800  0.540000  0.737600  1.0  0.1231
  H  H226  1  0.555400  0.566800  0.738700  1.0  0.1211
  H  H227  1  0.552900  0.637400  0.760600  1.0  0.1161
  H  H228  1  0.355800  0.621100  0.764900  1.0  0.0845
  H  H229  1  0.373900  0.599600  0.810900  1.0  0.0905
  H  H230  1  0.287000  0.589100  0.698900  1.0  0.1116
  H  H231  1  0.328800  0.606700  0.711500  1.0  0.1059
  H  H232  1  0.279100  0.628500  0.728600  1.0  0.1333
  H  H233  1  0.193700  0.500600  0.822500  1.0  0.1036
  H  H234  1  0.213500  0.482200  0.868200  1.0  0.114
  H  H235  1  0.225900  0.453800  0.827500  1.0  0.1191
  H  H236  1  0.366100  0.507800  0.885000  1.0  0.114
  H  H237  1  0.392200  0.539800  0.846400  1.0  0.1115
  H  H238  1  0.396100  0.487800  0.843200  1.0  0.1194
  H  H239  1  0.204100  0.492900  0.978800  1.0  0.1313
  H  H240  1  0.179800  0.448000  0.042900  1.0  0.1028
  H  H241  1  0.209700  0.371800  0.055900  1.0  0.1257
  H  H242  1  0.298200  0.388900  0.941000  1.0  0.1193
  H  H243  1  0.191100  0.561500  0.782800  1.0  0.0998
  H  H244  1  0.218100  0.581900  0.736600  1.0  0.0762
  H  H245  1  0.135700  0.581300  0.748200  1.0  0.1042
  H  H246  1  0.043900  0.512000  0.723300  1.0  0.1111
  H  H247  1  0.100200  0.451900  0.710300  1.0  0.1011
  H  H248  1  0.176200  0.454300  0.717400  1.0  0.1481
  H  H249  1  0.290300  0.433900  0.873300  1.0  0.0745
  H  H250  1  0.330200  0.452200  0.888900  1.0  0.0683
  H  H251  1  0.861700  0.272300  0.672100  1.0  0.1169
  H  H252  1  0.915300  0.277200  0.607600  1.0  0.1105
  H  H253  1  0.575700  0.618000  0.219900  1.0  0.1174
  H  H254  1  0.515100  0.580200  0.219600  1.0  0.1136
  H  H255  1  0.496200  0.569200  0.151400  1.0  0.1253
  H  H256  1  0.601300  0.629900  0.083400  1.0  0.1177
  H  H257  1  0.558100  0.634100  0.022500  1.0  0.091
  H  H258  1  0.591900  0.588600  0.030600  1.0  0.0893
  H  H259  1  0.575300  0.481400  0.031100  1.0  0.1083
  H  H260  1  0.617000  0.495300  0.995600  1.0  0.1231
  H  H261  1  0.598300  0.522900  0.036200  1.0  0.1259
  H  H262  1  0.504400  0.680000  0.960700  1.0  0.1178
  H  H263  1  0.457700  0.662400  0.979700  1.0  0.12
  H  H264  1  0.494300  0.658600  0.012000  1.0  0.1143
  H  H265  1  0.474700  0.515700  0.894900  1.0  0.1212
  H  H266  1  0.490800  0.558000  0.862000  1.0  0.1208
  H  H267  1  0.525100  0.513100  0.870200  1.0  0.1158
  H  H268  1  0.470700  0.621700  0.873900  1.0  0.0949
  H  H269  1  0.458500  0.654600  0.911100  1.0  0.0779
  H  H270  1  0.403200  0.681100  0.864600  1.0  0.1122
  H  H271  1  0.345600  0.577200  0.940300  1.0  0.1246
  H  H272  1  0.534300  0.461700  0.931300  1.0  0.075
  H  H273  1  0.559100  0.453600  0.974600  1.0  0.0759
  H  H274  1  0.675600  0.445700  0.869900  1.0  0.1253
  H  H275  1  0.676600  0.310500  0.884100  1.0  0.1224
  H  H276  1  0.608700  0.317400  0.931300  1.0  0.0954
  H  H277  1  0.570900  0.388400  0.945500  1.0  0.1183
  H  H278  1  0.654900  0.776900  0.416800  1.0  0.1231
  H  H279  1  0.540000  0.737600  0.488800  1.0  0.1255
  H  H280  1  0.566800  0.738700  0.555400  1.0  0.1217
  H  H281  1  0.637400  0.760600  0.552900  1.0  0.1149
  H  H282  1  0.621100  0.764900  0.355800  1.0  0.083
  H  H283  1  0.599600  0.810900  0.373900  1.0  0.0884
  H  H284  1  0.589100  0.698900  0.287000  1.0  0.1103
  H  H285  1  0.606700  0.711500  0.328800  1.0  0.1036
  H  H286  1  0.628500  0.728600  0.279100  1.0  0.1356
  H  H287  1  0.500600  0.822500  0.193700  1.0  0.1047
  H  H288  1  0.482200  0.868200  0.213500  1.0  0.1143
  H  H289  1  0.453800  0.827500  0.225900  1.0  0.1239
  H  H290  1  0.507800  0.885000  0.366100  1.0  0.1156
  H  H291  1  0.539800  0.846400  0.392200  1.0  0.1099
  H  H292  1  0.487800  0.843200  0.396100  1.0  0.1187
  H  H293  1  0.492900  0.978800  0.204100  1.0  0.1302
  H  H294  1  0.448000  0.042900  0.179800  1.0  0.1038
  H  H295  1  0.371800  0.055900  0.209700  1.0  0.1262
  H  H296  1  0.388900  0.941000  0.298200  1.0  0.1184
  H  H297  1  0.561500  0.782800  0.191100  1.0  0.1003
  H  H298  1  0.581900  0.736600  0.218100  1.0  0.0759
  H  H299  1  0.581300  0.748200  0.135700  1.0  0.1043
  H  H300  1  0.512000  0.723300  0.043900  1.0  0.1116
  H  H301  1  0.451900  0.710300  0.100200  1.0  0.1014
  H  H302  1  0.454300  0.717400  0.176200  1.0  0.1466
  H  H303  1  0.433900  0.873300  0.290300  1.0  0.0721
  H  H304  1  0.452200  0.888900  0.330200  1.0  0.0686
  H  H305  1  0.272300  0.672100  0.861700  1.0  0.1162
  H  H306  1  0.277200  0.607600  0.915300  1.0  0.112
  H  H307  1  0.618000  0.219900  0.575700  1.0  0.1156
  H  H308  1  0.580200  0.219600  0.515100  1.0  0.1129
  H  H309  1  0.569200  0.151400  0.496200  1.0  0.1246
  H  H310  1  0.629900  0.083400  0.601300  1.0  0.1179
  H  H311  1  0.634100  0.022500  0.558100  1.0  0.0898
  H  H312  1  0.588600  0.030600  0.591900  1.0  0.0894
  H  H313  1  0.481400  0.031100  0.575300  1.0  0.1079
  H  H314  1  0.495300  0.995600  0.617000  1.0  0.1217
  H  H315  1  0.522900  0.036200  0.598300  1.0  0.1263
  H  H316  1  0.680000  0.960700  0.504400  1.0  0.1176
  H  H317  1  0.662400  0.979700  0.457700  1.0  0.1186
  H  H318  1  0.658600  0.012000  0.494300  1.0  0.116
  H  H319  1  0.515700  0.894900  0.474700  1.0  0.1208
  H  H320  1  0.558000  0.862000  0.490800  1.0  0.1197
  H  H321  1  0.513100  0.870200  0.525100  1.0  0.1141
  H  H322  1  0.621700  0.873900  0.470700  1.0  0.0954
  H  H323  1  0.654600  0.911100  0.458500  1.0  0.0806
  H  H324  1  0.681100  0.864600  0.403200  1.0  0.1126
  H  H325  1  0.577200  0.940300  0.345600  1.0  0.1239
  H  H326  1  0.461700  0.931300  0.534300  1.0  0.0729
  H  H327  1  0.453600  0.974600  0.559100  1.0  0.077
  H  H328  1  0.445700  0.869900  0.675600  1.0  0.1235
  H  H329  1  0.310500  0.884100  0.676600  1.0  0.1204
  H  H330  1  0.317400  0.931300  0.608700  1.0  0.0934
  H  H331  1  0.388400  0.945500  0.570900  1.0  0.1168
  H  H332  1  0.776900  0.416800  0.654900  1.0  0.1225
  H  H333  1  0.737600  0.488800  0.540000  1.0  0.1237
  H  H334  1  0.738700  0.555400  0.566800  1.0  0.1202
  H  H335  1  0.760600  0.552900  0.637400  1.0  0.1159
  H  H336  1  0.764900  0.355800  0.621100  1.0  0.0861
  H  H337  1  0.810900  0.373900  0.599600  1.0  0.0905
  H  H338  1  0.698900  0.287000  0.589100  1.0  0.1114
  H  H339  1  0.711500  0.328800  0.606700  1.0  0.1044
  H  H340  1  0.728600  0.279100  0.628500  1.0  0.1333
  H  H341  1  0.822500  0.193700  0.500600  1.0  0.109
  H  H342  1  0.868200  0.213500  0.482200  1.0  0.1159
  H  H343  1  0.827500  0.225900  0.453800  1.0  0.1213
  H  H344  1  0.885000  0.366100  0.507800  1.0  0.1171
  H  H345  1  0.846400  0.392200  0.539800  1.0  0.1104
  H  H346  1  0.843200  0.396100  0.487800  1.0  0.1211
  H  H347  1  0.978800  0.204100  0.492900  1.0  0.1301
  H  H348  1  0.042900  0.179800  0.448000  1.0  0.1045
  H  H349  1  0.055900  0.209700  0.371800  1.0  0.125
  H  H350  1  0.941000  0.298200  0.388900  1.0  0.1188
  H  H351  1  0.782800  0.191100  0.561500  1.0  0.0996
  H  H352  1  0.736600  0.218100  0.581900  1.0  0.0747
  H  H353  1  0.748200  0.135700  0.581300  1.0  0.1047
  H  H354  1  0.723300  0.043900  0.512000  1.0  0.11
  H  H355  1  0.710300  0.100200  0.451900  1.0  0.0991
  H  H356  1  0.717400  0.176200  0.454300  1.0  0.1473
  H  H357  1  0.873300  0.290300  0.433900  1.0  0.0749
  H  H358  1  0.888900  0.330200  0.452200  1.0  0.0676
  H  H359  1  0.672100  0.861700  0.272300  1.0  0.1174
  H  H360  1  0.607600  0.915300  0.277200  1.0  0.1109
  H  H361  1  0.075700  0.719900  0.118000  1.0  0.1158
  H  H362  1  0.015100  0.719600  0.080200  1.0  0.1134
  H  H363  1  0.996200  0.651400  0.069200  1.0  0.1252
  H  H364  1  0.101300  0.583400  0.129900  1.0  0.1178
  H  H365  1  0.058100  0.522500  0.134100  1.0  0.0898
  H  H366  1  0.091900  0.530600  0.088600  1.0  0.0914
  H  H367  1  0.075300  0.531100  0.981400  1.0  0.1079
  H  H368  1  0.117000  0.495600  0.995300  1.0  0.1221
  H  H369  1  0.098300  0.536200  0.022900  1.0  0.1253
  H  H370  1  0.004400  0.460700  0.180000  1.0  0.118
  H  H371  1  0.957700  0.479700  0.162400  1.0  0.1186
  H  H372  1  0.994300  0.512000  0.158600  1.0  0.1149
  H  H373  1  0.974700  0.394900  0.015700  1.0  0.1193
  H  H374  1  0.990800  0.362000  0.058000  1.0  0.1193
  H  H375  1  0.025100  0.370200  0.013100  1.0  0.1142
  H  H376  1  0.970700  0.373900  0.121700  1.0  0.0968
  H  H377  1  0.958500  0.411100  0.154600  1.0  0.0785
  H  H378  1  0.903200  0.364600  0.181100  1.0  0.1121
  H  H379  1  0.845600  0.440300  0.077200  1.0  0.1233
  H  H380  1  0.034300  0.431300  0.961700  1.0  0.0723
  H  H381  1  0.059100  0.474600  0.953600  1.0  0.0747
  H  H382  1  0.175600  0.369900  0.945700  1.0  0.1269
  H  H383  1  0.176600  0.384100  0.810500  1.0  0.1214
  H  H384  1  0.108700  0.431300  0.817400  1.0  0.0948
  H  H385  1  0.070900  0.445500  0.888400  1.0  0.1172
  H  H386  1  0.154900  0.916800  0.276900  1.0  0.1238
  H  H387  1  0.040000  0.988800  0.237600  1.0  0.1234
  H  H388  1  0.066800  0.055400  0.238700  1.0  0.1219
  H  H389  1  0.137400  0.052900  0.260600  1.0  0.1164
  H  H390  1  0.121100  0.855800  0.264900  1.0  0.0847
  H  H391  1  0.099600  0.873900  0.310900  1.0  0.0901
  H  H392  1  0.089100  0.787000  0.198900  1.0  0.1111
  H  H393  1  0.106700  0.828800  0.211500  1.0  0.1055
  H  H394  1  0.128500  0.779100  0.228600  1.0  0.1342
  H  H395  1  0.000600  0.693700  0.322500  1.0  0.1074
  H  H396  1  0.982200  0.713500  0.368200  1.0  0.1138
  H  H397  1  0.953800  0.725900  0.327500  1.0  0.1175
  H  H398  1  0.007800  0.866100  0.385000  1.0  0.1134
  H  H399  1  0.039800  0.892200  0.346400  1.0  0.1113
  H  H400  1  0.987800  0.896100  0.343200  1.0  0.1195
  H  H401  1  0.992900  0.704100  0.478800  1.0  0.1316
  H  H402  1  0.948000  0.679800  0.542900  1.0  0.1021
  H  H403  1  0.871800  0.709700  0.555900  1.0  0.1263
  H  H404  1  0.888900  0.798200  0.441000  1.0  0.1191
  H  H405  1  0.061500  0.691100  0.282800  1.0  0.0991
  H  H406  1  0.081900  0.718100  0.236600  1.0  0.0757
  H  H407  1  0.081300  0.635700  0.248200  1.0  0.1044
  H  H408  1  0.012000  0.543900  0.223300  1.0  0.1099
  H  H409  1  0.951900  0.600200  0.210300  1.0  0.0982
  H  H410  1  0.954300  0.676200  0.217400  1.0  0.1486
  H  H411  1  0.933900  0.790300  0.373300  1.0  0.0738
  H  H412  1  0.952200  0.830200  0.388900  1.0  0.0671
  H  H413  1  0.772300  0.361700  0.172100  1.0  0.1169
  H  H414  1  0.777200  0.415300  0.107600  1.0  0.1119
  H  H415  1  0.118000  0.075700  0.719900  1.0  0.1177
  H  H416  1  0.080200  0.015100  0.719600  1.0  0.1144
  H  H417  1  0.069200  0.996200  0.651400  1.0  0.1252
  H  H418  1  0.129900  0.101300  0.583400  1.0  0.118
  H  H419  1  0.134100  0.058100  0.522500  1.0  0.0909
  H  H420  1  0.088600  0.091900  0.530600  1.0  0.0904
  H  H421  1  0.981400  0.075300  0.531100  1.0  0.1062
  H  H422  1  0.995300  0.117000  0.495600  1.0  0.123
  H  H423  1  0.022900  0.098300  0.536200  1.0  0.1265
  H  H424  1  0.180000  0.004400  0.460700  1.0  0.1183
  H  H425  1  0.162400  0.957700  0.479700  1.0  0.1204
  H  H426  1  0.158600  0.994300  0.512000  1.0  0.1146
  H  H427  1  0.015700  0.974700  0.394900  1.0  0.1226
  H  H428  1  0.058000  0.990800  0.362000  1.0  0.1166
  H  H429  1  0.013100  0.025100  0.370200  1.0  0.116
  H  H430  1  0.121700  0.970700  0.373900  1.0  0.0947
  H  H431  1  0.154600  0.958500  0.411100  1.0  0.0795
  H  H432  1  0.181100  0.903200  0.364600  1.0  0.1124
  H  H433  1  0.077200  0.845600  0.440300  1.0  0.1243
  H  H434  1  0.961700  0.034300  0.431300  1.0  0.0738
  H  H435  1  0.953600  0.059100  0.474600  1.0  0.0757
  H  H436  1  0.945700  0.175600  0.369900  1.0  0.125
  H  H437  1  0.810500  0.176600  0.384100  1.0  0.121
  H  H438  1  0.817400  0.108700  0.431300  1.0  0.0961
  H  H439  1  0.888400  0.070900  0.445500  1.0  0.1193
  H  H440  1  0.276900  0.154900  0.916800  1.0  0.1213
  H  H441  1  0.237600  0.040000  0.988800  1.0  0.1246
  H  H442  1  0.238700  0.066800  0.055400  1.0  0.1217
  H  H443  1  0.260600  0.137400  0.052900  1.0  0.116
  H  H444  1  0.264900  0.121100  0.855800  1.0  0.0851
  H  H445  1  0.310900  0.099600  0.873900  1.0  0.0916
  H  H446  1  0.198900  0.089100  0.787000  1.0  0.1107
  H  H447  1  0.211500  0.106700  0.828800  1.0  0.104
  H  H448  1  0.228600  0.128500  0.779100  1.0  0.1322
  H  H449  1  0.322500  0.000600  0.693700  1.0  0.1052
  H  H450  1  0.368200  0.982200  0.713500  1.0  0.1151
  H  H451  1  0.327500  0.953800  0.725900  1.0  0.1192
  H  H452  1  0.385000  0.007800  0.866100  1.0  0.1164
  H  H453  1  0.346400  0.039800  0.892200  1.0  0.112
  H  H454  1  0.343200  0.987800  0.896100  1.0  0.1203
  H  H455  1  0.478800  0.992900  0.704100  1.0  0.1307
  H  H456  1  0.542900  0.948000  0.679800  1.0  0.1022
  H  H457  1  0.555900  0.871800  0.709700  1.0  0.1254
  H  H458  1  0.441000  0.888900  0.798200  1.0  0.118
  H  H459  1  0.282800  0.061500  0.691100  1.0  0.0989
  H  H460  1  0.236600  0.081900  0.718100  1.0  0.0766
  H  H461  1  0.248200  0.081300  0.635700  1.0  0.104
  H  H462  1  0.223300  0.012000  0.543900  1.0  0.112
  H  H463  1  0.210300  0.951900  0.600200  1.0  0.1023
  H  H464  1  0.217400  0.954300  0.676200  1.0  0.1476
  H  H465  1  0.373300  0.933900  0.790300  1.0  0.0738
  H  H466  1  0.388900  0.952200  0.830200  1.0  0.0689
  H  H467  1  0.172100  0.772300  0.361700  1.0  0.1158
  H  H468  1  0.107600  0.777200  0.415300  1.0  0.1127
  H  H469  1  0.719900  0.118000  0.075700  1.0  0.1158
  H  H470  1  0.719600  0.080200  0.015100  1.0  0.1132
  H  H471  1  0.651400  0.069200  0.996200  1.0  0.1236
  H  H472  1  0.583400  0.129900  0.101300  1.0  0.1175
  H  H473  1  0.522500  0.134100  0.058100  1.0  0.0908
  H  H474  1  0.530600  0.088600  0.091900  1.0  0.0891
  H  H475  1  0.531100  0.981400  0.075300  1.0  0.1091
  H  H476  1  0.495600  0.995300  0.117000  1.0  0.121
  H  H477  1  0.536200  0.022900  0.098300  1.0  0.1249
  H  H478  1  0.460700  0.180000  0.004400  1.0  0.1173
  H  H479  1  0.479700  0.162400  0.957700  1.0  0.1179
  H  H480  1  0.512000  0.158600  0.994300  1.0  0.1187
  H  H481  1  0.394900  0.015700  0.974700  1.0  0.1224
  H  H482  1  0.362000  0.058000  0.990800  1.0  0.12
  H  H483  1  0.370200  0.013100  0.025100  1.0  0.1139
  H  H484  1  0.373900  0.121700  0.970700  1.0  0.0942
  H  H485  1  0.411100  0.154600  0.958500  1.0  0.0764
  H  H486  1  0.364600  0.181100  0.903200  1.0  0.1122
  H  H487  1  0.440300  0.077200  0.845600  1.0  0.1238
  H  H488  1  0.431300  0.961700  0.034300  1.0  0.075
  H  H489  1  0.474600  0.953600  0.059100  1.0  0.0764
  H  H490  1  0.369900  0.945700  0.175600  1.0  0.1241
  H  H491  1  0.384100  0.810500  0.176600  1.0  0.1211
  H  H492  1  0.431300  0.817400  0.108700  1.0  0.094
  H  H493  1  0.445500  0.888400  0.070900  1.0  0.117
  H  H494  1  0.916800  0.276900  0.154900  1.0  0.1233
  H  H495  1  0.988800  0.237600  0.040000  1.0  0.1239
  H  H496  1  0.055400  0.238700  0.066800  1.0  0.1205
  H  H497  1  0.052900  0.260600  0.137400  1.0  0.1153
  H  H498  1  0.855800  0.264900  0.121100  1.0  0.0844
  H  H499  1  0.873900  0.310900  0.099600  1.0  0.0885
  H  H500  1  0.787000  0.198900  0.089100  1.0  0.1102
  H  H501  1  0.828800  0.211500  0.106700  1.0  0.1026
  H  H502  1  0.779100  0.228600  0.128500  1.0  0.1335
  H  H503  1  0.693700  0.322500  0.000600  1.0  0.1055
  H  H504  1  0.713500  0.368200  0.982200  1.0  0.1144
  H  H505  1  0.725900  0.327500  0.953800  1.0  0.1185
  H  H506  1  0.866100  0.385000  0.007800  1.0  0.1151
  H  H507  1  0.892200  0.346400  0.039800  1.0  0.1108
  H  H508  1  0.896100  0.343200  0.987800  1.0  0.1195
  H  H509  1  0.704100  0.478800  0.992900  1.0  0.1299
  H  H510  1  0.679800  0.542900  0.948000  1.0  0.1052
  H  H511  1  0.709700  0.555900  0.871800  1.0  0.126
  H  H512  1  0.798200  0.441000  0.888900  1.0  0.1189
  H  H513  1  0.691100  0.282800  0.061500  1.0  0.1016
  H  H514  1  0.718100  0.236600  0.081900  1.0  0.0737
  H  H515  1  0.635700  0.248200  0.081300  1.0  0.1042
  H  H516  1  0.543900  0.223300  0.012000  1.0  0.1109
  H  H517  1  0.600200  0.210300  0.951900  1.0  0.1007
  H  H518  1  0.676200  0.217400  0.954300  1.0  0.1473
  H  H519  1  0.790300  0.373300  0.933900  1.0  0.0741
  H  H520  1  0.830200  0.388900  0.952200  1.0  0.0704
  H  H521  1  0.361700  0.172100  0.772300  1.0  0.1179
  H  H522  1  0.415300  0.107600  0.777200  1.0  0.1121
  H  H523  1  0.780100  0.424300  0.382000  1.0  0.1154
  H  H524  1  0.780400  0.484900  0.419800  1.0  0.1142
  H  H525  1  0.848600  0.503800  0.430800  1.0  0.1247
  H  H526  1  0.916600  0.398700  0.370100  1.0  0.1175
  H  H527  1  0.977500  0.441900  0.365900  1.0  0.0898
  H  H528  1  0.969400  0.408100  0.411400  1.0  0.0884
  H  H529  1  0.968900  0.424700  0.518600  1.0  0.1068
  H  H530  1  0.004400  0.383000  0.504700  1.0  0.1227
  H  H531  1  0.963800  0.401700  0.477100  1.0  0.1241
  H  H532  1  0.039300  0.495600  0.320000  1.0  0.1177
  H  H533  1  0.020300  0.542300  0.337600  1.0  0.1197
  H  H534  1  0.988000  0.505700  0.341400  1.0  0.1142
  H  H535  1  0.105100  0.525300  0.484300  1.0  0.1193
  H  H536  1  0.138000  0.509200  0.442000  1.0  0.1177
  H  H537  1  0.129800  0.474900  0.486900  1.0  0.1151
  H  H538  1  0.126100  0.529300  0.378300  1.0  0.0939
  H  H539  1  0.088900  0.541500  0.345400  1.0  0.0777
  H  H540  1  0.135400  0.596800  0.318900  1.0  0.1122
  H  H541  1  0.059700  0.654400  0.422800  1.0  0.1238
  H  H542  1  0.068700  0.465700  0.538300  1.0  0.074
  H  H543  1  0.025400  0.440900  0.546400  1.0  0.075
  H  H544  1  0.130100  0.324400  0.554300  1.0  0.1253
  H  H545  1  0.115900  0.323400  0.689500  1.0  0.1203
  H  H546  1  0.068700  0.391300  0.682600  1.0  0.0964
  H  H547  1  0.054500  0.429100  0.611600  1.0  0.1171
  H  H548  1  0.583200  0.345100  0.223100  1.0  0.1226
  H  H549  1  0.511200  0.460000  0.262400  1.0  0.1239
  H  H550  1  0.444600  0.433200  0.261300  1.0  0.1205
  H  H551  1  0.447100  0.362600  0.239400  1.0  0.1164
  H  H552  1  0.644200  0.378900  0.235100  1.0  0.0848
  H  H553  1  0.626100  0.400400  0.189100  1.0  0.0909
  H  H554  1  0.713000  0.410900  0.301100  1.0  0.1107
  H  H555  1  0.671200  0.393300  0.288500  1.0  0.1064
  H  H556  1  0.720900  0.371500  0.271400  1.0  0.1328
  H  H557  1  0.806300  0.499400  0.177500  1.0  0.107
  H  H558  1  0.786500  0.517800  0.131800  1.0  0.1143
  H  H559  1  0.774100  0.546200  0.172500  1.0  0.1178
  H  H560  1  0.633900  0.492200  0.115000  1.0  0.1134
  H  H561  1  0.607800  0.460200  0.153600  1.0  0.1111
  H  H562  1  0.603900  0.512200  0.156800  1.0  0.1198
  H  H563  1  0.795900  0.507100  0.021200  1.0  0.1309
  H  H564  1  0.820200  0.552000  0.957100  1.0  0.1026
  H  H565  1  0.790300  0.628200  0.944100  1.0  0.1244
  H  H566  1  0.701800  0.611100  0.059000  1.0  0.1186
  H  H567  1  0.808900  0.438500  0.217200  1.0  0.0988
  H  H568  1  0.781900  0.418100  0.263400  1.0  0.0753
  H  H569  1  0.864300  0.418700  0.251800  1.0  0.1044
  H  H570  1  0.956100  0.488000  0.276700  1.0  0.1111
  H  H571  1  0.899800  0.548100  0.289700  1.0  0.1016
  H  H572  1  0.823800  0.545700  0.282600  1.0  0.148
  H  H573  1  0.709700  0.566100  0.126700  1.0  0.0736
  H  H574  1  0.669800  0.547800  0.111100  1.0  0.0673
  H  H575  1  0.138300  0.727700  0.327900  1.0  0.117
  H  H576  1  0.084700  0.722800  0.392400  1.0  0.1105
  H  H577  1  0.424300  0.382000  0.780100  1.0  0.1174
  H  H578  1  0.484900  0.419800  0.780400  1.0  0.1139
  H  H579  1  0.503800  0.430800  0.848600  1.0  0.1262
  H  H580  1  0.398700  0.370100  0.916600  1.0  0.1182
  H  H581  1  0.441900  0.365900  0.977500  1.0  0.0909
  H  H582  1  0.408100  0.411400  0.969400  1.0  0.089
  H  H583  1  0.424700  0.518600  0.968900  1.0  0.1066
  H  H584  1  0.383000  0.504700  0.004400  1.0  0.1235
  H  H585  1  0.401700  0.477100  0.963800  1.0  0.1273
  H  H586  1  0.495600  0.320000  0.039300  1.0  0.1182
  H  H587  1  0.542300  0.337600  0.020300  1.0  0.1204
  H  H588  1  0.505700  0.341400  0.988000  1.0  0.1157
  H  H589  1  0.525300  0.484300  0.105100  1.0  0.1216
  H  H590  1  0.509200  0.442000  0.138000  1.0  0.1201
  H  H591  1  0.474900  0.486900  0.129800  1.0  0.1146
  H  H592  1  0.529300  0.378300  0.126100  1.0  0.0941
  H  H593  1  0.541500  0.345400  0.088900  1.0  0.0779
  H  H594  1  0.596800  0.318900  0.135400  1.0  0.1125
  H  H595  1  0.654400  0.422800  0.059700  1.0  0.124
  H  H596  1  0.465700  0.538300  0.068700  1.0  0.072
  H  H597  1  0.440900  0.546400  0.025400  1.0  0.0756
  H  H598  1  0.324400  0.554300  0.130100  1.0  0.1262
  H  H599  1  0.323400  0.689500  0.115900  1.0  0.1224
  H  H600  1  0.391300  0.682600  0.068700  1.0  0.0961
  H  H601  1  0.429100  0.611600  0.054500  1.0  0.1193
  H  H602  1  0.345100  0.223100  0.583200  1.0  0.1229
  H  H603  1  0.460000  0.262400  0.511200  1.0  0.1254
  H  H604  1  0.433200  0.261300  0.444600  1.0  0.1204
  H  H605  1  0.362600  0.239400  0.447100  1.0  0.1157
  H  H606  1  0.378900  0.235100  0.644200  1.0  0.083
  H  H607  1  0.400400  0.189100  0.626100  1.0  0.0907
  H  H608  1  0.410900  0.301100  0.713000  1.0  0.1091
  H  H609  1  0.393300  0.288500  0.671200  1.0  0.1024
  H  H610  1  0.371500  0.271400  0.720900  1.0  0.1319
  H  H611  1  0.499400  0.177500  0.806300  1.0  0.1052
  H  H612  1  0.517800  0.131800  0.786500  1.0  0.1141
  H  H613  1  0.546200  0.172500  0.774100  1.0  0.1211
  H  H614  1  0.492200  0.115000  0.633900  1.0  0.1126
  H  H615  1  0.460200  0.153600  0.607800  1.0  0.1103
  H  H616  1  0.512200  0.156800  0.603900  1.0  0.1198
  H  H617  1  0.507100  0.021200  0.795900  1.0  0.13
  H  H618  1  0.552000  0.957100  0.820200  1.0  0.1036
  H  H619  1  0.628200  0.944100  0.790300  1.0  0.1249
  H  H620  1  0.611100  0.059000  0.701800  1.0  0.1181
  H  H621  1  0.438500  0.217200  0.808900  1.0  0.099
  H  H622  1  0.418100  0.263400  0.781900  1.0  0.0757
  H  H623  1  0.418700  0.251800  0.864300  1.0  0.1041
  H  H624  1  0.488000  0.276700  0.956100  1.0  0.1116
  H  H625  1  0.548100  0.289700  0.899800  1.0  0.1014
  H  H626  1  0.545700  0.282600  0.823800  1.0  0.1459
  H  H627  1  0.566100  0.126700  0.709700  1.0  0.0731
  H  H628  1  0.547800  0.111100  0.669800  1.0  0.0691
  H  H629  1  0.727700  0.327900  0.138300  1.0  0.1172
  H  H630  1  0.722800  0.392400  0.084700  1.0  0.111
  H  H631  1  0.382000  0.780100  0.424300  1.0  0.1162
  H  H632  1  0.419800  0.780400  0.484900  1.0  0.1132
  H  H633  1  0.430800  0.848600  0.503800  1.0  0.1246
  H  H634  1  0.370100  0.916600  0.398700  1.0  0.1182
  H  H635  1  0.365900  0.977500  0.441900  1.0  0.0888
  H  H636  1  0.411400  0.969400  0.408100  1.0  0.0873
  H  H637  1  0.518600  0.968900  0.424700  1.0  0.106
  H  H638  1  0.504700  0.004400  0.383000  1.0  0.1214
  H  H639  1  0.477100  0.963800  0.401700  1.0  0.1252
  H  H640  1  0.320000  0.039300  0.495600  1.0  0.1175
  H  H641  1  0.337600  0.020300  0.542300  1.0  0.1182
  H  H642  1  0.341400  0.988000  0.505700  1.0  0.1158
  H  H643  1  0.484300  0.105100  0.525300  1.0  0.121
  H  H644  1  0.442000  0.138000  0.509200  1.0  0.1194
  H  H645  1  0.486900  0.129800  0.474900  1.0  0.1139
  H  H646  1  0.378300  0.126100  0.529300  1.0  0.0942
  H  H647  1  0.345400  0.088900  0.541500  1.0  0.0777
  H  H648  1  0.318900  0.135400  0.596800  1.0  0.1126
  H  H649  1  0.422800  0.059700  0.654400  1.0  0.124
  H  H650  1  0.538300  0.068700  0.465700  1.0  0.0729
  H  H651  1  0.546400  0.025400  0.440900  1.0  0.0777
  H  H652  1  0.554300  0.130100  0.324400  1.0  0.1235
  H  H653  1  0.689500  0.115900  0.323400  1.0  0.1214
  H  H654  1  0.682600  0.068700  0.391300  1.0  0.0941
  H  H655  1  0.611600  0.054500  0.429100  1.0  0.1171
  H  H656  1  0.223100  0.583200  0.345100  1.0  0.1227
  H  H657  1  0.262400  0.511200  0.460000  1.0  0.1229
  H  H658  1  0.261300  0.444600  0.433200  1.0  0.1201
  H  H659  1  0.239400  0.447100  0.362600  1.0  0.1157
  H  H660  1  0.235100  0.644200  0.378900  1.0  0.0852
  H  H661  1  0.189100  0.626100  0.400400  1.0  0.088
  H  H662  1  0.301100  0.713000  0.410900  1.0  0.1088
  H  H663  1  0.288500  0.671200  0.393300  1.0  0.1051
  H  H664  1  0.271400  0.720900  0.371500  1.0  0.1322
  H  H665  1  0.177500  0.806300  0.499400  1.0  0.1086
  H  H666  1  0.131800  0.786500  0.517800  1.0  0.1146
  H  H667  1  0.172500  0.774100  0.546200  1.0  0.12
  H  H668  1  0.115000  0.633900  0.492200  1.0  0.1134
  H  H669  1  0.153600  0.607800  0.460200  1.0  0.1103
  H  H670  1  0.156800  0.603900  0.512200  1.0  0.1202
  H  H671  1  0.021200  0.795900  0.507100  1.0  0.1309
  H  H672  1  0.957100  0.820200  0.552000  1.0  0.1047
  H  H673  1  0.944100  0.790300  0.628200  1.0  0.1251
  H  H674  1  0.059000  0.701800  0.611100  1.0  0.1194
  H  H675  1  0.217200  0.808900  0.438500  1.0  0.1008
  H  H676  1  0.263400  0.781900  0.418100  1.0  0.0751
  H  H677  1  0.251800  0.864300  0.418700  1.0  0.1045
  H  H678  1  0.276700  0.956100  0.488000  1.0  0.1095
  H  H679  1  0.289700  0.899800  0.548100  1.0  0.1002
  H  H680  1  0.282600  0.823800  0.545700  1.0  0.148
  H  H681  1  0.126700  0.709700  0.566100  1.0  0.0752
  H  H682  1  0.111100  0.669800  0.547800  1.0  0.0684
  H  H683  1  0.327900  0.138300  0.727700  1.0  0.1172
  H  H684  1  0.392400  0.084700  0.722800  1.0  0.1101
  C  C685  1  0.905050  0.347680  0.873150  1.0  -0.1182
  C  C686  1  0.931210  0.307490  0.887360  1.0  -0.0075
  C  C687  1  0.967740  0.307610  0.909480  1.0  -0.1055
  C  C688  1  0.978830  0.348410  0.916330  1.0  -0.1991
  C  C689  1  0.953030  0.388930  0.901790  1.0  0.2517
  C  C690  1  0.916020  0.389150  0.879990  1.0  -0.1742
  C  C691  1  0.865010  0.348510  0.848820  1.0  0.684
  C  C692  1  0.989920  0.530850  0.889810  1.0  0.0594
  C  C693  1  0.004120  0.566610  0.906240  1.0  -0.022
  C  C694  1  0.986550  0.576330  0.950540  1.0  0.0206
  C  C695  1  0.957420  0.548900  0.978450  1.0  -0.0988
  C  C696  1  0.939800  0.470390  0.898810  1.0  0.0683
  C  C697  1  0.909890  0.485070  0.993480  1.0  -0.352
  C  C698  1  0.010260  0.518400  0.842890  1.0  -0.3323
  C  C699  1  0.000230  0.615800  0.967470  1.0  -0.361
  C  C700  1  0.038390  0.593770  0.876880  1.0  0.0521
  C  C701  1  0.942200  0.514020  0.961950  1.0  0.0894
  C  C702  1  0.163370  0.640860  0.815840  1.0  -0.1058
  C  C703  1  0.122050  0.625540  0.833930  1.0  -0.1431
  C  C704  1  0.156540  0.580310  0.896090  1.0  -0.1814
  C  C705  1  0.168490  0.667610  0.769780  1.0  0.6567
  C  C706  1  0.943190  0.554740  0.027910  1.0  0.0664
  C  C707  1  0.880270  0.590910  0.075720  1.0  0.2713
  C  C708  1  0.838350  0.618250  0.080010  1.0  -0.1236
  C  C709  1  0.817150  0.628150  0.122450  1.0  -0.1415
  C  C710  1  0.837550  0.609420  0.160920  1.0  -0.0681
  C  C711  1  0.878250  0.581690  0.156620  1.0  -0.0777
  C  C712  1  0.900780  0.572560  0.114270  1.0  -0.2612
  C  C713  1  0.771610  0.658250  0.126940  1.0  0.7295
  C  C714  1  0.801730  0.016180  0.714540  1.0  0.7492
  C  C715  1  0.846860  0.014710  0.729980  1.0  -0.1084
  C  C716  1  0.862930  0.055340  0.730340  1.0  -0.2192
  C  C717  1  0.905980  0.053490  0.741610  1.0  0.3017
  C  C718  1  0.931590  0.012120  0.753710  1.0  -0.1898
  C  C719  1  0.915660  0.972460  0.753260  1.0  -0.1149
  C  C720  1  0.873220  0.974040  0.740600  1.0  -0.088
  C  C721  1  0.118600  0.595910  0.874270  1.0  0.2859
  C  C722  1  0.907200  0.131950  0.717760  1.0  0.0087
  C  C723  1  0.940540  0.166900  0.708420  1.0  -0.0655
  C  C724  1  0.934260  0.202620  0.734990  1.0  0.0728
  C  C725  1  0.899290  0.201860  0.777920  1.0  -0.3453
  C  C726  1  0.958680  0.239550  0.720920  1.0  -0.0367
  C  C727  1  0.991840  0.240010  0.682110  1.0  0.0726
  C  C728  1  0.015980  0.280280  0.664380  1.0  -0.3651
  C  C729  1  0.976500  0.164500  0.672190  1.0  0.073
  C  C730  1  0.986150  0.123890  0.647110  1.0  -0.3506
  C  C731  1  0.054050  0.244510  0.545890  1.0  0.2938
  C  C732  1  0.037010  0.281810  0.515310  1.0  -0.2328
  C  C733  1  0.064000  0.296700  0.477900  1.0  -0.0682
  C  C734  1  0.109390  0.278090  0.469390  1.0  -0.1188
  C  C735  1  0.126100  0.241580  0.498820  1.0  -0.1726
  C  C736  1  0.099050  0.225340  0.538060  1.0  -0.153
  C  C737  1  0.945190  0.283780  0.741060  1.0  0.0245
  C  C738  1  0.981380  0.335680  0.766190  1.0  0.274
  C  C739  1  0.945170  0.371020  0.759710  1.0  -0.1527
  C  C740  1  0.985790  0.426090  0.774690  1.0  -0.0989
  C  C741  1  0.022090  0.392190  0.781890  1.0  -0.1004
  C  C742  1  0.947320  0.415820  0.764690  1.0  -0.1331
  C  C743  1  0.020910  0.346210  0.777810  1.0  -0.1634
  C  C744  1  0.001990  0.200350  0.659480  1.0  -0.0886
  C  C745  1  0.906050  0.451250  0.757450  1.0  0.6609
  C  C746  1  0.039380  0.200250  0.619160  1.0  0.0032
  C  C747  1  0.957470  0.506280  0.917160  1.0  -0.0676
  C  C748  1  0.200490  0.626710  0.838860  1.0  -0.131
  C  C749  1  0.197270  0.595380  0.878060  1.0  -0.0815
  C  C750  1  0.173100  0.218100  0.488500  1.0  0.7267
  C  C751  1  0.873150  0.905050  0.347680  1.0  -0.1214
  C  C752  1  0.887360  0.931210  0.307490  1.0  -0.0027
  C  C753  1  0.909480  0.967740  0.307610  1.0  -0.1017
  C  C754  1  0.916330  0.978830  0.348410  1.0  -0.2027
  C  C755  1  0.901790  0.953030  0.388930  1.0  0.2524
  C  C756  1  0.879990  0.916020  0.389150  1.0  -0.1738
  C  C757  1  0.848820  0.865010  0.348510  1.0  0.6848
  C  C758  1  0.889810  0.989920  0.530850  1.0  0.0583
  C  C759  1  0.906240  0.004120  0.566610  1.0  -0.0219
  C  C760  1  0.950540  0.986550  0.576330  1.0  0.0208
  C  C761  1  0.978450  0.957420  0.548900  1.0  -0.1026
  C  C762  1  0.898810  0.939800  0.470390  1.0  0.0675
  C  C763  1  0.993480  0.909890  0.485070  1.0  -0.3511
  C  C764  1  0.842890  0.010260  0.518400  1.0  -0.3286
  C  C765  1  0.967470  0.000230  0.615800  1.0  -0.3637
  C  C766  1  0.876880  0.038390  0.593770  1.0  0.0524
  C  C767  1  0.961950  0.942200  0.514020  1.0  0.0911
  C  C768  1  0.815840  0.163370  0.640860  1.0  -0.1079
  C  C769  1  0.833930  0.122050  0.625540  1.0  -0.1431
  C  C770  1  0.896090  0.156540  0.580310  1.0  -0.185
  C  C771  1  0.769780  0.168490  0.667610  1.0  0.6585
  C  C772  1  0.027910  0.943190  0.554740  1.0  0.0683
  C  C773  1  0.075720  0.880270  0.590910  1.0  0.2687
  C  C774  1  0.080010  0.838350  0.618250  1.0  -0.1203
  C  C775  1  0.122450  0.817150  0.628150  1.0  -0.1332
  C  C776  1  0.160920  0.837550  0.609420  1.0  -0.0643
  C  C777  1  0.156620  0.878250  0.581690  1.0  -0.0829
  C  C778  1  0.114270  0.900780  0.572560  1.0  -0.2595
  C  C779  1  0.126940  0.771610  0.658250  1.0  0.7284
  C  C780  1  0.714540  0.801730  0.016180  1.0  0.7495
  C  C781  1  0.729980  0.846860  0.014710  1.0  -0.1166
  C  C782  1  0.730340  0.862930  0.055340  1.0  -0.2173
  C  C783  1  0.741610  0.905980  0.053490  1.0  0.2973
  C  C784  1  0.753710  0.931590  0.012120  1.0  -0.1904
  C  C785  1  0.753260  0.915660  0.972460  1.0  -0.1153
  C  C786  1  0.740600  0.873220  0.974040  1.0  -0.0791
  C  C787  1  0.874270  0.118600  0.595910  1.0  0.2853
  C  C788  1  0.717760  0.907200  0.131950  1.0  0.0095
  C  C789  1  0.708420  0.940540  0.166900  1.0  -0.0654
  C  C790  1  0.734990  0.934260  0.202620  1.0  0.0736
  C  C791  1  0.777920  0.899290  0.201860  1.0  -0.3472
  C  C792  1  0.720920  0.958680  0.239550  1.0  -0.0356
  C  C793  1  0.682110  0.991840  0.240010  1.0  0.0738
  C  C794  1  0.664380  0.015980  0.280280  1.0  -0.3645
  C  C795  1  0.672190  0.976500  0.164500  1.0  0.0715
  C  C796  1  0.647110  0.986150  0.123890  1.0  -0.3513
  C  C797  1  0.545890  0.054050  0.244510  1.0  0.2927
  C  C798  1  0.515310  0.037010  0.281810  1.0  -0.2335
  C  C799  1  0.477900  0.064000  0.296700  1.0  -0.07
  C  C800  1  0.469390  0.109390  0.278090  1.0  -0.1224
  C  C801  1  0.498820  0.126100  0.241580  1.0  -0.173
  C  C802  1  0.538060  0.099050  0.225340  1.0  -0.1527
  C  C803  1  0.741060  0.945190  0.283780  1.0  0.0271
  C  C804  1  0.766190  0.981380  0.335680  1.0  0.2733
  C  C805  1  0.759710  0.945170  0.371020  1.0  -0.1519
  C  C806  1  0.774690  0.985790  0.426090  1.0  -0.1036
  C  C807  1  0.781890  0.022090  0.392190  1.0  -0.0962
  C  C808  1  0.764690  0.947320  0.415820  1.0  -0.1315
  C  C809  1  0.777810  0.020910  0.346210  1.0  -0.1632
  C  C810  1  0.659480  0.001990  0.200350  1.0  -0.0914
  C  C811  1  0.757450  0.906050  0.451250  1.0  0.6637
  C  C812  1  0.619160  0.039380  0.200250  1.0  0.0034
  C  C813  1  0.917160  0.957470  0.506280  1.0  -0.067
  C  C814  1  0.838860  0.200490  0.626710  1.0  -0.1271
  C  C815  1  0.878060  0.197270  0.595380  1.0  -0.0775
  C  C816  1  0.488500  0.173100  0.218100  1.0  0.7195
  C  C817  1  0.347680  0.873150  0.905050  1.0  -0.119
  C  C818  1  0.307490  0.887360  0.931210  1.0  0.0017
  C  C819  1  0.307610  0.909480  0.967740  1.0  -0.1092
  C  C820  1  0.348410  0.916330  0.978830  1.0  -0.1996
  C  C821  1  0.388930  0.901790  0.953030  1.0  0.2507
  C  C822  1  0.389150  0.879990  0.916020  1.0  -0.1738
  C  C823  1  0.348510  0.848820  0.865010  1.0  0.6872
  C  C824  1  0.530850  0.889810  0.989920  1.0  0.0553
  C  C825  1  0.566610  0.906240  0.004120  1.0  -0.0202
  C  C826  1  0.576330  0.950540  0.986550  1.0  0.0247
  C  C827  1  0.548900  0.978450  0.957420  1.0  -0.1012
  C  C828  1  0.470390  0.898810  0.939800  1.0  0.0638
  C  C829  1  0.485070  0.993480  0.909890  1.0  -0.3533
  C  C830  1  0.518400  0.842890  0.010260  1.0  -0.3305
  C  C831  1  0.615800  0.967470  0.000230  1.0  -0.3668
  C  C832  1  0.593770  0.876880  0.038390  1.0  0.0538
  C  C833  1  0.514020  0.961950  0.942200  1.0  0.0888
  C  C834  1  0.640860  0.815840  0.163370  1.0  -0.106
  C  C835  1  0.625540  0.833930  0.122050  1.0  -0.1433
  C  C836  1  0.580310  0.896090  0.156540  1.0  -0.1827
  C  C837  1  0.667610  0.769780  0.168490  1.0  0.6486
  C  C838  1  0.554740  0.027910  0.943190  1.0  0.07
  C  C839  1  0.590910  0.075720  0.880270  1.0  0.2696
  C  C840  1  0.618250  0.080010  0.838350  1.0  -0.1186
  C  C841  1  0.628150  0.122450  0.817150  1.0  -0.1405
  C  C842  1  0.609420  0.160920  0.837550  1.0  -0.0687
  C  C843  1  0.581690  0.156620  0.878250  1.0  -0.0753
  C  C844  1  0.572560  0.114270  0.900780  1.0  -0.2573
  C  C845  1  0.658250  0.126940  0.771610  1.0  0.7285
  C  C846  1  0.016180  0.714540  0.801730  1.0  0.7547
  C  C847  1  0.014710  0.729980  0.846860  1.0  -0.1096
  C  C848  1  0.055340  0.730340  0.862930  1.0  -0.2161
  C  C849  1  0.053490  0.741610  0.905980  1.0  0.2979
  C  C850  1  0.012120  0.753710  0.931590  1.0  -0.188
  C  C851  1  0.972460  0.753260  0.915660  1.0  -0.1197
  C  C852  1  0.974040  0.740600  0.873220  1.0  -0.0861
  C  C853  1  0.595910  0.874270  0.118600  1.0  0.284
  C  C854  1  0.131950  0.717760  0.907200  1.0  0.0099
  C  C855  1  0.166900  0.708420  0.940540  1.0  -0.0654
  C  C856  1  0.202620  0.734990  0.934260  1.0  0.0717
  C  C857  1  0.201860  0.777920  0.899290  1.0  -0.344
  C  C858  1  0.239550  0.720920  0.958680  1.0  -0.0376
  C  C859  1  0.240010  0.682110  0.991840  1.0  0.0721
  C  C860  1  0.280280  0.664380  0.015980  1.0  -0.3634
  C  C861  1  0.164500  0.672190  0.976500  1.0  0.0708
  C  C862  1  0.123890  0.647110  0.986150  1.0  -0.3494
  C  C863  1  0.244510  0.545890  0.054050  1.0  0.2956
  C  C864  1  0.281810  0.515310  0.037010  1.0  -0.231
  C  C865  1  0.296700  0.477900  0.064000  1.0  -0.0681
  C  C866  1  0.278090  0.469390  0.109390  1.0  -0.1203
  C  C867  1  0.241580  0.498820  0.126100  1.0  -0.1705
  C  C868  1  0.225340  0.538060  0.099050  1.0  -0.1561
  C  C869  1  0.283780  0.741060  0.945190  1.0  0.0247
  C  C870  1  0.335680  0.766190  0.981380  1.0  0.2713
  C  C871  1  0.371020  0.759710  0.945170  1.0  -0.1536
  C  C872  1  0.426090  0.774690  0.985790  1.0  -0.1009
  C  C873  1  0.392190  0.781890  0.022090  1.0  -0.0982
  C  C874  1  0.415820  0.764690  0.947320  1.0  -0.1332
  C  C875  1  0.346210  0.777810  0.020910  1.0  -0.1629
  C  C876  1  0.200350  0.659480  0.001990  1.0  -0.0907
  C  C877  1  0.451250  0.757450  0.906050  1.0  0.6555
  C  C878  1  0.200250  0.619160  0.039380  1.0  0.0013
  C  C879  1  0.506280  0.917160  0.957470  1.0  -0.0687
  C  C880  1  0.626710  0.838860  0.200490  1.0  -0.1318
  C  C881  1  0.595380  0.878060  0.197270  1.0  -0.0804
  C  C882  1  0.218100  0.488500  0.173100  1.0  0.7233
  C  C883  1  0.152320  0.594950  0.626850  1.0  -0.1185
  C  C884  1  0.192510  0.568790  0.612640  1.0  1e-04
  C  C885  1  0.192390  0.532260  0.590520  1.0  -0.1053
  C  C886  1  0.151590  0.521170  0.583670  1.0  -0.2013
  C  C887  1  0.111070  0.546970  0.598210  1.0  0.2502
  C  C888  1  0.110850  0.583980  0.620010  1.0  -0.1735
  C  C889  1  0.151490  0.634990  0.651180  1.0  0.6854
  C  C890  1  0.969150  0.510080  0.610190  1.0  0.061
  C  C891  1  0.933390  0.495880  0.593760  1.0  -0.0223
  C  C892  1  0.923670  0.513450  0.549460  1.0  0.0213
  C  C893  1  0.951100  0.542580  0.521550  1.0  -0.0993
  C  C894  1  0.029610  0.560200  0.601190  1.0  0.0671
  C  C895  1  0.014930  0.590110  0.506520  1.0  -0.3509
  C  C896  1  0.981600  0.489740  0.657110  1.0  -0.3318
  C  C897  1  0.884200  0.499770  0.532530  1.0  -0.364
  C  C898  1  0.906230  0.461610  0.623120  1.0  0.0523
  C  C899  1  0.985980  0.557800  0.538050  1.0  0.0901
  C  C900  1  0.859140  0.336630  0.684160  1.0  -0.1053
  C  C901  1  0.874460  0.377950  0.666070  1.0  -0.1442
  C  C902  1  0.919690  0.343460  0.603910  1.0  -0.186
  C  C903  1  0.832390  0.331510  0.730220  1.0  0.6481
  C  C904  1  0.945260  0.556810  0.472090  1.0  0.0706
  C  C905  1  0.909090  0.619730  0.424280  1.0  0.2711
  C  C906  1  0.881750  0.661650  0.419990  1.0  -0.1217
  C  C907  1  0.871850  0.682850  0.377550  1.0  -0.1421
  C  C908  1  0.890580  0.662450  0.339080  1.0  -0.0677
  C  C909  1  0.918310  0.621750  0.343380  1.0  -0.0771
  C  C910  1  0.927440  0.599220  0.385730  1.0  -0.2587
  C  C911  1  0.841750  0.728390  0.373060  1.0  0.7289
  C  C912  1  0.483820  0.698270  0.785460  1.0  0.7485
  C  C913  1  0.485290  0.653140  0.770020  1.0  -0.1131
  C  C914  1  0.444660  0.637070  0.769660  1.0  -0.2154
  C  C915  1  0.446510  0.594020  0.758390  1.0  0.2995
  C  C916  1  0.487880  0.568410  0.746290  1.0  -0.1883
  C  C917  1  0.527540  0.584340  0.746740  1.0  -0.1166
  C  C918  1  0.525960  0.626780  0.759400  1.0  -0.0834
  C  C919  1  0.904090  0.381400  0.625730  1.0  0.285
  C  C920  1  0.368050  0.592800  0.782240  1.0  0.0102
  C  C921  1  0.333100  0.559460  0.791580  1.0  -0.0695
  C  C922  1  0.297380  0.565740  0.765010  1.0  0.0706
  C  C923  1  0.298140  0.600710  0.722080  1.0  -0.3456
  C  C924  1  0.260450  0.541320  0.779080  1.0  -0.0371
  C  C925  1  0.259990  0.508160  0.817890  1.0  0.0728
  C  C926  1  0.219720  0.484020  0.835620  1.0  -0.3628
  C  C927  1  0.335500  0.523500  0.827810  1.0  0.0717
  C  C928  1  0.376110  0.513850  0.852890  1.0  -0.3504
  C  C929  1  0.255490  0.445950  0.954110  1.0  0.2956
  C  C930  1  0.218190  0.462990  0.984690  1.0  -0.2312
  C  C931  1  0.203300  0.436000  0.022100  1.0  -0.0695
  C  C932  1  0.221910  0.390610  0.030610  1.0  -0.1188
  C  C933  1  0.258420  0.373900  0.001180  1.0  -0.171
  C  C934  1  0.274660  0.400950  0.961940  1.0  -0.153
  C  C935  1  0.216220  0.554810  0.758940  1.0  0.0232
  C  C936  1  0.164320  0.518620  0.733810  1.0  0.2725
  C  C937  1  0.128980  0.554830  0.740290  1.0  -0.1519
  C  C938  1  0.073910  0.514210  0.725310  1.0  -0.1004
  C  C939  1  0.107810  0.477910  0.718110  1.0  -0.0991
  C  C940  1  0.084180  0.552680  0.735310  1.0  -0.133
  C  C941  1  0.153790  0.479090  0.722190  1.0  -0.1645
  C  C942  1  0.299650  0.498010  0.840520  1.0  -0.0872
  C  C943  1  0.048750  0.593950  0.742550  1.0  0.6597
  C  C944  1  0.299750  0.460620  0.880840  1.0  0.0046
  C  C945  1  0.993720  0.542530  0.582840  1.0  -0.0673
  C  C946  1  0.873290  0.299510  0.661140  1.0  -0.128
  C  C947  1  0.904620  0.302730  0.621940  1.0  -0.0786
  C  C948  1  0.281900  0.326900  0.011500  1.0  0.7246
  C  C949  1  0.594950  0.626850  0.152320  1.0  -0.1184
  C  C950  1  0.568790  0.612640  0.192510  1.0  -0.0025
  C  C951  1  0.532260  0.590520  0.192390  1.0  -0.1018
  C  C952  1  0.521170  0.583670  0.151590  1.0  -0.2029
  C  C953  1  0.546970  0.598210  0.111070  1.0  0.2514
  C  C954  1  0.583980  0.620010  0.110850  1.0  -0.1717
  C  C955  1  0.634990  0.651180  0.151490  1.0  0.6822
  C  C956  1  0.510080  0.610190  0.969150  1.0  0.0595
  C  C957  1  0.495880  0.593760  0.933390  1.0  -0.0204
  C  C958  1  0.513450  0.549460  0.923670  1.0  0.0195
  C  C959  1  0.542580  0.521550  0.951100  1.0  -0.1007
  C  C960  1  0.560200  0.601190  0.029610  1.0  0.0697
  C  C961  1  0.590110  0.506520  0.014930  1.0  -0.3524
  C  C962  1  0.489740  0.657110  0.981600  1.0  -0.3286
  C  C963  1  0.499770  0.532530  0.884200  1.0  -0.3656
  C  C964  1  0.461610  0.623120  0.906230  1.0  0.0518
  C  C965  1  0.557800  0.538050  0.985980  1.0  0.0936
  C  C966  1  0.336630  0.684160  0.859140  1.0  -0.1019
  C  C967  1  0.377950  0.666070  0.874460  1.0  -0.1432
  C  C968  1  0.343460  0.603910  0.919690  1.0  -0.1796
  C  C969  1  0.331510  0.730220  0.832390  1.0  0.6606
  C  C970  1  0.556810  0.472090  0.945260  1.0  0.0676
  C  C971  1  0.619730  0.424280  0.909090  1.0  0.2709
  C  C972  1  0.661650  0.419990  0.881750  1.0  -0.1205
  C  C973  1  0.682850  0.377550  0.871850  1.0  -0.1337
  C  C974  1  0.662450  0.339080  0.890580  1.0  -0.0666
  C  C975  1  0.621750  0.343380  0.918310  1.0  -0.0823
  C  C976  1  0.599220  0.385730  0.927440  1.0  -0.2614
  C  C977  1  0.728390  0.373060  0.841750  1.0  0.7283
  C  C978  1  0.698270  0.785460  0.483820  1.0  0.7492
  C  C979  1  0.653140  0.770020  0.485290  1.0  -0.1126
  C  C980  1  0.637070  0.769660  0.444660  1.0  -0.2164
  C  C981  1  0.594020  0.758390  0.446510  1.0  0.2976
  C  C982  1  0.568410  0.746290  0.487880  1.0  -0.1902
  C  C983  1  0.584340  0.746740  0.527540  1.0  -0.115
  C  C984  1  0.626780  0.759400  0.525960  1.0  -0.0923
  C  C985  1  0.381400  0.625730  0.904090  1.0  0.2854
  C  C986  1  0.592800  0.782240  0.368050  1.0  0.0136
  C  C987  1  0.559460  0.791580  0.333100  1.0  -0.065
  C  C988  1  0.565740  0.765010  0.297380  1.0  0.0731
  C  C989  1  0.600710  0.722080  0.298140  1.0  -0.3464
  C  C990  1  0.541320  0.779080  0.260450  1.0  -0.0355
  C  C991  1  0.508160  0.817890  0.259990  1.0  0.0734
  C  C992  1  0.484020  0.835620  0.219720  1.0  -0.3623
  C  C993  1  0.523500  0.827810  0.335500  1.0  0.0726
  C  C994  1  0.513850  0.852890  0.376110  1.0  -0.3522
  C  C995  1  0.445950  0.954110  0.255490  1.0  0.2936
  C  C996  1  0.462990  0.984690  0.218190  1.0  -0.2332
  C  C997  1  0.436000  0.022100  0.203300  1.0  -0.0677
  C  C998  1  0.390610  0.030610  0.221910  1.0  -0.1187
  C  C999  1  0.373900  0.001180  0.258420  1.0  -0.1708
  C  C1000  1  0.400950  0.961940  0.274660  1.0  -0.1561
  C  C1001  1  0.554810  0.758940  0.216220  1.0  0.0257
  C  C1002  1  0.518620  0.733810  0.164320  1.0  0.2726
  C  C1003  1  0.554830  0.740290  0.128980  1.0  -0.1526
  C  C1004  1  0.514210  0.725310  0.073910  1.0  -0.1007
  C  C1005  1  0.477910  0.718110  0.107810  1.0  -0.0981
  C  C1006  1  0.552680  0.735310  0.084180  1.0  -0.1312
  C  C1007  1  0.479090  0.722190  0.153790  1.0  -0.1629
  C  C1008  1  0.498010  0.840520  0.299650  1.0  -0.0916
  C  C1009  1  0.593950  0.742550  0.048750  1.0  0.6586
  C  C1010  1  0.460620  0.880840  0.299750  1.0  0.0022
  C  C1011  1  0.542530  0.582840  0.993720  1.0  -0.0641
  C  C1012  1  0.299510  0.661140  0.873290  1.0  -0.129
  C  C1013  1  0.302730  0.621940  0.904620  1.0  -0.0797
  C  C1014  1  0.326900  0.011500  0.281900  1.0  0.7215
  C  C1015  1  0.626850  0.152320  0.594950  1.0  -0.1171
  C  C1016  1  0.612640  0.192510  0.568790  1.0  -0.0011
  C  C1017  1  0.590520  0.192390  0.532260  1.0  -0.1013
  C  C1018  1  0.583670  0.151590  0.521170  1.0  -0.1991
  C  C1019  1  0.598210  0.111070  0.546970  1.0  0.2526
  C  C1020  1  0.620010  0.110850  0.583980  1.0  -0.1737
  C  C1021  1  0.651180  0.151490  0.634990  1.0  0.6848
  C  C1022  1  0.610190  0.969150  0.510080  1.0  0.0583
  C  C1023  1  0.593760  0.933390  0.495880  1.0  -0.0205
  C  C1024  1  0.549460  0.923670  0.513450  1.0  0.0238
  C  C1025  1  0.521550  0.951100  0.542580  1.0  -0.103
  C  C1026  1  0.601190  0.029610  0.560200  1.0  0.0629
  C  C1027  1  0.506520  0.014930  0.590110  1.0  -0.353
  C  C1028  1  0.657110  0.981600  0.489740  1.0  -0.3272
  C  C1029  1  0.532530  0.884200  0.499770  1.0  -0.3623
  C  C1030  1  0.623120  0.906230  0.461610  1.0  0.0543
  C  C1031  1  0.538050  0.985980  0.557800  1.0  0.0897
  C  C1032  1  0.684160  0.859140  0.336630  1.0  -0.1059
  C  C1033  1  0.666070  0.874460  0.377950  1.0  -0.1442
  C  C1034  1  0.603910  0.919690  0.343460  1.0  -0.1823
  C  C1035  1  0.730220  0.832390  0.331510  1.0  0.6542
  C  C1036  1  0.472090  0.945260  0.556810  1.0  0.0734
  C  C1037  1  0.424280  0.909090  0.619730  1.0  0.2696
  C  C1038  1  0.419990  0.881750  0.661650  1.0  -0.1214
  C  C1039  1  0.377550  0.871850  0.682850  1.0  -0.143
  C  C1040  1  0.339080  0.890580  0.662450  1.0  -0.0669
  C  C1041  1  0.343380  0.918310  0.621750  1.0  -0.078
  C  C1042  1  0.385730  0.927440  0.599220  1.0  -0.2589
  C  C1043  1  0.373060  0.841750  0.728390  1.0  0.7285
  C  C1044  1  0.785460  0.483820  0.698270  1.0  0.7536
  C  C1045  1  0.770020  0.485290  0.653140  1.0  -0.1105
  C  C1046  1  0.769660  0.444660  0.637070  1.0  -0.2147
  C  C1047  1  0.758390  0.446510  0.594020  1.0  0.2976
  C  C1048  1  0.746290  0.487880  0.568410  1.0  -0.1893
  C  C1049  1  0.746740  0.527540  0.584340  1.0  -0.1075
  C  C1050  1  0.759400  0.525960  0.626780  1.0  -0.0799
  C  C1051  1  0.625730  0.904090  0.381400  1.0  0.2853
  C  C1052  1  0.782240  0.368050  0.592800  1.0  0.0044
  C  C1053  1  0.791580  0.333100  0.559460  1.0  -0.0654
  C  C1054  1  0.765010  0.297380  0.565740  1.0  0.0738
  C  C1055  1  0.722080  0.298140  0.600710  1.0  -0.3454
  C  C1056  1  0.779080  0.260450  0.541320  1.0  -0.0393
  C  C1057  1  0.817890  0.259990  0.508160  1.0  0.0736
  C  C1058  1  0.835620  0.219720  0.484020  1.0  -0.3633
  C  C1059  1  0.827810  0.335500  0.523500  1.0  0.0707
  C  C1060  1  0.852890  0.376110  0.513850  1.0  -0.3505
  C  C1061  1  0.954110  0.255490  0.445950  1.0  0.2932
  C  C1062  1  0.984690  0.218190  0.462990  1.0  -0.234
  C  C1063  1  0.022100  0.203300  0.436000  1.0  -0.0677
  C  C1064  1  0.030610  0.221910  0.390610  1.0  -0.1179
  C  C1065  1  0.001180  0.258420  0.373900  1.0  -0.173
  C  C1066  1  0.961940  0.274660  0.400950  1.0  -0.1542
  C  C1067  1  0.758940  0.216220  0.554810  1.0  0.0258
  C  C1068  1  0.733810  0.164320  0.518620  1.0  0.2696
  C  C1069  1  0.740290  0.128980  0.554830  1.0  -0.1525
  C  C1070  1  0.725310  0.073910  0.514210  1.0  -0.0999
  C  C1071  1  0.718110  0.107810  0.477910  1.0  -0.0979
  C  C1072  1  0.735310  0.084180  0.552680  1.0  -0.133
  C  C1073  1  0.722190  0.153790  0.479090  1.0  -0.1603
  C  C1074  1  0.840520  0.299650  0.498010  1.0  -0.0905
  C  C1075  1  0.742550  0.048750  0.593950  1.0  0.6614
  C  C1076  1  0.880840  0.299750  0.460620  1.0  0.0004
  C  C1077  1  0.582840  0.993720  0.542530  1.0  -0.0684
  C  C1078  1  0.661140  0.873290  0.299510  1.0  -0.1335
  C  C1079  1  0.621940  0.904620  0.302730  1.0  -0.081
  C  C1080  1  0.011500  0.281900  0.326900  1.0  0.7217
  C  C1081  1  0.094950  0.652320  0.126850  1.0  -0.1171
  C  C1082  1  0.068790  0.692510  0.112640  1.0  -0.0027
  C  C1083  1  0.032260  0.692390  0.090520  1.0  -0.0992
  C  C1084  1  0.021170  0.651590  0.083670  1.0  -0.2002
  C  C1085  1  0.046970  0.611070  0.098210  1.0  0.25
  C  C1086  1  0.083980  0.610850  0.120010  1.0  -0.1732
  C  C1087  1  0.134990  0.651490  0.151180  1.0  0.6829
  C  C1088  1  0.010080  0.469150  0.110190  1.0  0.0585
  C  C1089  1  0.995880  0.433390  0.093760  1.0  -0.0211
  C  C1090  1  0.013450  0.423670  0.049460  1.0  0.0222
  C  C1091  1  0.042580  0.451100  0.021550  1.0  -0.1006
  C  C1092  1  0.060200  0.529610  0.101190  1.0  0.0679
  C  C1093  1  0.090110  0.514930  0.006520  1.0  -0.3519
  C  C1094  1  0.989740  0.481600  0.157110  1.0  -0.3303
  C  C1095  1  0.999770  0.384200  0.032530  1.0  -0.3634
  C  C1096  1  0.961610  0.406230  0.123120  1.0  0.0523
  C  C1097  1  0.057800  0.485980  0.038050  1.0  0.0906
  C  C1098  1  0.836630  0.359140  0.184160  1.0  -0.1073
  C  C1099  1  0.877950  0.374460  0.166070  1.0  -0.1426
  C  C1100  1  0.843460  0.419690  0.103910  1.0  -0.1815
  C  C1101  1  0.831510  0.332390  0.230220  1.0  0.6564
  C  C1102  1  0.056810  0.445260  0.972090  1.0  0.0696
  C  C1103  1  0.119730  0.409090  0.924280  1.0  0.2718
  C  C1104  1  0.161650  0.381750  0.919990  1.0  -0.1248
  C  C1105  1  0.182850  0.371850  0.877550  1.0  -0.1399
  C  C1106  1  0.162450  0.390580  0.839080  1.0  -0.0705
  C  C1107  1  0.121750  0.418310  0.843380  1.0  -0.0764
  C  C1108  1  0.099220  0.427440  0.885730  1.0  -0.2599
  C  C1109  1  0.228390  0.341750  0.873060  1.0  0.7287
  C  C1110  1  0.198270  0.983820  0.285460  1.0  0.7489
  C  C1111  1  0.153140  0.985290  0.270020  1.0  -0.1143
  C  C1112  1  0.137070  0.944660  0.269660  1.0  -0.213
  C  C1113  1  0.094020  0.946510  0.258390  1.0  0.3015
  C  C1114  1  0.068410  0.987880  0.246290  1.0  -0.1902
  C  C1115  1  0.084340  0.027540  0.246740  1.0  -0.1114
  C  C1116  1  0.126780  0.025960  0.259400  1.0  -0.0809
  C  C1117  1  0.881400  0.404090  0.125730  1.0  0.2854
  C  C1118  1  0.092800  0.868050  0.282240  1.0  0.0112
  C  C1119  1  0.059460  0.833100  0.291580  1.0  -0.069
  C  C1120  1  0.065740  0.797380  0.265010  1.0  0.0697
  C  C1121  1  0.100710  0.798140  0.222080  1.0  -0.345
  C  C1122  1  0.041320  0.760450  0.279080  1.0  -0.0406
  C  C1123  1  0.008160  0.759990  0.317890  1.0  0.0741
  C  C1124  1  0.984020  0.719720  0.335620  1.0  -0.3639
  C  C1125  1  0.023500  0.835500  0.327810  1.0  0.0732
  C  C1126  1  0.013850  0.876110  0.352890  1.0  -0.3499
  C  C1127  1  0.945950  0.755490  0.454110  1.0  0.2947
  C  C1128  1  0.962990  0.718190  0.484690  1.0  -0.2302
  C  C1129  1  0.936000  0.703300  0.522100  1.0  -0.0691
  C  C1130  1  0.890610  0.721910  0.530610  1.0  -0.1178
  C  C1131  1  0.873900  0.758420  0.501180  1.0  -0.1729
  C  C1132  1  0.900950  0.774660  0.461940  1.0  -0.1538
  C  C1133  1  0.054810  0.716220  0.258940  1.0  0.0245
  C  C1134  1  0.018620  0.664320  0.233810  1.0  0.272
  C  C1135  1  0.054830  0.628980  0.240290  1.0  -0.1537
  C  C1136  1  0.014210  0.573910  0.225310  1.0  -0.1004
  C  C1137  1  0.977910  0.607810  0.218110  1.0  -0.1012
  C  C1138  1  0.052680  0.584180  0.235310  1.0  -0.1328
  C  C1139  1  0.979090  0.653790  0.222190  1.0  -0.1631
  C  C1140  1  0.998010  0.799650  0.340520  1.0  -0.0875
  C  C1141  1  0.093950  0.548750  0.242550  1.0  0.6606
  C  C1142  1  0.960620  0.799750  0.380840  1.0  0.003
  C  C1143  1  0.042530  0.493720  0.082840  1.0  -0.0676
  C  C1144  1  0.799510  0.373290  0.161140  1.0  -0.1293
  C  C1145  1  0.802730  0.404620  0.121940  1.0  -0.0803
  C  C1146  1  0.826900  0.781900  0.511500  1.0  0.7242
  C  C1147  1  0.126850  0.094950  0.652320  1.0  -0.121
  C  C1148  1  0.112640  0.068790  0.692510  1.0  -0.0022
  C  C1149  1  0.090520  0.032260  0.692390  1.0  -0.0996
  C  C1150  1  0.083670  0.021170  0.651590  1.0  -0.2015
  C  C1151  1  0.098210  0.046970  0.611070  1.0  0.2532
  C  C1152  1  0.120010  0.083980  0.610850  1.0  -0.1735
  C  C1153  1  0.151180  0.134990  0.651490  1.0  0.6829
  C  C1154  1  0.110190  0.010080  0.469150  1.0  0.0602
  C  C1155  1  0.093760  0.995880  0.433390  1.0  -0.0225
  C  C1156  1  0.049460  0.013450  0.423670  1.0  0.0209
  C  C1157  1  0.021550  0.042580  0.451100  1.0  -0.1024
  C  C1158  1  0.101190  0.060200  0.529610  1.0  0.0685
  C  C1159  1  0.006520  0.090110  0.514930  1.0  -0.3516
  C  C1160  1  0.157110  0.989740  0.481600  1.0  -0.3295
  C  C1161  1  0.032530  0.999770  0.384200  1.0  -0.3651
  C  C1162  1  0.123120  0.961610  0.406230  1.0  0.053
  C  C1163  1  0.038050  0.057800  0.485980  1.0  0.0908
  C  C1164  1  0.184160  0.836630  0.359140  1.0  -0.104
  C  C1165  1  0.166070  0.877950  0.374460  1.0  -0.1416
  C  C1166  1  0.103910  0.843460  0.419690  1.0  -0.1838
  C  C1167  1  0.230220  0.831510  0.332390  1.0  0.6603
  C  C1168  1  0.972090  0.056810  0.445260  1.0  0.0677
  C  C1169  1  0.924280  0.119730  0.409090  1.0  0.2701
  C  C1170  1  0.919990  0.161650  0.381750  1.0  -0.1214
  C  C1171  1  0.877550  0.182850  0.371850  1.0  -0.135
  C  C1172  1  0.839080  0.162450  0.390580  1.0  -0.0644
  C  C1173  1  0.843380  0.121750  0.418310  1.0  -0.0835
  C  C1174  1  0.885730  0.099220  0.427440  1.0  -0.2593
  C  C1175  1  0.873060  0.228390  0.341750  1.0  0.7272
  C  C1176  1  0.285460  0.198270  0.983820  1.0  0.7501
  C  C1177  1  0.270020  0.153140  0.985290  1.0  -0.1137
  C  C1178  1  0.269660  0.137070  0.944660  1.0  -0.2162
  C  C1179  1  0.258390  0.094020  0.946510  1.0  0.2971
  C  C1180  1  0.246290  0.068410  0.987880  1.0  -0.1918
  C  C1181  1  0.246740  0.084340  0.027540  1.0  -0.1137
  C  C1182  1  0.259400  0.126780  0.025960  1.0  -0.0808
  C  C1183  1  0.125730  0.881400  0.404090  1.0  0.285
  C  C1184  1  0.282240  0.092800  0.868050  1.0  0.009
  C  C1185  1  0.291580  0.059460  0.833100  1.0  -0.0649
  C  C1186  1  0.265010  0.065740  0.797380  1.0  0.0725
  C  C1187  1  0.222080  0.100710  0.798140  1.0  -0.3464
  C  C1188  1  0.279080  0.041320  0.760450  1.0  -0.0361
  C  C1189  1  0.317890  0.008160  0.759990  1.0  0.0729
  C  C1190  1  0.335620  0.984020  0.719720  1.0  -0.3628
  C  C1191  1  0.327810  0.023500  0.835500  1.0  0.0719
  C  C1192  1  0.352890  0.013850  0.876110  1.0  -0.3528
  C  C1193  1  0.454110  0.945950  0.755490  1.0  0.2927
  C  C1194  1  0.484690  0.962990  0.718190  1.0  -0.2328
  C  C1195  1  0.522100  0.936000  0.703300  1.0  -0.0692
  C  C1196  1  0.530610  0.890610  0.721910  1.0  -0.1192
  C  C1197  1  0.501180  0.873900  0.758420  1.0  -0.1715
  C  C1198  1  0.461940  0.900950  0.774660  1.0  -0.1544
  C  C1199  1  0.258940  0.054810  0.716220  1.0  0.0276
  C  C1200  1  0.233810  0.018620  0.664320  1.0  0.2719
  C  C1201  1  0.240290  0.054830  0.628980  1.0  -0.1523
  C  C1202  1  0.225310  0.014210  0.573910  1.0  -0.0997
  C  C1203  1  0.218110  0.977910  0.607810  1.0  -0.1
  C  C1204  1  0.235310  0.052680  0.584180  1.0  -0.1312
  C  C1205  1  0.222190  0.979090  0.653790  1.0  -0.1641
  C  C1206  1  0.340520  0.998010  0.799650  1.0  -0.0912
  C  C1207  1  0.242550  0.093950  0.548750  1.0  0.6626
  C  C1208  1  0.380840  0.960620  0.799750  1.0  0.0041
  C  C1209  1  0.082840  0.042530  0.493720  1.0  -0.0655
  C  C1210  1  0.161140  0.799510  0.373290  1.0  -0.1287
  C  C1211  1  0.121940  0.802730  0.404620  1.0  -0.0788
  C  C1212  1  0.511500  0.826900  0.781900  1.0  0.7223
  C  C1213  1  0.652320  0.126850  0.094950  1.0  -0.1183
  C  C1214  1  0.692510  0.112640  0.068790  1.0  0.0014
  C  C1215  1  0.692390  0.090520  0.032260  1.0  -0.1082
  C  C1216  1  0.651590  0.083670  0.021170  1.0  -0.2011
  C  C1217  1  0.611070  0.098210  0.046970  1.0  0.2517
  C  C1218  1  0.610850  0.120010  0.083980  1.0  -0.1735
  C  C1219  1  0.651490  0.151180  0.134990  1.0  0.6855
  C  C1220  1  0.469150  0.110190  0.010080  1.0  0.0588
  C  C1221  1  0.433390  0.093760  0.995880  1.0  -0.0217
  C  C1222  1  0.423670  0.049460  0.013450  1.0  0.0224
  C  C1223  1  0.451100  0.021550  0.042580  1.0  -0.1016
  C  C1224  1  0.529610  0.101190  0.060200  1.0  0.0623
  C  C1225  1  0.514930  0.006520  0.090110  1.0  -0.3555
  C  C1226  1  0.481600  0.157110  0.989740  1.0  -0.3279
  C  C1227  1  0.384200  0.032530  0.999770  1.0  -0.3657
  C  C1228  1  0.406230  0.123120  0.961610  1.0  0.0539
  C  C1229  1  0.485980  0.038050  0.057800  1.0  0.0887
  C  C1230  1  0.359140  0.184160  0.836630  1.0  -0.107
  C  C1231  1  0.374460  0.166070  0.877950  1.0  -0.1459
  C  C1232  1  0.419690  0.103910  0.843460  1.0  -0.1843
  C  C1233  1  0.332390  0.230220  0.831510  1.0  0.6494
  C  C1234  1  0.445260  0.972090  0.056810  1.0  0.0721
  C  C1235  1  0.409090  0.924280  0.119730  1.0  0.2692
  C  C1236  1  0.381750  0.919990  0.161650  1.0  -0.1154
  C  C1237  1  0.371850  0.877550  0.182850  1.0  -0.1429
  C  C1238  1  0.390580  0.839080  0.162450  1.0  -0.0679
  C  C1239  1  0.418310  0.843380  0.121750  1.0  -0.0762
  C  C1240  1  0.427440  0.885730  0.099220  1.0  -0.2575
  C  C1241  1  0.341750  0.873060  0.228390  1.0  0.7287
  C  C1242  1  0.983820  0.285460  0.198270  1.0  0.7543
  C  C1243  1  0.985290  0.270020  0.153140  1.0  -0.1088
  C  C1244  1  0.944660  0.269660  0.137070  1.0  -0.2151
  C  C1245  1  0.946510  0.258390  0.094020  1.0  0.2975
  C  C1246  1  0.987880  0.246290  0.068410  1.0  -0.188
  C  C1247  1  0.027540  0.246740  0.084340  1.0  -0.1168
  C  C1248  1  0.025960  0.259400  0.126780  1.0  -0.0879
  C  C1249  1  0.404090  0.125730  0.881400  1.0  0.2846
  C  C1250  1  0.868050  0.282240  0.092800  1.0  0.0083
  C  C1251  1  0.833100  0.291580  0.059460  1.0  -0.0648
  C  C1252  1  0.797380  0.265010  0.065740  1.0  0.0738
  C  C1253  1  0.798140  0.222080  0.100710  1.0  -0.3439
  C  C1254  1  0.760450  0.279080  0.041320  1.0  -0.037
  C  C1255  1  0.759990  0.317890  0.008160  1.0  0.0717
  C  C1256  1  0.719720  0.335620  0.984020  1.0  -0.3628
  C  C1257  1  0.835500  0.327810  0.023500  1.0  0.071
  C  C1258  1  0.876110  0.352890  0.013850  1.0  -0.3504
  C  C1259  1  0.755490  0.454110  0.945950  1.0  0.2949
  C  C1260  1  0.718190  0.484690  0.962990  1.0  -0.231
  C  C1261  1  0.703300  0.522100  0.936000  1.0  -0.0661
  C  C1262  1  0.721910  0.530610  0.890610  1.0  -0.1181
  C  C1263  1  0.758420  0.501180  0.873900  1.0  -0.1696
  C  C1264  1  0.774660  0.461940  0.900950  1.0  -0.1546
  C  C1265  1  0.716220  0.258940  0.054810  1.0  0.0238
  C  C1266  1  0.664320  0.233810  0.018620  1.0  0.2696
  C  C1267  1  0.628980  0.240290  0.054830  1.0  -0.1515
  C  C1268  1  0.573910  0.225310  0.014210  1.0  -0.1006
  C  C1269  1  0.607810  0.218110  0.977910  1.0  -0.0982
  C  C1270  1  0.584180  0.235310  0.052680  1.0  -0.1342
  C  C1271  1  0.653790  0.222190  0.979090  1.0  -0.162
  C  C1272  1  0.799650  0.340520  0.998010  1.0  -0.0904
  C  C1273  1  0.548750  0.242550  0.093950  1.0  0.6561
  C  C1274  1  0.799750  0.380840  0.960620  1.0  0.0025
  C  C1275  1  0.493720  0.082840  0.042530  1.0  -0.0697
  C  C1276  1  0.373290  0.161140  0.799510  1.0  -0.1304
  C  C1277  1  0.404620  0.121940  0.802730  1.0  -0.0799
  C  C1278  1  0.781900  0.511500  0.826900  1.0  0.722
  C  C1279  1  0.847680  0.405050  0.373150  1.0  -0.12
  C  C1280  1  0.807490  0.431210  0.387360  1.0  0.0005
  C  C1281  1  0.807610  0.467740  0.409480  1.0  -0.1035
  C  C1282  1  0.848410  0.478830  0.416330  1.0  -0.2004
  C  C1283  1  0.888930  0.453030  0.401790  1.0  0.25
  C  C1284  1  0.889150  0.416020  0.379990  1.0  -0.174
  C  C1285  1  0.848510  0.365010  0.348820  1.0  0.6874
  C  C1286  1  0.030850  0.489920  0.389810  1.0  0.0586
  C  C1287  1  0.066610  0.504120  0.406240  1.0  -0.022
  C  C1288  1  0.076330  0.486550  0.450540  1.0  0.0216
  C  C1289  1  0.048900  0.457420  0.478450  1.0  -0.099
  C  C1290  1  0.970390  0.439800  0.398810  1.0  0.0679
  C  C1291  1  0.985070  0.409890  0.493480  1.0  -0.3519
  C  C1292  1  0.018400  0.510260  0.342890  1.0  -0.3316
  C  C1293  1  0.115800  0.500230  0.467470  1.0  -0.3651
  C  C1294  1  0.093770  0.538390  0.376880  1.0  0.0529
  C  C1295  1  0.014020  0.442200  0.461950  1.0  0.0907
  C  C1296  1  0.140860  0.663370  0.315840  1.0  -0.104
  C  C1297  1  0.125540  0.622050  0.333930  1.0  -0.1425
  C  C1298  1  0.080310  0.656540  0.396090  1.0  -0.1844
  C  C1299  1  0.167610  0.668490  0.269780  1.0  0.6465
  C  C1300  1  0.054740  0.443190  0.527910  1.0  0.0682
  C  C1301  1  0.090910  0.380270  0.575720  1.0  0.2717
  C  C1302  1  0.118250  0.338350  0.580010  1.0  -0.1226
  C  C1303  1  0.128150  0.317150  0.622450  1.0  -0.1407
  C  C1304  1  0.109420  0.337550  0.660920  1.0  -0.0658
  C  C1305  1  0.081690  0.378250  0.656620  1.0  -0.0754
  C  C1306  1  0.072560  0.400780  0.614270  1.0  -0.2572
  C  C1307  1  0.158250  0.271610  0.626940  1.0  0.7281
  C  C1308  1  0.516180  0.301730  0.214540  1.0  0.7487
  C  C1309  1  0.514710  0.346860  0.229980  1.0  -0.109
  C  C1310  1  0.555340  0.362930  0.230340  1.0  -0.2175
  C  C1311  1  0.553490  0.405980  0.241610  1.0  0.2994
  C  C1312  1  0.512120  0.431590  0.253710  1.0  -0.1864
  C  C1313  1  0.472460  0.415660  0.253260  1.0  -0.1207
  C  C1314  1  0.474040  0.373220  0.240600  1.0  -0.0824
  C  C1315  1  0.095910  0.618600  0.374270  1.0  0.2847
  C  C1316  1  0.631950  0.407200  0.217760  1.0  0.0086
  C  C1317  1  0.666900  0.440540  0.208420  1.0  -0.0674
  C  C1318  1  0.702620  0.434260  0.234990  1.0  0.0719
  C  C1319  1  0.701860  0.399290  0.277920  1.0  -0.3463
  C  C1320  1  0.739550  0.458680  0.220920  1.0  -0.0384
  C  C1321  1  0.740010  0.491840  0.182110  1.0  0.0736
  C  C1322  1  0.780280  0.515980  0.164380  1.0  -0.3639
  C  C1323  1  0.664500  0.476500  0.172190  1.0  0.0716
  C  C1324  1  0.623890  0.486150  0.147110  1.0  -0.3498
  C  C1325  1  0.744510  0.554050  0.045890  1.0  0.294
  C  C1326  1  0.781810  0.537010  0.015310  1.0  -0.2329
  C  C1327  1  0.796700  0.564000  0.977900  1.0  -0.0705
  C  C1328  1  0.778090  0.609390  0.969390  1.0  -0.1181
  C  C1329  1  0.741580  0.626100  0.998820  1.0  -0.1717
  C  C1330  1  0.725340  0.599050  0.038060  1.0  -0.1543
  C  C1331  1  0.783780  0.445190  0.241060  1.0  0.0214
  C  C1332  1  0.835680  0.481380  0.266190  1.0  0.2716
  C  C1333  1  0.871020  0.445170  0.259710  1.0  -0.1512
  C  C1334  1  0.926090  0.485790  0.274690  1.0  -0.1008
  C  C1335  1  0.892190  0.522090  0.281890  1.0  -0.0963
  C  C1336  1  0.915820  0.447320  0.264690  1.0  -0.1333
  C  C1337  1  0.846210  0.520910  0.277810  1.0  -0.1633
  C  C1338  1  0.700350  0.501990  0.159480  1.0  -0.0883
  C  C1339  1  0.951250  0.406050  0.257450  1.0  0.6579
  C  C1340  1  0.700250  0.539380  0.119160  1.0  0.0045
  C  C1341  1  0.006280  0.457470  0.417160  1.0  -0.0674
  C  C1342  1  0.126710  0.700490  0.338860  1.0  -0.1294
  C  C1343  1  0.095380  0.697270  0.378060  1.0  -0.0794
  C  C1344  1  0.718100  0.673100  0.988500  1.0  0.723
  C  C1345  1  0.405050  0.373150  0.847680  1.0  -0.1187
  C  C1346  1  0.431210  0.387360  0.807490  1.0  -0.0022
  C  C1347  1  0.467740  0.409480  0.807610  1.0  -0.1059
  C  C1348  1  0.478830  0.416330  0.848410  1.0  -0.203
  C  C1349  1  0.453030  0.401790  0.888930  1.0  0.2515
  C  C1350  1  0.416020  0.379990  0.889150  1.0  -0.1724
  C  C1351  1  0.365010  0.348820  0.848510  1.0  0.6838
  C  C1352  1  0.489920  0.389810  0.030850  1.0  0.0589
  C  C1353  1  0.504120  0.406240  0.066610  1.0  -0.0212
  C  C1354  1  0.486550  0.450540  0.076330  1.0  0.0196
  C  C1355  1  0.457420  0.478450  0.048900  1.0  -0.101
  C  C1356  1  0.439800  0.398810  0.970390  1.0  0.0689
  C  C1357  1  0.409890  0.493480  0.985070  1.0  -0.3502
  C  C1358  1  0.510260  0.342890  0.018400  1.0  -0.3309
  C  C1359  1  0.500230  0.467470  0.115800  1.0  -0.3635
  C  C1360  1  0.538390  0.376880  0.093770  1.0  0.051
  C  C1361  1  0.442200  0.461950  0.014020  1.0  0.0922
  C  C1362  1  0.663370  0.315840  0.140860  1.0  -0.1058
  C  C1363  1  0.622050  0.333930  0.125540  1.0  -0.1424
  C  C1364  1  0.656540  0.396090  0.080310  1.0  -0.1807
  C  C1365  1  0.668490  0.269780  0.167610  1.0  0.664
  C  C1366  1  0.443190  0.527910  0.054740  1.0  0.0685
  C  C1367  1  0.380270  0.575720  0.090910  1.0  0.269
  C  C1368  1  0.338350  0.580010  0.118250  1.0  -0.1208
  C  C1369  1  0.317150  0.622450  0.128150  1.0  -0.1331
  C  C1370  1  0.337550  0.660920  0.109420  1.0  -0.0677
  C  C1371  1  0.378250  0.656620  0.081690  1.0  -0.0813
  C  C1372  1  0.400780  0.614270  0.072560  1.0  -0.2631
  C  C1373  1  0.271610  0.626940  0.158250  1.0  0.7286
  C  C1374  1  0.301730  0.214540  0.516180  1.0  0.7513
  C  C1375  1  0.346860  0.229980  0.514710  1.0  -0.1138
  C  C1376  1  0.362930  0.230340  0.555340  1.0  -0.2182
  C  C1377  1  0.405980  0.241610  0.553490  1.0  0.3003
  C  C1378  1  0.431590  0.253710  0.512120  1.0  -0.1866
  C  C1379  1  0.415660  0.253260  0.472460  1.0  -0.113
  C  C1380  1  0.373220  0.240600  0.474040  1.0  -0.0853
  C  C1381  1  0.618600  0.374270  0.095910  1.0  0.2847
  C  C1382  1  0.407200  0.217760  0.631950  1.0  0.0131
  C  C1383  1  0.440540  0.208420  0.666900  1.0  -0.0659
  C  C1384  1  0.434260  0.234990  0.702620  1.0  0.0717
  C  C1385  1  0.399290  0.277920  0.701860  1.0  -0.3454
  C  C1386  1  0.458680  0.220920  0.739550  1.0  -0.0356
  C  C1387  1  0.491840  0.182110  0.740010  1.0  0.0735
  C  C1388  1  0.515980  0.164380  0.780280  1.0  -0.3661
  C  C1389  1  0.476500  0.172190  0.664500  1.0  0.072
  C  C1390  1  0.486150  0.147110  0.623890  1.0  -0.3517
  C  C1391  1  0.554050  0.045890  0.744510  1.0  0.2926
  C  C1392  1  0.537010  0.015310  0.781810  1.0  -0.2349
  C  C1393  1  0.564000  0.977900  0.796700  1.0  -0.069
  C  C1394  1  0.609390  0.969390  0.778090  1.0  -0.1197
  C  C1395  1  0.626100  0.998820  0.741580  1.0  -0.1686
  C  C1396  1  0.599050  0.038060  0.725340  1.0  -0.1552
  C  C1397  1  0.445190  0.241060  0.783780  1.0  0.025
  C  C1398  1  0.481380  0.266190  0.835680  1.0  0.2737
  C  C1399  1  0.445170  0.259710  0.871020  1.0  -0.1527
  C  C1400  1  0.485790  0.274690  0.926090  1.0  -0.1044
  C  C1401  1  0.522090  0.281890  0.892190  1.0  -0.0979
  C  C1402  1  0.447320  0.264690  0.915820  1.0  -0.1326
  C  C1403  1  0.520910  0.277810  0.846210  1.0  -0.162
  C  C1404  1  0.501990  0.159480  0.700350  1.0  -0.0905
  C  C1405  1  0.406050  0.257450  0.951250  1.0  0.6586
  C  C1406  1  0.539380  0.119160  0.700250  1.0  0.0024
  C  C1407  1  0.457470  0.417160  0.006280  1.0  -0.0654
  C  C1408  1  0.700490  0.338860  0.126710  1.0  -0.1291
  C  C1409  1  0.697270  0.378060  0.095380  1.0  -0.0782
  C  C1410  1  0.673100  0.988500  0.718100  1.0  0.7255
  C  C1411  1  0.373150  0.847680  0.405050  1.0  -0.117
  C  C1412  1  0.387360  0.807490  0.431210  1.0  -0.0078
  C  C1413  1  0.409480  0.807610  0.467740  1.0  -0.1057
  C  C1414  1  0.416330  0.848410  0.478830  1.0  -0.1975
  C  C1415  1  0.401790  0.888930  0.453030  1.0  0.252
  C  C1416  1  0.379990  0.889150  0.416020  1.0  -0.1738
  C  C1417  1  0.348820  0.848510  0.365010  1.0  0.6843
  C  C1418  1  0.389810  0.030850  0.489920  1.0  0.0565
  C  C1419  1  0.406240  0.066610  0.504120  1.0  -0.0216
  C  C1420  1  0.450540  0.076330  0.486550  1.0  0.0226
  C  C1421  1  0.478450  0.048900  0.457420  1.0  -0.1028
  C  C1422  1  0.398810  0.970390  0.439800  1.0  0.0628
  C  C1423  1  0.493480  0.985070  0.409890  1.0  -0.3538
  C  C1424  1  0.342890  0.018400  0.510260  1.0  -0.3296
  C  C1425  1  0.467470  0.115800  0.500230  1.0  -0.3621
  C  C1426  1  0.376880  0.093770  0.538390  1.0  0.0534
  C  C1427  1  0.461950  0.014020  0.442200  1.0  0.0886
  C  C1428  1  0.315840  0.140860  0.663370  1.0  -0.1063
  C  C1429  1  0.333930  0.125540  0.622050  1.0  -0.1435
  C  C1430  1  0.396090  0.080310  0.656540  1.0  -0.1844
  C  C1431  1  0.269780  0.167610  0.668490  1.0  0.6537
  C  C1432  1  0.527910  0.054740  0.443190  1.0  0.0696
  C  C1433  1  0.575720  0.090910  0.380270  1.0  0.2687
  C  C1434  1  0.580010  0.118250  0.338350  1.0  -0.1192
  C  C1435  1  0.622450  0.128150  0.317150  1.0  -0.1424
  C  C1436  1  0.660920  0.109420  0.337550  1.0  -0.0671
  C  C1437  1  0.656620  0.081690  0.378250  1.0  -0.0791
  C  C1438  1  0.614270  0.072560  0.400780  1.0  -0.2597
  C  C1439  1  0.626940  0.158250  0.271610  1.0  0.7314
  C  C1440  1  0.214540  0.516180  0.301730  1.0  0.754
  C  C1441  1  0.229980  0.514710  0.346860  1.0  -0.1094
  C  C1442  1  0.230340  0.555340  0.362930  1.0  -0.2137
  C  C1443  1  0.241610  0.553490  0.405980  1.0  0.2962
  C  C1444  1  0.253710  0.512120  0.431590  1.0  -0.1912
  C  C1445  1  0.253260  0.472460  0.415660  1.0  -0.1112
  C  C1446  1  0.240600  0.474040  0.373220  1.0  -0.083
  C  C1447  1  0.374270  0.095910  0.618600  1.0  0.2857
  C  C1448  1  0.217760  0.631950  0.407200  1.0  0.0071
  C  C1449  1  0.208420  0.666900  0.440540  1.0  -0.0642
  C  C1450  1  0.234990  0.702620  0.434260  1.0  0.074
  C  C1451  1  0.277920  0.701860  0.399290  1.0  -0.3459
  C  C1452  1  0.220920  0.739550  0.458680  1.0  -0.0368
  C  C1453  1  0.182110  0.740010  0.491840  1.0  0.0717
  C  C1454  1  0.164380  0.780280  0.515980  1.0  -0.3635
  C  C1455  1  0.172190  0.664500  0.476500  1.0  0.0718
  C  C1456  1  0.147110  0.623890  0.486150  1.0  -0.3505
  C  C1457  1  0.045890  0.744510  0.554050  1.0  0.2946
  C  C1458  1  0.015310  0.781810  0.537010  1.0  -0.2327
  C  C1459  1  0.977900  0.796700  0.564000  1.0  -0.0678
  C  C1460  1  0.969390  0.778090  0.609390  1.0  -0.1207
  C  C1461  1  0.998820  0.741580  0.626100  1.0  -0.1744
  C  C1462  1  0.038060  0.725340  0.599050  1.0  -0.1537
  C  C1463  1  0.241060  0.783780  0.445190  1.0  0.0265
  C  C1464  1  0.266190  0.835680  0.481380  1.0  0.2746
  C  C1465  1  0.259710  0.871020  0.445170  1.0  -0.1533
  C  C1466  1  0.274690  0.926090  0.485790  1.0  -0.0979
  C  C1467  1  0.281890  0.892190  0.522090  1.0  -0.096
  C  C1468  1  0.264690  0.915820  0.447320  1.0  -0.1321
  C  C1469  1  0.277810  0.846210  0.520910  1.0  -0.1599
  C  C1470  1  0.159480  0.700350  0.501990  1.0  -0.0911
  C  C1471  1  0.257450  0.951250  0.406050  1.0  0.6619
  C  C1472  1  0.119160  0.700250  0.539380  1.0  0.0006
  C  C1473  1  0.417160  0.006280  0.457470  1.0  -0.0692
  C  C1474  1  0.338860  0.126710  0.700490  1.0  -0.1315
  C  C1475  1  0.378060  0.095380  0.697270  1.0  -0.0818
  C  C1476  1  0.988500  0.718100  0.673100  1.0  0.7194
  O  O1477  1  0.871670  0.440340  0.745620  1.0  -0.6987
  O  O1478  1  0.908060  0.489730  0.765140  1.0  -0.5737
  O  O1479  1  0.981610  0.291720  0.762040  1.0  -0.2675
  O  O1480  1  0.023160  0.230840  0.582080  1.0  -0.2541
  O  O1481  1  0.189420  0.194460  0.519790  1.0  -0.6333
  O  O1482  1  0.842800  0.386270  0.837020  1.0  -0.5916
  O  O1483  1  0.856860  0.310490  0.842520  1.0  -0.5864
  O  O1484  1  0.925760  0.091420  0.741950  1.0  -0.2691
  O  O1485  1  0.771630  0.049090  0.721810  1.0  -0.6308
  O  O1486  1  0.797690  0.984100  0.694680  1.0  -0.6096
  O  O1487  1  0.966630  0.427230  0.911120  1.0  -0.2594
  O  O1488  1  0.080720  0.577750  0.894940  1.0  -0.2825
  O  O1489  1  0.899490  0.583500  0.032380  1.0  -0.275
  O  O1490  1  0.753090  0.661830  0.167680  1.0  -0.6491
  O  O1491  1  0.755350  0.677300  0.091870  1.0  -0.6301
  O  O1492  1  0.136460  0.677370  0.748280  1.0  -0.6865
  O  O1493  1  0.207050  0.677400  0.750740  1.0  -0.6062
  O  O1494  1  0.195870  0.223590  0.450850  1.0  -0.5518
  O  O1495  1  0.745620  0.871670  0.440340  1.0  -0.6988
  O  O1496  1  0.765140  0.908060  0.489730  1.0  -0.5704
  O  O1497  1  0.762040  0.981610  0.291720  1.0  -0.2692
  O  O1498  1  0.582080  0.023160  0.230840  1.0  -0.256
  O  O1499  1  0.519790  0.189420  0.194460  1.0  -0.6293
  O  O1500  1  0.837020  0.842800  0.386270  1.0  -0.5922
  O  O1501  1  0.842520  0.856860  0.310490  1.0  -0.5909
  O  O1502  1  0.741950  0.925760  0.091420  1.0  -0.2706
  O  O1503  1  0.721810  0.771630  0.049090  1.0  -0.634
  O  O1504  1  0.694680  0.797690  0.984100  1.0  -0.6099
  O  O1505  1  0.911120  0.966630  0.427230  1.0  -0.2573
  O  O1506  1  0.894940  0.080720  0.577750  1.0  -0.2834
  O  O1507  1  0.032380  0.899490  0.583500  1.0  -0.275
  O  O1508  1  0.167680  0.753090  0.661830  1.0  -0.6484
  O  O1509  1  0.091870  0.755350  0.677300  1.0  -0.6271
  O  O1510  1  0.748280  0.136460  0.677370  1.0  -0.6842
  O  O1511  1  0.750740  0.207050  0.677400  1.0  -0.6077
  O  O1512  1  0.450850  0.195870  0.223590  1.0  -0.5436
  O  O1513  1  0.440340  0.745620  0.871670  1.0  -0.6974
  O  O1514  1  0.489730  0.765140  0.908060  1.0  -0.5719
  O  O1515  1  0.291720  0.762040  0.981610  1.0  -0.2704
  O  O1516  1  0.230840  0.582080  0.023160  1.0  -0.2516
  O  O1517  1  0.194460  0.519790  0.189420  1.0  -0.6322
  O  O1518  1  0.386270  0.837020  0.842800  1.0  -0.5902
  O  O1519  1  0.310490  0.842520  0.856860  1.0  -0.5861
  O  O1520  1  0.091420  0.741950  0.925760  1.0  -0.2675
  O  O1521  1  0.049090  0.721810  0.771630  1.0  -0.6326
  O  O1522  1  0.984100  0.694680  0.797690  1.0  -0.6063
  O  O1523  1  0.427230  0.911120  0.966630  1.0  -0.2545
  O  O1524  1  0.577750  0.894940  0.080720  1.0  -0.2813
  O  O1525  1  0.583500  0.032380  0.899490  1.0  -0.2726
  O  O1526  1  0.661830  0.167680  0.753090  1.0  -0.6501
  O  O1527  1  0.677300  0.091870  0.755350  1.0  -0.6305
  O  O1528  1  0.677370  0.748280  0.136460  1.0  -0.6844
  O  O1529  1  0.677400  0.750740  0.207050  1.0  -0.6051
  O  O1530  1  0.223590  0.450850  0.195870  1.0  -0.5427
  O  O1531  1  0.059660  0.628330  0.754380  1.0  -0.7013
  O  O1532  1  0.010270  0.591940  0.734860  1.0  -0.5728
  O  O1533  1  0.208280  0.518390  0.737960  1.0  -0.266
  O  O1534  1  0.269160  0.476840  0.917920  1.0  -0.2526
  O  O1535  1  0.305540  0.310580  0.980210  1.0  -0.6327
  O  O1536  1  0.113730  0.657200  0.662980  1.0  -0.591
  O  O1537  1  0.189510  0.643140  0.657480  1.0  -0.5857
  O  O1538  1  0.408580  0.574240  0.758050  1.0  -0.2711
  O  O1539  1  0.450910  0.728370  0.778190  1.0  -0.6318
  O  O1540  1  0.515900  0.702310  0.805320  1.0  -0.6038
  O  O1541  1  0.072770  0.533370  0.588880  1.0  -0.2574
  O  O1542  1  0.922250  0.419280  0.605060  1.0  -0.2841
  O  O1543  1  0.916500  0.600510  0.467620  1.0  -0.275
  O  O1544  1  0.838170  0.746910  0.332320  1.0  -0.65
  O  O1545  1  0.822700  0.744650  0.408130  1.0  -0.6293
  O  O1546  1  0.822630  0.363540  0.751720  1.0  -0.6869
  O  O1547  1  0.822600  0.292950  0.749260  1.0  -0.6015
  O  O1548  1  0.276410  0.304130  0.049150  1.0  -0.5501
  O  O1549  1  0.628330  0.754380  0.059660  1.0  -0.6976
  O  O1550  1  0.591940  0.734860  0.010270  1.0  -0.575
  O  O1551  1  0.518390  0.737960  0.208280  1.0  -0.2708
  O  O1552  1  0.476840  0.917920  0.269160  1.0  -0.2543
  O  O1553  1  0.310580  0.980210  0.305540  1.0  -0.6305
  O  O1554  1  0.657200  0.662980  0.113730  1.0  -0.5904
  O  O1555  1  0.643140  0.657480  0.189510  1.0  -0.5891
  O  O1556  1  0.574240  0.758050  0.408580  1.0  -0.2697
  O  O1557  1  0.728370  0.778190  0.450910  1.0  -0.6321
  O  O1558  1  0.702310  0.805320  0.515900  1.0  -0.6079
  O  O1559  1  0.533370  0.588880  0.072770  1.0  -0.2575
  O  O1560  1  0.419280  0.605060  0.922250  1.0  -0.2824
  O  O1561  1  0.600510  0.467620  0.916500  1.0  -0.2736
  O  O1562  1  0.746910  0.332320  0.838170  1.0  -0.6551
  O  O1563  1  0.744650  0.408130  0.822700  1.0  -0.6333
  O  O1564  1  0.363540  0.751720  0.822630  1.0  -0.6863
  O  O1565  1  0.292950  0.749260  0.822600  1.0  -0.6036
  O  O1566  1  0.304130  0.049150  0.276410  1.0  -0.5414
  O  O1567  1  0.754380  0.059660  0.628330  1.0  -0.6987
  O  O1568  1  0.734860  0.010270  0.591940  1.0  -0.5725
  O  O1569  1  0.737960  0.208280  0.518390  1.0  -0.2684
  O  O1570  1  0.917920  0.269160  0.476840  1.0  -0.2499
  O  O1571  1  0.980210  0.305540  0.310580  1.0  -0.6298
  O  O1572  1  0.662980  0.113730  0.657200  1.0  -0.5915
  O  O1573  1  0.657480  0.189510  0.643140  1.0  -0.5869
  O  O1574  1  0.758050  0.408580  0.574240  1.0  -0.2669
  O  O1575  1  0.778190  0.450910  0.728370  1.0  -0.6354
  O  O1576  1  0.805320  0.515900  0.702310  1.0  -0.6092
  O  O1577  1  0.588880  0.072770  0.533370  1.0  -0.2555
  O  O1578  1  0.605060  0.922250  0.419280  1.0  -0.283
  O  O1579  1  0.467620  0.916500  0.600510  1.0  -0.2749
  O  O1580  1  0.332320  0.838170  0.746910  1.0  -0.6457
  O  O1581  1  0.408130  0.822700  0.744650  1.0  -0.6284
  O  O1582  1  0.751720  0.822630  0.363540  1.0  -0.6853
  O  O1583  1  0.749260  0.822600  0.292950  1.0  -0.6035
  O  O1584  1  0.049150  0.276410  0.304130  1.0  -0.543
  O  O1585  1  0.128330  0.559660  0.254380  1.0  -0.6986
  O  O1586  1  0.091940  0.510270  0.234860  1.0  -0.5751
  O  O1587  1  0.018390  0.708280  0.237960  1.0  -0.267
  O  O1588  1  0.976840  0.769160  0.417920  1.0  -0.2525
  O  O1589  1  0.810580  0.805540  0.480210  1.0  -0.6324
  O  O1590  1  0.157200  0.613730  0.162980  1.0  -0.5913
  O  O1591  1  0.143140  0.689510  0.157480  1.0  -0.5873
  O  O1592  1  0.074240  0.908580  0.258050  1.0  -0.2697
  O  O1593  1  0.228370  0.950910  0.278190  1.0  -0.6318
  O  O1594  1  0.202310  0.015900  0.305320  1.0  -0.6085
  O  O1595  1  0.033370  0.572770  0.088880  1.0  -0.2584
  O  O1596  1  0.919280  0.422250  0.105060  1.0  -0.2827
  O  O1597  1  0.100510  0.416500  0.967620  1.0  -0.2739
  O  O1598  1  0.246910  0.338170  0.832320  1.0  -0.6518
  O  O1599  1  0.244650  0.322700  0.908130  1.0  -0.6318
  O  O1600  1  0.863540  0.322630  0.251720  1.0  -0.6838
  O  O1601  1  0.792950  0.322600  0.249260  1.0  -0.6047
  O  O1602  1  0.804130  0.776410  0.549150  1.0  -0.5488
  O  O1603  1  0.254380  0.128330  0.559660  1.0  -0.6994
  O  O1604  1  0.234860  0.091940  0.510270  1.0  -0.573
  O  O1605  1  0.237960  0.018390  0.708280  1.0  -0.2688
  O  O1606  1  0.417920  0.976840  0.769160  1.0  -0.2539
  O  O1607  1  0.480210  0.810580  0.805540  1.0  -0.6306
  O  O1608  1  0.162980  0.157200  0.613730  1.0  -0.5911
  O  O1609  1  0.157480  0.143140  0.689510  1.0  -0.5894
  O  O1610  1  0.258050  0.074240  0.908580  1.0  -0.2697
  O  O1611  1  0.278190  0.228370  0.950910  1.0  -0.6364
  O  O1612  1  0.305320  0.202310  0.015900  1.0  -0.6112
  O  O1613  1  0.088880  0.033370  0.572770  1.0  -0.2574
  O  O1614  1  0.105060  0.919280  0.422250  1.0  -0.2841
  O  O1615  1  0.967620  0.100510  0.416500  1.0  -0.2746
  O  O1616  1  0.832320  0.246910  0.338170  1.0  -0.6477
  O  O1617  1  0.908130  0.244650  0.322700  1.0  -0.6282
  O  O1618  1  0.251720  0.863540  0.322630  1.0  -0.6861
  O  O1619  1  0.249260  0.792950  0.322600  1.0  -0.6053
  O  O1620  1  0.549150  0.804130  0.776410  1.0  -0.5397
  O  O1621  1  0.559660  0.254380  0.128330  1.0  -0.6966
  O  O1622  1  0.510270  0.234860  0.091940  1.0  -0.5734
  O  O1623  1  0.708280  0.237960  0.018390  1.0  -0.2688
  O  O1624  1  0.769160  0.417920  0.976840  1.0  -0.2503
  O  O1625  1  0.805540  0.480210  0.810580  1.0  -0.6311
  O  O1626  1  0.613730  0.162980  0.157200  1.0  -0.5901
  O  O1627  1  0.689510  0.157480  0.143140  1.0  -0.5875
  O  O1628  1  0.908580  0.258050  0.074240  1.0  -0.2667
  O  O1629  1  0.950910  0.278190  0.228370  1.0  -0.6331
  O  O1630  1  0.015900  0.305320  0.202310  1.0  -0.606
  O  O1631  1  0.572770  0.088880  0.033370  1.0  -0.254
  O  O1632  1  0.422250  0.105060  0.919280  1.0  -0.2822
  O  O1633  1  0.416500  0.967620  0.100510  1.0  -0.2748
  O  O1634  1  0.338170  0.832320  0.246910  1.0  -0.6508
  O  O1635  1  0.322700  0.908130  0.244650  1.0  -0.632
  O  O1636  1  0.322630  0.251720  0.863540  1.0  -0.6889
  O  O1637  1  0.322600  0.249260  0.792950  1.0  -0.6033
  O  O1638  1  0.776410  0.549150  0.804130  1.0  -0.5442
  O  O1639  1  0.940340  0.371670  0.245620  1.0  -0.6992
  O  O1640  1  0.989730  0.408060  0.265140  1.0  -0.5733
  O  O1641  1  0.791720  0.481610  0.262040  1.0  -0.271
  O  O1642  1  0.730840  0.523160  0.082080  1.0  -0.2549
  O  O1643  1  0.694460  0.689420  0.019790  1.0  -0.634
  O  O1644  1  0.886270  0.342800  0.337020  1.0  -0.5915
  O  O1645  1  0.810490  0.356860  0.342520  1.0  -0.5868
  O  O1646  1  0.591420  0.425760  0.241950  1.0  -0.2696
  O  O1647  1  0.549090  0.271630  0.221810  1.0  -0.6302
  O  O1648  1  0.484100  0.297690  0.194680  1.0  -0.6059
  O  O1649  1  0.927230  0.466630  0.411120  1.0  -0.2572
  O  O1650  1  0.077750  0.580720  0.394940  1.0  -0.2841
  O  O1651  1  0.083500  0.399490  0.532380  1.0  -0.2742
  O  O1652  1  0.161830  0.253090  0.667680  1.0  -0.6483
  O  O1653  1  0.177300  0.255350  0.591870  1.0  -0.6282
  O  O1654  1  0.177370  0.636460  0.248280  1.0  -0.6837
  O  O1655  1  0.177400  0.707050  0.250740  1.0  -0.6036
  O  O1656  1  0.723590  0.695870  0.950850  1.0  -0.5528
  O  O1657  1  0.371670  0.245620  0.940340  1.0  -0.6984
  O  O1658  1  0.408060  0.265140  0.989730  1.0  -0.5737
  O  O1659  1  0.481610  0.262040  0.791720  1.0  -0.2698
  O  O1660  1  0.523160  0.082080  0.730840  1.0  -0.2548
  O  O1661  1  0.689420  0.019790  0.694460  1.0  -0.6323
  O  O1662  1  0.342800  0.337020  0.886270  1.0  -0.5909
  O  O1663  1  0.356860  0.342520  0.810490  1.0  -0.5898
  O  O1664  1  0.425760  0.241950  0.591420  1.0  -0.2712
  O  O1665  1  0.271630  0.221810  0.549090  1.0  -0.6321
  O  O1666  1  0.297690  0.194680  0.484100  1.0  -0.6084
  O  O1667  1  0.466630  0.411120  0.927230  1.0  -0.2581
  O  O1668  1  0.580720  0.394940  0.077750  1.0  -0.2816
  O  O1669  1  0.399490  0.532380  0.083500  1.0  -0.2727
  O  O1670  1  0.253090  0.667680  0.161830  1.0  -0.6537
  O  O1671  1  0.255350  0.591870  0.177300  1.0  -0.632
  O  O1672  1  0.636460  0.248280  0.177370  1.0  -0.6847
  O  O1673  1  0.707050  0.250740  0.177400  1.0  -0.6066
  O  O1674  1  0.695870  0.950850  0.723590  1.0  -0.5414
  O  O1675  1  0.245620  0.940340  0.371670  1.0  -0.6982
  O  O1676  1  0.265140  0.989730  0.408060  1.0  -0.5721
  O  O1677  1  0.262040  0.791720  0.481610  1.0  -0.268
  O  O1678  1  0.082080  0.730840  0.523160  1.0  -0.2513
  O  O1679  1  0.019790  0.694460  0.689420  1.0  -0.6286
  O  O1680  1  0.337020  0.886270  0.342800  1.0  -0.59
  O  O1681  1  0.342520  0.810490  0.356860  1.0  -0.587
  O  O1682  1  0.241950  0.591420  0.425760  1.0  -0.2665
  O  O1683  1  0.221810  0.549090  0.271630  1.0  -0.6331
  O  O1684  1  0.194680  0.484100  0.297690  1.0  -0.61
  O  O1685  1  0.411120  0.927230  0.466630  1.0  -0.2566
  O  O1686  1  0.394940  0.077750  0.580720  1.0  -0.2811
  O  O1687  1  0.532380  0.083500  0.399490  1.0  -0.2737
  O  O1688  1  0.667680  0.161830  0.253090  1.0  -0.6456
  O  O1689  1  0.591870  0.177300  0.255350  1.0  -0.6265
  O  O1690  1  0.248280  0.177370  0.636460  1.0  -0.6885
  O  O1691  1  0.250740  0.177400  0.707050  1.0  -0.6033
  O  O1692  1  0.950850  0.723590  0.695870  1.0  -0.5447
