# generated using pymatgen
data_ZnH22C27N5O4
_symmetry_space_group_name_H-M   'P 1'
_cell_length_a   27.65710000
_cell_length_b   27.65710000
_cell_length_c   27.65710000
_cell_angle_alpha   90.00000000
_cell_angle_beta   90.00000000
_cell_angle_gamma   90.00000000
_symmetry_Int_Tables_number   1
_chemical_formula_structural   ZnH22C27N5O4
_chemical_formula_sum   'Zn12 H264 C324 N60 O48'
_cell_volume   21155.33563612
_cell_formula_units_Z   12
loop_
 _symmetry_equiv_pos_site_id
 _symmetry_equiv_pos_as_xyz
  1  'x, y, z'
loop_
 _atom_site_type_symbol
 _atom_site_label
 _atom_site_symmetry_multiplicity
 _atom_site_fract_x
 _atom_site_fract_y
 _atom_site_fract_z
 _atom_site_occupancy
 _atom_site_charge
  Zn  Zn1  1  0.000000  0.698170  0.500000  1.0  0.8982
  Zn  Zn2  1  0.000000  0.301830  0.500000  1.0  0.897
  Zn  Zn3  1  0.500000  0.000000  0.698170  1.0  0.9
  Zn  Zn4  1  0.500000  0.000000  0.301830  1.0  0.8997
  Zn  Zn5  1  0.698170  0.500000  0.000000  1.0  0.8943
  Zn  Zn6  1  0.301830  0.500000  0.000000  1.0  0.8947
  Zn  Zn7  1  0.198170  0.500000  0.000000  1.0  0.8943
  Zn  Zn8  1  0.801830  0.500000  0.000000  1.0  0.8947
  Zn  Zn9  1  0.500000  0.000000  0.198170  1.0  0.9
  Zn  Zn10  1  0.500000  0.000000  0.801830  1.0  0.8997
  Zn  Zn11  1  0.000000  0.198170  0.500000  1.0  0.8982
  Zn  Zn12  1  0.000000  0.801830  0.500000  1.0  0.897
  H  H13  1  0.114500  0.674100  0.617500  1.0  0.0988
  H  H14  1  0.173800  0.680600  0.676500  1.0  0.1086
  H  H15  1  0.163900  0.825400  0.670400  1.0  0.1034
  H  H16  1  0.104700  0.818900  0.611400  1.0  0.1041
  H  H17  1  0.188700  0.693900  0.751400  1.0  0.1184
  H  H18  1  0.062100  0.621600  0.533700  1.0  0.0773
  H  H19  1  0.073700  0.492300  0.539900  1.0  0.1771
  H  H20  1  0.100100  0.536700  0.555400  1.0  0.337
  H  H21  1  0.983200  0.619900  0.568600  1.0  0.0826
  H  H22  1  0.975700  0.506000  0.599700  1.0  0.0896
  H  H23  1  0.971400  0.557600  0.614400  1.0  0.3145
  H  H24  1  0.885500  0.325900  0.617500  1.0  0.0989
  H  H25  1  0.826200  0.319400  0.676500  1.0  0.1086
  H  H26  1  0.836100  0.174600  0.670400  1.0  0.1031
  H  H27  1  0.895300  0.181100  0.611400  1.0  0.1046
  H  H28  1  0.811300  0.306100  0.751400  1.0  0.1175
  H  H29  1  0.937900  0.378400  0.533700  1.0  0.0787
  H  H30  1  0.926300  0.507700  0.539900  1.0  0.1777
  H  H31  1  0.899900  0.463300  0.555400  1.0  0.3353
  H  H32  1  0.016800  0.380100  0.568600  1.0  0.0842
  H  H33  1  0.024300  0.494000  0.599700  1.0  0.0871
  H  H34  1  0.028600  0.442400  0.614400  1.0  0.3134
  H  H35  1  0.885500  0.674100  0.382500  1.0  0.0982
  H  H36  1  0.826200  0.680600  0.323500  1.0  0.1085
  H  H37  1  0.836100  0.825400  0.329600  1.0  0.1039
  H  H38  1  0.895300  0.818900  0.388600  1.0  0.1034
  H  H39  1  0.811300  0.693900  0.248600  1.0  0.1181
  H  H40  1  0.937900  0.621600  0.466300  1.0  0.0782
  H  H41  1  0.926300  0.492300  0.460100  1.0  0.1781
  H  H42  1  0.899900  0.536700  0.444600  1.0  0.3351
  H  H43  1  0.016800  0.619900  0.431400  1.0  0.0837
  H  H44  1  0.024300  0.506000  0.400300  1.0  0.0893
  H  H45  1  0.028600  0.557600  0.385600  1.0  0.3137
  H  H46  1  0.114500  0.325900  0.382500  1.0  0.0982
  H  H47  1  0.173800  0.319400  0.323500  1.0  0.1088
  H  H48  1  0.163900  0.174600  0.329600  1.0  0.1031
  H  H49  1  0.104700  0.181100  0.388600  1.0  0.1032
  H  H50  1  0.188700  0.306100  0.248600  1.0  0.118
  H  H51  1  0.062100  0.378400  0.466300  1.0  0.0787
  H  H52  1  0.073700  0.507700  0.460100  1.0  0.1777
  H  H53  1  0.100100  0.463300  0.444600  1.0  0.3365
  H  H54  1  0.983200  0.380100  0.431400  1.0  0.0842
  H  H55  1  0.975700  0.494000  0.400300  1.0  0.0908
  H  H56  1  0.971400  0.442400  0.385600  1.0  0.3116
  H  H57  1  0.617500  0.114500  0.674100  1.0  0.0978
  H  H58  1  0.676500  0.173800  0.680600  1.0  0.1085
  H  H59  1  0.670400  0.163900  0.825400  1.0  0.1038
  H  H60  1  0.611400  0.104700  0.818900  1.0  0.1042
  H  H61  1  0.751400  0.188700  0.693900  1.0  0.1162
  H  H62  1  0.533700  0.062100  0.621600  1.0  0.075
  H  H63  1  0.539900  0.073700  0.492300  1.0  0.1769
  H  H64  1  0.555400  0.100100  0.536700  1.0  0.3377
  H  H65  1  0.568600  0.983200  0.619900  1.0  0.0828
  H  H66  1  0.599700  0.975700  0.506000  1.0  0.0837
  H  H67  1  0.614400  0.971400  0.557600  1.0  0.3185
  H  H68  1  0.617500  0.885500  0.325900  1.0  0.098
  H  H69  1  0.676500  0.826200  0.319400  1.0  0.1099
  H  H70  1  0.670400  0.836100  0.174600  1.0  0.1033
  H  H71  1  0.611400  0.895300  0.181100  1.0  0.1047
  H  H72  1  0.751400  0.811300  0.306100  1.0  0.1158
  H  H73  1  0.533700  0.937900  0.378400  1.0  0.0757
  H  H74  1  0.539900  0.926300  0.507700  1.0  0.1765
  H  H75  1  0.555400  0.899900  0.463300  1.0  0.3368
  H  H76  1  0.568600  0.016800  0.380100  1.0  0.0838
  H  H77  1  0.599700  0.024300  0.494000  1.0  0.0817
  H  H78  1  0.614400  0.028600  0.442400  1.0  0.3194
  H  H79  1  0.382500  0.885500  0.674100  1.0  0.0979
  H  H80  1  0.323500  0.826200  0.680600  1.0  0.109
  H  H81  1  0.329600  0.836100  0.825400  1.0  0.1037
  H  H82  1  0.388600  0.895300  0.818900  1.0  0.1048
  H  H83  1  0.248600  0.811300  0.693900  1.0  0.1154
  H  H84  1  0.466300  0.937900  0.621600  1.0  0.0778
  H  H85  1  0.460100  0.926300  0.492300  1.0  0.1762
  H  H86  1  0.444600  0.899900  0.536700  1.0  0.3389
  H  H87  1  0.431400  0.016800  0.619900  1.0  0.0826
  H  H88  1  0.400300  0.024300  0.506000  1.0  0.0847
  H  H89  1  0.385600  0.028600  0.557600  1.0  0.3159
  H  H90  1  0.382500  0.114500  0.325900  1.0  0.0979
  H  H91  1  0.323500  0.173800  0.319400  1.0  0.1101
  H  H92  1  0.329600  0.163900  0.174600  1.0  0.1037
  H  H93  1  0.388600  0.104700  0.181100  1.0  0.1055
  H  H94  1  0.248600  0.188700  0.306100  1.0  0.1167
  H  H95  1  0.466300  0.062100  0.378400  1.0  0.0777
  H  H96  1  0.460100  0.073700  0.507700  1.0  0.1764
  H  H97  1  0.444600  0.100100  0.463300  1.0  0.3382
  H  H98  1  0.431400  0.983200  0.380100  1.0  0.0839
  H  H99  1  0.400300  0.975700  0.494000  1.0  0.0835
  H  H100  1  0.385600  0.971400  0.442400  1.0  0.3136
  H  H101  1  0.674100  0.617500  0.114500  1.0  0.0993
  H  H102  1  0.680600  0.676500  0.173800  1.0  0.1084
  H  H103  1  0.825400  0.670400  0.163900  1.0  0.1038
  H  H104  1  0.818900  0.611400  0.104700  1.0  0.1042
  H  H105  1  0.693900  0.751400  0.188700  1.0  0.1181
  H  H106  1  0.621600  0.533700  0.062100  1.0  0.0713
  H  H107  1  0.492300  0.539900  0.073700  1.0  0.1729
  H  H108  1  0.536700  0.555400  0.100100  1.0  0.3358
  H  H109  1  0.619900  0.568600  0.983200  1.0  0.0837
  H  H110  1  0.506000  0.599700  0.975700  1.0  0.0911
  H  H111  1  0.557600  0.614400  0.971400  1.0  0.3138
  H  H112  1  0.325900  0.617500  0.885500  1.0  0.0985
  H  H113  1  0.319400  0.676500  0.826200  1.0  0.1079
  H  H114  1  0.174600  0.670400  0.836100  1.0  0.1036
  H  H115  1  0.181100  0.611400  0.895300  1.0  0.1034
  H  H116  1  0.306100  0.751400  0.811300  1.0  0.1174
  H  H117  1  0.378400  0.533700  0.937900  1.0  0.0724
  H  H118  1  0.507700  0.539900  0.926300  1.0  0.1776
  H  H119  1  0.463300  0.555400  0.899900  1.0  0.3358
  H  H120  1  0.380100  0.568600  0.016800  1.0  0.0851
  H  H121  1  0.494000  0.599700  0.024300  1.0  0.0848
  H  H122  1  0.442400  0.614400  0.028600  1.0  0.3134
  H  H123  1  0.674100  0.382500  0.885500  1.0  0.0984
  H  H124  1  0.680600  0.323500  0.826200  1.0  0.1085
  H  H125  1  0.825400  0.329600  0.836100  1.0  0.104
  H  H126  1  0.818900  0.388600  0.895300  1.0  0.1036
  H  H127  1  0.693900  0.248600  0.811300  1.0  0.1186
  H  H128  1  0.621600  0.466300  0.937900  1.0  0.0739
  H  H129  1  0.492300  0.460100  0.926300  1.0  0.1757
  H  H130  1  0.536700  0.444600  0.899900  1.0  0.3363
  H  H131  1  0.619900  0.431400  0.016800  1.0  0.0857
  H  H132  1  0.506000  0.400300  0.024300  1.0  0.0878
  H  H133  1  0.557600  0.385600  0.028600  1.0  0.3122
  H  H134  1  0.325900  0.382500  0.114500  1.0  0.0999
  H  H135  1  0.319400  0.323500  0.173800  1.0  0.1076
  H  H136  1  0.174600  0.329600  0.163900  1.0  0.1033
  H  H137  1  0.181100  0.388600  0.104700  1.0  0.1039
  H  H138  1  0.306100  0.248600  0.188700  1.0  0.1173
  H  H139  1  0.378400  0.466300  0.062100  1.0  0.074
  H  H140  1  0.507700  0.460100  0.073700  1.0  0.1746
  H  H141  1  0.463300  0.444600  0.100100  1.0  0.3364
  H  H142  1  0.380100  0.431400  0.983200  1.0  0.0858
  H  H143  1  0.494000  0.400300  0.975700  1.0  0.0886
  H  H144  1  0.442400  0.385600  0.971400  1.0  0.3093
  H  H145  1  0.174100  0.614500  0.117500  1.0  0.099
  H  H146  1  0.180600  0.673800  0.176500  1.0  0.1084
  H  H147  1  0.325400  0.663900  0.170400  1.0  0.1033
  H  H148  1  0.318900  0.604700  0.111400  1.0  0.1047
  H  H149  1  0.193900  0.688700  0.251400  1.0  0.1167
  H  H150  1  0.121600  0.562100  0.033700  1.0  0.076
  H  H151  1  0.992300  0.573700  0.039900  1.0  0.1764
  H  H152  1  0.036700  0.600100  0.055400  1.0  0.3403
  H  H153  1  0.119900  0.483200  0.068600  1.0  0.0827
  H  H154  1  0.006000  0.475700  0.099700  1.0  0.0904
  H  H155  1  0.057600  0.471400  0.114400  1.0  0.3139
  H  H156  1  0.825900  0.385500  0.117500  1.0  0.0995
  H  H157  1  0.819400  0.326200  0.176500  1.0  0.1078
  H  H158  1  0.674600  0.336100  0.170400  1.0  0.1029
  H  H159  1  0.681100  0.395300  0.111400  1.0  0.1039
  H  H160  1  0.806100  0.311300  0.251400  1.0  0.1154
  H  H161  1  0.878400  0.437900  0.033700  1.0  0.0792
  H  H162  1  0.007700  0.426300  0.039900  1.0  0.1777
  H  H163  1  0.963300  0.399900  0.055400  1.0  0.3409
  H  H164  1  0.880100  0.516800  0.068600  1.0  0.0843
  H  H165  1  0.994000  0.524300  0.099700  1.0  0.0862
  H  H166  1  0.942400  0.528600  0.114400  1.0  0.3139
  H  H167  1  0.174100  0.385500  0.882500  1.0  0.0985
  H  H168  1  0.180600  0.326200  0.823500  1.0  0.1087
  H  H169  1  0.325400  0.336100  0.829600  1.0  0.1034
  H  H170  1  0.318900  0.395300  0.888600  1.0  0.1034
  H  H171  1  0.193900  0.311300  0.748600  1.0  0.1165
  H  H172  1  0.121600  0.437900  0.966300  1.0  0.0762
  H  H173  1  0.992300  0.426300  0.960100  1.0  0.1773
  H  H174  1  0.036700  0.399900  0.944600  1.0  0.338
  H  H175  1  0.119900  0.516800  0.931400  1.0  0.0843
  H  H176  1  0.006000  0.524300  0.900300  1.0  0.0915
  H  H177  1  0.057600  0.528600  0.885600  1.0  0.3137
  H  H178  1  0.825900  0.614500  0.882500  1.0  0.0983
  H  H179  1  0.819400  0.673800  0.823500  1.0  0.1082
  H  H180  1  0.674600  0.663900  0.829600  1.0  0.103
  H  H181  1  0.681100  0.604700  0.888600  1.0  0.1037
  H  H182  1  0.806100  0.688700  0.748600  1.0  0.116
  H  H183  1  0.878400  0.562100  0.966300  1.0  0.0781
  H  H184  1  0.007700  0.573700  0.960100  1.0  0.1786
  H  H185  1  0.963300  0.600100  0.944600  1.0  0.3405
  H  H186  1  0.880100  0.483200  0.931400  1.0  0.0841
  H  H187  1  0.994000  0.475700  0.900300  1.0  0.0902
  H  H188  1  0.942400  0.471400  0.885600  1.0  0.3107
  H  H189  1  0.614500  0.117500  0.174100  1.0  0.0979
  H  H190  1  0.673800  0.176500  0.180600  1.0  0.109
  H  H191  1  0.663900  0.170400  0.325400  1.0  0.1036
  H  H192  1  0.604700  0.111400  0.318900  1.0  0.1038
  H  H193  1  0.688700  0.251400  0.193900  1.0  0.1182
  H  H194  1  0.562100  0.033700  0.121600  1.0  0.0769
  H  H195  1  0.573700  0.039900  0.992300  1.0  0.1741
  H  H196  1  0.600100  0.055400  0.036700  1.0  0.3388
  H  H197  1  0.483200  0.068600  0.119900  1.0  0.0827
  H  H198  1  0.475700  0.099700  0.006000  1.0  0.0868
  H  H199  1  0.471400  0.114400  0.057600  1.0  0.3139
  H  H200  1  0.385500  0.117500  0.825900  1.0  0.098
  H  H201  1  0.326200  0.176500  0.819400  1.0  0.1103
  H  H202  1  0.336100  0.170400  0.674600  1.0  0.1034
  H  H203  1  0.395300  0.111400  0.681100  1.0  0.1049
  H  H204  1  0.311300  0.251400  0.806100  1.0  0.1186
  H  H205  1  0.437900  0.033700  0.878400  1.0  0.0786
  H  H206  1  0.426300  0.039900  0.007700  1.0  0.1733
  H  H207  1  0.399900  0.055400  0.963300  1.0  0.3369
  H  H208  1  0.516800  0.068600  0.880100  1.0  0.0843
  H  H209  1  0.524300  0.099700  0.994000  1.0  0.0841
  H  H210  1  0.528600  0.114400  0.942400  1.0  0.3143
  H  H211  1  0.385500  0.882500  0.174100  1.0  0.098
  H  H212  1  0.326200  0.823500  0.180600  1.0  0.1091
  H  H213  1  0.336100  0.829600  0.325400  1.0  0.1034
  H  H214  1  0.395300  0.888600  0.318900  1.0  0.1048
  H  H215  1  0.311300  0.748600  0.193900  1.0  0.1182
  H  H216  1  0.437900  0.966300  0.121600  1.0  0.0785
  H  H217  1  0.426300  0.960100  0.992300  1.0  0.1736
  H  H218  1  0.399900  0.944600  0.036700  1.0  0.3367
  H  H219  1  0.516800  0.931400  0.119900  1.0  0.0861
  H  H220  1  0.524300  0.900300  0.006000  1.0  0.0864
  H  H221  1  0.528600  0.885600  0.057600  1.0  0.3126
  H  H222  1  0.614500  0.882500  0.825900  1.0  0.0979
  H  H223  1  0.673800  0.823500  0.819400  1.0  0.1101
  H  H224  1  0.663900  0.829600  0.674600  1.0  0.1031
  H  H225  1  0.604700  0.888600  0.681100  1.0  0.1044
  H  H226  1  0.688700  0.748600  0.806100  1.0  0.119
  H  H227  1  0.562100  0.966300  0.878400  1.0  0.0782
  H  H228  1  0.573700  0.960100  0.007700  1.0  0.174
  H  H229  1  0.600100  0.944600  0.963300  1.0  0.3384
  H  H230  1  0.483200  0.931400  0.880100  1.0  0.0856
  H  H231  1  0.475700  0.900300  0.994000  1.0  0.0857
  H  H232  1  0.471400  0.885600  0.942400  1.0  0.3099
  H  H233  1  0.117500  0.174100  0.614500  1.0  0.099
  H  H234  1  0.176500  0.180600  0.673800  1.0  0.1084
  H  H235  1  0.170400  0.325400  0.663900  1.0  0.104
  H  H236  1  0.111400  0.318900  0.604700  1.0  0.1041
  H  H237  1  0.251400  0.193900  0.688700  1.0  0.1169
  H  H238  1  0.033700  0.121600  0.562100  1.0  0.071
  H  H239  1  0.039900  0.992300  0.573700  1.0  0.1756
  H  H240  1  0.055400  0.036700  0.600100  1.0  0.3359
  H  H241  1  0.068600  0.119900  0.483200  1.0  0.0826
  H  H242  1  0.099700  0.006000  0.475700  1.0  0.0869
  H  H243  1  0.114400  0.057600  0.471400  1.0  0.32
  H  H244  1  0.117500  0.825900  0.385500  1.0  0.0982
  H  H245  1  0.176500  0.819400  0.326200  1.0  0.1081
  H  H246  1  0.170400  0.674600  0.336100  1.0  0.104
  H  H247  1  0.111400  0.681100  0.395300  1.0  0.1034
  H  H248  1  0.251400  0.806100  0.311300  1.0  0.117
  H  H249  1  0.033700  0.878400  0.437900  1.0  0.0735
  H  H250  1  0.039900  0.007700  0.426300  1.0  0.1794
  H  H251  1  0.055400  0.963300  0.399900  1.0  0.3361
  H  H252  1  0.068600  0.880100  0.516800  1.0  0.0841
  H  H253  1  0.099700  0.994000  0.524300  1.0  0.0834
  H  H254  1  0.114400  0.942400  0.528600  1.0  0.3165
  H  H255  1  0.882500  0.174100  0.385500  1.0  0.0981
  H  H256  1  0.823500  0.180600  0.326200  1.0  0.1082
  H  H257  1  0.829600  0.325400  0.336100  1.0  0.1042
  H  H258  1  0.888600  0.318900  0.395300  1.0  0.1037
  H  H259  1  0.748600  0.193900  0.311300  1.0  0.1174
  H  H260  1  0.966300  0.121600  0.437900  1.0  0.0721
  H  H261  1  0.960100  0.992300  0.426300  1.0  0.1789
  H  H262  1  0.944600  0.036700  0.399900  1.0  0.3353
  H  H263  1  0.931400  0.119900  0.516800  1.0  0.0832
  H  H264  1  0.900300  0.006000  0.524300  1.0  0.0845
  H  H265  1  0.885600  0.057600  0.528600  1.0  0.3151
  H  H266  1  0.882500  0.825900  0.614500  1.0  0.0991
  H  H267  1  0.823500  0.819400  0.673800  1.0  0.1087
  H  H268  1  0.829600  0.674600  0.663900  1.0  0.1037
  H  H269  1  0.888600  0.681100  0.604700  1.0  0.1046
  H  H270  1  0.748600  0.806100  0.688700  1.0  0.1162
  H  H271  1  0.966300  0.878400  0.562100  1.0  0.0738
  H  H272  1  0.960100  0.007700  0.573700  1.0  0.176
  H  H273  1  0.944600  0.963300  0.600100  1.0  0.3373
  H  H274  1  0.931400  0.880100  0.483200  1.0  0.0837
  H  H275  1  0.900300  0.994000  0.475700  1.0  0.09
  H  H276  1  0.885600  0.942400  0.471400  1.0  0.3129
  C  C277  1  0.065200  0.742090  0.564300  1.0  0.4971
  C  C278  1  0.103730  0.745820  0.608590  1.0  -0.1447
  C  C279  1  0.124440  0.704390  0.628090  1.0  -0.0501
  C  C280  1  0.159940  0.708290  0.663450  1.0  -0.2142
  C  C281  1  0.174740  0.753600  0.679310  1.0  -0.0045
  C  C282  1  0.154040  0.795060  0.659800  1.0  -0.1013
  C  C283  1  0.118530  0.791160  0.624450  1.0  -0.0735
  C  C284  1  0.218750  0.746900  0.712000  1.0  0.001
  C  C285  1  0.215400  0.714100  0.748500  1.0  -0.169
  C  C286  1  0.036700  0.604200  0.520170  1.0  0.0259
  C  C287  1  0.037700  0.552800  0.521400  1.0  0.1928
  C  C288  1  0.989920  0.602400  0.540700  1.0  0.0299
  C  C289  1  0.988900  0.551100  0.543700  1.0  0.1266
  C  C290  1  0.934800  0.257910  0.564300  1.0  0.4957
  C  C291  1  0.896270  0.254180  0.608590  1.0  -0.1446
  C  C292  1  0.875560  0.295610  0.628090  1.0  -0.0504
  C  C293  1  0.840060  0.291710  0.663450  1.0  -0.2147
  C  C294  1  0.825260  0.246400  0.679310  1.0  -0.0049
  C  C295  1  0.845960  0.204940  0.659800  1.0  -0.1019
  C  C296  1  0.881470  0.208840  0.624450  1.0  -0.072
  C  C297  1  0.781250  0.253100  0.712000  1.0  0.0027
  C  C298  1  0.784600  0.285900  0.748500  1.0  -0.1701
  C  C299  1  0.963300  0.395800  0.520170  1.0  0.0256
  C  C300  1  0.962300  0.447200  0.521400  1.0  0.1861
  C  C301  1  0.010080  0.397600  0.540700  1.0  0.0335
  C  C302  1  0.011100  0.448900  0.543700  1.0  0.1232
  C  C303  1  0.934800  0.742090  0.435700  1.0  0.496
  C  C304  1  0.896270  0.745820  0.391410  1.0  -0.1442
  C  C305  1  0.875560  0.704390  0.371910  1.0  -0.0484
  C  C306  1  0.840060  0.708290  0.336550  1.0  -0.2148
  C  C307  1  0.825260  0.753600  0.320690  1.0  -0.005
  C  C308  1  0.845960  0.795060  0.340200  1.0  -0.1026
  C  C309  1  0.881470  0.791160  0.375550  1.0  -0.0741
  C  C310  1  0.781250  0.746900  0.288000  1.0  0.0016
  C  C311  1  0.784600  0.714100  0.251500  1.0  -0.1689
  C  C312  1  0.963300  0.604200  0.479830  1.0  0.0276
  C  C313  1  0.962300  0.552800  0.478600  1.0  0.1846
  C  C314  1  0.010080  0.602400  0.459300  1.0  0.0332
  C  C315  1  0.011100  0.551100  0.456300  1.0  0.1241
  C  C316  1  0.065200  0.257910  0.435700  1.0  0.4955
  C  C317  1  0.103730  0.254180  0.391410  1.0  -0.1439
  C  C318  1  0.124440  0.295610  0.371910  1.0  -0.051
  C  C319  1  0.159940  0.291710  0.336550  1.0  -0.2133
  C  C320  1  0.174740  0.246400  0.320690  1.0  -0.0051
  C  C321  1  0.154040  0.204940  0.340200  1.0  -0.1007
  C  C322  1  0.118530  0.208840  0.375550  1.0  -0.0731
  C  C323  1  0.218750  0.253100  0.288000  1.0  0.0006
  C  C324  1  0.215400  0.285900  0.251500  1.0  -0.1699
  C  C325  1  0.036700  0.395800  0.479830  1.0  0.0257
  C  C326  1  0.037700  0.447200  0.478600  1.0  0.1929
  C  C327  1  0.989920  0.397600  0.459300  1.0  0.0349
  C  C328  1  0.988900  0.448900  0.456300  1.0  0.1232
  C  C329  1  0.564300  0.065200  0.742090  1.0  0.4971
  C  C330  1  0.608590  0.103730  0.745820  1.0  -0.1435
  C  C331  1  0.628090  0.124440  0.704390  1.0  -0.0521
  C  C332  1  0.663450  0.159940  0.708290  1.0  -0.2156
  C  C333  1  0.679310  0.174740  0.753600  1.0  -0.0027
  C  C334  1  0.659800  0.154040  0.795060  1.0  -0.1022
  C  C335  1  0.624450  0.118530  0.791160  1.0  -0.0748
  C  C336  1  0.712000  0.218750  0.746900  1.0  -0.0026
  C  C337  1  0.748500  0.215400  0.714100  1.0  -0.1639
  C  C338  1  0.520170  0.036700  0.604200  1.0  0.0266
  C  C339  1  0.521400  0.037700  0.552800  1.0  0.1897
  C  C340  1  0.540700  0.989920  0.602400  1.0  0.0292
  C  C341  1  0.543700  0.988900  0.551100  1.0  0.1279
  C  C342  1  0.564300  0.934800  0.257910  1.0  0.4975
  C  C343  1  0.608590  0.896270  0.254180  1.0  -0.1445
  C  C344  1  0.628090  0.875560  0.295610  1.0  -0.0526
  C  C345  1  0.663450  0.840060  0.291710  1.0  -0.2137
  C  C346  1  0.679310  0.825260  0.246400  1.0  -0.0019
  C  C347  1  0.659800  0.845960  0.204940  1.0  -0.1034
  C  C348  1  0.624450  0.881470  0.208840  1.0  -0.077
  C  C349  1  0.712000  0.781250  0.253100  1.0  -0.0038
  C  C350  1  0.748500  0.784600  0.285900  1.0  -0.1641
  C  C351  1  0.520170  0.963300  0.395800  1.0  0.0258
  C  C352  1  0.521400  0.962300  0.447200  1.0  0.1922
  C  C353  1  0.540700  0.010080  0.397600  1.0  0.0353
  C  C354  1  0.543700  0.011100  0.448900  1.0  0.1279
  C  C355  1  0.435700  0.934800  0.742090  1.0  0.4959
  C  C356  1  0.391410  0.896270  0.745820  1.0  -0.1441
  C  C357  1  0.371910  0.875560  0.704390  1.0  -0.0534
  C  C358  1  0.336550  0.840060  0.708290  1.0  -0.2163
  C  C359  1  0.320690  0.825260  0.753600  1.0  -0.0034
  C  C360  1  0.340200  0.845960  0.795060  1.0  -0.1021
  C  C361  1  0.375550  0.881470  0.791160  1.0  -0.0753
  C  C362  1  0.288000  0.781250  0.746900  1.0  -0.0011
  C  C363  1  0.251500  0.784600  0.714100  1.0  -0.1641
  C  C364  1  0.479830  0.963300  0.604200  1.0  0.0272
  C  C365  1  0.478600  0.962300  0.552800  1.0  0.1889
  C  C366  1  0.459300  0.010080  0.602400  1.0  0.0301
  C  C367  1  0.456300  0.011100  0.551100  1.0  0.1285
  C  C368  1  0.435700  0.065200  0.257910  1.0  0.4977
  C  C369  1  0.391410  0.103730  0.254180  1.0  -0.1433
  C  C370  1  0.371910  0.124440  0.295610  1.0  -0.0515
  C  C371  1  0.336550  0.159940  0.291710  1.0  -0.2151
  C  C372  1  0.320690  0.174740  0.246400  1.0  -0.0033
  C  C373  1  0.340200  0.154040  0.204940  1.0  -0.1025
  C  C374  1  0.375550  0.118530  0.208840  1.0  -0.0761
  C  C375  1  0.288000  0.218750  0.253100  1.0  -0.0012
  C  C376  1  0.251500  0.215400  0.285900  1.0  -0.164
  C  C377  1  0.479830  0.036700  0.395800  1.0  0.0285
  C  C378  1  0.478600  0.037700  0.447200  1.0  0.188
  C  C379  1  0.459300  0.989920  0.397600  1.0  0.0309
  C  C380  1  0.456300  0.988900  0.448900  1.0  0.1233
  C  C381  1  0.742090  0.564300  0.065200  1.0  0.4995
  C  C382  1  0.745820  0.608590  0.103730  1.0  -0.1418
  C  C383  1  0.704390  0.628090  0.124440  1.0  -0.05
  C  C384  1  0.708290  0.663450  0.159940  1.0  -0.2155
  C  C385  1  0.753600  0.679310  0.174740  1.0  -0.0038
  C  C386  1  0.795060  0.659800  0.154040  1.0  -0.1026
  C  C387  1  0.791160  0.624450  0.118530  1.0  -0.0735
  C  C388  1  0.746900  0.712000  0.218750  1.0  -0.0018
  C  C389  1  0.714100  0.748500  0.215400  1.0  -0.1709
  C  C390  1  0.604200  0.520170  0.036700  1.0  0.0262
  C  C391  1  0.552800  0.521400  0.037700  1.0  0.1944
  C  C392  1  0.602400  0.540700  0.989920  1.0  0.0377
  C  C393  1  0.551100  0.543700  0.988900  1.0  0.1292
  C  C394  1  0.257910  0.564300  0.934800  1.0  0.4982
  C  C395  1  0.254180  0.608590  0.896270  1.0  -0.1422
  C  C396  1  0.295610  0.628090  0.875560  1.0  -0.0508
  C  C397  1  0.291710  0.663450  0.840060  1.0  -0.2142
  C  C398  1  0.246400  0.679310  0.825260  1.0  -0.0028
  C  C399  1  0.204940  0.659800  0.845960  1.0  -0.1024
  C  C400  1  0.208840  0.624450  0.881470  1.0  -0.0734
  C  C401  1  0.253100  0.712000  0.781250  1.0  -0.0015
  C  C402  1  0.285900  0.748500  0.784600  1.0  -0.1712
  C  C403  1  0.395800  0.520170  0.963300  1.0  0.0268
  C  C404  1  0.447200  0.521400  0.962300  1.0  0.1918
  C  C405  1  0.397600  0.540700  0.010080  1.0  0.0358
  C  C406  1  0.448900  0.543700  0.011100  1.0  0.1261
  C  C407  1  0.742090  0.435700  0.934800  1.0  0.4986
  C  C408  1  0.745820  0.391410  0.896270  1.0  -0.1427
  C  C409  1  0.704390  0.371910  0.875560  1.0  -0.0504
  C  C410  1  0.708290  0.336550  0.840060  1.0  -0.2149
  C  C411  1  0.753600  0.320690  0.825260  1.0  -0.0031
  C  C412  1  0.795060  0.340200  0.845960  1.0  -0.1028
  C  C413  1  0.791160  0.375550  0.881470  1.0  -0.0739
  C  C414  1  0.746900  0.288000  0.781250  1.0  0.0008
  C  C415  1  0.714100  0.251500  0.784600  1.0  -0.171
  C  C416  1  0.604200  0.479830  0.963300  1.0  0.0266
  C  C417  1  0.552800  0.478600  0.962300  1.0  0.1933
  C  C418  1  0.602400  0.459300  0.010080  1.0  0.033
  C  C419  1  0.551100  0.456300  0.011100  1.0  0.1255
  C  C420  1  0.257910  0.435700  0.065200  1.0  0.4981
  C  C421  1  0.254180  0.391410  0.103730  1.0  -0.1416
  C  C422  1  0.295610  0.371910  0.124440  1.0  -0.0513
  C  C423  1  0.291710  0.336550  0.159940  1.0  -0.2141
  C  C424  1  0.246400  0.320690  0.174740  1.0  -0.0031
  C  C425  1  0.204940  0.340200  0.154040  1.0  -0.1027
  C  C426  1  0.208840  0.375550  0.118530  1.0  -0.0741
  C  C427  1  0.253100  0.288000  0.218750  1.0  0.0008
  C  C428  1  0.285900  0.251500  0.215400  1.0  -0.1718
  C  C429  1  0.395800  0.479830  0.036700  1.0  0.0252
  C  C430  1  0.447200  0.478600  0.037700  1.0  0.1921
  C  C431  1  0.397600  0.459300  0.989920  1.0  0.0388
  C  C432  1  0.448900  0.456300  0.988900  1.0  0.1248
  C  C433  1  0.242090  0.565200  0.064300  1.0  0.4985
  C  C434  1  0.245820  0.603730  0.108590  1.0  -0.1425
  C  C435  1  0.204390  0.624440  0.128090  1.0  -0.0501
  C  C436  1  0.208290  0.659940  0.163450  1.0  -0.2158
  C  C437  1  0.253600  0.674740  0.179310  1.0  -0.0037
  C  C438  1  0.295060  0.654040  0.159800  1.0  -0.1022
  C  C439  1  0.291160  0.618530  0.124450  1.0  -0.0734
  C  C440  1  0.246900  0.718750  0.212000  1.0  0.0013
  C  C441  1  0.214100  0.715400  0.248500  1.0  -0.1699
  C  C442  1  0.104200  0.536700  0.020170  1.0  0.028
  C  C443  1  0.052800  0.537700  0.021400  1.0  0.1919
  C  C444  1  0.102400  0.489920  0.040700  1.0  0.0307
  C  C445  1  0.051100  0.488900  0.043700  1.0  0.1272
  C  C446  1  0.757910  0.434800  0.064300  1.0  0.4972
  C  C447  1  0.754180  0.396270  0.108590  1.0  -0.1429
  C  C448  1  0.795610  0.375560  0.128090  1.0  -0.0515
  C  C449  1  0.791710  0.340060  0.163450  1.0  -0.2142
  C  C450  1  0.746400  0.325260  0.179310  1.0  -0.0029
  C  C451  1  0.704940  0.345960  0.159800  1.0  -0.1022
  C  C452  1  0.708840  0.381470  0.124450  1.0  -0.0744
  C  C453  1  0.753100  0.281250  0.212000  1.0  0.0013
  C  C454  1  0.785900  0.284600  0.248500  1.0  -0.1712
  C  C455  1  0.895800  0.463300  0.020170  1.0  0.0259
  C  C456  1  0.947200  0.462300  0.021400  1.0  0.1907
  C  C457  1  0.897600  0.510080  0.040700  1.0  0.0338
  C  C458  1  0.948900  0.511100  0.043700  1.0  0.1259
  C  C459  1  0.242090  0.434800  0.935700  1.0  0.497
  C  C460  1  0.245820  0.396270  0.891410  1.0  -0.1428
  C  C461  1  0.204390  0.375560  0.871910  1.0  -0.0506
  C  C462  1  0.208290  0.340060  0.836550  1.0  -0.2149
  C  C463  1  0.253600  0.325260  0.820690  1.0  -0.0037
  C  C464  1  0.295060  0.345960  0.840200  1.0  -0.1029
  C  C465  1  0.291160  0.381470  0.875550  1.0  -0.0746
  C  C466  1  0.246900  0.281250  0.788000  1.0  0.0005
  C  C467  1  0.214100  0.284600  0.751500  1.0  -0.1702
  C  C468  1  0.104200  0.463300  0.979830  1.0  0.0266
  C  C469  1  0.052800  0.462300  0.978600  1.0  0.1941
  C  C470  1  0.102400  0.510080  0.959300  1.0  0.0354
  C  C471  1  0.051100  0.511100  0.956300  1.0  0.1277
  C  C472  1  0.757910  0.565200  0.935700  1.0  0.4972
  C  C473  1  0.754180  0.603730  0.891410  1.0  -0.142
  C  C474  1  0.795610  0.624440  0.871910  1.0  -0.0509
  C  C475  1  0.791710  0.659940  0.836550  1.0  -0.2147
  C  C476  1  0.746400  0.674740  0.820690  1.0  -0.0034
  C  C477  1  0.704940  0.654040  0.840200  1.0  -0.1029
  C  C478  1  0.708840  0.618530  0.875550  1.0  -0.0742
  C  C479  1  0.753100  0.718750  0.788000  1.0  0.001
  C  C480  1  0.785900  0.715400  0.751500  1.0  -0.1702
  C  C481  1  0.895800  0.536700  0.979830  1.0  0.027
  C  C482  1  0.947200  0.537700  0.978600  1.0  0.1893
  C  C483  1  0.897600  0.489920  0.959300  1.0  0.0334
  C  C484  1  0.948900  0.488900  0.956300  1.0  0.1229
  C  C485  1  0.565200  0.064300  0.242090  1.0  0.497
  C  C486  1  0.603730  0.108590  0.245820  1.0  -0.1425
  C  C487  1  0.624440  0.128090  0.204390  1.0  -0.0524
  C  C488  1  0.659940  0.163450  0.208290  1.0  -0.2149
  C  C489  1  0.674740  0.179310  0.253600  1.0  -0.0045
  C  C490  1  0.654040  0.159800  0.295060  1.0  -0.102
  C  C491  1  0.618530  0.124450  0.291160  1.0  -0.0741
  C  C492  1  0.718750  0.212000  0.246900  1.0  -0.0026
  C  C493  1  0.715400  0.248500  0.214100  1.0  -0.1685
  C  C494  1  0.536700  0.020170  0.104200  1.0  0.0247
  C  C495  1  0.537700  0.021400  0.052800  1.0  0.1926
  C  C496  1  0.489920  0.040700  0.102400  1.0  0.0304
  C  C497  1  0.488900  0.043700  0.051100  1.0  0.1279
  C  C498  1  0.434800  0.064300  0.757910  1.0  0.4979
  C  C499  1  0.396270  0.108590  0.754180  1.0  -0.1425
  C  C500  1  0.375560  0.128090  0.795610  1.0  -0.0513
  C  C501  1  0.340060  0.163450  0.791710  1.0  -0.2147
  C  C502  1  0.325260  0.179310  0.746400  1.0  -0.0043
  C  C503  1  0.345960  0.159800  0.704940  1.0  -0.1043
  C  C504  1  0.381470  0.124450  0.708840  1.0  -0.0759
  C  C505  1  0.281250  0.212000  0.753100  1.0  -0.0023
  C  C506  1  0.284600  0.248500  0.785900  1.0  -0.1686
  C  C507  1  0.463300  0.020170  0.895800  1.0  0.0263
  C  C508  1  0.462300  0.021400  0.947200  1.0  0.1845
  C  C509  1  0.510080  0.040700  0.897600  1.0  0.0362
  C  C510  1  0.511100  0.043700  0.948900  1.0  0.126
  C  C511  1  0.434800  0.935700  0.242090  1.0  0.4963
  C  C512  1  0.396270  0.891410  0.245820  1.0  -0.1433
  C  C513  1  0.375560  0.871910  0.204390  1.0  -0.0529
  C  C514  1  0.340060  0.836550  0.208290  1.0  -0.2155
  C  C515  1  0.325260  0.820690  0.253600  1.0  -0.0043
  C  C516  1  0.345960  0.840200  0.295060  1.0  -0.1026
  C  C517  1  0.381470  0.875550  0.291160  1.0  -0.0751
  C  C518  1  0.281250  0.788000  0.246900  1.0  0.0005
  C  C519  1  0.284600  0.751500  0.214100  1.0  -0.1688
  C  C520  1  0.463300  0.979830  0.104200  1.0  0.0255
  C  C521  1  0.462300  0.978600  0.052800  1.0  0.1857
  C  C522  1  0.510080  0.959300  0.102400  1.0  0.0329
  C  C523  1  0.511100  0.956300  0.051100  1.0  0.1261
  C  C524  1  0.565200  0.935700  0.757910  1.0  0.4977
  C  C525  1  0.603730  0.891410  0.754180  1.0  -0.1431
  C  C526  1  0.624440  0.871910  0.795610  1.0  -0.0527
  C  C527  1  0.659940  0.836550  0.791710  1.0  -0.2132
  C  C528  1  0.674740  0.820690  0.746400  1.0  -0.004
  C  C529  1  0.654040  0.840200  0.704940  1.0  -0.1031
  C  C530  1  0.618530  0.875550  0.708840  1.0  -0.0761
  C  C531  1  0.718750  0.788000  0.753100  1.0  -0.0008
  C  C532  1  0.715400  0.751500  0.785900  1.0  -0.1688
  C  C533  1  0.536700  0.979830  0.895800  1.0  0.0259
  C  C534  1  0.537700  0.978600  0.947200  1.0  0.1915
  C  C535  1  0.489920  0.959300  0.897600  1.0  0.0361
  C  C536  1  0.488900  0.956300  0.948900  1.0  0.1245
  C  C537  1  0.064300  0.242090  0.565200  1.0  0.4978
  C  C538  1  0.108590  0.245820  0.603730  1.0  -0.1449
  C  C539  1  0.128090  0.204390  0.624440  1.0  -0.0499
  C  C540  1  0.163450  0.208290  0.659940  1.0  -0.2144
  C  C541  1  0.179310  0.253600  0.674740  1.0  -0.0027
  C  C542  1  0.159800  0.295060  0.654040  1.0  -0.1018
  C  C543  1  0.124450  0.291160  0.618530  1.0  -0.073
  C  C544  1  0.212000  0.246900  0.718750  1.0  -0.0023
  C  C545  1  0.248500  0.214100  0.715400  1.0  -0.1666
  C  C546  1  0.020170  0.104200  0.536700  1.0  0.0257
  C  C547  1  0.021400  0.052800  0.537700  1.0  0.1928
  C  C548  1  0.040700  0.102400  0.489920  1.0  0.0341
  C  C549  1  0.043700  0.051100  0.488900  1.0  0.1284
  C  C550  1  0.064300  0.757910  0.434800  1.0  0.4962
  C  C551  1  0.108590  0.754180  0.396270  1.0  -0.1458
  C  C552  1  0.128090  0.795610  0.375560  1.0  -0.0506
  C  C553  1  0.163450  0.791710  0.340060  1.0  -0.2136
  C  C554  1  0.179310  0.746400  0.325260  1.0  -0.0027
  C  C555  1  0.159800  0.704940  0.345960  1.0  -0.1013
  C  C556  1  0.124450  0.708840  0.381470  1.0  -0.0726
  C  C557  1  0.212000  0.753100  0.281250  1.0  -0.0019
  C  C558  1  0.248500  0.785900  0.284600  1.0  -0.1664
  C  C559  1  0.020170  0.895800  0.463300  1.0  0.0264
  C  C560  1  0.021400  0.947200  0.462300  1.0  0.1928
  C  C561  1  0.040700  0.897600  0.510080  1.0  0.0321
  C  C562  1  0.043700  0.948900  0.511100  1.0  0.1249
  C  C563  1  0.935700  0.242090  0.434800  1.0  0.4965
  C  C564  1  0.891410  0.245820  0.396270  1.0  -0.1455
  C  C565  1  0.871910  0.204390  0.375560  1.0  -0.0488
  C  C566  1  0.836550  0.208290  0.340060  1.0  -0.2145
  C  C567  1  0.820690  0.253600  0.325260  1.0  -0.0034
  C  C568  1  0.840200  0.295060  0.345960  1.0  -0.1023
  C  C569  1  0.875550  0.291160  0.381470  1.0  -0.0732
  C  C570  1  0.788000  0.246900  0.281250  1.0  0.0
  C  C571  1  0.751500  0.214100  0.284600  1.0  -0.1651
  C  C572  1  0.979830  0.104200  0.463300  1.0  0.0284
  C  C573  1  0.978600  0.052800  0.462300  1.0  0.1905
  C  C574  1  0.959300  0.102400  0.510080  1.0  0.0311
  C  C575  1  0.956300  0.051100  0.511100  1.0  0.127
  C  C576  1  0.935700  0.757910  0.565200  1.0  0.4962
  C  C577  1  0.891410  0.754180  0.603730  1.0  -0.1449
  C  C578  1  0.871910  0.795610  0.624440  1.0  -0.0507
  C  C579  1  0.836550  0.791710  0.659940  1.0  -0.2144
  C  C580  1  0.820690  0.746400  0.674740  1.0  -0.0041
  C  C581  1  0.840200  0.704940  0.654040  1.0  -0.1014
  C  C582  1  0.875550  0.708840  0.618530  1.0  -0.0718
  C  C583  1  0.788000  0.753100  0.718750  1.0  1e-04
  C  C584  1  0.751500  0.785900  0.715400  1.0  -0.1664
  C  C585  1  0.979830  0.895800  0.536700  1.0  0.0264
  C  C586  1  0.978600  0.947200  0.537700  1.0  0.1922
  C  C587  1  0.959300  0.897600  0.489920  1.0  0.0349
  C  C588  1  0.956300  0.948900  0.488900  1.0  0.1244
  C  C589  1  0.000000  0.526720  0.500000  1.0  0.1932
  C  C590  1  0.000000  0.473280  0.500000  1.0  0.1943
  C  C591  1  0.500000  0.000000  0.526720  1.0  0.1902
  C  C592  1  0.500000  0.000000  0.473280  1.0  0.1914
  C  C593  1  0.526720  0.500000  0.000000  1.0  0.1925
  C  C594  1  0.473280  0.500000  0.000000  1.0  0.1909
  C  C595  1  0.026720  0.500000  0.000000  1.0  0.1925
  C  C596  1  0.973280  0.500000  0.000000  1.0  0.1909
  C  C597  1  0.500000  0.000000  0.026720  1.0  0.1902
  C  C598  1  0.500000  0.000000  0.973280  1.0  0.1914
  C  C599  1  0.000000  0.026720  0.500000  1.0  0.1932
  C  C600  1  0.000000  0.973280  0.500000  1.0  0.1943
  N  N601  1  0.075600  0.523300  0.541600  1.0  -0.6272
  N  N602  1  0.977000  0.536200  0.592500  1.0  -0.4186
  N  N603  1  0.924400  0.476700  0.541600  1.0  -0.6237
  N  N604  1  0.023000  0.463800  0.592500  1.0  -0.4224
  N  N605  1  0.924400  0.523300  0.458400  1.0  -0.6251
  N  N606  1  0.023000  0.536200  0.407500  1.0  -0.42
  N  N607  1  0.075600  0.476700  0.458400  1.0  -0.6263
  N  N608  1  0.977000  0.463800  0.407500  1.0  -0.4205
  N  N609  1  0.541600  0.075600  0.523300  1.0  -0.6282
  N  N610  1  0.592500  0.977000  0.536200  1.0  -0.4264
  N  N611  1  0.541600  0.924400  0.476700  1.0  -0.6236
  N  N612  1  0.592500  0.023000  0.463800  1.0  -0.4257
  N  N613  1  0.458400  0.924400  0.523300  1.0  -0.6247
  N  N614  1  0.407500  0.023000  0.536200  1.0  -0.4212
  N  N615  1  0.458400  0.075600  0.476700  1.0  -0.6231
  N  N616  1  0.407500  0.977000  0.463800  1.0  -0.4233
  N  N617  1  0.523300  0.541600  0.075600  1.0  -0.6212
  N  N618  1  0.536200  0.592500  0.977000  1.0  -0.4179
  N  N619  1  0.476700  0.541600  0.924400  1.0  -0.6217
  N  N620  1  0.463800  0.592500  0.023000  1.0  -0.4182
  N  N621  1  0.523300  0.458400  0.924400  1.0  -0.6205
  N  N622  1  0.536200  0.407500  0.023000  1.0  -0.4202
  N  N623  1  0.476700  0.458400  0.075600  1.0  -0.6207
  N  N624  1  0.463800  0.407500  0.977000  1.0  -0.419
  N  N625  1  0.023300  0.575600  0.041600  1.0  -0.6235
  N  N626  1  0.036200  0.477000  0.092500  1.0  -0.4183
  N  N627  1  0.976700  0.424400  0.041600  1.0  -0.6211
  N  N628  1  0.963800  0.523000  0.092500  1.0  -0.4175
  N  N629  1  0.023300  0.424400  0.958400  1.0  -0.6206
  N  N630  1  0.036200  0.523000  0.907500  1.0  -0.4176
  N  N631  1  0.976700  0.575600  0.958400  1.0  -0.622
  N  N632  1  0.963800  0.477000  0.907500  1.0  -0.418
  N  N633  1  0.575600  0.041600  0.023300  1.0  -0.631
  N  N634  1  0.477000  0.092500  0.036200  1.0  -0.4197
  N  N635  1  0.424400  0.041600  0.976700  1.0  -0.6252
  N  N636  1  0.523000  0.092500  0.963800  1.0  -0.4232
  N  N637  1  0.424400  0.958400  0.023300  1.0  -0.6276
  N  N638  1  0.523000  0.907500  0.036200  1.0  -0.4246
  N  N639  1  0.575600  0.958400  0.976700  1.0  -0.6265
  N  N640  1  0.477000  0.907500  0.963800  1.0  -0.4217
  N  N641  1  0.041600  0.023300  0.575600  1.0  -0.6235
  N  N642  1  0.092500  0.036200  0.477000  1.0  -0.4237
  N  N643  1  0.041600  0.976700  0.424400  1.0  -0.624
  N  N644  1  0.092500  0.963800  0.523000  1.0  -0.4265
  N  N645  1  0.958400  0.023300  0.424400  1.0  -0.6219
  N  N646  1  0.907500  0.036200  0.523000  1.0  -0.4198
  N  N647  1  0.958400  0.976700  0.575600  1.0  -0.6195
  N  N648  1  0.907500  0.963800  0.477000  1.0  -0.4235
  N  N649  1  0.000000  0.627400  0.500000  1.0  -0.0555
  N  N650  1  0.000000  0.372600  0.500000  1.0  -0.0527
  N  N651  1  0.500000  0.000000  0.627400  1.0  -0.0561
  N  N652  1  0.500000  0.000000  0.372600  1.0  -0.0609
  N  N653  1  0.627400  0.500000  0.000000  1.0  -0.0505
  N  N654  1  0.372600  0.500000  0.000000  1.0  -0.0603
  N  N655  1  0.127400  0.500000  0.000000  1.0  -0.0505
  N  N656  1  0.872600  0.500000  0.000000  1.0  -0.0603
  N  N657  1  0.500000  0.000000  0.127400  1.0  -0.0561
  N  N658  1  0.500000  0.000000  0.872600  1.0  -0.0609
  N  N659  1  0.000000  0.127400  0.500000  1.0  -0.0555
  N  N660  1  0.000000  0.872600  0.500000  1.0  -0.0527
  O  O661  1  0.052600  0.790090  0.552250  1.0  -0.6119
  O  O662  1  0.049820  0.707950  0.548530  1.0  -0.5827
  O  O663  1  0.947400  0.209910  0.552250  1.0  -0.6129
  O  O664  1  0.950180  0.292050  0.548530  1.0  -0.5829
  O  O665  1  0.947400  0.790090  0.447750  1.0  -0.6114
  O  O666  1  0.950180  0.707950  0.451470  1.0  -0.5815
  O  O667  1  0.052600  0.209910  0.447750  1.0  -0.6123
  O  O668  1  0.049820  0.292050  0.451470  1.0  -0.5825
  O  O669  1  0.552250  0.052600  0.790090  1.0  -0.6128
  O  O670  1  0.548530  0.049820  0.707950  1.0  -0.5828
  O  O671  1  0.552250  0.947400  0.209910  1.0  -0.6131
  O  O672  1  0.548530  0.950180  0.292050  1.0  -0.5834
  O  O673  1  0.447750  0.947400  0.790090  1.0  -0.6133
  O  O674  1  0.451470  0.950180  0.707950  1.0  -0.5828
  O  O675  1  0.447750  0.052600  0.209910  1.0  -0.6136
  O  O676  1  0.451470  0.049820  0.292050  1.0  -0.5817
  O  O677  1  0.790090  0.552250  0.052600  1.0  -0.6105
  O  O678  1  0.707950  0.548530  0.049820  1.0  -0.5806
  O  O679  1  0.209910  0.552250  0.947400  1.0  -0.6106
  O  O680  1  0.292050  0.548530  0.950180  1.0  -0.5796
  O  O681  1  0.790090  0.447750  0.947400  1.0  -0.6119
  O  O682  1  0.707950  0.451470  0.950180  1.0  -0.5809
  O  O683  1  0.209910  0.447750  0.052600  1.0  -0.6108
  O  O684  1  0.292050  0.451470  0.049820  1.0  -0.5805
  O  O685  1  0.290090  0.552600  0.052250  1.0  -0.6111
  O  O686  1  0.207950  0.549820  0.048530  1.0  -0.5815
  O  O687  1  0.709910  0.447400  0.052250  1.0  -0.6115
  O  O688  1  0.792050  0.450180  0.048530  1.0  -0.5818
  O  O689  1  0.290090  0.447400  0.947750  1.0  -0.6118
  O  O690  1  0.207950  0.450180  0.951470  1.0  -0.5825
  O  O691  1  0.709910  0.552600  0.947750  1.0  -0.611
  O  O692  1  0.792050  0.549820  0.951470  1.0  -0.5812
  O  O693  1  0.552600  0.052250  0.290090  1.0  -0.6126
  O  O694  1  0.549820  0.048530  0.207950  1.0  -0.5832
  O  O695  1  0.447400  0.052250  0.709910  1.0  -0.6134
  O  O696  1  0.450180  0.048530  0.792050  1.0  -0.5824
  O  O697  1  0.447400  0.947750  0.290090  1.0  -0.6135
  O  O698  1  0.450180  0.951470  0.207950  1.0  -0.5828
  O  O699  1  0.552600  0.947750  0.709910  1.0  -0.6132
  O  O700  1  0.549820  0.951470  0.792050  1.0  -0.5834
  O  O701  1  0.052250  0.290090  0.552600  1.0  -0.6109
  O  O702  1  0.048530  0.207950  0.549820  1.0  -0.5828
  O  O703  1  0.052250  0.709910  0.447400  1.0  -0.6121
  O  O704  1  0.048530  0.792050  0.450180  1.0  -0.5819
  O  O705  1  0.947750  0.290090  0.447400  1.0  -0.6113
  O  O706  1  0.951470  0.207950  0.450180  1.0  -0.5814
  O  O707  1  0.947750  0.709910  0.552600  1.0  -0.6125
  O  O708  1  0.951470  0.792050  0.549820  1.0  -0.5823
