# generated using pymatgen
data_Cu3H24C54(N7O6)2
_symmetry_space_group_name_H-M   'P 1'
_cell_length_a   37.29110000
_cell_length_b   37.29110000
_cell_length_c   37.51320000
_cell_angle_alpha   60.19570000
_cell_angle_beta   60.19570000
_cell_angle_gamma   60.00000000
_symmetry_Int_Tables_number   1
_chemical_formula_structural   Cu3H24C54(N7O6)2
_chemical_formula_sum   'Cu24 H192 C432 N112 O96'
_cell_volume   36996.26100424
_cell_formula_units_Z   8
loop_
 _symmetry_equiv_pos_site_id
 _symmetry_equiv_pos_as_xyz
  1  'x, y, z'
loop_
 _atom_site_type_symbol
 _atom_site_label
 _atom_site_symmetry_multiplicity
 _atom_site_fract_x
 _atom_site_fract_y
 _atom_site_fract_z
 _atom_site_occupancy
 _atom_site_charge
  Cu  Cu1  1  0.908050  0.372690  0.275970  1.0  0.9245
  Cu  Cu2  1  0.372690  0.443290  0.275970  1.0  0.921
  Cu  Cu3  1  0.443290  0.908050  0.275970  1.0  0.9227
  Cu  Cu4  1  0.908050  0.443290  0.275970  1.0  0.9214
  Cu  Cu5  1  0.372690  0.908050  0.275970  1.0  0.9247
  Cu  Cu6  1  0.443290  0.372690  0.275970  1.0  0.9195
  Cu  Cu7  1  0.908330  0.908330  0.810010  1.0  0.9371
  Cu  Cu8  1  0.907070  0.907070  0.741170  1.0  0.9088
  Cu  Cu9  1  0.908330  0.373330  0.810010  1.0  0.9357
  Cu  Cu10  1  0.907070  0.444690  0.741170  1.0  0.9129
  Cu  Cu11  1  0.373330  0.908330  0.810010  1.0  0.9364
  Cu  Cu12  1  0.444690  0.907070  0.741170  1.0  0.9138
  Cu  Cu13  1  0.091950  0.556710  0.724030  1.0  0.9244
  Cu  Cu14  1  0.627310  0.091950  0.724030  1.0  0.9235
  Cu  Cu15  1  0.556710  0.627310  0.724030  1.0  0.9205
  Cu  Cu16  1  0.091950  0.627310  0.724030  1.0  0.9216
  Cu  Cu17  1  0.627310  0.556710  0.724030  1.0  0.9212
  Cu  Cu18  1  0.556710  0.091950  0.724030  1.0  0.925
  Cu  Cu19  1  0.091670  0.626670  0.189990  1.0  0.935
  Cu  Cu20  1  0.092920  0.555310  0.258850  1.0  0.9142
  Cu  Cu21  1  0.091670  0.091670  0.189990  1.0  0.9364
  Cu  Cu22  1  0.092920  0.092920  0.258850  1.0  0.9084
  Cu  Cu23  1  0.626670  0.091670  0.189990  1.0  0.9363
  Cu  Cu24  1  0.555310  0.092920  0.258850  1.0  0.9133
  H  H25  1  0.888100  0.043600  0.768400  1.0  0.1229
  H  H26  1  0.883200  0.118700  0.731500  1.0  0.1291
  H  H27  1  0.879900  0.115600  0.631900  1.0  0.1417
  H  H28  1  0.894200  0.041900  0.661300  1.0  0.1008
  H  H29  1  0.924900  0.772100  0.889300  1.0  0.1298
  H  H30  1  0.939900  0.696200  0.919900  1.0  0.1272
  H  H31  1  0.939300  0.695600  0.812200  1.0  0.1192
  H  H32  1  0.931900  0.768200  0.780400  1.0  0.1128
  H  H33  1  0.938500  0.552200  0.065700  1.0  0.1393
  H  H34  1  0.929700  0.518400  0.140100  1.0  0.1254
  H  H35  1  0.037600  0.295900  0.264900  1.0  0.1213
  H  H36  1  0.109200  0.261000  0.264900  1.0  0.102
  H  H37  1  0.883400  0.299500  0.411100  1.0  0.1649
  H  H38  1  0.886500  0.258300  0.486700  1.0  0.1376
  H  H39  1  0.779600  0.410900  0.290400  1.0  0.1272
  H  H40  1  0.706700  0.445400  0.295500  1.0  0.1252
  H  H41  1  0.043600  0.299900  0.768400  1.0  0.1235
  H  H42  1  0.118700  0.266600  0.731500  1.0  0.1286
  H  H43  1  0.115600  0.372600  0.631900  1.0  0.1428
  H  H44  1  0.041900  0.402600  0.661300  1.0  0.1008
  H  H45  1  0.772100  0.413700  0.889300  1.0  0.1294
  H  H46  1  0.696200  0.444000  0.919900  1.0  0.1278
  H  H47  1  0.695600  0.552900  0.812200  1.0  0.1211
  H  H48  1  0.768200  0.519500  0.780400  1.0  0.112
  H  H49  1  0.552200  0.443600  0.065700  1.0  0.1402
  H  H50  1  0.518400  0.411800  0.140100  1.0  0.1263
  H  H51  1  0.295900  0.401600  0.264900  1.0  0.1229
  H  H52  1  0.261000  0.364900  0.264900  1.0  0.1008
  H  H53  1  0.299500  0.406000  0.411100  1.0  0.1664
  H  H54  1  0.258300  0.368500  0.486700  1.0  0.1388
  H  H55  1  0.410900  0.519100  0.290400  1.0  0.1288
  H  H56  1  0.445400  0.552400  0.295500  1.0  0.1249
  H  H57  1  0.299900  0.888100  0.768400  1.0  0.1243
  H  H58  1  0.266600  0.883200  0.731500  1.0  0.1303
  H  H59  1  0.372600  0.879900  0.631900  1.0  0.143
  H  H60  1  0.402600  0.894200  0.661300  1.0  0.1009
  H  H61  1  0.413700  0.924900  0.889300  1.0  0.13
  H  H62  1  0.444000  0.939900  0.919900  1.0  0.13
  H  H63  1  0.552900  0.939300  0.812200  1.0  0.1211
  H  H64  1  0.519500  0.931900  0.780400  1.0  0.1138
  H  H65  1  0.443600  0.938500  0.065700  1.0  0.1391
  H  H66  1  0.411800  0.929700  0.140100  1.0  0.1278
  H  H67  1  0.401600  0.037600  0.264900  1.0  0.1222
  H  H68  1  0.364900  0.109200  0.264900  1.0  0.1024
  H  H69  1  0.406000  0.883400  0.411100  1.0  0.1662
  H  H70  1  0.368500  0.886500  0.486700  1.0  0.1392
  H  H71  1  0.519100  0.779600  0.290400  1.0  0.1281
  H  H72  1  0.552400  0.706700  0.295500  1.0  0.1266
  H  H73  1  0.888100  0.299900  0.768400  1.0  0.1245
  H  H74  1  0.883200  0.266600  0.731500  1.0  0.1305
  H  H75  1  0.879900  0.372600  0.631900  1.0  0.1428
  H  H76  1  0.894200  0.402600  0.661300  1.0  0.1021
  H  H77  1  0.924900  0.413700  0.889300  1.0  0.1304
  H  H78  1  0.939900  0.444000  0.919900  1.0  0.1283
  H  H79  1  0.939300  0.552900  0.812200  1.0  0.1211
  H  H80  1  0.931900  0.519500  0.780400  1.0  0.1133
  H  H81  1  0.938500  0.443600  0.065700  1.0  0.1393
  H  H82  1  0.929700  0.411800  0.140100  1.0  0.1263
  H  H83  1  0.037600  0.401600  0.264900  1.0  0.1235
  H  H84  1  0.109200  0.364900  0.264900  1.0  0.1026
  H  H85  1  0.883400  0.406000  0.411100  1.0  0.1679
  H  H86  1  0.886500  0.368500  0.486700  1.0  0.1395
  H  H87  1  0.779600  0.519100  0.290400  1.0  0.1283
  H  H88  1  0.706700  0.552400  0.295500  1.0  0.1262
  H  H89  1  0.043600  0.888100  0.768400  1.0  0.123
  H  H90  1  0.118700  0.883200  0.731500  1.0  0.1302
  H  H91  1  0.115600  0.879900  0.631900  1.0  0.1415
  H  H92  1  0.041900  0.894200  0.661300  1.0  0.1012
  H  H93  1  0.772100  0.924900  0.889300  1.0  0.1302
  H  H94  1  0.696200  0.939900  0.919900  1.0  0.1278
  H  H95  1  0.695600  0.939300  0.812200  1.0  0.1193
  H  H96  1  0.768200  0.931900  0.780400  1.0  0.1138
  H  H97  1  0.552200  0.938500  0.065700  1.0  0.1405
  H  H98  1  0.518400  0.929700  0.140100  1.0  0.1257
  H  H99  1  0.295900  0.037600  0.264900  1.0  0.1215
  H  H100  1  0.261000  0.109200  0.264900  1.0  0.1017
  H  H101  1  0.299500  0.883400  0.411100  1.0  0.1642
  H  H102  1  0.258300  0.886500  0.486700  1.0  0.1375
  H  H103  1  0.410900  0.779600  0.290400  1.0  0.1279
  H  H104  1  0.445400  0.706700  0.295500  1.0  0.1256
  H  H105  1  0.299900  0.043600  0.768400  1.0  0.1235
  H  H106  1  0.266600  0.118700  0.731500  1.0  0.1299
  H  H107  1  0.372600  0.115600  0.631900  1.0  0.1436
  H  H108  1  0.402600  0.041900  0.661300  1.0  0.1014
  H  H109  1  0.413700  0.772100  0.889300  1.0  0.1293
  H  H110  1  0.444000  0.696200  0.919900  1.0  0.128
  H  H111  1  0.552900  0.695600  0.812200  1.0  0.1197
  H  H112  1  0.519500  0.768200  0.780400  1.0  0.1121
  H  H113  1  0.443600  0.552200  0.065700  1.0  0.1397
  H  H114  1  0.411800  0.518400  0.140100  1.0  0.1265
  H  H115  1  0.401600  0.295900  0.264900  1.0  0.1224
  H  H116  1  0.364900  0.261000  0.264900  1.0  0.1015
  H  H117  1  0.406000  0.299500  0.411100  1.0  0.1669
  H  H118  1  0.368500  0.258300  0.486700  1.0  0.139
  H  H119  1  0.519100  0.410900  0.290400  1.0  0.1274
  H  H120  1  0.552400  0.445400  0.295500  1.0  0.1259
  H  H121  1  0.111900  0.700100  0.231600  1.0  0.1247
  H  H122  1  0.116800  0.733400  0.268500  1.0  0.131
  H  H123  1  0.120100  0.627400  0.368100  1.0  0.1424
  H  H124  1  0.105800  0.597400  0.338700  1.0  0.101
  H  H125  1  0.075100  0.586300  0.110700  1.0  0.1308
  H  H126  1  0.060100  0.556000  0.080100  1.0  0.1284
  H  H127  1  0.060700  0.447100  0.187800  1.0  0.1207
  H  H128  1  0.068100  0.480500  0.219600  1.0  0.1138
  H  H129  1  0.061500  0.556400  0.934300  1.0  0.1397
  H  H130  1  0.070300  0.588200  0.859900  1.0  0.1267
  H  H131  1  0.962400  0.598400  0.735100  1.0  0.1227
  H  H132  1  0.890800  0.635100  0.735100  1.0  0.1022
  H  H133  1  0.116600  0.594000  0.588900  1.0  0.1664
  H  H134  1  0.113500  0.631500  0.513300  1.0  0.1392
  H  H135  1  0.220400  0.480900  0.709600  1.0  0.1276
  H  H136  1  0.293300  0.447600  0.704500  1.0  0.1256
  H  H137  1  0.956400  0.111900  0.231600  1.0  0.1228
  H  H138  1  0.881300  0.116800  0.268500  1.0  0.1301
  H  H139  1  0.884400  0.120100  0.368100  1.0  0.1408
  H  H140  1  0.958100  0.105800  0.338700  1.0  0.101
  H  H141  1  0.227900  0.075100  0.110700  1.0  0.1296
  H  H142  1  0.303800  0.060100  0.080100  1.0  0.1278
  H  H143  1  0.304400  0.060700  0.187800  1.0  0.1208
  H  H144  1  0.231800  0.068100  0.219600  1.0  0.1139
  H  H145  1  0.447800  0.061500  0.934300  1.0  0.1392
  H  H146  1  0.481600  0.070300  0.859900  1.0  0.1252
  H  H147  1  0.704100  0.962400  0.735100  1.0  0.1225
  H  H148  1  0.739000  0.890800  0.735100  1.0  0.1019
  H  H149  1  0.700500  0.116600  0.588900  1.0  0.1666
  H  H150  1  0.741700  0.113500  0.513300  1.0  0.1361
  H  H151  1  0.589100  0.220400  0.709600  1.0  0.1282
  H  H152  1  0.554600  0.293300  0.704500  1.0  0.1255
  H  H153  1  0.700100  0.956400  0.231600  1.0  0.1239
  H  H154  1  0.733400  0.881300  0.268500  1.0  0.1304
  H  H155  1  0.627400  0.884400  0.368100  1.0  0.143
  H  H156  1  0.597400  0.958100  0.338700  1.0  0.1007
  H  H157  1  0.586300  0.227900  0.110700  1.0  0.1295
  H  H158  1  0.556000  0.303800  0.080100  1.0  0.1278
  H  H159  1  0.447100  0.304400  0.187800  1.0  0.1204
  H  H160  1  0.480500  0.231800  0.219600  1.0  0.1124
  H  H161  1  0.556400  0.447800  0.934300  1.0  0.14
  H  H162  1  0.588200  0.481600  0.859900  1.0  0.1263
  H  H163  1  0.598400  0.704100  0.735100  1.0  0.1227
  H  H164  1  0.635100  0.739000  0.735100  1.0  0.1006
  H  H165  1  0.594000  0.700500  0.588900  1.0  0.1669
  H  H166  1  0.631500  0.741700  0.513300  1.0  0.1387
  H  H167  1  0.480900  0.589100  0.709600  1.0  0.1276
  H  H168  1  0.447600  0.554600  0.704500  1.0  0.1261
  H  H169  1  0.111900  0.956400  0.231600  1.0  0.1225
  H  H170  1  0.116800  0.881300  0.268500  1.0  0.1296
  H  H171  1  0.120100  0.884400  0.368100  1.0  0.1402
  H  H172  1  0.105800  0.958100  0.338700  1.0  0.1005
  H  H173  1  0.075100  0.227900  0.110700  1.0  0.1288
  H  H174  1  0.060100  0.303800  0.080100  1.0  0.1269
  H  H175  1  0.060700  0.304400  0.187800  1.0  0.1205
  H  H176  1  0.068100  0.231800  0.219600  1.0  0.1132
  H  H177  1  0.061500  0.447800  0.934300  1.0  0.1396
  H  H178  1  0.070300  0.481600  0.859900  1.0  0.1255
  H  H179  1  0.962400  0.704100  0.735100  1.0  0.1223
  H  H180  1  0.890800  0.739000  0.735100  1.0  0.1011
  H  H181  1  0.116600  0.700500  0.588900  1.0  0.1668
  H  H182  1  0.113500  0.741700  0.513300  1.0  0.1365
  H  H183  1  0.220400  0.589100  0.709600  1.0  0.1275
  H  H184  1  0.293300  0.554600  0.704500  1.0  0.1252
  H  H185  1  0.956400  0.700100  0.231600  1.0  0.1238
  H  H186  1  0.881300  0.733400  0.268500  1.0  0.1289
  H  H187  1  0.884400  0.627400  0.368100  1.0  0.1421
  H  H188  1  0.958100  0.597400  0.338700  1.0  0.1001
  H  H189  1  0.227900  0.586300  0.110700  1.0  0.1294
  H  H190  1  0.303800  0.556000  0.080100  1.0  0.1274
  H  H191  1  0.304400  0.447100  0.187800  1.0  0.1202
  H  H192  1  0.231800  0.480500  0.219600  1.0  0.1124
  H  H193  1  0.447800  0.556400  0.934300  1.0  0.1393
  H  H194  1  0.481600  0.588200  0.859900  1.0  0.1263
  H  H195  1  0.704100  0.598400  0.735100  1.0  0.1211
  H  H196  1  0.739000  0.635100  0.735100  1.0  0.1016
  H  H197  1  0.700500  0.594000  0.588900  1.0  0.1666
  H  H198  1  0.741700  0.631500  0.513300  1.0  0.1388
  H  H199  1  0.589100  0.480900  0.709600  1.0  0.1285
  H  H200  1  0.554600  0.447600  0.704500  1.0  0.1246
  H  H201  1  0.700100  0.111900  0.231600  1.0  0.1248
  H  H202  1  0.733400  0.116800  0.268500  1.0  0.1299
  H  H203  1  0.627400  0.120100  0.368100  1.0  0.143
  H  H204  1  0.597400  0.105800  0.338700  1.0  0.1023
  H  H205  1  0.586300  0.075100  0.110700  1.0  0.1307
  H  H206  1  0.556000  0.060100  0.080100  1.0  0.1299
  H  H207  1  0.447100  0.060700  0.187800  1.0  0.1214
  H  H208  1  0.480500  0.068100  0.219600  1.0  0.1142
  H  H209  1  0.556400  0.061500  0.934300  1.0  0.1385
  H  H210  1  0.588200  0.070300  0.859900  1.0  0.1257
  H  H211  1  0.598400  0.962400  0.735100  1.0  0.1227
  H  H212  1  0.635100  0.890800  0.735100  1.0  0.1022
  H  H213  1  0.594000  0.116600  0.588900  1.0  0.1657
  H  H214  1  0.631500  0.113500  0.513300  1.0  0.1395
  H  H215  1  0.480900  0.220400  0.709600  1.0  0.1273
  H  H216  1  0.447600  0.293300  0.704500  1.0  0.1275
  C  C217  1  0.895300  0.988100  0.744700  1.0  0.4388
  C  C218  1  0.891100  0.033200  0.718900  1.0  -0.0482
  C  C219  1  0.887900  0.057000  0.739900  1.0  -0.0884
  C  C220  1  0.883900  0.104200  0.716800  1.0  -0.1003
  C  C221  1  0.881300  0.127900  0.676300  1.0  0.1738
  C  C222  1  0.883400  0.102000  0.658900  1.0  -0.0428
  C  C223  1  0.890100  0.056400  0.678100  1.0  -0.0523
  C  C224  1  0.876200  0.170200  0.662200  1.0  0.287
  C  C225  1  0.879900  0.224600  0.600100  1.0  0.1686
  C  C226  1  0.921400  0.827900  0.810100  1.0  0.7193
  C  C227  1  0.930400  0.775900  0.831400  1.0  -0.112
  C  C228  1  0.930300  0.755900  0.873700  1.0  -0.0501
  C  C229  1  0.938900  0.711000  0.891700  1.0  -0.096
  C  C230  1  0.945400  0.689400  0.868300  1.0  -0.0445
  C  C231  1  0.939300  0.710800  0.825700  1.0  -0.0887
  C  C232  1  0.933700  0.753100  0.808300  1.0  -0.0316
  C  C233  1  0.948200  0.645500  0.891400  1.0  0.131
  C  C234  1  0.948200  0.581900  0.948700  1.0  0.3009
  C  C235  1  0.937000  0.524100  0.080700  1.0  -0.0234
  C  C236  1  0.931600  0.504600  0.123900  1.0  -0.0281
  C  C237  1  0.054400  0.310100  0.261300  1.0  -0.1145
  C  C238  1  0.095900  0.290900  0.261000  1.0  -0.0254
  C  C239  1  0.884600  0.313900  0.424600  1.0  -0.0408
  C  C240  1  0.886500  0.287000  0.472000  1.0  -0.0695
  C  C241  1  0.762900  0.438800  0.292800  1.0  -0.0946
  C  C242  1  0.720500  0.460400  0.295500  1.0  -0.0476
  C  C243  1  0.988100  0.371900  0.744700  1.0  0.4323
  C  C244  1  0.033200  0.356800  0.718900  1.0  -0.0553
  C  C245  1  0.057000  0.315200  0.739900  1.0  -0.0888
  C  C246  1  0.104200  0.295100  0.716800  1.0  -0.1084
  C  C247  1  0.127900  0.314500  0.676300  1.0  0.1795
  C  C248  1  0.102000  0.355700  0.658900  1.0  -0.0449
  C  C249  1  0.056400  0.375400  0.678100  1.0  -0.0636
  C  C250  1  0.170200  0.291400  0.662200  1.0  0.2767
  C  C251  1  0.224600  0.295400  0.600100  1.0  0.1682
  C  C252  1  0.827900  0.440600  0.810100  1.0  0.7102
  C  C253  1  0.775900  0.462300  0.831400  1.0  -0.119
  C  C254  1  0.755900  0.440100  0.873700  1.0  -0.0455
  C  C255  1  0.711000  0.458400  0.891700  1.0  -0.1017
  C  C256  1  0.689400  0.496900  0.868300  1.0  -0.0378
  C  C257  1  0.710800  0.524200  0.825700  1.0  -0.0929
  C  C258  1  0.753100  0.504900  0.808300  1.0  -0.0309
  C  C259  1  0.645500  0.514900  0.891400  1.0  0.1404
  C  C260  1  0.581900  0.521200  0.948700  1.0  0.3004
  C  C261  1  0.524100  0.458200  0.080700  1.0  -0.0248
  C  C262  1  0.504600  0.439900  0.123900  1.0  -0.028
  C  C263  1  0.310100  0.374200  0.261300  1.0  -0.1113
  C  C264  1  0.290900  0.352200  0.261000  1.0  -0.0237
  C  C265  1  0.313900  0.376900  0.424600  1.0  -0.0476
  C  C266  1  0.287000  0.354500  0.472000  1.0  -0.0655
  C  C267  1  0.438800  0.505500  0.292800  1.0  -0.0949
  C  C268  1  0.460400  0.523600  0.295500  1.0  -0.0464
  C  C269  1  0.371900  0.895300  0.744700  1.0  0.4362
  C  C270  1  0.356800  0.891100  0.718900  1.0  -0.0535
  C  C271  1  0.315200  0.887900  0.739900  1.0  -0.0892
  C  C272  1  0.295100  0.883900  0.716800  1.0  -0.1082
  C  C273  1  0.314500  0.881300  0.676300  1.0  0.1796
  C  C274  1  0.355700  0.883400  0.658900  1.0  -0.0403
  C  C275  1  0.375400  0.890100  0.678100  1.0  -0.055
  C  C276  1  0.291400  0.876200  0.662200  1.0  0.2772
  C  C277  1  0.295400  0.879900  0.600100  1.0  0.1596
  C  C278  1  0.440600  0.921400  0.810100  1.0  0.7051
  C  C279  1  0.462300  0.930400  0.831400  1.0  -0.1219
  C  C280  1  0.440100  0.930300  0.873700  1.0  -0.041
  C  C281  1  0.458400  0.938900  0.891700  1.0  -0.1027
  C  C282  1  0.496900  0.945400  0.868300  1.0  -0.0377
  C  C283  1  0.524200  0.939300  0.825700  1.0  -0.0882
  C  C284  1  0.504900  0.933700  0.808300  1.0  -0.0311
  C  C285  1  0.514900  0.948200  0.891400  1.0  0.1399
  C  C286  1  0.521200  0.948200  0.948700  1.0  0.2989
  C  C287  1  0.458200  0.937000  0.080700  1.0  -0.0293
  C  C288  1  0.439900  0.931600  0.123900  1.0  -0.0234
  C  C289  1  0.374200  0.054400  0.261300  1.0  -0.1106
  C  C290  1  0.352200  0.095900  0.261000  1.0  -0.0302
  C  C291  1  0.376900  0.884600  0.424600  1.0  -0.0366
  C  C292  1  0.354500  0.886500  0.472000  1.0  -0.0635
  C  C293  1  0.505500  0.762900  0.292800  1.0  -0.0911
  C  C294  1  0.523600  0.720500  0.295500  1.0  -0.0416
  C  C295  1  0.895300  0.371900  0.744700  1.0  0.4365
  C  C296  1  0.891100  0.356800  0.718900  1.0  -0.0535
  C  C297  1  0.887900  0.315200  0.739900  1.0  -0.0889
  C  C298  1  0.883900  0.295100  0.716800  1.0  -0.1109
  C  C299  1  0.881300  0.314500  0.676300  1.0  0.1797
  C  C300  1  0.883400  0.355700  0.658900  1.0  -0.042
  C  C301  1  0.890100  0.375400  0.678100  1.0  -0.0602
  C  C302  1  0.876200  0.291400  0.662200  1.0  0.2757
  C  C303  1  0.879900  0.295400  0.600100  1.0  0.1605
  C  C304  1  0.921400  0.440600  0.810100  1.0  0.7049
  C  C305  1  0.930400  0.462300  0.831400  1.0  -0.1216
  C  C306  1  0.930300  0.440100  0.873700  1.0  -0.0414
  C  C307  1  0.938900  0.458400  0.891700  1.0  -0.1037
  C  C308  1  0.945400  0.496900  0.868300  1.0  -0.0368
  C  C309  1  0.939300  0.524200  0.825700  1.0  -0.0913
  C  C310  1  0.933700  0.504900  0.808300  1.0  -0.0323
  C  C311  1  0.948200  0.514900  0.891400  1.0  0.1404
  C  C312  1  0.948200  0.521200  0.948700  1.0  0.2929
  C  C313  1  0.937000  0.458200  0.080700  1.0  -0.0276
  C  C314  1  0.931600  0.439900  0.123900  1.0  -0.0273
  C  C315  1  0.054400  0.374200  0.261300  1.0  -0.1162
  C  C316  1  0.095900  0.352200  0.261000  1.0  -0.033
  C  C317  1  0.884600  0.376900  0.424600  1.0  -0.0393
  C  C318  1  0.886500  0.354500  0.472000  1.0  -0.0653
  C  C319  1  0.762900  0.505500  0.292800  1.0  -0.0947
  C  C320  1  0.720500  0.523600  0.295500  1.0  -0.052
  C  C321  1  0.988100  0.895300  0.744700  1.0  0.437
  C  C322  1  0.033200  0.891100  0.718900  1.0  -0.0496
  C  C323  1  0.057000  0.887900  0.739900  1.0  -0.0877
  C  C324  1  0.104200  0.883900  0.716800  1.0  -0.1001
  C  C325  1  0.127900  0.881300  0.676300  1.0  0.1742
  C  C326  1  0.102000  0.883400  0.658900  1.0  -0.0442
  C  C327  1  0.056400  0.890100  0.678100  1.0  -0.0527
  C  C328  1  0.170200  0.876200  0.662200  1.0  0.2888
  C  C329  1  0.224600  0.879900  0.600100  1.0  0.1686
  C  C330  1  0.827900  0.921400  0.810100  1.0  0.7189
  C  C331  1  0.775900  0.930400  0.831400  1.0  -0.1125
  C  C332  1  0.755900  0.930300  0.873700  1.0  -0.0499
  C  C333  1  0.711000  0.938900  0.891700  1.0  -0.0967
  C  C334  1  0.689400  0.945400  0.868300  1.0  -0.0444
  C  C335  1  0.710800  0.939300  0.825700  1.0  -0.0898
  C  C336  1  0.753100  0.933700  0.808300  1.0  -0.0313
  C  C337  1  0.645500  0.948200  0.891400  1.0  0.1307
  C  C338  1  0.581900  0.948200  0.948700  1.0  0.297
  C  C339  1  0.524100  0.937000  0.080700  1.0  -0.0257
  C  C340  1  0.504600  0.931600  0.123900  1.0  -0.026
  C  C341  1  0.310100  0.054400  0.261300  1.0  -0.1114
  C  C342  1  0.290900  0.095900  0.261000  1.0  -0.0248
  C  C343  1  0.313900  0.884600  0.424600  1.0  -0.0373
  C  C344  1  0.287000  0.886500  0.472000  1.0  -0.0697
  C  C345  1  0.438800  0.762900  0.292800  1.0  -0.0908
  C  C346  1  0.460400  0.720500  0.295500  1.0  -0.0484
  C  C347  1  0.371900  0.988100  0.744700  1.0  0.4337
  C  C348  1  0.356800  0.033200  0.718900  1.0  -0.0549
  C  C349  1  0.315200  0.057000  0.739900  1.0  -0.0901
  C  C350  1  0.295100  0.104200  0.716800  1.0  -0.1037
  C  C351  1  0.314500  0.127900  0.676300  1.0  0.1795
  C  C352  1  0.355700  0.102000  0.658900  1.0  -0.0418
  C  C353  1  0.375400  0.056400  0.678100  1.0  -0.0586
  C  C354  1  0.291400  0.170200  0.662200  1.0  0.276
  C  C355  1  0.295400  0.224600  0.600100  1.0  0.1691
  C  C356  1  0.440600  0.827900  0.810100  1.0  0.7102
  C  C357  1  0.462300  0.775900  0.831400  1.0  -0.1191
  C  C358  1  0.440100  0.755900  0.873700  1.0  -0.0465
  C  C359  1  0.458400  0.711000  0.891700  1.0  -0.1013
  C  C360  1  0.496900  0.689400  0.868300  1.0  -0.0363
  C  C361  1  0.524200  0.710800  0.825700  1.0  -0.0914
  C  C362  1  0.504900  0.753100  0.808300  1.0  -0.0314
  C  C363  1  0.514900  0.645500  0.891400  1.0  0.1404
  C  C364  1  0.521200  0.581900  0.948700  1.0  0.3035
  C  C365  1  0.458200  0.524100  0.080700  1.0  -0.0239
  C  C366  1  0.439900  0.504600  0.123900  1.0  -0.0314
  C  C367  1  0.374200  0.310100  0.261300  1.0  -0.1144
  C  C368  1  0.352200  0.290900  0.261000  1.0  -0.0323
  C  C369  1  0.376900  0.313900  0.424600  1.0  -0.0418
  C  C370  1  0.354500  0.287000  0.472000  1.0  -0.0641
  C  C371  1  0.505500  0.438800  0.292800  1.0  -0.0943
  C  C372  1  0.523600  0.460400  0.295500  1.0  -0.0499
  C  C373  1  0.878400  0.231950  0.657700  1.0  0.416
  C  C374  1  0.908000  0.374200  0.343600  1.0  0.368
  C  C375  1  0.884300  0.357700  0.400300  1.0  -0.0988
  C  C376  1  0.888100  0.311250  0.489400  1.0  0.1006
  C  C377  1  0.879700  0.294450  0.531400  1.0  0.2797
  C  C378  1  0.231950  0.231950  0.657700  1.0  0.4106
  C  C379  1  0.374200  0.374200  0.343600  1.0  0.3724
  C  C380  1  0.357700  0.357700  0.400300  1.0  -0.0944
  C  C381  1  0.311250  0.311250  0.489400  1.0  0.0916
  C  C382  1  0.294450  0.294450  0.531400  1.0  0.2835
  C  C383  1  0.231950  0.878400  0.657700  1.0  0.4156
  C  C384  1  0.374200  0.908000  0.343600  1.0  0.3693
  C  C385  1  0.357700  0.884300  0.400300  1.0  -0.0985
  C  C386  1  0.311250  0.888100  0.489400  1.0  0.0995
  C  C387  1  0.294450  0.879700  0.531400  1.0  0.2798
  C  C388  1  0.952000  0.579650  0.888700  1.0  0.464
  C  C389  1  0.948600  0.520900  0.009600  1.0  0.3749
  C  C390  1  0.940000  0.499850  0.060300  1.0  -0.0134
  C  C391  1  0.929100  0.464650  0.141600  1.0  0.0425
  C  C392  1  0.926600  0.439800  0.193800  1.0  0.6918
  C  C393  1  0.995100  0.372100  0.260700  1.0  0.2835
  C  C394  1  0.040700  0.351700  0.255900  1.0  0.2499
  C  C395  1  0.119900  0.312400  0.255300  1.0  -0.0055
  C  C396  1  0.171700  0.287700  0.252900  1.0  0.1816
  C  C397  1  0.821800  0.444800  0.288600  1.0  0.5238
  C  C398  1  0.776800  0.464300  0.294600  1.0  0.1178
  C  C399  1  0.693400  0.503900  0.298800  1.0  0.0352
  C  C400  1  0.652400  0.521400  0.304800  1.0  0.4248
  C  C401  1  0.579650  0.579650  0.888700  1.0  0.4605
  C  C402  1  0.520900  0.520900  0.009600  1.0  0.3749
  C  C403  1  0.499850  0.499850  0.060300  1.0  -0.0116
  C  C404  1  0.464650  0.464650  0.141600  1.0  0.0493
  C  C405  1  0.439800  0.439800  0.193800  1.0  0.6867
  C  C406  1  0.372100  0.372100  0.260700  1.0  0.284
  C  C407  1  0.351700  0.351700  0.255900  1.0  0.2555
  C  C408  1  0.312400  0.312400  0.255300  1.0  -0.0076
  C  C409  1  0.287700  0.287700  0.252900  1.0  0.178
  C  C410  1  0.444800  0.444800  0.288600  1.0  0.5272
  C  C411  1  0.464300  0.464300  0.294600  1.0  0.1207
  C  C412  1  0.503900  0.503900  0.298800  1.0  0.0334
  C  C413  1  0.521400  0.521400  0.304800  1.0  0.42
  C  C414  1  0.579650  0.952000  0.888700  1.0  0.4624
  C  C415  1  0.520900  0.948600  0.009600  1.0  0.373
  C  C416  1  0.499850  0.940000  0.060300  1.0  -0.0114
  C  C417  1  0.464650  0.929100  0.141600  1.0  0.0441
  C  C418  1  0.439800  0.926600  0.193800  1.0  0.6929
  C  C419  1  0.372100  0.995100  0.260700  1.0  0.2827
  C  C420  1  0.351700  0.040700  0.255900  1.0  0.2487
  C  C421  1  0.312400  0.119900  0.255300  1.0  -0.0049
  C  C422  1  0.287700  0.171700  0.252900  1.0  0.1816
  C  C423  1  0.444800  0.821800  0.288600  1.0  0.5272
  C  C424  1  0.464300  0.776800  0.294600  1.0  0.1184
  C  C425  1  0.503900  0.693400  0.298800  1.0  0.0351
  C  C426  1  0.521400  0.652400  0.304800  1.0  0.4233
  C  C427  1  0.228250  0.228250  0.252300  1.0  0.3142
  C  C428  1  0.228250  0.291200  0.252300  1.0  0.3116
  C  C429  1  0.291200  0.228250  0.252300  1.0  0.3102
  C  C430  1  0.587500  0.521100  0.303900  1.0  0.0193
  C  C431  1  0.521100  0.587500  0.303900  1.0  0.0164
  C  C432  1  0.587500  0.587500  0.303900  1.0  0.0193
  C  C433  1  0.104700  0.628100  0.255300  1.0  0.435
  C  C434  1  0.108900  0.643200  0.281100  1.0  -0.055
  C  C435  1  0.112100  0.684800  0.260100  1.0  -0.0917
  C  C436  1  0.116100  0.704900  0.283200  1.0  -0.1124
  C  C437  1  0.118700  0.685500  0.323700  1.0  0.1784
  C  C438  1  0.116600  0.644300  0.341100  1.0  -0.0425
  C  C439  1  0.109900  0.624600  0.321900  1.0  -0.0592
  C  C440  1  0.123800  0.708600  0.337800  1.0  0.2762
  C  C441  1  0.120100  0.704600  0.399900  1.0  0.1594
  C  C442  1  0.078600  0.559400  0.189900  1.0  0.705
  C  C443  1  0.069600  0.537700  0.168600  1.0  -0.122
  C  C444  1  0.069700  0.559900  0.126300  1.0  -0.0427
  C  C445  1  0.061100  0.541600  0.108300  1.0  -0.1039
  C  C446  1  0.054600  0.503100  0.131700  1.0  -0.0371
  C  C447  1  0.060700  0.475800  0.174300  1.0  -0.0908
  C  C448  1  0.066300  0.495100  0.191700  1.0  -0.0308
  C  C449  1  0.051800  0.485100  0.108600  1.0  0.1409
  C  C450  1  0.051800  0.478800  0.051300  1.0  0.2975
  C  C451  1  0.063000  0.541800  0.919300  1.0  -0.0284
  C  C452  1  0.068400  0.560100  0.876100  1.0  -0.0242
  C  C453  1  0.945600  0.625800  0.738700  1.0  -0.1114
  C  C454  1  0.904100  0.647800  0.739000  1.0  -0.029
  C  C455  1  0.115400  0.623100  0.575400  1.0  -0.0376
  C  C456  1  0.113500  0.645500  0.528000  1.0  -0.0675
  C  C457  1  0.237100  0.494500  0.707200  1.0  -0.0938
  C  C458  1  0.279500  0.476400  0.704500  1.0  -0.0466
  C  C459  1  0.011900  0.104700  0.255300  1.0  0.437
  C  C460  1  0.966800  0.108900  0.281100  1.0  -0.0484
  C  C461  1  0.943000  0.112100  0.260100  1.0  -0.0888
  C  C462  1  0.895800  0.116100  0.283200  1.0  -0.1006
  C  C463  1  0.872100  0.118700  0.323700  1.0  0.1738
  C  C464  1  0.898000  0.116600  0.341100  1.0  -0.0414
  C  C465  1  0.943600  0.109900  0.321900  1.0  -0.0523
  C  C466  1  0.829800  0.123800  0.337800  1.0  0.2887
  C  C467  1  0.775400  0.120100  0.399900  1.0  0.1686
  C  C468  1  0.172100  0.078600  0.189900  1.0  0.7185
  C  C469  1  0.224100  0.069600  0.168600  1.0  -0.1133
  C  C470  1  0.244100  0.069700  0.126300  1.0  -0.0506
  C  C471  1  0.289000  0.061100  0.108300  1.0  -0.0971
  C  C472  1  0.310600  0.054600  0.131700  1.0  -0.0449
  C  C473  1  0.289200  0.060700  0.174300  1.0  -0.0888
  C  C474  1  0.246900  0.066300  0.191700  1.0  -0.0315
  C  C475  1  0.354500  0.051800  0.108600  1.0  0.1318
  C  C476  1  0.418100  0.051800  0.051300  1.0  0.3028
  C  C477  1  0.475900  0.063000  0.919300  1.0  -0.0275
  C  C478  1  0.495400  0.068400  0.876100  1.0  -0.0271
  C  C479  1  0.689900  0.945600  0.738700  1.0  -0.1094
  C  C480  1  0.709100  0.904100  0.739000  1.0  -0.0232
  C  C481  1  0.686100  0.115400  0.575400  1.0  -0.0372
  C  C482  1  0.713000  0.113500  0.528000  1.0  -0.0649
  C  C483  1  0.561200  0.237100  0.707200  1.0  -0.092
  C  C484  1  0.539600  0.279500  0.704500  1.0  -0.0438
  C  C485  1  0.628100  0.011900  0.255300  1.0  0.4338
  C  C486  1  0.643200  0.966800  0.281100  1.0  -0.0548
  C  C487  1  0.684800  0.943000  0.260100  1.0  -0.0906
  C  C488  1  0.704900  0.895800  0.283200  1.0  -0.1053
  C  C489  1  0.685500  0.872100  0.323700  1.0  0.1789
  C  C490  1  0.644300  0.898000  0.341100  1.0  -0.0417
  C  C491  1  0.624600  0.943600  0.321900  1.0  -0.0593
  C  C492  1  0.708600  0.829800  0.337800  1.0  0.2761
  C  C493  1  0.704600  0.775400  0.399900  1.0  0.1688
  C  C494  1  0.559400  0.172100  0.189900  1.0  0.7107
  C  C495  1  0.537700  0.224100  0.168600  1.0  -0.1197
  C  C496  1  0.559900  0.244100  0.126300  1.0  -0.0457
  C  C497  1  0.541600  0.289000  0.108300  1.0  -0.1009
  C  C498  1  0.503100  0.310600  0.131700  1.0  -0.0361
  C  C499  1  0.475800  0.289200  0.174300  1.0  -0.0914
  C  C500  1  0.495100  0.246900  0.191700  1.0  -0.0331
  C  C501  1  0.485100  0.354500  0.108600  1.0  0.1402
  C  C502  1  0.478800  0.418100  0.051300  1.0  0.3036
  C  C503  1  0.541800  0.475900  0.919300  1.0  -0.025
  C  C504  1  0.560100  0.495400  0.876100  1.0  -0.0317
  C  C505  1  0.625800  0.689900  0.738700  1.0  -0.1148
  C  C506  1  0.647800  0.709100  0.739000  1.0  -0.028
  C  C507  1  0.623100  0.686100  0.575400  1.0  -0.0447
  C  C508  1  0.645500  0.713000  0.528000  1.0  -0.0653
  C  C509  1  0.494500  0.561200  0.707200  1.0  -0.093
  C  C510  1  0.476400  0.539600  0.704500  1.0  -0.0447
  C  C511  1  0.104700  0.011900  0.255300  1.0  0.4397
  C  C512  1  0.108900  0.966800  0.281100  1.0  -0.0478
  C  C513  1  0.112100  0.943000  0.260100  1.0  -0.0897
  C  C514  1  0.116100  0.895800  0.283200  1.0  -0.1012
  C  C515  1  0.118700  0.872100  0.323700  1.0  0.1729
  C  C516  1  0.116600  0.898000  0.341100  1.0  -0.041
  C  C517  1  0.109900  0.943600  0.321900  1.0  -0.0524
  C  C518  1  0.123800  0.829800  0.337800  1.0  0.2875
  C  C519  1  0.120100  0.775400  0.399900  1.0  0.1704
  C  C520  1  0.078600  0.172100  0.189900  1.0  0.7192
  C  C521  1  0.069600  0.224100  0.168600  1.0  -0.1129
  C  C522  1  0.069700  0.244100  0.126300  1.0  -0.0499
  C  C523  1  0.061100  0.289000  0.108300  1.0  -0.0973
  C  C524  1  0.054600  0.310600  0.131700  1.0  -0.0463
  C  C525  1  0.060700  0.289200  0.174300  1.0  -0.0877
  C  C526  1  0.066300  0.246900  0.191700  1.0  -0.0315
  C  C527  1  0.051800  0.354500  0.108600  1.0  0.131
  C  C528  1  0.051800  0.418100  0.051300  1.0  0.2993
  C  C529  1  0.063000  0.475900  0.919300  1.0  -0.0265
  C  C530  1  0.068400  0.495400  0.876100  1.0  -0.0274
  C  C531  1  0.945600  0.689900  0.738700  1.0  -0.1143
  C  C532  1  0.904100  0.709100  0.739000  1.0  -0.0281
  C  C533  1  0.115400  0.686100  0.575400  1.0  -0.0379
  C  C534  1  0.113500  0.713000  0.528000  1.0  -0.0666
  C  C535  1  0.237100  0.561200  0.707200  1.0  -0.0958
  C  C536  1  0.279500  0.539600  0.704500  1.0  -0.0505
  C  C537  1  0.011900  0.628100  0.255300  1.0  0.4328
  C  C538  1  0.966800  0.643200  0.281100  1.0  -0.0551
  C  C539  1  0.943000  0.684800  0.260100  1.0  -0.0917
  C  C540  1  0.895800  0.704900  0.283200  1.0  -0.1132
  C  C541  1  0.872100  0.685500  0.323700  1.0  0.1787
  C  C542  1  0.898000  0.644300  0.341100  1.0  -0.0439
  C  C543  1  0.943600  0.624600  0.321900  1.0  -0.0608
  C  C544  1  0.829800  0.708600  0.337800  1.0  0.2758
  C  C545  1  0.775400  0.704600  0.399900  1.0  0.1685
  C  C546  1  0.172100  0.559400  0.189900  1.0  0.7088
  C  C547  1  0.224100  0.537700  0.168600  1.0  -0.1205
  C  C548  1  0.244100  0.559900  0.126300  1.0  -0.0473
  C  C549  1  0.289000  0.541600  0.108300  1.0  -0.1017
  C  C550  1  0.310600  0.503100  0.131700  1.0  -0.0354
  C  C551  1  0.289200  0.475800  0.174300  1.0  -0.0925
  C  C552  1  0.246900  0.495100  0.191700  1.0  -0.0322
  C  C553  1  0.354500  0.485100  0.108600  1.0  0.1412
  C  C554  1  0.418100  0.478800  0.051300  1.0  0.3043
  C  C555  1  0.475900  0.541800  0.919300  1.0  -0.0277
  C  C556  1  0.495400  0.560100  0.876100  1.0  -0.029
  C  C557  1  0.689900  0.625800  0.738700  1.0  -0.1084
  C  C558  1  0.709100  0.647800  0.739000  1.0  -0.0277
  C  C559  1  0.686100  0.623100  0.575400  1.0  -0.0416
  C  C560  1  0.713000  0.645500  0.528000  1.0  -0.0635
  C  C561  1  0.561200  0.494500  0.707200  1.0  -0.0932
  C  C562  1  0.539600  0.476400  0.704500  1.0  -0.0518
  C  C563  1  0.628100  0.104700  0.255300  1.0  0.4348
  C  C564  1  0.643200  0.108900  0.281100  1.0  -0.0549
  C  C565  1  0.684800  0.112100  0.260100  1.0  -0.0893
  C  C566  1  0.704900  0.116100  0.283200  1.0  -0.1054
  C  C567  1  0.685500  0.118700  0.323700  1.0  0.179
  C  C568  1  0.644300  0.116600  0.341100  1.0  -0.0395
  C  C569  1  0.624600  0.109900  0.321900  1.0  -0.0579
  C  C570  1  0.708600  0.123800  0.337800  1.0  0.278
  C  C571  1  0.704600  0.120100  0.399900  1.0  0.1608
  C  C572  1  0.559400  0.078600  0.189900  1.0  0.705
  C  C573  1  0.537700  0.069600  0.168600  1.0  -0.1229
  C  C574  1  0.559900  0.069700  0.126300  1.0  -0.0405
  C  C575  1  0.541600  0.061100  0.108300  1.0  -0.1028
  C  C576  1  0.503100  0.054600  0.131700  1.0  -0.0379
  C  C577  1  0.475800  0.060700  0.174300  1.0  -0.0919
  C  C578  1  0.495100  0.066300  0.191700  1.0  -0.0309
  C  C579  1  0.485100  0.051800  0.108600  1.0  0.1406
  C  C580  1  0.478800  0.051800  0.051300  1.0  0.2979
  C  C581  1  0.541800  0.063000  0.919300  1.0  -0.0306
  C  C582  1  0.560100  0.068400  0.876100  1.0  -0.0233
  C  C583  1  0.625800  0.945600  0.738700  1.0  -0.1125
  C  C584  1  0.647800  0.904100  0.739000  1.0  -0.0328
  C  C585  1  0.623100  0.115400  0.575400  1.0  -0.0377
  C  C586  1  0.645500  0.113500  0.528000  1.0  -0.0659
  C  C587  1  0.494500  0.237100  0.707200  1.0  -0.0909
  C  C588  1  0.476400  0.279500  0.704500  1.0  -0.0461
  C  C589  1  0.121600  0.768050  0.342300  1.0  0.4154
  C  C590  1  0.092000  0.625800  0.656400  1.0  0.3708
  C  C591  1  0.115700  0.642300  0.599700  1.0  -0.0974
  C  C592  1  0.111900  0.688750  0.510600  1.0  0.0994
  C  C593  1  0.120300  0.705550  0.468600  1.0  0.2809
  C  C594  1  0.768050  0.121600  0.342300  1.0  0.4162
  C  C595  1  0.625800  0.092000  0.656400  1.0  0.3689
  C  C596  1  0.642300  0.115700  0.599700  1.0  -0.0974
  C  C597  1  0.688750  0.111900  0.510600  1.0  0.0985
  C  C598  1  0.705550  0.120300  0.468600  1.0  0.2805
  C  C599  1  0.768050  0.768050  0.342300  1.0  0.4109
  C  C600  1  0.625800  0.625800  0.656400  1.0  0.368
  C  C601  1  0.642300  0.642300  0.599700  1.0  -0.0964
  C  C602  1  0.688750  0.688750  0.510600  1.0  0.0904
  C  C603  1  0.705550  0.705550  0.468600  1.0  0.2843
  C  C604  1  0.048000  0.420350  0.111300  1.0  0.4617
  C  C605  1  0.051400  0.479100  0.990400  1.0  0.3741
  C  C606  1  0.060000  0.500150  0.939700  1.0  -0.0127
  C  C607  1  0.070900  0.535350  0.858400  1.0  0.0443
  C  C608  1  0.073400  0.560200  0.806200  1.0  0.6923
  C  C609  1  0.004900  0.627900  0.739300  1.0  0.2837
  C  C610  1  0.959300  0.648300  0.744100  1.0  0.2501
  C  C611  1  0.880100  0.687600  0.744700  1.0  -0.0058
  C  C612  1  0.828300  0.712300  0.747100  1.0  0.1823
  C  C613  1  0.178200  0.555200  0.711400  1.0  0.5242
  C  C614  1  0.223200  0.535700  0.705400  1.0  0.1164
  C  C615  1  0.306600  0.496100  0.701200  1.0  0.0306
  C  C616  1  0.347600  0.478600  0.695200  1.0  0.4249
  C  C617  1  0.420350  0.048000  0.111300  1.0  0.4602
  C  C618  1  0.479100  0.051400  0.990400  1.0  0.3729
  C  C619  1  0.500150  0.060000  0.939700  1.0  -0.0125
  C  C620  1  0.535350  0.070900  0.858400  1.0  0.0446
  C  C621  1  0.560200  0.073400  0.806200  1.0  0.6905
  C  C622  1  0.627900  0.004900  0.739300  1.0  0.2833
  C  C623  1  0.648300  0.959300  0.744100  1.0  0.2482
  C  C624  1  0.687600  0.880100  0.744700  1.0  -0.0045
  C  C625  1  0.712300  0.828300  0.747100  1.0  0.1816
  C  C626  1  0.555200  0.178200  0.711400  1.0  0.5267
  C  C627  1  0.535700  0.223200  0.705400  1.0  0.1193
  C  C628  1  0.496100  0.306600  0.701200  1.0  0.0352
  C  C629  1  0.478600  0.347600  0.695200  1.0  0.4267
  C  C630  1  0.420350  0.420350  0.111300  1.0  0.4591
  C  C631  1  0.479100  0.479100  0.990400  1.0  0.3743
  C  C632  1  0.500150  0.500150  0.939700  1.0  -0.0143
  C  C633  1  0.535350  0.535350  0.858400  1.0  0.0489
  C  C634  1  0.560200  0.560200  0.806200  1.0  0.6861
  C  C635  1  0.627900  0.627900  0.739300  1.0  0.2839
  C  C636  1  0.648300  0.648300  0.744100  1.0  0.2533
  C  C637  1  0.687600  0.687600  0.744700  1.0  -0.0074
  C  C638  1  0.712300  0.712300  0.747100  1.0  0.1788
  C  C639  1  0.555200  0.555200  0.711400  1.0  0.5266
  C  C640  1  0.535700  0.535700  0.705400  1.0  0.1194
  C  C641  1  0.496100  0.496100  0.701200  1.0  0.0337
  C  C642  1  0.478600  0.478600  0.695200  1.0  0.4244
  C  C643  1  0.771750  0.708800  0.747700  1.0  0.3091
  C  C644  1  0.771750  0.771750  0.747700  1.0  0.312
  C  C645  1  0.708800  0.771750  0.747700  1.0  0.3112
  C  C646  1  0.412500  0.412500  0.696100  1.0  0.0177
  C  C647  1  0.478900  0.412500  0.696100  1.0  0.0168
  C  C648  1  0.412500  0.478900  0.696100  1.0  0.0169
  N  N649  1  0.876800  0.191500  0.680200  1.0  -0.3954
  N  N650  1  0.875000  0.185000  0.622000  1.0  -0.2483
  N  N651  1  0.947300  0.621800  0.934000  1.0  -0.2259
  N  N652  1  0.949300  0.621800  0.869800  1.0  -0.4152
  N  N653  1  0.948300  0.561700  0.991300  1.0  -0.2889
  N  N654  1  0.189100  0.246500  0.252300  1.0  -0.2137
  N  N655  1  0.877900  0.252400  0.553900  1.0  -0.3007
  N  N656  1  0.630400  0.506700  0.302400  1.0  -0.2491
  N  N657  1  0.191500  0.251500  0.680200  1.0  -0.4038
  N  N658  1  0.185000  0.318000  0.622000  1.0  -0.2478
  N  N659  1  0.621800  0.496900  0.934000  1.0  -0.2305
  N  N660  1  0.621800  0.559100  0.869800  1.0  -0.4151
  N  N661  1  0.561700  0.498700  0.991300  1.0  -0.2856
  N  N662  1  0.246500  0.312100  0.252300  1.0  -0.2097
  N  N663  1  0.252400  0.315800  0.553900  1.0  -0.3097
  N  N664  1  0.506700  0.560500  0.302400  1.0  -0.2485
  N  N665  1  0.251500  0.876800  0.680200  1.0  -0.4048
  N  N666  1  0.318000  0.875000  0.622000  1.0  -0.2346
  N  N667  1  0.496900  0.947300  0.934000  1.0  -0.2294
  N  N668  1  0.559100  0.949300  0.869800  1.0  -0.4124
  N  N669  1  0.498700  0.948300  0.991300  1.0  -0.2834
  N  N670  1  0.312100  0.189100  0.252300  1.0  -0.209
  N  N671  1  0.315800  0.877900  0.553900  1.0  -0.3085
  N  N672  1  0.560500  0.630400  0.302400  1.0  -0.2509
  N  N673  1  0.876800  0.251500  0.680200  1.0  -0.4087
  N  N674  1  0.875000  0.318000  0.622000  1.0  -0.2333
  N  N675  1  0.947300  0.496900  0.934000  1.0  -0.2302
  N  N676  1  0.949300  0.559100  0.869800  1.0  -0.4172
  N  N677  1  0.948300  0.498700  0.991300  1.0  -0.2823
  N  N678  1  0.189100  0.312100  0.252300  1.0  -0.2113
  N  N679  1  0.877900  0.315800  0.553900  1.0  -0.3112
  N  N680  1  0.630400  0.560500  0.302400  1.0  -0.2494
  N  N681  1  0.191500  0.876800  0.680200  1.0  -0.3959
  N  N682  1  0.185000  0.875000  0.622000  1.0  -0.249
  N  N683  1  0.621800  0.947300  0.934000  1.0  -0.2285
  N  N684  1  0.621800  0.949300  0.869800  1.0  -0.4152
  N  N685  1  0.561700  0.948300  0.991300  1.0  -0.2899
  N  N686  1  0.246500  0.189100  0.252300  1.0  -0.2153
  N  N687  1  0.252400  0.877900  0.553900  1.0  -0.3012
  N  N688  1  0.506700  0.630400  0.302400  1.0  -0.2471
  N  N689  1  0.251500  0.191500  0.680200  1.0  -0.4018
  N  N690  1  0.318000  0.185000  0.622000  1.0  -0.2464
  N  N691  1  0.496900  0.621800  0.934000  1.0  -0.228
  N  N692  1  0.559100  0.621800  0.869800  1.0  -0.4143
  N  N693  1  0.498700  0.561700  0.991300  1.0  -0.2871
  N  N694  1  0.312100  0.246500  0.252300  1.0  -0.2045
  N  N695  1  0.315800  0.252400  0.553900  1.0  -0.3068
  N  N696  1  0.560500  0.506700  0.302400  1.0  -0.2497
  N  N697  1  0.880700  0.252100  0.615100  1.0  -0.2164
  N  N698  1  0.252100  0.252100  0.615100  1.0  -0.2208
  N  N699  1  0.252100  0.880700  0.615100  1.0  -0.2158
  N  N700  1  0.948300  0.559750  0.932200  1.0  0.0054
  N  N701  1  0.559750  0.559750  0.932200  1.0  0.0029
  N  N702  1  0.559750  0.948300  0.932200  1.0  0.0074
  N  N703  1  0.249130  0.249130  0.252610  1.0  0.061
  N  N704  1  0.564970  0.564970  0.305090  1.0  -0.236
  N  N705  1  0.123200  0.748500  0.319800  1.0  -0.4127
  N  N706  1  0.125000  0.682000  0.378000  1.0  -0.2353
  N  N707  1  0.052700  0.503100  0.066000  1.0  -0.2297
  N  N708  1  0.050700  0.440900  0.130200  1.0  -0.4143
  N  N709  1  0.051700  0.501300  0.008700  1.0  -0.2839
  N  N710  1  0.810900  0.687900  0.747700  1.0  -0.211
  N  N711  1  0.122100  0.684200  0.446100  1.0  -0.3083
  N  N712  1  0.369600  0.439500  0.697600  1.0  -0.2498
  N  N713  1  0.808500  0.123200  0.319800  1.0  -0.3988
  N  N714  1  0.815000  0.125000  0.378000  1.0  -0.2479
  N  N715  1  0.378200  0.052700  0.066000  1.0  -0.226
  N  N716  1  0.378200  0.050700  0.130200  1.0  -0.4131
  N  N717  1  0.438300  0.051700  0.008700  1.0  -0.2876
  N  N718  1  0.753500  0.810900  0.747700  1.0  -0.2162
  N  N719  1  0.747600  0.122100  0.446100  1.0  -0.2995
  N  N720  1  0.493300  0.369600  0.697600  1.0  -0.2503
  N  N721  1  0.748500  0.808500  0.319800  1.0  -0.4048
  N  N722  1  0.682000  0.815000  0.378000  1.0  -0.2424
  N  N723  1  0.503100  0.378200  0.066000  1.0  -0.233
  N  N724  1  0.440900  0.378200  0.130200  1.0  -0.4127
  N  N725  1  0.501300  0.438300  0.008700  1.0  -0.2875
  N  N726  1  0.687900  0.753500  0.747700  1.0  -0.2025
  N  N727  1  0.684200  0.747600  0.446100  1.0  -0.3078
  N  N728  1  0.439500  0.493300  0.697600  1.0  -0.2509
  N  N729  1  0.123200  0.808500  0.319800  1.0  -0.3991
  N  N730  1  0.125000  0.815000  0.378000  1.0  -0.2468
  N  N731  1  0.052700  0.378200  0.066000  1.0  -0.2293
  N  N732  1  0.050700  0.378200  0.130200  1.0  -0.4143
  N  N733  1  0.051700  0.438300  0.008700  1.0  -0.2898
  N  N734  1  0.810900  0.753500  0.747700  1.0  -0.2124
  N  N735  1  0.122100  0.747600  0.446100  1.0  -0.3001
  N  N736  1  0.369600  0.493300  0.697600  1.0  -0.2497
  N  N737  1  0.808500  0.748500  0.319800  1.0  -0.4068
  N  N738  1  0.815000  0.682000  0.378000  1.0  -0.2472
  N  N739  1  0.378200  0.503100  0.066000  1.0  -0.2316
  N  N740  1  0.378200  0.440900  0.130200  1.0  -0.412
  N  N741  1  0.438300  0.501300  0.008700  1.0  -0.2845
  N  N742  1  0.753500  0.687900  0.747700  1.0  -0.206
  N  N743  1  0.747600  0.684200  0.446100  1.0  -0.3067
  N  N744  1  0.493300  0.439500  0.697600  1.0  -0.2481
  N  N745  1  0.748500  0.123200  0.319800  1.0  -0.4099
  N  N746  1  0.682000  0.125000  0.378000  1.0  -0.232
  N  N747  1  0.503100  0.052700  0.066000  1.0  -0.2299
  N  N748  1  0.440900  0.050700  0.130200  1.0  -0.4117
  N  N749  1  0.501300  0.051700  0.008700  1.0  -0.2861
  N  N750  1  0.687900  0.810900  0.747700  1.0  -0.2085
  N  N751  1  0.684200  0.122100  0.446100  1.0  -0.3061
  N  N752  1  0.439500  0.369600  0.697600  1.0  -0.25
  N  N753  1  0.119300  0.747900  0.384900  1.0  -0.2165
  N  N754  1  0.747900  0.119300  0.384900  1.0  -0.2168
  N  N755  1  0.747900  0.747900  0.384900  1.0  -0.2208
  N  N756  1  0.051700  0.440250  0.067800  1.0  0.0041
  N  N757  1  0.440250  0.051700  0.067800  1.0  0.0049
  N  N758  1  0.440250  0.440250  0.067800  1.0  0.0035
  N  N759  1  0.750870  0.750870  0.747390  1.0  0.0612
  N  N760  1  0.435030  0.435030  0.694910  1.0  -0.2361
  O  O761  1  0.897100  0.970900  0.779800  1.0  -0.5182
  O  O762  1  0.897040  0.970940  0.718480  1.0  -0.5884
  O  O763  1  0.918000  0.845000  0.774100  1.0  -0.5482
  O  O764  1  0.919300  0.845600  0.832300  1.0  -0.5579
  O  O765  1  0.920800  0.404100  0.212400  1.0  -0.5807
  O  O766  1  0.965200  0.353000  0.266400  1.0  -0.7717
  O  O767  1  0.892000  0.352300  0.340600  1.0  -0.6281
  O  O768  1  0.846700  0.406100  0.283800  1.0  -0.6006
  O  O769  1  0.970900  0.352200  0.779800  1.0  -0.515
  O  O770  1  0.970940  0.413540  0.718480  1.0  -0.5845
  O  O771  1  0.845000  0.462900  0.774100  1.0  -0.5492
  O  O772  1  0.845600  0.402800  0.832300  1.0  -0.5524
  O  O773  1  0.404100  0.462700  0.212400  1.0  -0.5836
  O  O774  1  0.353000  0.415400  0.266400  1.0  -0.7704
  O  O775  1  0.352300  0.415100  0.340600  1.0  -0.6289
  O  O776  1  0.406100  0.463400  0.283800  1.0  -0.6018
  O  O777  1  0.352200  0.897100  0.779800  1.0  -0.5181
  O  O778  1  0.413540  0.897040  0.718480  1.0  -0.5696
  O  O779  1  0.462900  0.918000  0.774100  1.0  -0.5523
  O  O780  1  0.402800  0.919300  0.832300  1.0  -0.551
  O  O781  1  0.462700  0.920800  0.212400  1.0  -0.5842
  O  O782  1  0.415400  0.965200  0.266400  1.0  -0.769
  O  O783  1  0.415100  0.892000  0.340600  1.0  -0.619
  O  O784  1  0.463400  0.846700  0.283800  1.0  -0.5995
  O  O785  1  0.897100  0.352200  0.779800  1.0  -0.5191
  O  O786  1  0.897040  0.413540  0.718480  1.0  -0.5706
  O  O787  1  0.918000  0.462900  0.774100  1.0  -0.5525
  O  O788  1  0.919300  0.402800  0.832300  1.0  -0.5521
  O  O789  1  0.920800  0.462700  0.212400  1.0  -0.5839
  O  O790  1  0.965200  0.415400  0.266400  1.0  -0.7695
  O  O791  1  0.892000  0.415100  0.340600  1.0  -0.6173
  O  O792  1  0.846700  0.463400  0.283800  1.0  -0.6012
  O  O793  1  0.970900  0.897100  0.779800  1.0  -0.5189
  O  O794  1  0.970940  0.897040  0.718480  1.0  -0.589
  O  O795  1  0.845000  0.918000  0.774100  1.0  -0.5507
  O  O796  1  0.845600  0.919300  0.832300  1.0  -0.5596
  O  O797  1  0.404100  0.920800  0.212400  1.0  -0.5793
  O  O798  1  0.353000  0.965200  0.266400  1.0  -0.7668
  O  O799  1  0.352300  0.892000  0.340600  1.0  -0.6273
  O  O800  1  0.406100  0.846700  0.283800  1.0  -0.5999
  O  O801  1  0.352200  0.970900  0.779800  1.0  -0.5142
  O  O802  1  0.413540  0.970940  0.718480  1.0  -0.5833
  O  O803  1  0.462900  0.845000  0.774100  1.0  -0.5491
  O  O804  1  0.402800  0.845600  0.832300  1.0  -0.552
  O  O805  1  0.462700  0.404100  0.212400  1.0  -0.5859
  O  O806  1  0.415400  0.353000  0.266400  1.0  -0.773
  O  O807  1  0.415100  0.352300  0.340600  1.0  -0.6294
  O  O808  1  0.463400  0.406100  0.283800  1.0  -0.6033
  O  O809  1  0.102900  0.647800  0.220200  1.0  -0.519
  O  O810  1  0.102960  0.586460  0.281520  1.0  -0.5705
  O  O811  1  0.082000  0.537100  0.225900  1.0  -0.5529
  O  O812  1  0.080700  0.597200  0.167700  1.0  -0.5507
  O  O813  1  0.079200  0.537300  0.787600  1.0  -0.5848
  O  O814  1  0.034800  0.584600  0.733600  1.0  -0.7691
  O  O815  1  0.108000  0.584900  0.659400  1.0  -0.6154
  O  O816  1  0.153300  0.536600  0.716200  1.0  -0.6002
  O  O817  1  0.029100  0.102900  0.220200  1.0  -0.5181
  O  O818  1  0.029060  0.102960  0.281520  1.0  -0.5887
  O  O819  1  0.155000  0.082000  0.225900  1.0  -0.55
  O  O820  1  0.154400  0.080700  0.167700  1.0  -0.5607
  O  O821  1  0.595900  0.079200  0.787600  1.0  -0.5798
  O  O822  1  0.647000  0.034800  0.733600  1.0  -0.7698
  O  O823  1  0.647700  0.108000  0.659400  1.0  -0.6291
  O  O824  1  0.593900  0.153300  0.716200  1.0  -0.6007
  O  O825  1  0.647800  0.029100  0.220200  1.0  -0.5145
  O  O826  1  0.586460  0.029060  0.281520  1.0  -0.5824
  O  O827  1  0.537100  0.155000  0.225900  1.0  -0.5479
  O  O828  1  0.597200  0.154400  0.167700  1.0  -0.552
  O  O829  1  0.537300  0.595900  0.787600  1.0  -0.5851
  O  O830  1  0.584600  0.647000  0.733600  1.0  -0.7703
  O  O831  1  0.584900  0.647700  0.659400  1.0  -0.6288
  O  O832  1  0.536600  0.593900  0.716200  1.0  -0.6033
  O  O833  1  0.102900  0.029100  0.220200  1.0  -0.5179
  O  O834  1  0.102960  0.029060  0.281520  1.0  -0.5868
  O  O835  1  0.082000  0.155000  0.225900  1.0  -0.5483
  O  O836  1  0.080700  0.154400  0.167700  1.0  -0.56
  O  O837  1  0.079200  0.595900  0.787600  1.0  -0.582
  O  O838  1  0.034800  0.647000  0.733600  1.0  -0.7717
  O  O839  1  0.108000  0.647700  0.659400  1.0  -0.63
  O  O840  1  0.153300  0.593900  0.716200  1.0  -0.6021
  O  O841  1  0.029100  0.647800  0.220200  1.0  -0.5155
  O  O842  1  0.029060  0.586460  0.281520  1.0  -0.5858
  O  O843  1  0.155000  0.537100  0.225900  1.0  -0.5493
  O  O844  1  0.154400  0.597200  0.167700  1.0  -0.5518
  O  O845  1  0.595900  0.537300  0.787600  1.0  -0.585
  O  O846  1  0.647000  0.584600  0.733600  1.0  -0.771
  O  O847  1  0.647700  0.584900  0.659400  1.0  -0.6275
  O  O848  1  0.593900  0.536600  0.716200  1.0  -0.6035
  O  O849  1  0.647800  0.102900  0.220200  1.0  -0.518
  O  O850  1  0.586460  0.102960  0.281520  1.0  -0.5703
  O  O851  1  0.537100  0.082000  0.225900  1.0  -0.5507
  O  O852  1  0.597200  0.080700  0.167700  1.0  -0.5517
  O  O853  1  0.537300  0.079200  0.787600  1.0  -0.5831
  O  O854  1  0.584600  0.034800  0.733600  1.0  -0.7655
  O  O855  1  0.584900  0.108000  0.659400  1.0  -0.6168
  O  O856  1  0.536600  0.153300  0.716200  1.0  -0.6002
