# generated using pymatgen
data_Tm3Co2H46C72N12Cl2O37
_symmetry_space_group_name_H-M   'P 1'
_cell_length_a   18.42600000
_cell_length_b   18.50700000
_cell_length_c   48.37400000
_cell_angle_alpha   90.00000000
_cell_angle_beta   90.00000000
_cell_angle_gamma   90.00000000
_symmetry_Int_Tables_number   1
_chemical_formula_structural   Tm3Co2H46C72N12Cl2O37
_chemical_formula_sum   'Tm24 Co16 H368 C576 N96 Cl16 O296'
_cell_volume   16496.01686927
_cell_formula_units_Z   8
loop_
 _symmetry_equiv_pos_site_id
 _symmetry_equiv_pos_as_xyz
  1  'x, y, z'
loop_
 _atom_site_type_symbol
 _atom_site_label
 _atom_site_symmetry_multiplicity
 _atom_site_fract_x
 _atom_site_fract_y
 _atom_site_fract_z
 _atom_site_occupancy
 _atom_site_charge
  Tm  Tm1  1  0.799600  0.929530  0.878170  1.0  2.0996
  Tm  Tm2  1  0.681000  0.486340  0.875870  1.0  2.0853
  Tm  Tm3  1  0.369110  0.901880  0.122290  1.0  2.0902
  Tm  Tm4  1  0.299600  0.070470  0.621830  1.0  2.0995
  Tm  Tm5  1  0.181000  0.513660  0.624130  1.0  2.0882
  Tm  Tm6  1  0.869110  0.098120  0.377710  1.0  2.09
  Tm  Tm7  1  0.700400  0.429530  0.121830  1.0  2.0979
  Tm  Tm8  1  0.819000  0.986340  0.124130  1.0  2.0853
  Tm  Tm9  1  0.130890  0.401880  0.877710  1.0  2.0896
  Tm  Tm10  1  0.200400  0.570470  0.378170  1.0  2.0984
  Tm  Tm11  1  0.319000  0.013660  0.375870  1.0  2.0884
  Tm  Tm12  1  0.630890  0.598120  0.622290  1.0  2.0902
  Tm  Tm13  1  0.200400  0.070470  0.121830  1.0  2.099
  Tm  Tm14  1  0.319000  0.513660  0.124130  1.0  2.0882
  Tm  Tm15  1  0.630890  0.098120  0.877710  1.0  2.0899
  Tm  Tm16  1  0.700400  0.929530  0.378170  1.0  2.0992
  Tm  Tm17  1  0.819000  0.486340  0.375870  1.0  2.0855
  Tm  Tm18  1  0.130890  0.901880  0.622290  1.0  2.0901
  Tm  Tm19  1  0.299600  0.570470  0.878170  1.0  2.0991
  Tm  Tm20  1  0.181000  0.013660  0.875870  1.0  2.0884
  Tm  Tm21  1  0.869110  0.598120  0.122290  1.0  2.0904
  Tm  Tm22  1  0.799600  0.429530  0.621830  1.0  2.0988
  Tm  Tm23  1  0.681000  0.986340  0.624130  1.0  2.0851
  Tm  Tm24  1  0.369110  0.401880  0.377710  1.0  2.0897
  Co  Co25  1  0.953740  0.614750  0.755400  1.0  0.846
  Co  Co26  1  0.608330  0.747560  0.997700  1.0  0.6141
  Co  Co27  1  0.453740  0.385250  0.744600  1.0  0.8452
  Co  Co28  1  0.108330  0.252440  0.502300  1.0  0.6141
  Co  Co29  1  0.546260  0.114750  0.244600  1.0  0.8436
  Co  Co30  1  0.891670  0.247560  0.002300  1.0  0.6146
  Co  Co31  1  0.046260  0.885250  0.255400  1.0  0.8433
  Co  Co32  1  0.391670  0.752440  0.497700  1.0  0.6147
  Co  Co33  1  0.046260  0.385250  0.244600  1.0  0.8431
  Co  Co34  1  0.391670  0.252440  0.002300  1.0  0.6147
  Co  Co35  1  0.546260  0.614750  0.255400  1.0  0.8438
  Co  Co36  1  0.891670  0.747560  0.497700  1.0  0.6146
  Co  Co37  1  0.453740  0.885250  0.755400  1.0  0.8454
  Co  Co38  1  0.108330  0.752440  0.997700  1.0  0.6142
  Co  Co39  1  0.953740  0.114750  0.744600  1.0  0.8457
  Co  Co40  1  0.608330  0.247560  0.502300  1.0  0.6141
  H  H41  1  0.801100  0.773100  0.879200  1.0  0.4674
  H  H42  1  0.723700  0.792700  0.880200  1.0  0.4884
  H  H43  1  0.550200  0.481200  0.909900  1.0  0.3503
  H  H44  1  0.541000  0.421700  0.890000  1.0  0.3883
  H  H45  1  0.680900  0.331600  0.886800  1.0  0.4274
  H  H46  1  0.658200  0.338000  0.857700  1.0  0.4786
  H  H47  1  0.498900  0.908100  0.090900  1.0  0.4513
  H  H48  1  0.521100  0.925700  0.119300  1.0  0.3923
  H  H49  1  0.971200  0.957700  0.875200  1.0  0.3947
  H  H50  1  0.940500  0.031100  0.875200  1.0  0.3923
  H  H51  1  0.537700  0.724900  0.054900  1.0  0.094
  H  H52  1  0.370600  0.863000  0.056800  1.0  0.1168
  H  H53  1  0.410000  0.909700  0.014600  1.0  0.1251
  H  H54  1  0.462300  0.956100  0.977100  1.0  0.1352
  H  H55  1  0.531300  0.999400  0.940000  1.0  0.105
  H  H56  1  0.668700  0.834200  0.950000  1.0  0.0925
  H  H57  1  0.791900  0.186600  0.956500  1.0  0.1006
  H  H58  1  0.910500  0.025900  0.924100  1.0  0.1083
  H  H59  1  0.994000  0.039600  0.959700  1.0  0.1387
  H  H60  1  0.060700  0.053700  0.996400  1.0  0.1246
  H  H61  1  0.126300  0.074300  0.036900  1.0  0.1187
  H  H62  1  0.994400  0.242300  0.052700  1.0  0.0987
  H  H63  1  0.942700  0.703300  0.811000  1.0  0.0919
  H  H64  1  0.801800  0.865600  0.799400  1.0  0.1237
  H  H65  1  0.776900  0.818300  0.756100  1.0  0.1209
  H  H66  1  0.763000  0.771100  0.715600  1.0  0.129
  H  H67  1  0.738100  0.705900  0.675900  1.0  0.116
  H  H68  1  0.874300  0.552800  0.702100  1.0  0.0691
  H  H69  1  0.473300  0.798200  0.698500  1.0  0.0749
  H  H70  1  0.627800  0.650300  0.709800  1.0  0.1139
  H  H71  1  0.643500  0.694200  0.754400  1.0  0.1254
  H  H72  1  0.655300  0.742200  0.794800  1.0  0.1368
  H  H73  1  0.681900  0.814500  0.832900  1.0  0.118
  H  H74  1  0.531900  0.956200  0.806800  1.0  0.0843
  H  H75  1  0.852500  0.577200  0.805600  1.0  0.1011
  H  H76  1  0.855500  0.363600  0.816300  1.0  0.1212
  H  H77  1  0.925300  0.353500  0.776600  1.0  0.1207
  H  H78  1  0.973900  0.352400  0.734200  1.0  0.1122
  H  H79  1  0.038600  0.361600  0.693100  1.0  0.1178
  H  H80  1  0.047200  0.575100  0.704400  1.0  0.081
  H  H81  1  0.626300  0.662300  0.944900  1.0  0.0893
  H  H82  1  0.840500  0.639300  0.934800  1.0  0.1256
  H  H83  1  0.858600  0.708500  0.974300  1.0  0.1298
  H  H84  1  0.862800  0.785800  0.012400  1.0  0.1289
  H  H85  1  0.851200  0.867200  0.049200  1.0  0.1124
  H  H86  1  0.635500  0.861100  0.039800  1.0  0.0885
  H  H87  1  0.301100  0.226900  0.620800  1.0  0.4656
  H  H88  1  0.223700  0.207300  0.619800  1.0  0.4901
  H  H89  1  0.050200  0.518800  0.590100  1.0  0.3493
  H  H90  1  0.041000  0.578300  0.610000  1.0  0.3911
  H  H91  1  0.180900  0.668400  0.613200  1.0  0.4236
  H  H92  1  0.158200  0.662000  0.642300  1.0  0.4811
  H  H93  1  0.998900  0.091900  0.409100  1.0  0.4525
  H  H94  1  0.021100  0.074300  0.380700  1.0  0.3921
  H  H95  1  0.471200  0.042300  0.624800  1.0  0.3952
  H  H96  1  0.440500  0.968900  0.624800  1.0  0.394
  H  H97  1  0.037700  0.275100  0.445100  1.0  0.0935
  H  H98  1  0.870600  0.137000  0.443200  1.0  0.1161
  H  H99  1  0.910000  0.090300  0.485400  1.0  0.1242
  H  H100  1  0.962300  0.043900  0.522900  1.0  0.1346
  H  H101  1  0.031300  0.000600  0.560000  1.0  0.1063
  H  H102  1  0.168700  0.165800  0.550000  1.0  0.0925
  H  H103  1  0.291900  0.813400  0.543500  1.0  0.1005
  H  H104  1  0.410500  0.974100  0.575900  1.0  0.1083
  H  H105  1  0.494000  0.960400  0.540300  1.0  0.1395
  H  H106  1  0.560700  0.946300  0.503600  1.0  0.1248
  H  H107  1  0.626300  0.925700  0.463100  1.0  0.1186
  H  H108  1  0.494400  0.757700  0.447300  1.0  0.0977
  H  H109  1  0.442700  0.296700  0.689000  1.0  0.0918
  H  H110  1  0.301800  0.134400  0.700600  1.0  0.1236
  H  H111  1  0.276900  0.181700  0.743900  1.0  0.1204
  H  H112  1  0.263000  0.228900  0.784400  1.0  0.1281
  H  H113  1  0.238100  0.294100  0.824100  1.0  0.1157
  H  H114  1  0.374300  0.447200  0.797900  1.0  0.0693
  H  H115  1  0.973300  0.201800  0.801500  1.0  0.0745
  H  H116  1  0.127800  0.349700  0.790200  1.0  0.114
  H  H117  1  0.143500  0.305800  0.745600  1.0  0.1251
  H  H118  1  0.155300  0.257800  0.705200  1.0  0.1369
  H  H119  1  0.181900  0.185500  0.667100  1.0  0.1174
  H  H120  1  0.031900  0.043800  0.693200  1.0  0.0837
  H  H121  1  0.352500  0.422800  0.694400  1.0  0.1002
  H  H122  1  0.355500  0.636400  0.683700  1.0  0.121
  H  H123  1  0.425300  0.646500  0.723400  1.0  0.1202
  H  H124  1  0.473900  0.647600  0.765800  1.0  0.1126
  H  H125  1  0.538600  0.638400  0.806900  1.0  0.1176
  H  H126  1  0.547200  0.424900  0.795600  1.0  0.0813
  H  H127  1  0.126300  0.337700  0.555100  1.0  0.0892
  H  H128  1  0.340500  0.360700  0.565200  1.0  0.1254
  H  H129  1  0.358600  0.291500  0.525700  1.0  0.1303
  H  H130  1  0.362800  0.214200  0.487600  1.0  0.1283
  H  H131  1  0.351200  0.132800  0.450800  1.0  0.1123
  H  H132  1  0.135500  0.138900  0.460200  1.0  0.0885
  H  H133  1  0.698900  0.273100  0.120800  1.0  0.4675
  H  H134  1  0.776300  0.292700  0.119800  1.0  0.4876
  H  H135  1  0.949800  0.981200  0.090100  1.0  0.3496
  H  H136  1  0.959000  0.921700  0.110000  1.0  0.3901
  H  H137  1  0.819100  0.831600  0.113200  1.0  0.4257
  H  H138  1  0.841800  0.838000  0.142300  1.0  0.4812
  H  H139  1  0.001100  0.408100  0.909100  1.0  0.4537
  H  H140  1  0.978900  0.425700  0.880700  1.0  0.3936
  H  H141  1  0.528800  0.457700  0.124800  1.0  0.3935
  H  H142  1  0.559500  0.531100  0.124800  1.0  0.3929
  H  H143  1  0.962300  0.224900  0.945100  1.0  0.0937
  H  H144  1  0.129400  0.363000  0.943200  1.0  0.1165
  H  H145  1  0.090000  0.409700  0.985400  1.0  0.1244
  H  H146  1  0.037700  0.456100  0.022900  1.0  0.1347
  H  H147  1  0.968700  0.499400  0.060000  1.0  0.1056
  H  H148  1  0.831300  0.334200  0.050000  1.0  0.0924
  H  H149  1  0.708100  0.686600  0.043500  1.0  0.1001
  H  H150  1  0.589500  0.525900  0.075900  1.0  0.1087
  H  H151  1  0.506000  0.539600  0.040300  1.0  0.141
  H  H152  1  0.439300  0.553700  0.003600  1.0  0.1251
  H  H153  1  0.373700  0.574300  0.963100  1.0  0.119
  H  H154  1  0.505600  0.742300  0.947300  1.0  0.0981
  H  H155  1  0.557300  0.203300  0.189000  1.0  0.0914
  H  H156  1  0.698200  0.365600  0.200600  1.0  0.1239
  H  H157  1  0.723100  0.318300  0.243900  1.0  0.1206
  H  H158  1  0.737000  0.271100  0.284400  1.0  0.1285
  H  H159  1  0.761900  0.205900  0.324100  1.0  0.1157
  H  H160  1  0.625700  0.052800  0.297900  1.0  0.0695
  H  H161  1  0.026700  0.298200  0.301500  1.0  0.0751
  H  H162  1  0.872200  0.150300  0.290200  1.0  0.1139
  H  H163  1  0.856500  0.194200  0.245600  1.0  0.1249
  H  H164  1  0.844700  0.242200  0.205200  1.0  0.1365
  H  H165  1  0.818100  0.314500  0.167100  1.0  0.1171
  H  H166  1  0.968100  0.456200  0.193200  1.0  0.0845
  H  H167  1  0.647500  0.077200  0.194400  1.0  0.1006
  H  H168  1  0.644500  0.863600  0.183700  1.0  0.1212
  H  H169  1  0.574700  0.853500  0.223400  1.0  0.1206
  H  H170  1  0.526100  0.852400  0.265800  1.0  0.1124
  H  H171  1  0.461400  0.861600  0.306900  1.0  0.1182
  H  H172  1  0.452800  0.075100  0.295600  1.0  0.0808
  H  H173  1  0.873700  0.162300  0.055100  1.0  0.0899
  H  H174  1  0.659500  0.139300  0.065200  1.0  0.125
  H  H175  1  0.641400  0.208500  0.025700  1.0  0.13
  H  H176  1  0.637200  0.285800  0.987600  1.0  0.1286
  H  H177  1  0.648800  0.367200  0.950800  1.0  0.1124
  H  H178  1  0.864500  0.361100  0.960200  1.0  0.0886
  H  H179  1  0.198900  0.726900  0.379200  1.0  0.4663
  H  H180  1  0.276300  0.707300  0.380200  1.0  0.4889
  H  H181  1  0.449800  0.018800  0.409900  1.0  0.3507
  H  H182  1  0.459000  0.078300  0.390000  1.0  0.3917
  H  H183  1  0.319100  0.168400  0.386800  1.0  0.4283
  H  H184  1  0.341800  0.162000  0.357700  1.0  0.4806
  H  H185  1  0.501100  0.591900  0.590900  1.0  0.4521
  H  H186  1  0.478900  0.574300  0.619300  1.0  0.3938
  H  H187  1  0.028800  0.542300  0.375200  1.0  0.3942
  H  H188  1  0.059500  0.468900  0.375200  1.0  0.3936
  H  H189  1  0.462300  0.775100  0.554900  1.0  0.0941
  H  H190  1  0.629400  0.637000  0.556800  1.0  0.1168
  H  H191  1  0.590000  0.590300  0.514600  1.0  0.1245
  H  H192  1  0.537700  0.543900  0.477100  1.0  0.1348
  H  H193  1  0.468700  0.500600  0.440000  1.0  0.1057
  H  H194  1  0.331300  0.665800  0.450000  1.0  0.0925
  H  H195  1  0.208100  0.313400  0.456500  1.0  0.1001
  H  H196  1  0.089500  0.474100  0.424100  1.0  0.1086
  H  H197  1  0.006000  0.460400  0.459700  1.0  0.1416
  H  H198  1  0.939300  0.446300  0.496400  1.0  0.1249
  H  H199  1  0.873700  0.425700  0.536900  1.0  0.1187
  H  H200  1  0.005600  0.257700  0.552700  1.0  0.0991
  H  H201  1  0.057300  0.796700  0.311000  1.0  0.0916
  H  H202  1  0.198200  0.634400  0.299400  1.0  0.1237
  H  H203  1  0.223100  0.681700  0.256100  1.0  0.1202
  H  H204  1  0.237000  0.728900  0.215600  1.0  0.1287
  H  H205  1  0.261900  0.794100  0.175900  1.0  0.1163
  H  H206  1  0.125700  0.947200  0.202100  1.0  0.0695
  H  H207  1  0.526700  0.701800  0.198500  1.0  0.0752
  H  H208  1  0.372200  0.849700  0.209800  1.0  0.1143
  H  H209  1  0.356500  0.805800  0.254400  1.0  0.1253
  H  H210  1  0.344700  0.757800  0.294800  1.0  0.1368
  H  H211  1  0.318100  0.685500  0.332900  1.0  0.1174
  H  H212  1  0.468100  0.543800  0.306800  1.0  0.0841
  H  H213  1  0.147500  0.922800  0.305600  1.0  0.1005
  H  H214  1  0.144500  0.136400  0.316300  1.0  0.1211
  H  H215  1  0.074700  0.146500  0.276600  1.0  0.1202
  H  H216  1  0.026100  0.147600  0.234200  1.0  0.1121
  H  H217  1  0.961400  0.138400  0.193100  1.0  0.1179
  H  H218  1  0.952800  0.924900  0.204400  1.0  0.0808
  H  H219  1  0.373700  0.837700  0.444900  1.0  0.0896
  H  H220  1  0.159500  0.860700  0.434800  1.0  0.125
  H  H221  1  0.141400  0.791500  0.474300  1.0  0.1293
  H  H222  1  0.137200  0.714200  0.512400  1.0  0.1291
  H  H223  1  0.148800  0.632800  0.549200  1.0  0.1125
  H  H224  1  0.364500  0.638900  0.539800  1.0  0.0893
  H  H225  1  0.198900  0.226900  0.120800  1.0  0.4655
  H  H226  1  0.276300  0.207300  0.119800  1.0  0.4892
  H  H227  1  0.449800  0.518800  0.090100  1.0  0.3492
  H  H228  1  0.459000  0.578300  0.110000  1.0  0.3919
  H  H229  1  0.319100  0.668400  0.113200  1.0  0.4253
  H  H230  1  0.341800  0.662000  0.142300  1.0  0.4825
  H  H231  1  0.501100  0.091900  0.909100  1.0  0.4535
  H  H232  1  0.478900  0.074300  0.880700  1.0  0.3932
  H  H233  1  0.028800  0.042300  0.124800  1.0  0.3948
  H  H234  1  0.059500  0.968900  0.124800  1.0  0.3948
  H  H235  1  0.462300  0.275100  0.945100  1.0  0.0938
  H  H236  1  0.629400  0.137000  0.943200  1.0  0.1167
  H  H237  1  0.590000  0.090300  0.985400  1.0  0.1242
  H  H238  1  0.537700  0.043900  0.022900  1.0  0.1348
  H  H239  1  0.468700  0.000600  0.060000  1.0  0.1062
  H  H240  1  0.331300  0.165800  0.050000  1.0  0.0924
  H  H241  1  0.208100  0.813400  0.043500  1.0  0.1005
  H  H242  1  0.089500  0.974100  0.075900  1.0  0.1086
  H  H243  1  0.006000  0.960400  0.040300  1.0  0.1414
  H  H244  1  0.939300  0.946300  0.003600  1.0  0.1248
  H  H245  1  0.873700  0.925700  0.963100  1.0  0.1188
  H  H246  1  0.005600  0.757700  0.947300  1.0  0.0979
  H  H247  1  0.057300  0.296700  0.189000  1.0  0.0917
  H  H248  1  0.198200  0.134400  0.200600  1.0  0.1238
  H  H249  1  0.223100  0.181700  0.243900  1.0  0.1206
  H  H250  1  0.237000  0.228900  0.284400  1.0  0.1285
  H  H251  1  0.261900  0.294100  0.324100  1.0  0.1159
  H  H252  1  0.125700  0.447200  0.297900  1.0  0.0693
  H  H253  1  0.526700  0.201800  0.301500  1.0  0.0758
  H  H254  1  0.372200  0.349700  0.290200  1.0  0.1141
  H  H255  1  0.356500  0.305800  0.245600  1.0  0.1252
  H  H256  1  0.344700  0.257800  0.205200  1.0  0.1372
  H  H257  1  0.318100  0.185500  0.167100  1.0  0.1172
  H  H258  1  0.468100  0.043800  0.193200  1.0  0.0842
  H  H259  1  0.147500  0.422800  0.194400  1.0  0.1001
  H  H260  1  0.144500  0.636400  0.183700  1.0  0.1214
  H  H261  1  0.074700  0.646500  0.223400  1.0  0.1203
  H  H262  1  0.026100  0.647600  0.265800  1.0  0.1123
  H  H263  1  0.961400  0.638400  0.306900  1.0  0.1177
  H  H264  1  0.952800  0.424900  0.295600  1.0  0.0813
  H  H265  1  0.373700  0.337700  0.055100  1.0  0.0894
  H  H266  1  0.159500  0.360700  0.065200  1.0  0.1245
  H  H267  1  0.141400  0.291500  0.025700  1.0  0.13
  H  H268  1  0.137200  0.214200  0.987600  1.0  0.1285
  H  H269  1  0.148800  0.132800  0.950800  1.0  0.1121
  H  H270  1  0.364500  0.138900  0.960200  1.0  0.0887
  H  H271  1  0.698900  0.773100  0.379200  1.0  0.4676
  H  H272  1  0.776300  0.792700  0.380200  1.0  0.4873
  H  H273  1  0.949800  0.481200  0.409900  1.0  0.3506
  H  H274  1  0.959000  0.421700  0.390000  1.0  0.3892
  H  H275  1  0.819100  0.331600  0.386800  1.0  0.4277
  H  H276  1  0.841800  0.338000  0.357700  1.0  0.4798
  H  H277  1  0.001100  0.908100  0.590900  1.0  0.4527
  H  H278  1  0.978900  0.925700  0.619300  1.0  0.3936
  H  H279  1  0.528800  0.957700  0.375200  1.0  0.3935
  H  H280  1  0.559500  0.031100  0.375200  1.0  0.3921
  H  H281  1  0.962300  0.724900  0.554900  1.0  0.0943
  H  H282  1  0.129400  0.863000  0.556800  1.0  0.1169
  H  H283  1  0.090000  0.909700  0.514600  1.0  0.125
  H  H284  1  0.037700  0.956100  0.477100  1.0  0.1351
  H  H285  1  0.968700  0.999400  0.440000  1.0  0.1051
  H  H286  1  0.831300  0.834200  0.450000  1.0  0.0925
  H  H287  1  0.708100  0.186600  0.456500  1.0  0.1003
  H  H288  1  0.589500  0.025900  0.424100  1.0  0.1086
  H  H289  1  0.506000  0.039600  0.459700  1.0  0.1403
  H  H290  1  0.439300  0.053700  0.496400  1.0  0.1246
  H  H291  1  0.373700  0.074300  0.536900  1.0  0.119
  H  H292  1  0.505600  0.242300  0.552700  1.0  0.0987
  H  H293  1  0.557300  0.703300  0.311000  1.0  0.0917
  H  H294  1  0.698200  0.865600  0.299400  1.0  0.1237
  H  H295  1  0.723100  0.818300  0.256100  1.0  0.1208
  H  H296  1  0.737000  0.771100  0.215600  1.0  0.1292
  H  H297  1  0.761900  0.705900  0.175900  1.0  0.116
  H  H298  1  0.625700  0.552800  0.202100  1.0  0.069
  H  H299  1  0.026700  0.798200  0.198500  1.0  0.0758
  H  H300  1  0.872200  0.650300  0.209800  1.0  0.1137
  H  H301  1  0.856500  0.694200  0.254400  1.0  0.1254
  H  H302  1  0.844700  0.742200  0.294800  1.0  0.1367
  H  H303  1  0.818100  0.814500  0.332900  1.0  0.1174
  H  H304  1  0.968100  0.956200  0.306800  1.0  0.0842
  H  H305  1  0.647500  0.577200  0.305600  1.0  0.1008
  H  H306  1  0.644500  0.363600  0.316300  1.0  0.1213
  H  H307  1  0.574700  0.353500  0.276600  1.0  0.1206
  H  H308  1  0.526100  0.352400  0.234200  1.0  0.112
  H  H309  1  0.461400  0.361600  0.193100  1.0  0.1177
  H  H310  1  0.452800  0.575100  0.204400  1.0  0.0814
  H  H311  1  0.873700  0.662300  0.444900  1.0  0.0897
  H  H312  1  0.659500  0.639300  0.434800  1.0  0.1249
  H  H313  1  0.641400  0.708500  0.474300  1.0  0.1293
  H  H314  1  0.637200  0.785800  0.512400  1.0  0.1291
  H  H315  1  0.648800  0.867200  0.549200  1.0  0.1125
  H  H316  1  0.864500  0.861100  0.539800  1.0  0.0886
  H  H317  1  0.301100  0.726900  0.879200  1.0  0.4655
  H  H318  1  0.223700  0.707300  0.880200  1.0  0.4904
  H  H319  1  0.050200  0.018800  0.909900  1.0  0.3505
  H  H320  1  0.041000  0.078300  0.890000  1.0  0.3929
  H  H321  1  0.180900  0.168400  0.886800  1.0  0.427
  H  H322  1  0.158200  0.162000  0.857700  1.0  0.4795
  H  H323  1  0.998900  0.591900  0.090900  1.0  0.4509
  H  H324  1  0.021100  0.574300  0.119300  1.0  0.3929
  H  H325  1  0.471200  0.542300  0.875200  1.0  0.3953
  H  H326  1  0.440500  0.468900  0.875200  1.0  0.3928
  H  H327  1  0.037700  0.775100  0.054900  1.0  0.0938
  H  H328  1  0.870600  0.637000  0.056800  1.0  0.1167
  H  H329  1  0.910000  0.590300  0.014600  1.0  0.1244
  H  H330  1  0.962300  0.543900  0.977100  1.0  0.1348
  H  H331  1  0.031300  0.500600  0.940000  1.0  0.1054
  H  H332  1  0.168700  0.665800  0.950000  1.0  0.0922
  H  H333  1  0.291900  0.313400  0.956500  1.0  0.1001
  H  H334  1  0.410500  0.474100  0.924100  1.0  0.1082
  H  H335  1  0.494000  0.460400  0.959700  1.0  0.1393
  H  H336  1  0.560700  0.446300  0.996400  1.0  0.1248
  H  H337  1  0.626300  0.425700  0.036900  1.0  0.1185
  H  H338  1  0.494400  0.257700  0.052700  1.0  0.0989
  H  H339  1  0.442700  0.796700  0.811000  1.0  0.0917
  H  H340  1  0.301800  0.634400  0.799400  1.0  0.1236
  H  H341  1  0.276900  0.681700  0.756100  1.0  0.1202
  H  H342  1  0.263000  0.728900  0.715600  1.0  0.1284
  H  H343  1  0.238100  0.794100  0.675900  1.0  0.1159
  H  H344  1  0.374300  0.947200  0.702100  1.0  0.0694
  H  H345  1  0.973300  0.701800  0.698500  1.0  0.0754
  H  H346  1  0.127800  0.849700  0.709800  1.0  0.1142
  H  H347  1  0.143500  0.805800  0.754400  1.0  0.1252
  H  H348  1  0.155300  0.757800  0.794800  1.0  0.1365
  H  H349  1  0.181900  0.685500  0.832900  1.0  0.1177
  H  H350  1  0.031900  0.543800  0.806800  1.0  0.084
  H  H351  1  0.352500  0.922800  0.805600  1.0  0.1008
  H  H352  1  0.355500  0.136400  0.816300  1.0  0.1207
  H  H353  1  0.425300  0.146500  0.776600  1.0  0.1202
  H  H354  1  0.473900  0.147600  0.734200  1.0  0.1123
  H  H355  1  0.538600  0.138400  0.693100  1.0  0.118
  H  H356  1  0.547200  0.924900  0.704400  1.0  0.0811
  H  H357  1  0.126300  0.837700  0.944900  1.0  0.0895
  H  H358  1  0.340500  0.860700  0.934800  1.0  0.1257
  H  H359  1  0.358600  0.791500  0.974300  1.0  0.1296
  H  H360  1  0.362800  0.714200  0.012400  1.0  0.1287
  H  H361  1  0.351200  0.632800  0.049200  1.0  0.1128
  H  H362  1  0.135500  0.638900  0.039800  1.0  0.0888
  H  H363  1  0.801100  0.273100  0.620800  1.0  0.4672
  H  H364  1  0.723700  0.292700  0.619800  1.0  0.4882
  H  H365  1  0.550200  0.981200  0.590100  1.0  0.35
  H  H366  1  0.541000  0.921700  0.610000  1.0  0.391
  H  H367  1  0.680900  0.831600  0.613200  1.0  0.4243
  H  H368  1  0.658200  0.838000  0.642300  1.0  0.4797
  H  H369  1  0.498900  0.408100  0.409100  1.0  0.4525
  H  H370  1  0.521100  0.425700  0.380700  1.0  0.3921
  H  H371  1  0.971200  0.457700  0.624800  1.0  0.3956
  H  H372  1  0.940500  0.531100  0.624800  1.0  0.3931
  H  H373  1  0.537700  0.224900  0.445100  1.0  0.0936
  H  H374  1  0.370600  0.363000  0.443200  1.0  0.1166
  H  H375  1  0.410000  0.409700  0.485400  1.0  0.1244
  H  H376  1  0.462300  0.456100  0.522900  1.0  0.1348
  H  H377  1  0.531300  0.499400  0.560000  1.0  0.1057
  H  H378  1  0.668700  0.334200  0.550000  1.0  0.0927
  H  H379  1  0.791900  0.686600  0.543500  1.0  0.1003
  H  H380  1  0.910500  0.525900  0.575900  1.0  0.1085
  H  H381  1  0.994000  0.539600  0.540300  1.0  0.1387
  H  H382  1  0.060700  0.553700  0.503600  1.0  0.125
  H  H383  1  0.126300  0.574300  0.463100  1.0  0.1187
  H  H384  1  0.994400  0.742300  0.447300  1.0  0.0981
  H  H385  1  0.942700  0.203300  0.689000  1.0  0.0917
  H  H386  1  0.801800  0.365600  0.700600  1.0  0.1239
  H  H387  1  0.776900  0.318300  0.743900  1.0  0.1206
  H  H388  1  0.763000  0.271100  0.784400  1.0  0.1282
  H  H389  1  0.738100  0.205900  0.824100  1.0  0.1157
  H  H390  1  0.874300  0.052800  0.797900  1.0  0.0695
  H  H391  1  0.473300  0.298200  0.801500  1.0  0.0753
  H  H392  1  0.627800  0.150300  0.790200  1.0  0.114
  H  H393  1  0.643500  0.194200  0.745600  1.0  0.1249
  H  H394  1  0.655300  0.242200  0.705200  1.0  0.1366
  H  H395  1  0.681900  0.314500  0.667100  1.0  0.1176
  H  H396  1  0.531900  0.456200  0.693200  1.0  0.0844
  H  H397  1  0.852500  0.077200  0.694400  1.0  0.1008
  H  H398  1  0.855500  0.863600  0.683700  1.0  0.121
  H  H399  1  0.925300  0.853500  0.723400  1.0  0.1206
  H  H400  1  0.973900  0.852400  0.765800  1.0  0.1126
  H  H401  1  0.038600  0.861600  0.806900  1.0  0.118
  H  H402  1  0.047200  0.075100  0.795600  1.0  0.0807
  H  H403  1  0.626300  0.162300  0.555100  1.0  0.0891
  H  H404  1  0.840500  0.139300  0.565200  1.0  0.1257
  H  H405  1  0.858600  0.208500  0.525700  1.0  0.1305
  H  H406  1  0.862800  0.285800  0.487600  1.0  0.1286
  H  H407  1  0.851200  0.367200  0.450800  1.0  0.1123
  H  H408  1  0.635500  0.361100  0.460200  1.0  0.0888
  C  C409  1  0.511400  0.762100  0.046710  1.0  0.1595
  C  C410  1  0.451400  0.789000  0.060400  1.0  -0.1197
  C  C411  1  0.411800  0.844500  0.048250  1.0  -0.0486
  C  C412  1  0.435000  0.872000  0.023020  1.0  -0.1028
  C  C413  1  0.495700  0.842700  0.010440  1.0  0.1767
  C  C414  1  0.528100  0.870800  0.984760  1.0  0.185
  C  C415  1  0.504400  0.932600  0.971540  1.0  -0.1278
  C  C416  1  0.546000  0.958400  0.949570  1.0  0.0167
  C  C417  1  0.609300  0.923000  0.942090  1.0  -0.1698
  C  C418  1  0.627400  0.859400  0.955560  1.0  0.1296
  C  C419  1  0.428800  0.755100  0.087450  1.0  0.7074
  C  C420  1  0.657200  0.951000  0.919410  1.0  0.69
  C  C421  1  0.784800  0.089200  0.914690  1.0  0.6884
  C  C422  1  0.832300  0.156500  0.957150  1.0  0.1389
  C  C423  1  0.840700  0.103500  0.936990  1.0  -0.1736
  C  C424  1  0.902700  0.060300  0.937840  1.0  -0.0304
  C  C425  1  0.952700  0.068300  0.958910  1.0  -0.151
  C  C426  1  0.939300  0.120200  0.978820  1.0  0.2154
  C  C427  1  0.987700  0.133200  0.002390  1.0  0.1929
  C  C428  1  0.047000  0.090600  0.008380  1.0  -0.103
  C  C429  1  0.086400  0.102900  0.032450  1.0  -0.0571
  C  C430  1  0.065000  0.158900  0.049700  1.0  -0.152
  C  C431  1  0.007000  0.203000  0.041700  1.0  0.1671
  C  C432  1  0.106200  0.169700  0.076290  1.0  0.715
  C  C433  1  0.893600  0.813900  0.838740  1.0  0.6816
  C  C434  1  0.909000  0.726700  0.799880  1.0  0.1999
  C  C435  1  0.874500  0.788400  0.810220  1.0  -0.2067
  C  C436  1  0.824800  0.823800  0.793380  1.0  -0.0135
  C  C437  1  0.810300  0.795600  0.767590  1.0  -0.1035
  C  C438  1  0.845700  0.733000  0.758790  1.0  0.1663
  C  C439  1  0.831700  0.697300  0.732080  1.0  0.2082
  C  C440  1  0.784300  0.726100  0.712700  1.0  -0.1151
  C  C441  1  0.769400  0.687400  0.689180  1.0  0.0366
  C  C442  1  0.801500  0.620200  0.685460  1.0  -0.1602
  C  C443  1  0.850900  0.596600  0.705030  1.0  0.1737
  C  C444  1  0.781600  0.573600  0.661140  1.0  0.701
  C  C445  1  0.537200  0.696900  0.669400  1.0  0.711
  C  C446  1  0.508900  0.777700  0.709620  1.0  0.1508
  C  C447  1  0.549600  0.721500  0.698900  1.0  -0.2375
  C  C448  1  0.600500  0.689300  0.716050  1.0  -0.0112
  C  C449  1  0.610300  0.715900  0.742560  1.0  -0.0971
  C  C450  1  0.570100  0.775100  0.751260  1.0  0.1702
  C  C451  1  0.582000  0.811200  0.778190  1.0  0.1939
  C  C452  1  0.632300  0.786500  0.797200  1.0  -0.1395
  C  C453  1  0.647700  0.829400  0.819920  1.0  -0.0065
  C  C454  1  0.612000  0.894600  0.823160  1.0  -0.1735
  C  C455  1  0.557900  0.913600  0.804160  1.0  0.1959
  C  C456  1  0.635200  0.947500  0.844980  1.0  0.6982
  C  C457  1  0.793900  0.481400  0.838450  1.0  0.7025
  C  C458  1  0.867600  0.531600  0.799810  1.0  0.1892
  C  C459  1  0.845400  0.471700  0.814920  1.0  -0.1154
  C  C460  1  0.868200  0.404600  0.806340  1.0  0.0138
  C  C461  1  0.910200  0.398700  0.782790  1.0  -0.1027
  C  C462  1  0.929300  0.460400  0.768540  1.0  0.2122
  C  C463  1  0.972100  0.459400  0.742740  1.0  0.1384
  C  C464  1  0.988700  0.397400  0.727740  1.0  -0.113
  C  C465  1  0.027200  0.402700  0.703330  1.0  0.0283
  C  C466  1  0.048400  0.470300  0.694370  1.0  -0.1876
  C  C467  1  0.031400  0.529900  0.710250  1.0  0.1652
  C  C468  1  0.089500  0.482400  0.667950  1.0  0.6598
  C  C469  1  0.714500  0.601500  0.910040  1.0  0.6505
  C  C470  1  0.673400  0.672100  0.950690  1.0  0.1663
  C  C471  1  0.731800  0.645200  0.935260  1.0  -0.1601
  C  C472  1  0.801100  0.658000  0.944360  1.0  0.0305
  C  C473  1  0.812000  0.699000  0.967960  1.0  -0.1246
  C  C474  1  0.752100  0.725600  0.981850  1.0  0.1921
  C  C475  1  0.754400  0.775500  0.005560  1.0  0.162
  C  C476  1  0.817300  0.801100  0.018250  1.0  -0.1082
  C  C477  1  0.810300  0.850300  0.039980  1.0  0.0082
  C  C478  1  0.741500  0.873600  0.047700  1.0  -0.1958
  C  C479  1  0.681400  0.845400  0.034510  1.0  0.1375
  C  C480  1  0.728300  0.928100  0.070490  1.0  0.6758
  C  C481  1  0.011400  0.237900  0.453290  1.0  0.1563
  C  C482  1  0.951400  0.211000  0.439600  1.0  -0.1182
  C  C483  1  0.911800  0.155500  0.451750  1.0  -0.0483
  C  C484  1  0.935000  0.128000  0.476980  1.0  -0.1025
  C  C485  1  0.995700  0.157300  0.489560  1.0  0.1766
  C  C486  1  0.028100  0.129200  0.515240  1.0  0.1858
  C  C487  1  0.004400  0.067400  0.528460  1.0  -0.1278
  C  C488  1  0.046000  0.041600  0.550430  1.0  0.0172
  C  C489  1  0.109300  0.077000  0.557910  1.0  -0.17
  C  C490  1  0.127400  0.140600  0.544440  1.0  0.1318
  C  C491  1  0.928800  0.244900  0.412550  1.0  0.7068
  C  C492  1  0.157200  0.049000  0.580590  1.0  0.6914
  C  C493  1  0.284800  0.910800  0.585310  1.0  0.6869
  C  C494  1  0.332300  0.843500  0.542850  1.0  0.1399
  C  C495  1  0.340700  0.896500  0.563010  1.0  -0.1737
  C  C496  1  0.402700  0.939700  0.562160  1.0  -0.0309
  C  C497  1  0.452700  0.931700  0.541090  1.0  -0.1518
  C  C498  1  0.439300  0.879800  0.521180  1.0  0.2161
  C  C499  1  0.487700  0.866800  0.497610  1.0  0.1939
  C  C500  1  0.547000  0.909400  0.491620  1.0  -0.1031
  C  C501  1  0.586400  0.897100  0.467550  1.0  -0.0572
  C  C502  1  0.565000  0.841100  0.450300  1.0  -0.1536
  C  C503  1  0.507000  0.797000  0.458300  1.0  0.1673
  C  C504  1  0.606200  0.830300  0.423710  1.0  0.7157
  C  C505  1  0.393600  0.186100  0.661260  1.0  0.6799
  C  C506  1  0.409000  0.273300  0.700120  1.0  0.1999
  C  C507  1  0.374500  0.211600  0.689780  1.0  -0.2072
  C  C508  1  0.324800  0.176200  0.706620  1.0  -0.0154
  C  C509  1  0.310300  0.204400  0.732410  1.0  -0.1035
  C  C510  1  0.345700  0.267000  0.741210  1.0  0.1668
  C  C511  1  0.331700  0.302700  0.767920  1.0  0.2086
  C  C512  1  0.284300  0.273900  0.787300  1.0  -0.1158
  C  C513  1  0.269400  0.312600  0.810820  1.0  0.038
  C  C514  1  0.301500  0.379800  0.814540  1.0  -0.16
  C  C515  1  0.350900  0.403400  0.794970  1.0  0.1726
  C  C516  1  0.281600  0.426400  0.838860  1.0  0.7017
  C  C517  1  0.037200  0.303100  0.830600  1.0  0.7077
  C  C518  1  0.008900  0.222300  0.790380  1.0  0.1526
  C  C519  1  0.049600  0.278500  0.801100  1.0  -0.2351
  C  C520  1  0.100500  0.310700  0.783950  1.0  -0.0101
  C  C521  1  0.110300  0.284100  0.757440  1.0  -0.0974
  C  C522  1  0.070100  0.224900  0.748740  1.0  0.1704
  C  C523  1  0.082000  0.188800  0.721810  1.0  0.1933
  C  C524  1  0.132300  0.213500  0.702800  1.0  -0.1407
  C  C525  1  0.147700  0.170600  0.680080  1.0  -0.0064
  C  C526  1  0.112000  0.105400  0.676840  1.0  -0.1752
  C  C527  1  0.057900  0.086400  0.695840  1.0  0.1978
  C  C528  1  0.135200  0.052500  0.655020  1.0  0.699
  C  C529  1  0.293900  0.518600  0.661550  1.0  0.7023
  C  C530  1  0.367600  0.468400  0.700190  1.0  0.1891
  C  C531  1  0.345400  0.528300  0.685080  1.0  -0.1157
  C  C532  1  0.368200  0.595400  0.693660  1.0  0.0142
  C  C533  1  0.410200  0.601300  0.717210  1.0  -0.1022
  C  C534  1  0.429300  0.539600  0.731460  1.0  0.2118
  C  C535  1  0.472100  0.540600  0.757260  1.0  0.1381
  C  C536  1  0.488700  0.602600  0.772260  1.0  -0.1133
  C  C537  1  0.527200  0.597300  0.796670  1.0  0.0284
  C  C538  1  0.548400  0.529700  0.805630  1.0  -0.1882
  C  C539  1  0.531400  0.470100  0.789750  1.0  0.1665
  C  C540  1  0.589500  0.517600  0.832050  1.0  0.6598
  C  C541  1  0.214500  0.398500  0.589960  1.0  0.6499
  C  C542  1  0.173400  0.327900  0.549310  1.0  0.1668
  C  C543  1  0.231800  0.354800  0.564740  1.0  -0.1575
  C  C544  1  0.301100  0.342000  0.555640  1.0  0.0297
  C  C545  1  0.312000  0.301000  0.532040  1.0  -0.1235
  C  C546  1  0.252100  0.274400  0.518150  1.0  0.1922
  C  C547  1  0.254400  0.224500  0.494440  1.0  0.1621
  C  C548  1  0.317300  0.198900  0.481750  1.0  -0.1081
  C  C549  1  0.310300  0.149700  0.460020  1.0  0.0084
  C  C550  1  0.241500  0.126400  0.452300  1.0  -0.1961
  C  C551  1  0.181400  0.154600  0.465490  1.0  0.1369
  C  C552  1  0.228300  0.071900  0.429510  1.0  0.6768
  C  C553  1  0.988600  0.262100  0.953290  1.0  0.1575
  C  C554  1  0.048600  0.289000  0.939600  1.0  -0.1185
  C  C555  1  0.088200  0.344500  0.951750  1.0  -0.0506
  C  C556  1  0.065000  0.372000  0.976980  1.0  -0.1029
  C  C557  1  0.004300  0.342700  0.989560  1.0  0.1766
  C  C558  1  0.971900  0.370800  0.015240  1.0  0.1858
  C  C559  1  0.995600  0.432600  0.028460  1.0  -0.1271
  C  C560  1  0.954000  0.458400  0.050430  1.0  0.0177
  C  C561  1  0.890700  0.423000  0.057910  1.0  -0.1698
  C  C562  1  0.872600  0.359400  0.044440  1.0  0.1308
  C  C563  1  0.071200  0.255100  0.912550  1.0  0.7079
  C  C564  1  0.842800  0.451000  0.080590  1.0  0.6921
  C  C565  1  0.715200  0.589200  0.085310  1.0  0.6859
  C  C566  1  0.667700  0.656500  0.042850  1.0  0.1403
  C  C567  1  0.659300  0.603500  0.063010  1.0  -0.1746
  C  C568  1  0.597300  0.560300  0.062160  1.0  -0.0319
  C  C569  1  0.547300  0.568300  0.041090  1.0  -0.1498
  C  C570  1  0.560700  0.620200  0.021180  1.0  0.2153
  C  C571  1  0.512300  0.633200  0.997610  1.0  0.1929
  C  C572  1  0.453000  0.590600  0.991620  1.0  -0.1038
  C  C573  1  0.413600  0.602900  0.967550  1.0  -0.0569
  C  C574  1  0.435000  0.658900  0.950300  1.0  -0.1533
  C  C575  1  0.493000  0.703000  0.958300  1.0  0.1667
  C  C576  1  0.393800  0.669700  0.923710  1.0  0.715
  C  C577  1  0.606400  0.313900  0.161260  1.0  0.6814
  C  C578  1  0.591000  0.226700  0.200120  1.0  0.2001
  C  C579  1  0.625500  0.288400  0.189780  1.0  -0.207
  C  C580  1  0.675200  0.323800  0.206620  1.0  -0.0157
  C  C581  1  0.689700  0.295600  0.232410  1.0  -0.1032
  C  C582  1  0.654300  0.233000  0.241210  1.0  0.1667
  C  C583  1  0.668300  0.197300  0.267920  1.0  0.2085
  C  C584  1  0.715700  0.226100  0.287300  1.0  -0.1148
  C  C585  1  0.730600  0.187400  0.310820  1.0  0.0368
  C  C586  1  0.698500  0.120200  0.314540  1.0  -0.1592
  C  C587  1  0.649100  0.096600  0.294970  1.0  0.1734
  C  C588  1  0.718400  0.073600  0.338860  1.0  0.7014
  C  C589  1  0.962800  0.196900  0.330600  1.0  0.7098
  C  C590  1  0.991100  0.277700  0.290380  1.0  0.1521
  C  C591  1  0.950400  0.221500  0.301100  1.0  -0.2341
  C  C592  1  0.899500  0.189300  0.283950  1.0  -0.0115
  C  C593  1  0.889700  0.215900  0.257440  1.0  -0.0977
  C  C594  1  0.929900  0.275100  0.248740  1.0  0.1701
  C  C595  1  0.918000  0.311200  0.221810  1.0  0.1933
  C  C596  1  0.867700  0.286500  0.202800  1.0  -0.1403
  C  C597  1  0.852300  0.329400  0.180080  1.0  -0.0079
  C  C598  1  0.888000  0.394600  0.176840  1.0  -0.1732
  C  C599  1  0.942100  0.413600  0.195840  1.0  0.1969
  C  C600  1  0.864800  0.447500  0.155020  1.0  0.7001
  C  C601  1  0.706100  0.981400  0.161550  1.0  0.703
  C  C602  1  0.632400  0.031600  0.200190  1.0  0.1888
  C  C603  1  0.654600  0.971700  0.185080  1.0  -0.1157
  C  C604  1  0.631800  0.904600  0.193660  1.0  0.0142
  C  C605  1  0.589800  0.898700  0.217210  1.0  -0.1026
  C  C606  1  0.570700  0.960400  0.231460  1.0  0.2123
  C  C607  1  0.527900  0.959400  0.257260  1.0  0.1382
  C  C608  1  0.511300  0.897400  0.272260  1.0  -0.1125
  C  C609  1  0.472800  0.902700  0.296670  1.0  0.0268
  C  C610  1  0.451600  0.970300  0.305630  1.0  -0.1882
  C  C611  1  0.468600  0.029900  0.289750  1.0  0.1651
  C  C612  1  0.410500  0.982400  0.332050  1.0  0.6605
  C  C613  1  0.785500  0.101500  0.089960  1.0  0.6499
  C  C614  1  0.826600  0.172100  0.049310  1.0  0.1676
  C  C615  1  0.768200  0.145200  0.064740  1.0  -0.1574
  C  C616  1  0.698900  0.158000  0.055640  1.0  0.0308
  C  C617  1  0.688000  0.199000  0.032040  1.0  -0.1235
  C  C618  1  0.747900  0.225600  0.018150  1.0  0.1923
  C  C619  1  0.745600  0.275500  0.994440  1.0  0.1615
  C  C620  1  0.682700  0.301100  0.981750  1.0  -0.1072
  C  C621  1  0.689700  0.350300  0.960020  1.0  0.0089
  C  C622  1  0.758500  0.373600  0.952300  1.0  -0.1946
  C  C623  1  0.818600  0.345400  0.965490  1.0  0.1357
  C  C624  1  0.771700  0.428100  0.929510  1.0  0.6771
  C  C625  1  0.488600  0.737900  0.546710  1.0  0.1592
  C  C626  1  0.548600  0.711000  0.560400  1.0  -0.1188
  C  C627  1  0.588200  0.655500  0.548250  1.0  -0.0505
  C  C628  1  0.565000  0.628000  0.523020  1.0  -0.1027
  C  C629  1  0.504300  0.657300  0.510440  1.0  0.1765
  C  C630  1  0.471900  0.629200  0.484760  1.0  0.1857
  C  C631  1  0.495600  0.567400  0.471540  1.0  -0.1283
  C  C632  1  0.454000  0.541600  0.449570  1.0  0.016
  C  C633  1  0.390700  0.577000  0.442090  1.0  -0.1712
  C  C634  1  0.372600  0.640600  0.455560  1.0  0.1286
  C  C635  1  0.571200  0.744900  0.587450  1.0  0.7083
  C  C636  1  0.342800  0.549000  0.419410  1.0  0.6906
  C  C637  1  0.215200  0.410800  0.414690  1.0  0.6869
  C  C638  1  0.167700  0.343500  0.457150  1.0  0.1384
  C  C639  1  0.159300  0.396500  0.436990  1.0  -0.173
  C  C640  1  0.097300  0.439700  0.437840  1.0  -0.0311
  C  C641  1  0.047300  0.431700  0.458910  1.0  -0.1505
  C  C642  1  0.060700  0.379800  0.478820  1.0  0.2154
  C  C643  1  0.012300  0.366800  0.502390  1.0  0.1927
  C  C644  1  0.953000  0.409400  0.508380  1.0  -0.1031
  C  C645  1  0.913600  0.397100  0.532450  1.0  -0.0565
  C  C646  1  0.935000  0.341100  0.549700  1.0  -0.1521
  C  C647  1  0.993000  0.297000  0.541700  1.0  0.1676
  C  C648  1  0.893800  0.330300  0.576290  1.0  0.715
  C  C649  1  0.106400  0.686100  0.338740  1.0  0.6808
  C  C650  1  0.091000  0.773300  0.299880  1.0  0.1986
  C  C651  1  0.125500  0.711600  0.310220  1.0  -0.2064
  C  C652  1  0.175200  0.676200  0.293380  1.0  -0.0157
  C  C653  1  0.189700  0.704400  0.267590  1.0  -0.1029
  C  C654  1  0.154300  0.767000  0.258790  1.0  0.1658
  C  C655  1  0.168300  0.802700  0.232080  1.0  0.2087
  C  C656  1  0.215700  0.773900  0.212700  1.0  -0.1163
  C  C657  1  0.230600  0.812600  0.189180  1.0  0.0379
  C  C658  1  0.198500  0.879800  0.185460  1.0  -0.1595
  C  C659  1  0.149100  0.903400  0.205030  1.0  0.1714
  C  C660  1  0.218400  0.926400  0.161140  1.0  0.7004
  C  C661  1  0.462800  0.803100  0.169400  1.0  0.7114
  C  C662  1  0.491100  0.722300  0.209620  1.0  0.1519
  C  C663  1  0.450400  0.778500  0.198900  1.0  -0.2364
  C  C664  1  0.399500  0.810700  0.216050  1.0  -0.0111
  C  C665  1  0.389700  0.784100  0.242560  1.0  -0.0974
  C  C666  1  0.429900  0.724900  0.251260  1.0  0.1695
  C  C667  1  0.418000  0.688800  0.278190  1.0  0.1933
  C  C668  1  0.367700  0.713500  0.297200  1.0  -0.1406
  C  C669  1  0.352300  0.670600  0.319920  1.0  -0.0074
  C  C670  1  0.388000  0.605400  0.323160  1.0  -0.1734
  C  C671  1  0.442100  0.586400  0.304160  1.0  0.1975
  C  C672  1  0.364800  0.552500  0.344980  1.0  0.6993
  C  C673  1  0.206100  0.018600  0.338450  1.0  0.704
  C  C674  1  0.132400  0.968400  0.299810  1.0  0.1904
  C  C675  1  0.154600  0.028300  0.314920  1.0  -0.1165
  C  C676  1  0.131800  0.095400  0.306340  1.0  0.0156
  C  C677  1  0.089800  0.101300  0.282790  1.0  -0.1025
  C  C678  1  0.070700  0.039600  0.268540  1.0  0.2123
  C  C679  1  0.027900  0.040600  0.242740  1.0  0.1384
  C  C680  1  0.011300  0.102600  0.227740  1.0  -0.1128
  C  C681  1  0.972800  0.097300  0.203330  1.0  0.0277
  C  C682  1  0.951600  0.029700  0.194370  1.0  -0.1889
  C  C683  1  0.968600  0.970100  0.210250  1.0  0.1648
  C  C684  1  0.910500  0.017600  0.167950  1.0  0.6592
  C  C685  1  0.285500  0.898500  0.410040  1.0  0.6502
  C  C686  1  0.326600  0.827900  0.450690  1.0  0.1659
  C  C687  1  0.268200  0.854800  0.435260  1.0  -0.1591
  C  C688  1  0.198900  0.842000  0.444360  1.0  0.0306
  C  C689  1  0.188000  0.801000  0.467960  1.0  -0.1235
  C  C690  1  0.247900  0.774400  0.481850  1.0  0.192
  C  C691  1  0.245600  0.724500  0.505560  1.0  0.1617
  C  C692  1  0.182700  0.698900  0.518250  1.0  -0.1077
  C  C693  1  0.189700  0.649700  0.539980  1.0  0.0099
  C  C694  1  0.258500  0.626400  0.547700  1.0  -0.1971
  C  C695  1  0.318600  0.654600  0.534510  1.0  0.1355
  C  C696  1  0.271700  0.571900  0.570490  1.0  0.6765
  C  C697  1  0.488600  0.237900  0.953290  1.0  0.1566
  C  C698  1  0.548600  0.211000  0.939600  1.0  -0.1176
  C  C699  1  0.588200  0.155500  0.951750  1.0  -0.0503
  C  C700  1  0.565000  0.128000  0.976980  1.0  -0.1028
  C  C701  1  0.504300  0.157300  0.989560  1.0  0.1766
  C  C702  1  0.471900  0.129200  0.015240  1.0  0.1861
  C  C703  1  0.495600  0.067400  0.028460  1.0  -0.1278
  C  C704  1  0.454000  0.041600  0.050430  1.0  0.017
  C  C705  1  0.390700  0.077000  0.057910  1.0  -0.1692
  C  C706  1  0.372600  0.140600  0.044440  1.0  0.1303
  C  C707  1  0.571200  0.244900  0.912550  1.0  0.7075
  C  C708  1  0.342800  0.049000  0.080590  1.0  0.6917
  C  C709  1  0.215200  0.910800  0.085310  1.0  0.6862
  C  C710  1  0.167700  0.843500  0.042850  1.0  0.1401
  C  C711  1  0.159300  0.896500  0.063010  1.0  -0.1736
  C  C712  1  0.097300  0.939700  0.062160  1.0  -0.0315
  C  C713  1  0.047300  0.931700  0.041090  1.0  -0.1505
  C  C714  1  0.060700  0.879800  0.021180  1.0  0.2159
  C  C715  1  0.012300  0.866800  0.997610  1.0  0.1932
  C  C716  1  0.953000  0.909400  0.991620  1.0  -0.1035
  C  C717  1  0.913600  0.897100  0.967550  1.0  -0.057
  C  C718  1  0.935000  0.841100  0.950300  1.0  -0.154
  C  C719  1  0.993000  0.797000  0.958300  1.0  0.1665
  C  C720  1  0.893800  0.830300  0.923710  1.0  0.715
  C  C721  1  0.106400  0.186100  0.161260  1.0  0.6811
  C  C722  1  0.091000  0.273300  0.200120  1.0  0.199
  C  C723  1  0.125500  0.211600  0.189780  1.0  -0.207
  C  C724  1  0.175200  0.176200  0.206620  1.0  -0.016
  C  C725  1  0.189700  0.204400  0.232410  1.0  -0.1031
  C  C726  1  0.154300  0.267000  0.241210  1.0  0.1665
  C  C727  1  0.168300  0.302700  0.267920  1.0  0.2087
  C  C728  1  0.215700  0.273900  0.287300  1.0  -0.1157
  C  C729  1  0.230600  0.312600  0.310820  1.0  0.038
  C  C730  1  0.198500  0.379800  0.314540  1.0  -0.1601
  C  C731  1  0.149100  0.403400  0.294970  1.0  0.1717
  C  C732  1  0.218400  0.426400  0.338860  1.0  0.7013
  C  C733  1  0.462800  0.303100  0.330600  1.0  0.7097
  C  C734  1  0.491100  0.222300  0.290380  1.0  0.1528
  C  C735  1  0.450400  0.278500  0.301100  1.0  -0.2345
  C  C736  1  0.399500  0.310700  0.283950  1.0  -0.0106
  C  C737  1  0.389700  0.284100  0.257440  1.0  -0.0975
  C  C738  1  0.429900  0.224900  0.248740  1.0  0.1699
  C  C739  1  0.418000  0.188800  0.221810  1.0  0.193
  C  C740  1  0.367700  0.213500  0.202800  1.0  -0.1409
  C  C741  1  0.352300  0.170600  0.180080  1.0  -0.0078
  C  C742  1  0.388000  0.105400  0.176840  1.0  -0.1745
  C  C743  1  0.442100  0.086400  0.195840  1.0  0.1977
  C  C744  1  0.364800  0.052500  0.155020  1.0  0.7001
  C  C745  1  0.206100  0.518600  0.161550  1.0  0.703
  C  C746  1  0.132400  0.468400  0.200190  1.0  0.1896
  C  C747  1  0.154600  0.528300  0.185080  1.0  -0.1159
  C  C748  1  0.131800  0.595400  0.193660  1.0  0.014
  C  C749  1  0.089800  0.601300  0.217210  1.0  -0.1019
  C  C750  1  0.070700  0.539600  0.231460  1.0  0.2122
  C  C751  1  0.027900  0.540600  0.257260  1.0  0.1382
  C  C752  1  0.011300  0.602600  0.272260  1.0  -0.1131
  C  C753  1  0.972800  0.597300  0.296670  1.0  0.0281
  C  C754  1  0.951600  0.529700  0.305630  1.0  -0.1882
  C  C755  1  0.968600  0.470100  0.289750  1.0  0.1653
  C  C756  1  0.910500  0.517600  0.332050  1.0  0.6595
  C  C757  1  0.285500  0.398500  0.089960  1.0  0.6501
  C  C758  1  0.326600  0.327900  0.049310  1.0  0.1676
  C  C759  1  0.268200  0.354800  0.064740  1.0  -0.1581
  C  C760  1  0.198900  0.342000  0.055640  1.0  0.0295
  C  C761  1  0.188000  0.301000  0.032040  1.0  -0.1229
  C  C762  1  0.247900  0.274400  0.018150  1.0  0.1922
  C  C763  1  0.245600  0.224500  0.994440  1.0  0.1616
  C  C764  1  0.182700  0.198900  0.981750  1.0  -0.1073
  C  C765  1  0.189700  0.149700  0.960020  1.0  0.0097
  C  C766  1  0.258500  0.126400  0.952300  1.0  -0.1967
  C  C767  1  0.318600  0.154600  0.965490  1.0  0.1349
  C  C768  1  0.271700  0.071900  0.929510  1.0  0.6765
  C  C769  1  0.988600  0.762100  0.546710  1.0  0.1595
  C  C770  1  0.048600  0.789000  0.560400  1.0  -0.1188
  C  C771  1  0.088200  0.844500  0.548250  1.0  -0.0507
  C  C772  1  0.065000  0.872000  0.523020  1.0  -0.1033
  C  C773  1  0.004300  0.842700  0.510440  1.0  0.1766
  C  C774  1  0.971900  0.870800  0.484760  1.0  0.1853
  C  C775  1  0.995600  0.932600  0.471540  1.0  -0.1278
  C  C776  1  0.954000  0.958400  0.449570  1.0  0.0159
  C  C777  1  0.890700  0.923000  0.442090  1.0  -0.1704
  C  C778  1  0.872600  0.859400  0.455560  1.0  0.1292
  C  C779  1  0.071200  0.755100  0.587450  1.0  0.7078
  C  C780  1  0.842800  0.951000  0.419410  1.0  0.6906
  C  C781  1  0.715200  0.089200  0.414690  1.0  0.6877
  C  C782  1  0.667700  0.156500  0.457150  1.0  0.1388
  C  C783  1  0.659300  0.103500  0.436990  1.0  -0.1734
  C  C784  1  0.597300  0.060300  0.437840  1.0  -0.0308
  C  C785  1  0.547300  0.068300  0.458910  1.0  -0.1497
  C  C786  1  0.560700  0.120200  0.478820  1.0  0.2149
  C  C787  1  0.512300  0.133200  0.502390  1.0  0.1924
  C  C788  1  0.453000  0.090600  0.508380  1.0  -0.1035
  C  C789  1  0.413600  0.102900  0.532450  1.0  -0.0566
  C  C790  1  0.435000  0.158900  0.549700  1.0  -0.1525
  C  C791  1  0.493000  0.203000  0.541700  1.0  0.1673
  C  C792  1  0.393800  0.169700  0.576290  1.0  0.7146
  C  C793  1  0.606400  0.813900  0.338740  1.0  0.6816
  C  C794  1  0.591000  0.726700  0.299880  1.0  0.1999
  C  C795  1  0.625500  0.788400  0.310220  1.0  -0.2071
  C  C796  1  0.675200  0.823800  0.293380  1.0  -0.0149
  C  C797  1  0.689700  0.795600  0.267590  1.0  -0.1032
  C  C798  1  0.654300  0.733000  0.258790  1.0  0.1659
  C  C799  1  0.668300  0.697300  0.232080  1.0  0.2083
  C  C800  1  0.715700  0.726100  0.212700  1.0  -0.1158
  C  C801  1  0.730600  0.687400  0.189180  1.0  0.0365
  C  C802  1  0.698500  0.620200  0.185460  1.0  -0.1605
  C  C803  1  0.649100  0.596600  0.205030  1.0  0.1728
  C  C804  1  0.718400  0.573600  0.161140  1.0  0.7006
  C  C805  1  0.962800  0.696900  0.169400  1.0  0.7114
  C  C806  1  0.991100  0.777700  0.209620  1.0  0.1513
  C  C807  1  0.950400  0.721500  0.198900  1.0  -0.237
  C  C808  1  0.899500  0.689300  0.216050  1.0  -0.0116
  C  C809  1  0.889700  0.715900  0.242560  1.0  -0.0975
  C  C810  1  0.929900  0.775100  0.251260  1.0  0.1698
  C  C811  1  0.918000  0.811200  0.278190  1.0  0.1935
  C  C812  1  0.867700  0.786500  0.297200  1.0  -0.1399
  C  C813  1  0.852300  0.829400  0.319920  1.0  -0.0073
  C  C814  1  0.888000  0.894600  0.323160  1.0  -0.174
  C  C815  1  0.942100  0.913600  0.304160  1.0  0.1965
  C  C816  1  0.864800  0.947500  0.344980  1.0  0.6994
  C  C817  1  0.706100  0.481400  0.338450  1.0  0.7037
  C  C818  1  0.632400  0.531600  0.299810  1.0  0.1895
  C  C819  1  0.654600  0.471700  0.314920  1.0  -0.1165
  C  C820  1  0.631800  0.404600  0.306340  1.0  0.0144
  C  C821  1  0.589800  0.398700  0.282790  1.0  -0.1027
  C  C822  1  0.570700  0.460400  0.268540  1.0  0.2125
  C  C823  1  0.527900  0.459400  0.242740  1.0  0.1385
  C  C824  1  0.511300  0.397400  0.227740  1.0  -0.1123
  C  C825  1  0.472800  0.402700  0.203330  1.0  0.0279
  C  C826  1  0.451600  0.470300  0.194370  1.0  -0.1891
  C  C827  1  0.468600  0.529900  0.210250  1.0  0.1646
  C  C828  1  0.410500  0.482400  0.167950  1.0  0.66
  C  C829  1  0.785500  0.601500  0.410040  1.0  0.6508
  C  C830  1  0.826600  0.672100  0.450690  1.0  0.1657
  C  C831  1  0.768200  0.645200  0.435260  1.0  -0.16
  C  C832  1  0.698900  0.658000  0.444360  1.0  0.031
  C  C833  1  0.688000  0.699000  0.467960  1.0  -0.1239
  C  C834  1  0.747900  0.725600  0.481850  1.0  0.1922
  C  C835  1  0.745600  0.775500  0.505560  1.0  0.1616
  C  C836  1  0.682700  0.801100  0.518250  1.0  -0.1078
  C  C837  1  0.689700  0.850300  0.539980  1.0  0.009
  C  C838  1  0.758500  0.873600  0.547700  1.0  -0.1963
  C  C839  1  0.818600  0.845400  0.534510  1.0  0.136
  C  C840  1  0.771700  0.928100  0.570490  1.0  0.6765
  C  C841  1  0.011400  0.737900  0.046710  1.0  0.1599
  C  C842  1  0.951400  0.711000  0.060400  1.0  -0.1196
  C  C843  1  0.911800  0.655500  0.048250  1.0  -0.0485
  C  C844  1  0.935000  0.628000  0.023020  1.0  -0.1024
  C  C845  1  0.995700  0.657300  0.010440  1.0  0.1766
  C  C846  1  0.028100  0.629200  0.984760  1.0  0.1853
  C  C847  1  0.004400  0.567400  0.971540  1.0  -0.1282
  C  C848  1  0.046000  0.541600  0.949570  1.0  0.0168
  C  C849  1  0.109300  0.577000  0.942090  1.0  -0.1706
  C  C850  1  0.127400  0.640600  0.955560  1.0  0.1295
  C  C851  1  0.928800  0.744900  0.087450  1.0  0.7079
  C  C852  1  0.157200  0.549000  0.919410  1.0  0.6902
  C  C853  1  0.284800  0.410800  0.914690  1.0  0.6875
  C  C854  1  0.332300  0.343500  0.957150  1.0  0.1388
  C  C855  1  0.340700  0.396500  0.936990  1.0  -0.1737
  C  C856  1  0.402700  0.439700  0.937840  1.0  -0.0307
  C  C857  1  0.452700  0.431700  0.958910  1.0  -0.1516
  C  C858  1  0.439300  0.379800  0.978820  1.0  0.2158
  C  C859  1  0.487700  0.366800  0.002390  1.0  0.1934
  C  C860  1  0.547000  0.409400  0.008380  1.0  -0.1026
  C  C861  1  0.586400  0.397100  0.032450  1.0  -0.0568
  C  C862  1  0.565000  0.341100  0.049700  1.0  -0.1517
  C  C863  1  0.507000  0.297000  0.041700  1.0  0.1676
  C  C864  1  0.606200  0.330300  0.076290  1.0  0.7155
  C  C865  1  0.393600  0.686100  0.838740  1.0  0.6807
  C  C866  1  0.409000  0.773300  0.799880  1.0  0.1992
  C  C867  1  0.374500  0.711600  0.810220  1.0  -0.206
  C  C868  1  0.324800  0.676200  0.793380  1.0  -0.015
  C  C869  1  0.310300  0.704400  0.767590  1.0  -0.1035
  C  C870  1  0.345700  0.767000  0.758790  1.0  0.1662
  C  C871  1  0.331700  0.802700  0.732080  1.0  0.2087
  C  C872  1  0.284300  0.773900  0.712700  1.0  -0.1158
  C  C873  1  0.269400  0.812600  0.689180  1.0  0.038
  C  C874  1  0.301500  0.879800  0.685460  1.0  -0.1592
  C  C875  1  0.350900  0.903400  0.705030  1.0  0.172
  C  C876  1  0.281600  0.926400  0.661140  1.0  0.7008
  C  C877  1  0.037200  0.803100  0.669400  1.0  0.711
  C  C878  1  0.008900  0.722300  0.709620  1.0  0.1518
  C  C879  1  0.049600  0.778500  0.698900  1.0  -0.2369
  C  C880  1  0.100500  0.810700  0.716050  1.0  -0.0111
  C  C881  1  0.110300  0.784100  0.742560  1.0  -0.0974
  C  C882  1  0.070100  0.724900  0.751260  1.0  0.1701
  C  C883  1  0.082000  0.688800  0.778190  1.0  0.1936
  C  C884  1  0.132300  0.713500  0.797200  1.0  -0.1401
  C  C885  1  0.147700  0.670600  0.819920  1.0  -0.0065
  C  C886  1  0.112000  0.605400  0.823160  1.0  -0.1728
  C  C887  1  0.057900  0.586400  0.804160  1.0  0.1972
  C  C888  1  0.135200  0.552500  0.844980  1.0  0.6979
  C  C889  1  0.293900  0.018600  0.838450  1.0  0.7029
  C  C890  1  0.367600  0.968400  0.799810  1.0  0.1904
  C  C891  1  0.345400  0.028300  0.814920  1.0  -0.1155
  C  C892  1  0.368200  0.095400  0.806340  1.0  0.0146
  C  C893  1  0.410200  0.101300  0.782790  1.0  -0.1026
  C  C894  1  0.429300  0.039600  0.768540  1.0  0.2121
  C  C895  1  0.472100  0.040600  0.742740  1.0  0.1385
  C  C896  1  0.488700  0.102600  0.727740  1.0  -0.113
  C  C897  1  0.527200  0.097300  0.703330  1.0  0.0281
  C  C898  1  0.548400  0.029700  0.694370  1.0  -0.1875
  C  C899  1  0.531400  0.970100  0.710250  1.0  0.166
  C  C900  1  0.589500  0.017600  0.667950  1.0  0.6593
  C  C901  1  0.214500  0.898500  0.910040  1.0  0.6499
  C  C902  1  0.173400  0.827900  0.950690  1.0  0.166
  C  C903  1  0.231800  0.854800  0.935260  1.0  -0.1591
  C  C904  1  0.301100  0.842000  0.944360  1.0  0.0304
  C  C905  1  0.312000  0.801000  0.967960  1.0  -0.1243
  C  C906  1  0.252100  0.774400  0.981850  1.0  0.1921
  C  C907  1  0.254400  0.724500  0.005560  1.0  0.162
  C  C908  1  0.317300  0.698900  0.018250  1.0  -0.1082
  C  C909  1  0.310300  0.649700  0.039980  1.0  0.0087
  C  C910  1  0.241500  0.626400  0.047700  1.0  -0.1962
  C  C911  1  0.181400  0.654600  0.034510  1.0  0.1377
  C  C912  1  0.228300  0.571900  0.070490  1.0  0.6761
  C  C913  1  0.511400  0.262100  0.453290  1.0  0.1567
  C  C914  1  0.451400  0.289000  0.439600  1.0  -0.1192
  C  C915  1  0.411800  0.344500  0.451750  1.0  -0.0484
  C  C916  1  0.435000  0.372000  0.476980  1.0  -0.1026
  C  C917  1  0.495700  0.342700  0.489560  1.0  0.1767
  C  C918  1  0.528100  0.370800  0.515240  1.0  0.1856
  C  C919  1  0.504400  0.432600  0.528460  1.0  -0.1273
  C  C920  1  0.546000  0.458400  0.550430  1.0  0.0175
  C  C921  1  0.609300  0.423000  0.557910  1.0  -0.1706
  C  C922  1  0.627400  0.359400  0.544440  1.0  0.1318
  C  C923  1  0.428800  0.255100  0.412550  1.0  0.7068
  C  C924  1  0.657200  0.451000  0.580590  1.0  0.6917
  C  C925  1  0.784800  0.589200  0.585310  1.0  0.6866
  C  C926  1  0.832300  0.656500  0.542850  1.0  0.1399
  C  C927  1  0.840700  0.603500  0.563010  1.0  -0.1744
  C  C928  1  0.902700  0.560300  0.562160  1.0  -0.0312
  C  C929  1  0.952700  0.568300  0.541090  1.0  -0.1512
  C  C930  1  0.939300  0.620200  0.521180  1.0  0.2155
  C  C931  1  0.987700  0.633200  0.497610  1.0  0.1934
  C  C932  1  0.047000  0.590600  0.491620  1.0  -0.1034
  C  C933  1  0.086400  0.602900  0.467550  1.0  -0.0572
  C  C934  1  0.065000  0.658900  0.450300  1.0  -0.153
  C  C935  1  0.007000  0.703000  0.458300  1.0  0.1674
  C  C936  1  0.106200  0.669700  0.423710  1.0  0.7158
  C  C937  1  0.893600  0.313900  0.661260  1.0  0.6801
  C  C938  1  0.909000  0.226700  0.700120  1.0  0.2001
  C  C939  1  0.874500  0.288400  0.689780  1.0  -0.2071
  C  C940  1  0.824800  0.323800  0.706620  1.0  -0.0146
  C  C941  1  0.810300  0.295600  0.732410  1.0  -0.1034
  C  C942  1  0.845700  0.233000  0.741210  1.0  0.167
  C  C943  1  0.831700  0.197300  0.767920  1.0  0.2082
  C  C944  1  0.784300  0.226100  0.787300  1.0  -0.1146
  C  C945  1  0.769400  0.187400  0.810820  1.0  0.0367
  C  C946  1  0.801500  0.120200  0.814540  1.0  -0.159
  C  C947  1  0.850900  0.096600  0.794970  1.0  0.1745
  C  C948  1  0.781600  0.073600  0.838860  1.0  0.7017
  C  C949  1  0.537200  0.196900  0.830600  1.0  0.7079
  C  C950  1  0.508900  0.277700  0.790380  1.0  0.1517
  C  C951  1  0.549600  0.221500  0.801100  1.0  -0.2347
  C  C952  1  0.600500  0.189300  0.783950  1.0  -0.0109
  C  C953  1  0.610300  0.215900  0.757440  1.0  -0.0973
  C  C954  1  0.570100  0.275100  0.748740  1.0  0.1704
  C  C955  1  0.582000  0.311200  0.721810  1.0  0.1936
  C  C956  1  0.632300  0.286500  0.702800  1.0  -0.1401
  C  C957  1  0.647700  0.329400  0.680080  1.0  -0.0069
  C  C958  1  0.612000  0.394600  0.676840  1.0  -0.1737
  C  C959  1  0.557900  0.413600  0.695840  1.0  0.1967
  C  C960  1  0.635200  0.447500  0.655020  1.0  0.6994
  C  C961  1  0.793900  0.981400  0.661550  1.0  0.7021
  C  C962  1  0.867600  0.031600  0.700190  1.0  0.1881
  C  C963  1  0.845400  0.971700  0.685080  1.0  -0.1152
  C  C964  1  0.868200  0.904600  0.693660  1.0  0.0142
  C  C965  1  0.910200  0.898700  0.717210  1.0  -0.1027
  C  C966  1  0.929300  0.960400  0.731460  1.0  0.2119
  C  C967  1  0.972100  0.959400  0.757260  1.0  0.1381
  C  C968  1  0.988700  0.897400  0.772260  1.0  -0.1132
  C  C969  1  0.027200  0.902700  0.796670  1.0  0.0271
  C  C970  1  0.048400  0.970300  0.805630  1.0  -0.1882
  C  C971  1  0.031400  0.029900  0.789750  1.0  0.1659
  C  C972  1  0.089500  0.982400  0.832050  1.0  0.6604
  C  C973  1  0.714500  0.101500  0.589960  1.0  0.6496
  C  C974  1  0.673400  0.172100  0.549310  1.0  0.1668
  C  C975  1  0.731800  0.145200  0.564740  1.0  -0.1571
  C  C976  1  0.801100  0.158000  0.555640  1.0  0.0305
  C  C977  1  0.812000  0.199000  0.532040  1.0  -0.124
  C  C978  1  0.752100  0.225600  0.518150  1.0  0.1922
  C  C979  1  0.754400  0.275500  0.494440  1.0  0.1621
  C  C980  1  0.817300  0.301100  0.481750  1.0  -0.1079
  C  C981  1  0.810300  0.350300  0.460020  1.0  0.0083
  C  C982  1  0.741500  0.373600  0.452300  1.0  -0.1943
  C  C983  1  0.681400  0.345400  0.465490  1.0  0.1369
  C  C984  1  0.728300  0.428100  0.429510  1.0  0.6773
  N  N985  1  0.533200  0.787600  0.022080  1.0  -0.3743
  N  N986  1  0.587400  0.833200  0.976260  1.0  -0.3493
  N  N987  1  0.881000  0.165300  0.977460  1.0  -0.3545
  N  N988  1  0.969400  0.190000  0.018590  1.0  -0.3232
  N  N989  1  0.866300  0.633900  0.727930  1.0  -0.2994
  N  N990  1  0.895800  0.700100  0.774950  1.0  -0.3181
  N  N991  1  0.517900  0.804200  0.735070  1.0  -0.3287
  N  N992  1  0.542600  0.872400  0.782400  1.0  -0.3463
  N  N993  1  0.993500  0.525400  0.733600  1.0  -0.3274
  N  N994  1  0.909700  0.526800  0.777310  1.0  -0.3368
  N  N995  1  0.683400  0.711100  0.973270  1.0  -0.3153
  N  N996  1  0.687200  0.796600  0.014500  1.0  -0.328
  N  N997  1  0.033200  0.212400  0.477920  1.0  -0.3738
  N  N998  1  0.087400  0.166800  0.523740  1.0  -0.3494
  N  N999  1  0.381000  0.834700  0.522540  1.0  -0.3548
  N  N1000  1  0.469400  0.810000  0.481410  1.0  -0.3234
  N  N1001  1  0.366300  0.366100  0.772070  1.0  -0.3015
  N  N1002  1  0.395800  0.299900  0.725050  1.0  -0.3187
  N  N1003  1  0.017900  0.195800  0.764930  1.0  -0.3285
  N  N1004  1  0.042600  0.127600  0.717600  1.0  -0.3465
  N  N1005  1  0.493500  0.474600  0.766400  1.0  -0.3276
  N  N1006  1  0.409700  0.473200  0.722690  1.0  -0.3364
  N  N1007  1  0.183400  0.288900  0.526730  1.0  -0.3154
  N  N1008  1  0.187200  0.203400  0.485500  1.0  -0.328
  N  N1009  1  0.966800  0.287600  0.977920  1.0  -0.3737
  N  N1010  1  0.912600  0.333200  0.023740  1.0  -0.35
  N  N1011  1  0.619000  0.665300  0.022540  1.0  -0.3544
  N  N1012  1  0.530600  0.690000  0.981410  1.0  -0.3223
  N  N1013  1  0.633700  0.133900  0.272070  1.0  -0.3017
  N  N1014  1  0.604200  0.200100  0.225050  1.0  -0.3173
  N  N1015  1  0.982100  0.304200  0.264930  1.0  -0.3297
  N  N1016  1  0.957400  0.372400  0.217600  1.0  -0.3469
  N  N1017  1  0.506500  0.025400  0.266400  1.0  -0.3276
  N  N1018  1  0.590300  0.026800  0.222690  1.0  -0.3359
  N  N1019  1  0.816600  0.211100  0.026730  1.0  -0.3155
  N  N1020  1  0.812800  0.296600  0.985500  1.0  -0.3292
  N  N1021  1  0.466800  0.712400  0.522080  1.0  -0.3736
  N  N1022  1  0.412600  0.666800  0.476260  1.0  -0.3485
  N  N1023  1  0.119000  0.334700  0.477460  1.0  -0.3548
  N  N1024  1  0.030600  0.310000  0.518590  1.0  -0.3226
  N  N1025  1  0.133700  0.866100  0.227930  1.0  -0.3008
  N  N1026  1  0.104200  0.799900  0.274950  1.0  -0.3194
  N  N1027  1  0.482100  0.695800  0.235070  1.0  -0.3283
  N  N1028  1  0.457400  0.627600  0.282400  1.0  -0.3459
  N  N1029  1  0.006500  0.974600  0.233600  1.0  -0.3271
  N  N1030  1  0.090300  0.973200  0.277310  1.0  -0.3365
  N  N1031  1  0.316600  0.788900  0.473270  1.0  -0.316
  N  N1032  1  0.312800  0.703400  0.514500  1.0  -0.3272
  N  N1033  1  0.466800  0.212400  0.977920  1.0  -0.3738
  N  N1034  1  0.412600  0.166800  0.023740  1.0  -0.3497
  N  N1035  1  0.119000  0.834700  0.022540  1.0  -0.3549
  N  N1036  1  0.030600  0.810000  0.981410  1.0  -0.3223
  N  N1037  1  0.133700  0.366100  0.272070  1.0  -0.3022
  N  N1038  1  0.104200  0.299900  0.225050  1.0  -0.3188
  N  N1039  1  0.482100  0.195800  0.264930  1.0  -0.3288
  N  N1040  1  0.457400  0.127600  0.217600  1.0  -0.3464
  N  N1041  1  0.006500  0.474600  0.266400  1.0  -0.3277
  N  N1042  1  0.090300  0.473200  0.222690  1.0  -0.3361
  N  N1043  1  0.316600  0.288900  0.026730  1.0  -0.3159
  N  N1044  1  0.312800  0.203400  0.985500  1.0  -0.3281
  N  N1045  1  0.966800  0.787600  0.522080  1.0  -0.3736
  N  N1046  1  0.912600  0.833200  0.476260  1.0  -0.3495
  N  N1047  1  0.619000  0.165300  0.477460  1.0  -0.3539
  N  N1048  1  0.530600  0.190000  0.518590  1.0  -0.3226
  N  N1049  1  0.633700  0.633900  0.227930  1.0  -0.3006
  N  N1050  1  0.604200  0.700100  0.274950  1.0  -0.3174
  N  N1051  1  0.982100  0.804200  0.235070  1.0  -0.3292
  N  N1052  1  0.957400  0.872400  0.282400  1.0  -0.3467
  N  N1053  1  0.506500  0.525400  0.233600  1.0  -0.327
  N  N1054  1  0.590300  0.526800  0.277310  1.0  -0.3361
  N  N1055  1  0.816600  0.711100  0.473270  1.0  -0.3154
  N  N1056  1  0.812800  0.796600  0.514500  1.0  -0.3281
  N  N1057  1  0.033200  0.712400  0.022080  1.0  -0.3742
  N  N1058  1  0.087400  0.666800  0.976260  1.0  -0.3484
  N  N1059  1  0.381000  0.334700  0.977460  1.0  -0.3548
  N  N1060  1  0.469400  0.310000  0.018590  1.0  -0.3233
  N  N1061  1  0.366300  0.866100  0.727930  1.0  -0.2999
  N  N1062  1  0.395800  0.799900  0.774950  1.0  -0.3195
  N  N1063  1  0.017900  0.695800  0.735070  1.0  -0.3281
  N  N1064  1  0.042600  0.627600  0.782400  1.0  -0.3459
  N  N1065  1  0.493500  0.974600  0.733600  1.0  -0.3272
  N  N1066  1  0.409700  0.973200  0.777310  1.0  -0.3371
  N  N1067  1  0.183400  0.788900  0.973270  1.0  -0.3159
  N  N1068  1  0.187200  0.703400  0.014500  1.0  -0.3273
  N  N1069  1  0.533200  0.287600  0.477920  1.0  -0.3739
  N  N1070  1  0.587400  0.333200  0.523740  1.0  -0.3496
  N  N1071  1  0.881000  0.665300  0.522540  1.0  -0.3547
  N  N1072  1  0.969400  0.690000  0.481410  1.0  -0.3231
  N  N1073  1  0.866300  0.133900  0.772070  1.0  -0.3009
  N  N1074  1  0.895800  0.200100  0.725050  1.0  -0.3177
  N  N1075  1  0.517900  0.304200  0.764930  1.0  -0.3294
  N  N1076  1  0.542600  0.372400  0.717600  1.0  -0.3467
  N  N1077  1  0.993500  0.025400  0.766400  1.0  -0.3279
  N  N1078  1  0.909700  0.026800  0.722690  1.0  -0.3365
  N  N1079  1  0.683400  0.211100  0.526730  1.0  -0.3151
  N  N1080  1  0.687200  0.296600  0.485500  1.0  -0.3289
  Cl  Cl1081  1  0.704910  0.991720  0.761400  1.0  1.3056
  Cl  Cl1082  1  0.225040  0.494470  0.992220  1.0  1.6153
  Cl  Cl1083  1  0.204910  0.008280  0.738600  1.0  1.3049
  Cl  Cl1084  1  0.725040  0.505530  0.507780  1.0  1.615
  Cl  Cl1085  1  0.795090  0.491720  0.238600  1.0  1.3048
  Cl  Cl1086  1  0.274960  0.994470  0.007780  1.0  1.6149
  Cl  Cl1087  1  0.295090  0.508280  0.261400  1.0  1.3057
  Cl  Cl1088  1  0.774960  0.005530  0.492220  1.0  1.615
  Cl  Cl1089  1  0.295090  0.008280  0.238600  1.0  1.3049
  Cl  Cl1090  1  0.774960  0.505530  0.007780  1.0  1.6148
  Cl  Cl1091  1  0.795090  0.991720  0.261400  1.0  1.3055
  Cl  Cl1092  1  0.274960  0.494470  0.492220  1.0  1.6151
  Cl  Cl1093  1  0.204910  0.508280  0.761400  1.0  1.3058
  Cl  Cl1094  1  0.725040  0.005530  0.992220  1.0  1.6152
  Cl  Cl1095  1  0.704910  0.491720  0.738600  1.0  1.3048
  Cl  Cl1096  1  0.225040  0.994470  0.507780  1.0  1.6151
  O  O1097  1  0.390900  0.792900  0.103490  1.0  -0.6859
  O  O1098  1  0.447900  0.691700  0.091210  1.0  -0.5816
  O  O1099  1  0.636500  0.009500  0.908320  1.0  -0.6361
  O  O1100  1  0.712300  0.915200  0.913940  1.0  -0.6267
  O  O1101  1  0.731800  0.131700  0.911470  1.0  -0.6697
  O  O1102  1  0.796900  0.033700  0.900800  1.0  -0.6265
  O  O1103  1  0.114400  0.231800  0.085380  1.0  -0.5544
  O  O1104  1  0.131600  0.112100  0.086570  1.0  -0.6744
  O  O1105  1  0.868600  0.874200  0.845860  1.0  -0.6534
  O  O1106  1  0.933500  0.774600  0.852840  1.0  -0.5833
  O  O1107  1  0.816400  0.516500  0.657220  1.0  -0.6357
  O  O1108  1  0.729600  0.596300  0.646860  1.0  -0.6481
  O  O1109  1  0.694300  0.931700  0.857120  1.0  -0.6466
  O  O1110  1  0.597500  0.002300  0.849480  1.0  -0.6096
  O  O1111  1  0.583700  0.655900  0.659530  1.0  -0.6645
  O  O1112  1  0.483000  0.723600  0.657390  1.0  -0.6025
  O  O1113  1  0.793800  0.437400  0.858140  1.0  -0.6091
  O  O1114  1  0.748200  0.531900  0.837340  1.0  -0.593
  O  O1115  1  0.112900  0.545700  0.663310  1.0  -0.6411
  O  O1116  1  0.099800  0.432700  0.651150  1.0  -0.5954
  O  O1117  1  0.764300  0.584700  0.893540  1.0  -0.6153
  O  O1118  1  0.649700  0.581300  0.906540  1.0  -0.6422
  O  O1119  1  0.784900  0.947200  0.083090  1.0  -0.6273
  O  O1120  1  0.664600  0.947200  0.074390  1.0  -0.5697
  O  O1121  1  0.768000  0.805100  0.879470  1.0  -0.8379
  O  O1122  1  0.565900  0.456700  0.896350  1.0  -0.7917
  O  O1123  1  0.671300  0.357700  0.872800  1.0  -0.8082
  O  O1124  1  0.488200  0.914500  0.107780  1.0  -0.8515
  O  O1125  1  0.934600  0.985600  0.875620  1.0  -0.8102
  O  O1126  1  0.890900  0.207100  0.396510  1.0  -0.6848
  O  O1127  1  0.947900  0.308300  0.408790  1.0  -0.5812
  O  O1128  1  0.136500  0.990500  0.591680  1.0  -0.636
  O  O1129  1  0.212300  0.084800  0.586060  1.0  -0.6269
  O  O1130  1  0.231800  0.868300  0.588530  1.0  -0.6694
  O  O1131  1  0.296900  0.966300  0.599200  1.0  -0.6269
  O  O1132  1  0.614400  0.768200  0.414620  1.0  -0.5539
  O  O1133  1  0.631600  0.887900  0.413430  1.0  -0.6746
  O  O1134  1  0.368600  0.125800  0.654140  1.0  -0.6535
  O  O1135  1  0.433500  0.225400  0.647160  1.0  -0.5804
  O  O1136  1  0.316400  0.483500  0.842780  1.0  -0.637
  O  O1137  1  0.229600  0.403700  0.853140  1.0  -0.6474
  O  O1138  1  0.194300  0.068300  0.642880  1.0  -0.6485
  O  O1139  1  0.097500  0.997700  0.650520  1.0  -0.6092
  O  O1140  1  0.083700  0.344100  0.840470  1.0  -0.6652
  O  O1141  1  0.983000  0.276400  0.842610  1.0  -0.6029
  O  O1142  1  0.293800  0.562600  0.641860  1.0  -0.6096
  O  O1143  1  0.248200  0.468100  0.662660  1.0  -0.5937
  O  O1144  1  0.612900  0.454300  0.836690  1.0  -0.6429
  O  O1145  1  0.599800  0.567300  0.848850  1.0  -0.5937
  O  O1146  1  0.264300  0.415300  0.606460  1.0  -0.6152
  O  O1147  1  0.149700  0.418700  0.593460  1.0  -0.6429
  O  O1148  1  0.284900  0.052800  0.416910  1.0  -0.6271
  O  O1149  1  0.164600  0.052800  0.425610  1.0  -0.5687
  O  O1150  1  0.268000  0.194900  0.620530  1.0  -0.8403
  O  O1151  1  0.065900  0.543300  0.603650  1.0  -0.7922
  O  O1152  1  0.171300  0.642300  0.627200  1.0  -0.8105
  O  O1153  1  0.988200  0.085500  0.392220  1.0  -0.8525
  O  O1154  1  0.434600  0.014400  0.624380  1.0  -0.8083
  O  O1155  1  0.109100  0.292900  0.896510  1.0  -0.685
  O  O1156  1  0.052100  0.191700  0.908790  1.0  -0.5803
  O  O1157  1  0.863500  0.509500  0.091680  1.0  -0.6368
  O  O1158  1  0.787700  0.415200  0.086060  1.0  -0.6266
  O  O1159  1  0.768200  0.631700  0.088530  1.0  -0.6695
  O  O1160  1  0.703100  0.533700  0.099200  1.0  -0.627
  O  O1161  1  0.385600  0.731800  0.914620  1.0  -0.5535
  O  O1162  1  0.368400  0.612100  0.913430  1.0  -0.6732
  O  O1163  1  0.631400  0.374200  0.154140  1.0  -0.6543
  O  O1164  1  0.566500  0.274600  0.147160  1.0  -0.5812
  O  O1165  1  0.683600  0.016500  0.342780  1.0  -0.6356
  O  O1166  1  0.770400  0.096300  0.353140  1.0  -0.649
  O  O1167  1  0.805700  0.431700  0.142880  1.0  -0.6485
  O  O1168  1  0.902500  0.502300  0.150520  1.0  -0.6081
  O  O1169  1  0.916300  0.155900  0.340470  1.0  -0.6657
  O  O1170  1  0.017000  0.223600  0.342610  1.0  -0.604
  O  O1171  1  0.706200  0.937400  0.141860  1.0  -0.6091
  O  O1172  1  0.751800  0.031900  0.162660  1.0  -0.5943
  O  O1173  1  0.387100  0.045700  0.336690  1.0  -0.6419
  O  O1174  1  0.400200  0.932700  0.348850  1.0  -0.5932
  O  O1175  1  0.735700  0.084700  0.106460  1.0  -0.6151
  O  O1176  1  0.850300  0.081300  0.093460  1.0  -0.6434
  O  O1177  1  0.715100  0.447200  0.916910  1.0  -0.6269
  O  O1178  1  0.835400  0.447200  0.925610  1.0  -0.5668
  O  O1179  1  0.732000  0.305100  0.120530  1.0  -0.8377
  O  O1180  1  0.934100  0.956700  0.103650  1.0  -0.791
  O  O1181  1  0.828700  0.857700  0.127200  1.0  -0.8083
  O  O1182  1  0.011800  0.414500  0.892220  1.0  -0.8499
  O  O1183  1  0.565400  0.485600  0.124380  1.0  -0.809
  O  O1184  1  0.609100  0.707100  0.603490  1.0  -0.6862
  O  O1185  1  0.552100  0.808300  0.591210  1.0  -0.5823
  O  O1186  1  0.363500  0.490500  0.408320  1.0  -0.6362
  O  O1187  1  0.287700  0.584800  0.413940  1.0  -0.6261
  O  O1188  1  0.268200  0.368300  0.411470  1.0  -0.6688
  O  O1189  1  0.203100  0.466300  0.400800  1.0  -0.6268
  O  O1190  1  0.885600  0.268200  0.585380  1.0  -0.5525
  O  O1191  1  0.868400  0.387900  0.586570  1.0  -0.6732
  O  O1192  1  0.131400  0.625800  0.345860  1.0  -0.654
  O  O1193  1  0.066500  0.725400  0.352840  1.0  -0.5819
  O  O1194  1  0.183600  0.983500  0.157220  1.0  -0.6369
  O  O1195  1  0.270400  0.903700  0.146860  1.0  -0.6491
  O  O1196  1  0.305700  0.568300  0.357120  1.0  -0.6478
  O  O1197  1  0.402500  0.497700  0.349480  1.0  -0.608
  O  O1198  1  0.416300  0.844100  0.159530  1.0  -0.665
  O  O1199  1  0.517000  0.776400  0.157390  1.0  -0.6012
  O  O1200  1  0.206200  0.062600  0.358140  1.0  -0.6099
  O  O1201  1  0.251800  0.968100  0.337340  1.0  -0.5941
  O  O1202  1  0.887100  0.954300  0.163310  1.0  -0.6429
  O  O1203  1  0.900200  0.067300  0.151150  1.0  -0.595
  O  O1204  1  0.235700  0.915300  0.393540  1.0  -0.6145
  O  O1205  1  0.350300  0.918700  0.406540  1.0  -0.6437
  O  O1206  1  0.215100  0.552800  0.583090  1.0  -0.6264
  O  O1207  1  0.335400  0.552800  0.574390  1.0  -0.5666
  O  O1208  1  0.232000  0.694900  0.379470  1.0  -0.8403
  O  O1209  1  0.434100  0.043300  0.396350  1.0  -0.793
  O  O1210  1  0.328700  0.142300  0.372800  1.0  -0.8093
  O  O1211  1  0.511800  0.585500  0.607780  1.0  -0.8482
  O  O1212  1  0.065400  0.514400  0.375620  1.0  -0.8084
  O  O1213  1  0.609100  0.207100  0.896510  1.0  -0.6852
  O  O1214  1  0.552100  0.308300  0.908790  1.0  -0.581
  O  O1215  1  0.363500  0.990500  0.091680  1.0  -0.637
  O  O1216  1  0.287700  0.084800  0.086060  1.0  -0.6261
  O  O1217  1  0.268200  0.868300  0.088530  1.0  -0.6679
  O  O1218  1  0.203100  0.966300  0.099200  1.0  -0.627
  O  O1219  1  0.885600  0.768200  0.914620  1.0  -0.5534
  O  O1220  1  0.868400  0.887900  0.913430  1.0  -0.6739
  O  O1221  1  0.131400  0.125800  0.154140  1.0  -0.6539
  O  O1222  1  0.066500  0.225400  0.147160  1.0  -0.5802
  O  O1223  1  0.183600  0.483500  0.342780  1.0  -0.6369
  O  O1224  1  0.270400  0.403700  0.353140  1.0  -0.6479
  O  O1225  1  0.305700  0.068300  0.142880  1.0  -0.6482
  O  O1226  1  0.402500  0.997700  0.150520  1.0  -0.6077
  O  O1227  1  0.416300  0.344100  0.340470  1.0  -0.6646
  O  O1228  1  0.517000  0.276400  0.342610  1.0  -0.603
  O  O1229  1  0.206200  0.562600  0.141860  1.0  -0.6093
  O  O1230  1  0.251800  0.468100  0.162660  1.0  -0.5939
  O  O1231  1  0.887100  0.454300  0.336690  1.0  -0.6427
  O  O1232  1  0.900200  0.567300  0.348850  1.0  -0.5941
  O  O1233  1  0.235700  0.415300  0.106460  1.0  -0.616
  O  O1234  1  0.350300  0.418700  0.093460  1.0  -0.6438
  O  O1235  1  0.215100  0.052800  0.916910  1.0  -0.6268
  O  O1236  1  0.335400  0.052800  0.925610  1.0  -0.5668
  O  O1237  1  0.232000  0.194900  0.120530  1.0  -0.8404
  O  O1238  1  0.434100  0.543300  0.103650  1.0  -0.7916
  O  O1239  1  0.328700  0.642300  0.127200  1.0  -0.8093
  O  O1240  1  0.511800  0.085500  0.892220  1.0  -0.8496
  O  O1241  1  0.065400  0.014400  0.124380  1.0  -0.808
  O  O1242  1  0.109100  0.792900  0.603490  1.0  -0.6859
  O  O1243  1  0.052100  0.691700  0.591210  1.0  -0.5823
  O  O1244  1  0.863500  0.009500  0.408320  1.0  -0.6364
  O  O1245  1  0.787700  0.915200  0.413940  1.0  -0.6263
  O  O1246  1  0.768200  0.131700  0.411470  1.0  -0.6699
  O  O1247  1  0.703100  0.033700  0.400800  1.0  -0.6266
  O  O1248  1  0.385600  0.231800  0.585380  1.0  -0.5532
  O  O1249  1  0.368400  0.112100  0.586570  1.0  -0.6738
  O  O1250  1  0.631400  0.874200  0.345860  1.0  -0.6543
  O  O1251  1  0.566500  0.774600  0.352840  1.0  -0.582
  O  O1252  1  0.683600  0.516500  0.157220  1.0  -0.6355
  O  O1253  1  0.770400  0.596300  0.146860  1.0  -0.6489
  O  O1254  1  0.805700  0.931700  0.357120  1.0  -0.6466
  O  O1255  1  0.902500  0.002300  0.349480  1.0  -0.6086
  O  O1256  1  0.916300  0.655900  0.159530  1.0  -0.6642
  O  O1257  1  0.017000  0.723600  0.157390  1.0  -0.6018
  O  O1258  1  0.706200  0.437400  0.358140  1.0  -0.6084
  O  O1259  1  0.751800  0.531900  0.337340  1.0  -0.5942
  O  O1260  1  0.387100  0.545700  0.163310  1.0  -0.6426
  O  O1261  1  0.400200  0.432700  0.151150  1.0  -0.5951
  O  O1262  1  0.735700  0.584700  0.393540  1.0  -0.6159
  O  O1263  1  0.850300  0.581300  0.406540  1.0  -0.6429
  O  O1264  1  0.715100  0.947200  0.583090  1.0  -0.6269
  O  O1265  1  0.835400  0.947200  0.574390  1.0  -0.5673
  O  O1266  1  0.732000  0.805100  0.379470  1.0  -0.8378
  O  O1267  1  0.934100  0.456700  0.396350  1.0  -0.7909
  O  O1268  1  0.828700  0.357700  0.372800  1.0  -0.8075
  O  O1269  1  0.011800  0.914500  0.607780  1.0  -0.8486
  O  O1270  1  0.565400  0.985600  0.375620  1.0  -0.8097
  O  O1271  1  0.890900  0.707100  0.103490  1.0  -0.686
  O  O1272  1  0.947900  0.808300  0.091210  1.0  -0.5818
  O  O1273  1  0.136500  0.490500  0.908320  1.0  -0.6356
  O  O1274  1  0.212300  0.584800  0.913940  1.0  -0.6269
  O  O1275  1  0.231800  0.368300  0.911470  1.0  -0.67
  O  O1276  1  0.296900  0.466300  0.900800  1.0  -0.6266
  O  O1277  1  0.614400  0.268200  0.085380  1.0  -0.5527
  O  O1278  1  0.631600  0.387900  0.086570  1.0  -0.6736
  O  O1279  1  0.368600  0.625800  0.845860  1.0  -0.6534
  O  O1280  1  0.433500  0.725400  0.852840  1.0  -0.5823
  O  O1281  1  0.316400  0.983500  0.657220  1.0  -0.6369
  O  O1282  1  0.229600  0.903700  0.646860  1.0  -0.6484
  O  O1283  1  0.194300  0.568300  0.857120  1.0  -0.6479
  O  O1284  1  0.097500  0.497700  0.849480  1.0  -0.6093
  O  O1285  1  0.083700  0.844100  0.659530  1.0  -0.6648
  O  O1286  1  0.983000  0.776400  0.657390  1.0  -0.6021
  O  O1287  1  0.293800  0.062600  0.858140  1.0  -0.6105
  O  O1288  1  0.248200  0.968100  0.837340  1.0  -0.5938
  O  O1289  1  0.612900  0.954300  0.663310  1.0  -0.6426
  O  O1290  1  0.599800  0.067300  0.651150  1.0  -0.594
  O  O1291  1  0.264300  0.915300  0.893540  1.0  -0.6143
  O  O1292  1  0.149700  0.918700  0.906540  1.0  -0.6429
  O  O1293  1  0.284900  0.552800  0.083090  1.0  -0.6269
  O  O1294  1  0.164600  0.552800  0.074390  1.0  -0.5689
  O  O1295  1  0.268000  0.694900  0.879470  1.0  -0.84
  O  O1296  1  0.065900  0.043300  0.896350  1.0  -0.7904
  O  O1297  1  0.171300  0.142300  0.872800  1.0  -0.8105
  O  O1298  1  0.988200  0.585500  0.107780  1.0  -0.8514
  O  O1299  1  0.434600  0.514400  0.875620  1.0  -0.8086
  O  O1300  1  0.390900  0.292900  0.396510  1.0  -0.6848
  O  O1301  1  0.447900  0.191700  0.408790  1.0  -0.5807
  O  O1302  1  0.636500  0.509500  0.591680  1.0  -0.6362
  O  O1303  1  0.712300  0.415200  0.586060  1.0  -0.6269
  O  O1304  1  0.731800  0.631700  0.588530  1.0  -0.6699
  O  O1305  1  0.796900  0.533700  0.599200  1.0  -0.6271
  O  O1306  1  0.114400  0.731800  0.414620  1.0  -0.5545
  O  O1307  1  0.131600  0.612100  0.413430  1.0  -0.6739
  O  O1308  1  0.868600  0.374200  0.654140  1.0  -0.6535
  O  O1309  1  0.933500  0.274600  0.647160  1.0  -0.5815
  O  O1310  1  0.816400  0.016500  0.842780  1.0  -0.6357
  O  O1311  1  0.729600  0.096300  0.853140  1.0  -0.6483
  O  O1312  1  0.694300  0.431700  0.642880  1.0  -0.6486
  O  O1313  1  0.597500  0.502300  0.650520  1.0  -0.6094
  O  O1314  1  0.583700  0.155900  0.840470  1.0  -0.6649
  O  O1315  1  0.483000  0.223600  0.842610  1.0  -0.6041
  O  O1316  1  0.793800  0.937400  0.641860  1.0  -0.6095
  O  O1317  1  0.748200  0.031900  0.662660  1.0  -0.5931
  O  O1318  1  0.112900  0.045700  0.836690  1.0  -0.641
  O  O1319  1  0.099800  0.932700  0.848850  1.0  -0.5941
  O  O1320  1  0.764300  0.084700  0.606460  1.0  -0.6141
  O  O1321  1  0.649700  0.081300  0.593460  1.0  -0.6427
  O  O1322  1  0.784900  0.447200  0.416910  1.0  -0.6273
  O  O1323  1  0.664600  0.447200  0.425610  1.0  -0.5689
  O  O1324  1  0.768000  0.305100  0.620530  1.0  -0.838
  O  O1325  1  0.565900  0.956700  0.603650  1.0  -0.7882
  O  O1326  1  0.671300  0.857700  0.627200  1.0  -0.8093
  O  O1327  1  0.488200  0.414500  0.392220  1.0  -0.8526
  O  O1328  1  0.934600  0.485600  0.624380  1.0  -0.81
  O  O1329  1  0.761160  0.014930  0.743760  1.0  -0.5844
  O  O1330  1  0.640110  0.033810  0.759600  1.0  -0.5737
  O  O1331  1  0.680280  0.920290  0.749370  1.0  -0.661
  O  O1332  1  0.725580  0.975440  0.788830  1.0  -0.5646
  O  O1333  1  0.253900  0.563700  0.985170  1.0  -0.5807
  O  O1334  1  0.209600  0.453800  0.967490  1.0  -0.6588
  O  O1335  1  0.276700  0.454800  0.007820  1.0  -0.5751
  O  O1336  1  0.159100  0.504000  0.007230  1.0  -0.5837
  O  O1337  1  0.261160  0.985070  0.756240  1.0  -0.5865
  O  O1338  1  0.140110  0.966190  0.740400  1.0  -0.5746
  O  O1339  1  0.180280  0.079710  0.750630  1.0  -0.6614
  O  O1340  1  0.225580  0.024560  0.711170  1.0  -0.5656
  O  O1341  1  0.753900  0.436300  0.514830  1.0  -0.5805
  O  O1342  1  0.709600  0.546200  0.532510  1.0  -0.6593
  O  O1343  1  0.776700  0.545200  0.492180  1.0  -0.5751
  O  O1344  1  0.659100  0.496000  0.492770  1.0  -0.5834
  O  O1345  1  0.738840  0.514930  0.256240  1.0  -0.5841
  O  O1346  1  0.859890  0.533810  0.240400  1.0  -0.5759
  O  O1347  1  0.819720  0.420290  0.250630  1.0  -0.661
  O  O1348  1  0.774420  0.475440  0.211170  1.0  -0.5655
  O  O1349  1  0.246100  0.063700  0.014830  1.0  -0.5817
  O  O1350  1  0.290400  0.953800  0.032510  1.0  -0.6593
  O  O1351  1  0.223300  0.954800  0.992180  1.0  -0.5736
  O  O1352  1  0.340900  0.004000  0.992770  1.0  -0.585
  O  O1353  1  0.238840  0.485070  0.243760  1.0  -0.5831
  O  O1354  1  0.359890  0.466190  0.259600  1.0  -0.5763
  O  O1355  1  0.319720  0.579710  0.249370  1.0  -0.6608
  O  O1356  1  0.274420  0.524560  0.288830  1.0  -0.5644
  O  O1357  1  0.746100  0.936300  0.485170  1.0  -0.5804
  O  O1358  1  0.790400  0.046200  0.467490  1.0  -0.6587
  O  O1359  1  0.723300  0.045200  0.507820  1.0  -0.5735
  O  O1360  1  0.840900  0.996000  0.507230  1.0  -0.5853
  O  O1361  1  0.238840  0.985070  0.256240  1.0  -0.5845
  O  O1362  1  0.359890  0.966190  0.240400  1.0  -0.5762
  O  O1363  1  0.319720  0.079710  0.250630  1.0  -0.6611
  O  O1364  1  0.274420  0.024560  0.211170  1.0  -0.5656
  O  O1365  1  0.746100  0.436300  0.014830  1.0  -0.5809
  O  O1366  1  0.790400  0.546200  0.032510  1.0  -0.6593
  O  O1367  1  0.723300  0.545200  0.992180  1.0  -0.5737
  O  O1368  1  0.840900  0.496000  0.992770  1.0  -0.585
  O  O1369  1  0.738840  0.014930  0.243760  1.0  -0.5832
  O  O1370  1  0.859890  0.033810  0.259600  1.0  -0.5759
  O  O1371  1  0.819720  0.920290  0.249370  1.0  -0.6609
  O  O1372  1  0.774420  0.975440  0.288830  1.0  -0.5644
  O  O1373  1  0.246100  0.563700  0.485170  1.0  -0.5816
  O  O1374  1  0.290400  0.453800  0.467490  1.0  -0.6587
  O  O1375  1  0.223300  0.454800  0.507820  1.0  -0.5735
  O  O1376  1  0.340900  0.504000  0.507230  1.0  -0.5856
  O  O1377  1  0.261160  0.485070  0.743760  1.0  -0.5846
  O  O1378  1  0.140110  0.466190  0.759600  1.0  -0.5745
  O  O1379  1  0.180280  0.579710  0.749370  1.0  -0.6609
  O  O1380  1  0.225580  0.524560  0.788830  1.0  -0.5646
  O  O1381  1  0.753900  0.936300  0.985170  1.0  -0.5801
  O  O1382  1  0.709600  0.046200  0.967490  1.0  -0.6588
  O  O1383  1  0.776700  0.045200  0.007820  1.0  -0.5749
  O  O1384  1  0.659100  0.996000  0.007230  1.0  -0.5834
  O  O1385  1  0.761160  0.514930  0.756240  1.0  -0.586
  O  O1386  1  0.640110  0.533810  0.740400  1.0  -0.5738
  O  O1387  1  0.680280  0.420290  0.750630  1.0  -0.6611
  O  O1388  1  0.725580  0.475440  0.711170  1.0  -0.5655
  O  O1389  1  0.253900  0.063700  0.514830  1.0  -0.5806
  O  O1390  1  0.209600  0.953800  0.532510  1.0  -0.6593
  O  O1391  1  0.276700  0.954800  0.492180  1.0  -0.5752
  O  O1392  1  0.159100  0.004000  0.492770  1.0  -0.5835
