# generated using pymatgen
data_Ho3Co2H47C72N12Cl2O37
_symmetry_space_group_name_H-M   'P 1'
_cell_length_a   18.60610000
_cell_length_b   18.69390000
_cell_length_c   48.61700000
_cell_angle_alpha   90.00000000
_cell_angle_beta   90.00000000
_cell_angle_gamma   90.00000000
_symmetry_Int_Tables_number   1
_chemical_formula_structural   Ho3Co2H47C72N12Cl2O37
_chemical_formula_sum   'Ho24 Co16 H376 C576 N96 Cl16 O296'
_cell_volume   16909.99278733
_cell_formula_units_Z   8
loop_
 _symmetry_equiv_pos_site_id
 _symmetry_equiv_pos_as_xyz
  1  'x, y, z'
loop_
 _atom_site_type_symbol
 _atom_site_label
 _atom_site_symmetry_multiplicity
 _atom_site_fract_x
 _atom_site_fract_y
 _atom_site_fract_z
 _atom_site_occupancy
 _atom_site_charge
  Ho  Ho1  1  0.799700  0.425920  0.878440  1.0  2.2158
  Ho  Ho2  1  0.636460  0.596390  0.877780  1.0  2.1901
  Ho  Ho3  1  0.811870  0.485520  0.124510  1.0  2.1449
  Ho  Ho4  1  0.299700  0.574080  0.621560  1.0  2.2163
  Ho  Ho5  1  0.136460  0.403610  0.622220  1.0  2.1902
  Ho  Ho6  1  0.311870  0.514480  0.375490  1.0  2.1462
  Ho  Ho7  1  0.700300  0.925920  0.121560  1.0  2.2168
  Ho  Ho8  1  0.863540  0.096390  0.122220  1.0  2.1903
  Ho  Ho9  1  0.688130  0.985520  0.875490  1.0  2.1447
  Ho  Ho10  1  0.200300  0.074080  0.378440  1.0  2.2166
  Ho  Ho11  1  0.363540  0.903610  0.377780  1.0  2.1897
  Ho  Ho12  1  0.188130  0.014480  0.624510  1.0  2.145
  Ho  Ho13  1  0.200300  0.574080  0.121560  1.0  2.2152
  Ho  Ho14  1  0.363540  0.403610  0.122220  1.0  2.1901
  Ho  Ho15  1  0.188130  0.514480  0.875490  1.0  2.1458
  Ho  Ho16  1  0.700300  0.425920  0.378440  1.0  2.215
  Ho  Ho17  1  0.863540  0.596390  0.377780  1.0  2.1899
  Ho  Ho18  1  0.688130  0.485520  0.624510  1.0  2.1437
  Ho  Ho19  1  0.299700  0.074080  0.878440  1.0  2.2173
  Ho  Ho20  1  0.136460  0.903610  0.877780  1.0  2.1899
  Ho  Ho21  1  0.311870  0.014480  0.124510  1.0  2.1455
  Ho  Ho22  1  0.799700  0.925920  0.621560  1.0  2.2173
  Ho  Ho23  1  0.636460  0.096390  0.622220  1.0  2.1904
  Ho  Ho24  1  0.811870  0.985520  0.375490  1.0  2.1458
  Co  Co25  1  0.958610  0.117010  0.754350  1.0  0.8967
  Co  Co26  1  0.892990  0.747160  0.001910  1.0  0.5857
  Co  Co27  1  0.458610  0.882990  0.745650  1.0  0.8967
  Co  Co28  1  0.392990  0.252840  0.498090  1.0  0.5858
  Co  Co29  1  0.541390  0.617010  0.245650  1.0  0.8967
  Co  Co30  1  0.607010  0.247160  0.998090  1.0  0.5859
  Co  Co31  1  0.041390  0.382990  0.254350  1.0  0.8973
  Co  Co32  1  0.107010  0.752840  0.501910  1.0  0.5854
  Co  Co33  1  0.041390  0.882990  0.245650  1.0  0.897
  Co  Co34  1  0.107010  0.252840  0.998090  1.0  0.5857
  Co  Co35  1  0.541390  0.117010  0.254350  1.0  0.8969
  Co  Co36  1  0.607010  0.747160  0.501910  1.0  0.5856
  Co  Co37  1  0.458610  0.382990  0.754350  1.0  0.897
  Co  Co38  1  0.392990  0.752840  0.001910  1.0  0.5855
  Co  Co39  1  0.958610  0.617010  0.745650  1.0  0.8965
  Co  Co40  1  0.892990  0.247160  0.498090  1.0  0.586
  H  H41  1  0.947100  0.205800  0.809500  1.0  0.077
  H  H42  1  0.808900  0.365100  0.796900  1.0  0.1018
  H  H43  1  0.785200  0.317300  0.753800  1.0  0.1121
  H  H44  1  0.769900  0.268400  0.714400  1.0  0.1254
  H  H45  1  0.746400  0.204600  0.675000  1.0  0.1085
  H  H46  1  0.882000  0.053500  0.701000  1.0  0.0652
  H  H47  1  0.534800  0.454000  0.805900  1.0  0.0702
  H  H48  1  0.688000  0.320000  0.830100  1.0  0.1132
  H  H49  1  0.663300  0.249900  0.792900  1.0  0.1295
  H  H50  1  0.649200  0.198100  0.753600  1.0  0.1148
  H  H51  1  0.631200  0.149900  0.710100  1.0  0.1082
  H  H52  1  0.478800  0.296600  0.697900  1.0  0.0773
  H  H53  1  0.796600  0.684600  0.955300  1.0  0.0871
  H  H54  1  0.912300  0.523300  0.925800  1.0  0.0893
  H  H55  1  0.993700  0.540600  0.961100  1.0  0.1143
  H  H56  1  0.061600  0.556400  0.996700  1.0  0.1261
  H  H57  1  0.125700  0.579300  0.036000  1.0  0.1005
  H  H58  1  0.994200  0.742600  0.052200  1.0  0.0894
  H  H59  1  0.865000  0.857100  0.959000  1.0  0.0769
  H  H60  1  0.653900  0.864400  0.950100  1.0  0.0942
  H  H61  1  0.641300  0.785400  0.986700  1.0  0.1107
  H  H62  1  0.645800  0.711900  0.025200  1.0  0.1104
  H  H63  1  0.661300  0.641900  0.064600  1.0  0.1227
  H  H64  1  0.872400  0.660600  0.054200  1.0  0.0727
  H  H65  1  0.966400  0.725000  0.945400  1.0  0.0873
  H  H66  1  0.128300  0.866000  0.944100  1.0  0.1213
  H  H67  1  0.087800  0.909400  0.985800  1.0  0.1064
  H  H68  1  0.036900  0.952300  0.023700  1.0  0.1257
  H  H69  1  0.971000  0.994800  0.060500  1.0  0.1073
  H  H70  1  0.834100  0.831900  0.049800  1.0  0.0785
  H  H71  1  0.644000  0.579800  0.195800  1.0  0.0821
  H  H72  1  0.635800  0.370400  0.184100  1.0  0.1001
  H  H73  1  0.566200  0.359000  0.223500  1.0  0.1224
  H  H74  1  0.517600  0.358700  0.265100  1.0  0.1038
  H  H75  1  0.454300  0.366400  0.306300  1.0  0.1192
  H  H76  1  0.446800  0.578600  0.295300  1.0  0.0906
  H  H77  1  0.084000  0.668200  0.918000  1.0  0.3374
  H  H78  1  0.490500  0.617200  0.897900  1.0  0.4449
  H  H79  1  0.486800  0.555100  0.882900  1.0  0.4683
  H  H80  1  0.783300  0.269200  0.887700  1.0  0.4599
  H  H81  1  0.719500  0.287700  0.875500  1.0  0.4502
  H  H82  1  0.945800  0.444200  0.866300  1.0  0.4525
  H  H83  1  0.928000  0.514700  0.870200  1.0  0.4058
  H  H84  1  0.950400  0.418200  0.098700  1.0  0.4322
  H  H85  1  0.941800  0.491100  0.098200  1.0  0.4252
  H  H86  1  0.858700  0.331200  0.121600  1.0  0.401
  H  H87  1  0.790900  0.328300  0.132700  1.0  0.4813
  H  H88  1  0.447100  0.794200  0.690500  1.0  0.0752
  H  H89  1  0.308900  0.634900  0.703100  1.0  0.101
  H  H90  1  0.285200  0.682700  0.746200  1.0  0.1119
  H  H91  1  0.269900  0.731600  0.785600  1.0  0.1252
  H  H92  1  0.246400  0.795400  0.825000  1.0  0.1088
  H  H93  1  0.382000  0.946500  0.799000  1.0  0.0655
  H  H94  1  0.034800  0.546000  0.694100  1.0  0.0699
  H  H95  1  0.188000  0.680000  0.669900  1.0  0.113
  H  H96  1  0.163300  0.750100  0.707100  1.0  0.1296
  H  H97  1  0.149200  0.801900  0.746400  1.0  0.1151
  H  H98  1  0.131200  0.850100  0.789900  1.0  0.1082
  H  H99  1  0.978800  0.703400  0.802100  1.0  0.077
  H  H100  1  0.296600  0.315400  0.544700  1.0  0.087
  H  H101  1  0.412300  0.476700  0.574200  1.0  0.0895
  H  H102  1  0.493700  0.459400  0.538900  1.0  0.1147
  H  H103  1  0.561600  0.443600  0.503300  1.0  0.1262
  H  H104  1  0.625700  0.420700  0.464000  1.0  0.1004
  H  H105  1  0.494200  0.257400  0.447800  1.0  0.0884
  H  H106  1  0.365000  0.142900  0.541000  1.0  0.0778
  H  H107  1  0.153900  0.135600  0.549900  1.0  0.0941
  H  H108  1  0.141300  0.214600  0.513300  1.0  0.1112
  H  H109  1  0.145800  0.288100  0.474800  1.0  0.1095
  H  H110  1  0.161300  0.358100  0.435400  1.0  0.1222
  H  H111  1  0.372400  0.339400  0.445800  1.0  0.073
  H  H112  1  0.466400  0.275000  0.554600  1.0  0.0874
  H  H113  1  0.628300  0.134000  0.555900  1.0  0.1214
  H  H114  1  0.587800  0.090600  0.514200  1.0  0.1059
  H  H115  1  0.536900  0.047700  0.476300  1.0  0.1255
  H  H116  1  0.471000  0.005200  0.439500  1.0  0.1075
  H  H117  1  0.334100  0.168100  0.450200  1.0  0.078
  H  H118  1  0.144000  0.420200  0.304200  1.0  0.0815
  H  H119  1  0.135800  0.629600  0.315900  1.0  0.1
  H  H120  1  0.066200  0.641000  0.276500  1.0  0.123
  H  H121  1  0.017600  0.641300  0.234900  1.0  0.1033
  H  H122  1  0.954300  0.633600  0.193700  1.0  0.1191
  H  H123  1  0.946800  0.421400  0.204700  1.0  0.0905
  H  H124  1  0.584000  0.331800  0.582000  1.0  0.337
  H  H125  1  0.990500  0.382800  0.602100  1.0  0.445
  H  H126  1  0.986800  0.444900  0.617100  1.0  0.4677
  H  H127  1  0.283300  0.730800  0.612300  1.0  0.4599
  H  H128  1  0.219500  0.712300  0.624500  1.0  0.4511
  H  H129  1  0.445800  0.555800  0.633700  1.0  0.4523
  H  H130  1  0.428000  0.485300  0.629800  1.0  0.4065
  H  H131  1  0.450400  0.581800  0.401300  1.0  0.4327
  H  H132  1  0.441800  0.508900  0.401800  1.0  0.4232
  H  H133  1  0.358700  0.668800  0.378400  1.0  0.4022
  H  H134  1  0.290900  0.671700  0.367300  1.0  0.4823
  H  H135  1  0.552900  0.705800  0.190500  1.0  0.0741
  H  H136  1  0.691100  0.865100  0.203100  1.0  0.1017
  H  H137  1  0.714800  0.817300  0.246200  1.0  0.1121
  H  H138  1  0.730100  0.768400  0.285600  1.0  0.1248
  H  H139  1  0.753600  0.704600  0.325000  1.0  0.1084
  H  H140  1  0.618000  0.553500  0.299000  1.0  0.0654
  H  H141  1  0.965200  0.954000  0.194100  1.0  0.07
  H  H142  1  0.812000  0.820000  0.169900  1.0  0.1125
  H  H143  1  0.836700  0.749900  0.207100  1.0  0.1291
  H  H144  1  0.850800  0.698100  0.246400  1.0  0.1148
  H  H145  1  0.868800  0.649900  0.289900  1.0  0.1087
  H  H146  1  0.021200  0.796600  0.302100  1.0  0.0772
  H  H147  1  0.703400  0.184600  0.044700  1.0  0.087
  H  H148  1  0.587700  0.023300  0.074200  1.0  0.0896
  H  H149  1  0.506300  0.040600  0.038900  1.0  0.1148
  H  H150  1  0.438400  0.056400  0.003300  1.0  0.1264
  H  H151  1  0.374300  0.079300  0.964000  1.0  0.1
  H  H152  1  0.505800  0.242600  0.947800  1.0  0.0888
  H  H153  1  0.635000  0.357100  0.041000  1.0  0.0765
  H  H154  1  0.846100  0.364400  0.049900  1.0  0.0946
  H  H155  1  0.858700  0.285400  0.013300  1.0  0.1116
  H  H156  1  0.854200  0.211900  0.974800  1.0  0.1099
  H  H157  1  0.838700  0.141900  0.935400  1.0  0.1227
  H  H158  1  0.627600  0.160600  0.945800  1.0  0.0721
  H  H159  1  0.533600  0.225000  0.054600  1.0  0.0878
  H  H160  1  0.371700  0.366000  0.055900  1.0  0.1217
  H  H161  1  0.412200  0.409400  0.014200  1.0  0.107
  H  H162  1  0.463100  0.452300  0.976300  1.0  0.1258
  H  H163  1  0.529000  0.494800  0.939500  1.0  0.1074
  H  H164  1  0.665900  0.331900  0.950200  1.0  0.0785
  H  H165  1  0.856000  0.079800  0.804200  1.0  0.082
  H  H166  1  0.864200  0.870400  0.815900  1.0  0.1
  H  H167  1  0.933800  0.859000  0.776500  1.0  0.1226
  H  H168  1  0.982400  0.858700  0.734900  1.0  0.1032
  H  H169  1  0.045700  0.866400  0.693700  1.0  0.1187
  H  H170  1  0.053200  0.078600  0.704700  1.0  0.0905
  H  H171  1  0.416000  0.168200  0.082000  1.0  0.3354
  H  H172  1  0.009500  0.117200  0.102100  1.0  0.4453
  H  H173  1  0.013200  0.055100  0.117100  1.0  0.4668
  H  H174  1  0.716700  0.769200  0.112300  1.0  0.459
  H  H175  1  0.780500  0.787700  0.124500  1.0  0.4485
  H  H176  1  0.554200  0.944200  0.133700  1.0  0.4539
  H  H177  1  0.572000  0.014700  0.129800  1.0  0.4065
  H  H178  1  0.549600  0.918200  0.901300  1.0  0.4319
  H  H179  1  0.558200  0.991100  0.901800  1.0  0.4251
  H  H180  1  0.641300  0.831200  0.878400  1.0  0.4018
  H  H181  1  0.709100  0.828300  0.867300  1.0  0.4803
  H  H182  1  0.052900  0.294200  0.309500  1.0  0.0769
  H  H183  1  0.191100  0.134900  0.296900  1.0  0.1016
  H  H184  1  0.214800  0.182700  0.253800  1.0  0.112
  H  H185  1  0.230100  0.231600  0.214400  1.0  0.1255
  H  H186  1  0.253600  0.295400  0.175000  1.0  0.1088
  H  H187  1  0.118000  0.446500  0.201000  1.0  0.0654
  H  H188  1  0.465200  0.046000  0.305900  1.0  0.0701
  H  H189  1  0.312000  0.180000  0.330100  1.0  0.1125
  H  H190  1  0.336700  0.250100  0.292900  1.0  0.1292
  H  H191  1  0.350800  0.301900  0.253600  1.0  0.1145
  H  H192  1  0.368800  0.350100  0.210100  1.0  0.1085
  H  H193  1  0.521200  0.203400  0.197900  1.0  0.0775
  H  H194  1  0.203400  0.815400  0.455300  1.0  0.0866
  H  H195  1  0.087700  0.976700  0.425800  1.0  0.0895
  H  H196  1  0.006300  0.959400  0.461100  1.0  0.1149
  H  H197  1  0.938400  0.943600  0.496700  1.0  0.1268
  H  H198  1  0.874300  0.920700  0.536000  1.0  0.1
  H  H199  1  0.005800  0.757400  0.552200  1.0  0.0895
  H  H200  1  0.135000  0.642900  0.459000  1.0  0.0759
  H  H201  1  0.346100  0.635600  0.450100  1.0  0.0943
  H  H202  1  0.358700  0.714600  0.486700  1.0  0.1112
  H  H203  1  0.354200  0.788100  0.525200  1.0  0.1107
  H  H204  1  0.338700  0.858100  0.564600  1.0  0.1232
  H  H205  1  0.127600  0.839400  0.554200  1.0  0.0727
  H  H206  1  0.033600  0.775000  0.445400  1.0  0.0876
  H  H207  1  0.871700  0.634000  0.444100  1.0  0.1216
  H  H208  1  0.912200  0.590600  0.485800  1.0  0.1063
  H  H209  1  0.963100  0.547700  0.523700  1.0  0.1253
  H  H210  1  0.029000  0.505200  0.560500  1.0  0.108
  H  H211  1  0.165900  0.668100  0.549800  1.0  0.078
  H  H212  1  0.356000  0.920200  0.695800  1.0  0.0813
  H  H213  1  0.364200  0.129600  0.684100  1.0  0.1
  H  H214  1  0.433800  0.141000  0.723500  1.0  0.1222
  H  H215  1  0.482400  0.141300  0.765100  1.0  0.1038
  H  H216  1  0.545700  0.133600  0.806300  1.0  0.1186
  H  H217  1  0.553200  0.921400  0.795300  1.0  0.0903
  H  H218  1  0.916000  0.831800  0.418000  1.0  0.338
  H  H219  1  0.509500  0.882800  0.397900  1.0  0.4471
  H  H220  1  0.513200  0.944900  0.382900  1.0  0.4669
  H  H221  1  0.216700  0.230800  0.387700  1.0  0.459
  H  H222  1  0.280500  0.212300  0.375500  1.0  0.4493
  H  H223  1  0.054200  0.055800  0.366300  1.0  0.4527
  H  H224  1  0.072000  0.985300  0.370200  1.0  0.4065
  H  H225  1  0.049600  0.081800  0.598700  1.0  0.4322
  H  H226  1  0.058200  0.008900  0.598200  1.0  0.4222
  H  H227  1  0.141300  0.168800  0.621600  1.0  0.4021
  H  H228  1  0.209100  0.171700  0.632700  1.0  0.4803
  H  H229  1  0.052900  0.794200  0.190500  1.0  0.0748
  H  H230  1  0.191100  0.634900  0.203100  1.0  0.1013
  H  H231  1  0.214800  0.682700  0.246200  1.0  0.1122
  H  H232  1  0.230100  0.731600  0.285600  1.0  0.125
  H  H233  1  0.253600  0.795400  0.325000  1.0  0.1089
  H  H234  1  0.118000  0.946500  0.299000  1.0  0.0655
  H  H235  1  0.465200  0.546000  0.194100  1.0  0.07
  H  H236  1  0.312000  0.680000  0.169900  1.0  0.1128
  H  H237  1  0.336700  0.750100  0.207100  1.0  0.1295
  H  H238  1  0.350800  0.801900  0.246400  1.0  0.1152
  H  H239  1  0.368800  0.850100  0.289900  1.0  0.1087
  H  H240  1  0.521200  0.703400  0.302100  1.0  0.0774
  H  H241  1  0.203400  0.315400  0.044700  1.0  0.0871
  H  H242  1  0.087700  0.476700  0.074200  1.0  0.0893
  H  H243  1  0.006300  0.459400  0.038900  1.0  0.1149
  H  H244  1  0.938400  0.443600  0.003300  1.0  0.1262
  H  H245  1  0.874300  0.420700  0.964000  1.0  0.1
  H  H246  1  0.005800  0.257400  0.947800  1.0  0.0886
  H  H247  1  0.135000  0.142900  0.041000  1.0  0.0767
  H  H248  1  0.346100  0.135600  0.049900  1.0  0.0946
  H  H249  1  0.358700  0.214600  0.013300  1.0  0.1115
  H  H250  1  0.354200  0.288100  0.974800  1.0  0.1098
  H  H251  1  0.338700  0.358100  0.935400  1.0  0.1231
  H  H252  1  0.127600  0.339400  0.945800  1.0  0.073
  H  H253  1  0.033600  0.275000  0.054600  1.0  0.0876
  H  H254  1  0.871700  0.134000  0.055900  1.0  0.1217
  H  H255  1  0.912200  0.090600  0.014200  1.0  0.1061
  H  H256  1  0.963100  0.047700  0.976300  1.0  0.1252
  H  H257  1  0.029000  0.005200  0.939500  1.0  0.1075
  H  H258  1  0.165900  0.168100  0.950200  1.0  0.0779
  H  H259  1  0.356000  0.420200  0.804200  1.0  0.0816
  H  H260  1  0.364200  0.629600  0.815900  1.0  0.0997
  H  H261  1  0.433800  0.641000  0.776500  1.0  0.1229
  H  H262  1  0.482400  0.641300  0.734900  1.0  0.1032
  H  H263  1  0.545700  0.633600  0.693700  1.0  0.1192
  H  H264  1  0.553200  0.421400  0.704700  1.0  0.0904
  H  H265  1  0.916000  0.331800  0.082000  1.0  0.3365
  H  H266  1  0.509500  0.382800  0.102100  1.0  0.4463
  H  H267  1  0.513200  0.444900  0.117100  1.0  0.4668
  H  H268  1  0.216700  0.730800  0.112300  1.0  0.4598
  H  H269  1  0.280500  0.712300  0.124500  1.0  0.4491
  H  H270  1  0.054200  0.555800  0.133700  1.0  0.4531
  H  H271  1  0.072000  0.485300  0.129800  1.0  0.407
  H  H272  1  0.049600  0.581800  0.901300  1.0  0.4323
  H  H273  1  0.058200  0.508900  0.901800  1.0  0.4227
  H  H274  1  0.141300  0.668800  0.878400  1.0  0.4031
  H  H275  1  0.209100  0.671700  0.867300  1.0  0.4804
  H  H276  1  0.552900  0.205800  0.309500  1.0  0.0766
  H  H277  1  0.691100  0.365100  0.296900  1.0  0.1018
  H  H278  1  0.714800  0.317300  0.253800  1.0  0.1124
  H  H279  1  0.730100  0.268400  0.214400  1.0  0.1255
  H  H280  1  0.753600  0.204600  0.175000  1.0  0.1085
  H  H281  1  0.618000  0.053500  0.201000  1.0  0.065
  H  H282  1  0.965200  0.454000  0.305900  1.0  0.07
  H  H283  1  0.812000  0.320000  0.330100  1.0  0.1126
  H  H284  1  0.836700  0.249900  0.292900  1.0  0.1292
  H  H285  1  0.850800  0.198100  0.253600  1.0  0.1149
  H  H286  1  0.868800  0.149900  0.210100  1.0  0.1084
  H  H287  1  0.021200  0.296600  0.197900  1.0  0.0773
  H  H288  1  0.703400  0.684600  0.455300  1.0  0.0868
  H  H289  1  0.587700  0.523300  0.425800  1.0  0.0892
  H  H290  1  0.506300  0.540600  0.461100  1.0  0.1146
  H  H291  1  0.438400  0.556400  0.496700  1.0  0.1264
  H  H292  1  0.374300  0.579300  0.536000  1.0  0.1002
  H  H293  1  0.505800  0.742600  0.552200  1.0  0.0894
  H  H294  1  0.635000  0.857100  0.459000  1.0  0.0762
  H  H295  1  0.846100  0.864400  0.450100  1.0  0.0945
  H  H296  1  0.858700  0.785400  0.486700  1.0  0.1113
  H  H297  1  0.854200  0.711900  0.525200  1.0  0.1108
  H  H298  1  0.838700  0.641900  0.564600  1.0  0.1232
  H  H299  1  0.627600  0.660600  0.554200  1.0  0.0725
  H  H300  1  0.533600  0.725000  0.445400  1.0  0.0875
  H  H301  1  0.371700  0.866000  0.444100  1.0  0.1219
  H  H302  1  0.412200  0.909400  0.485800  1.0  0.1067
  H  H303  1  0.463100  0.952300  0.523700  1.0  0.1256
  H  H304  1  0.529000  0.994800  0.560500  1.0  0.1077
  H  H305  1  0.665900  0.831900  0.549800  1.0  0.0786
  H  H306  1  0.856000  0.579800  0.695800  1.0  0.0821
  H  H307  1  0.864200  0.370400  0.684100  1.0  0.1
  H  H308  1  0.933800  0.359000  0.723500  1.0  0.1223
  H  H309  1  0.982400  0.358700  0.765100  1.0  0.1037
  H  H310  1  0.045700  0.366400  0.806300  1.0  0.119
  H  H311  1  0.053200  0.578600  0.795300  1.0  0.0902
  H  H312  1  0.416000  0.668200  0.418000  1.0  0.3369
  H  H313  1  0.009500  0.617200  0.397900  1.0  0.4451
  H  H314  1  0.013200  0.555100  0.382900  1.0  0.4671
  H  H315  1  0.716700  0.269200  0.387700  1.0  0.4586
  H  H316  1  0.780500  0.287700  0.375500  1.0  0.4488
  H  H317  1  0.554200  0.444200  0.366300  1.0  0.4525
  H  H318  1  0.572000  0.514700  0.370200  1.0  0.4058
  H  H319  1  0.549600  0.418200  0.598700  1.0  0.4316
  H  H320  1  0.558200  0.491100  0.598200  1.0  0.4251
  H  H321  1  0.641300  0.331200  0.621600  1.0  0.4009
  H  H322  1  0.709100  0.328300  0.632700  1.0  0.4804
  H  H323  1  0.447100  0.294200  0.809500  1.0  0.0771
  H  H324  1  0.308900  0.134900  0.796900  1.0  0.1015
  H  H325  1  0.285200  0.182700  0.753800  1.0  0.1116
  H  H326  1  0.269900  0.231600  0.714400  1.0  0.1255
  H  H327  1  0.246400  0.295400  0.675000  1.0  0.1085
  H  H328  1  0.382000  0.446500  0.701000  1.0  0.0654
  H  H329  1  0.034800  0.046000  0.805900  1.0  0.0705
  H  H330  1  0.188000  0.180000  0.830100  1.0  0.1127
  H  H331  1  0.163300  0.250100  0.792900  1.0  0.1293
  H  H332  1  0.149200  0.301900  0.753600  1.0  0.1145
  H  H333  1  0.131200  0.350100  0.710100  1.0  0.1082
  H  H334  1  0.978800  0.203400  0.697900  1.0  0.0774
  H  H335  1  0.296600  0.815400  0.955300  1.0  0.0868
  H  H336  1  0.412300  0.976700  0.925800  1.0  0.0895
  H  H337  1  0.493700  0.959400  0.961100  1.0  0.1145
  H  H338  1  0.561600  0.943600  0.996700  1.0  0.1265
  H  H339  1  0.625700  0.920700  0.036000  1.0  0.1003
  H  H340  1  0.494200  0.757400  0.052200  1.0  0.0893
  H  H341  1  0.365000  0.642900  0.959000  1.0  0.0769
  H  H342  1  0.153900  0.635600  0.950100  1.0  0.0938
  H  H343  1  0.141300  0.714600  0.986700  1.0  0.1109
  H  H344  1  0.145800  0.788100  0.025200  1.0  0.1104
  H  H345  1  0.161300  0.858100  0.064600  1.0  0.1225
  H  H346  1  0.372400  0.839400  0.054200  1.0  0.0729
  H  H347  1  0.466400  0.775000  0.945400  1.0  0.0876
  H  H348  1  0.628300  0.634000  0.944100  1.0  0.1213
  H  H349  1  0.587800  0.590600  0.985800  1.0  0.1061
  H  H350  1  0.536900  0.547700  0.023700  1.0  0.1255
  H  H351  1  0.471000  0.505200  0.060500  1.0  0.1077
  H  H352  1  0.334100  0.668100  0.049800  1.0  0.0778
  H  H353  1  0.144000  0.920200  0.195800  1.0  0.0815
  H  H354  1  0.135800  0.129600  0.184100  1.0  0.1002
  H  H355  1  0.066200  0.141000  0.223500  1.0  0.1225
  H  H356  1  0.017600  0.141300  0.265100  1.0  0.1037
  H  H357  1  0.954300  0.133600  0.306300  1.0  0.1189
  H  H358  1  0.946800  0.921400  0.295300  1.0  0.0906
  H  H359  1  0.584000  0.831800  0.918000  1.0  0.3384
  H  H360  1  0.990500  0.882800  0.897900  1.0  0.4454
  H  H361  1  0.986800  0.944900  0.882900  1.0  0.4675
  H  H362  1  0.283300  0.230800  0.887700  1.0  0.4597
  H  H363  1  0.219500  0.212300  0.875500  1.0  0.4513
  H  H364  1  0.445800  0.055800  0.866300  1.0  0.4518
  H  H365  1  0.428000  0.985300  0.870200  1.0  0.4065
  H  H366  1  0.450400  0.081800  0.098700  1.0  0.4331
  H  H367  1  0.441800  0.008900  0.098200  1.0  0.4223
  H  H368  1  0.358700  0.168800  0.121600  1.0  0.4016
  H  H369  1  0.290900  0.171700  0.132700  1.0  0.482
  H  H370  1  0.947100  0.705800  0.690500  1.0  0.0747
  H  H371  1  0.808900  0.865100  0.703100  1.0  0.1017
  H  H372  1  0.785200  0.817300  0.746200  1.0  0.1119
  H  H373  1  0.769900  0.768400  0.785600  1.0  0.1248
  H  H374  1  0.746400  0.704600  0.825000  1.0  0.1084
  H  H375  1  0.882000  0.553500  0.799000  1.0  0.0656
  H  H376  1  0.534800  0.954000  0.694100  1.0  0.0703
  H  H377  1  0.688000  0.820000  0.669900  1.0  0.113
  H  H378  1  0.663300  0.749900  0.707100  1.0  0.1294
  H  H379  1  0.649200  0.698100  0.746400  1.0  0.1148
  H  H380  1  0.631200  0.649900  0.789900  1.0  0.1083
  H  H381  1  0.478800  0.796600  0.802100  1.0  0.0771
  H  H382  1  0.796600  0.184600  0.544700  1.0  0.0871
  H  H383  1  0.912300  0.023300  0.574200  1.0  0.0897
  H  H384  1  0.993700  0.040600  0.538900  1.0  0.1147
  H  H385  1  0.061600  0.056400  0.503300  1.0  0.1263
  H  H386  1  0.125700  0.079300  0.464000  1.0  0.1006
  H  H387  1  0.994200  0.242600  0.447800  1.0  0.0888
  H  H388  1  0.865000  0.357100  0.541000  1.0  0.0773
  H  H389  1  0.653900  0.364400  0.549900  1.0  0.0943
  H  H390  1  0.641300  0.285400  0.513300  1.0  0.111
  H  H391  1  0.645800  0.211900  0.474800  1.0  0.1096
  H  H392  1  0.661300  0.141900  0.435400  1.0  0.1221
  H  H393  1  0.872400  0.160600  0.445800  1.0  0.0724
  H  H394  1  0.966400  0.225000  0.554600  1.0  0.0875
  H  H395  1  0.128300  0.366000  0.555900  1.0  0.1212
  H  H396  1  0.087800  0.409400  0.514200  1.0  0.1066
  H  H397  1  0.036900  0.452300  0.476300  1.0  0.1258
  H  H398  1  0.971000  0.494800  0.439500  1.0  0.1073
  H  H399  1  0.834100  0.331900  0.450200  1.0  0.0785
  H  H400  1  0.644000  0.079800  0.304200  1.0  0.0818
  H  H401  1  0.635800  0.870400  0.315900  1.0  0.1001
  H  H402  1  0.566200  0.859000  0.276500  1.0  0.1228
  H  H403  1  0.517600  0.858700  0.234900  1.0  0.1034
  H  H404  1  0.454300  0.866400  0.193700  1.0  0.1187
  H  H405  1  0.446800  0.078600  0.204700  1.0  0.091
  H  H406  1  0.084000  0.168200  0.582000  1.0  0.3361
  H  H407  1  0.490500  0.117200  0.602100  1.0  0.4454
  H  H408  1  0.486800  0.055100  0.617100  1.0  0.468
  H  H409  1  0.783300  0.769200  0.612300  1.0  0.4597
  H  H410  1  0.719500  0.787700  0.624500  1.0  0.4499
  H  H411  1  0.945800  0.944200  0.633700  1.0  0.4542
  H  H412  1  0.928000  0.014700  0.629800  1.0  0.4062
  H  H413  1  0.950400  0.918200  0.401300  1.0  0.433
  H  H414  1  0.941800  0.991100  0.401800  1.0  0.4255
  H  H415  1  0.858700  0.831200  0.378400  1.0  0.4015
  H  H416  1  0.790900  0.828300  0.367300  1.0  0.4817
  C  C417  1  0.897100  0.317400  0.836360  1.0  0.7083
  C  C418  1  0.913800  0.228700  0.798300  1.0  0.165
  C  C419  1  0.879900  0.289600  0.808580  1.0  -0.1286
  C  C420  1  0.831900  0.323400  0.791290  1.0  -0.0712
  C  C421  1  0.817900  0.294900  0.765410  1.0  -0.1047
  C  C422  1  0.852900  0.232600  0.756720  1.0  0.1076
  C  C423  1  0.838900  0.197100  0.730430  1.0  0.1576
  C  C424  1  0.791800  0.224300  0.711470  1.0  -0.1078
  C  C425  1  0.777400  0.186300  0.688300  1.0  -0.0037
  C  C426  1  0.809400  0.119400  0.684580  1.0  -0.1898
  C  C427  1  0.858700  0.096900  0.703880  1.0  0.1697
  C  C428  1  0.788300  0.072400  0.660930  1.0  0.701
  C  C429  1  0.639500  0.449900  0.843420  1.0  0.6859
  C  C430  1  0.561700  0.412700  0.803040  1.0  0.1808
  C  C431  1  0.615900  0.397400  0.821170  1.0  -0.1475
  C  C432  1  0.653100  0.333900  0.817480  1.0  -0.0206
  C  C433  1  0.638400  0.292500  0.795530  1.0  -0.1217
  C  C434  1  0.586200  0.313300  0.776960  1.0  0.1734
  C  C435  1  0.574400  0.275800  0.750370  1.0  0.182
  C  C436  1  0.615100  0.217900  0.741830  1.0  -0.0949
  C  C437  1  0.605100  0.189600  0.715820  1.0  0.0098
  C  C438  1  0.556500  0.220800  0.698770  1.0  -0.1549
  C  C439  1  0.514200  0.277200  0.709160  1.0  0.1802
  C  C440  1  0.545100  0.194900  0.669200  1.0  0.7163
  C  C441  1  0.786900  0.584600  0.915660  1.0  0.6812
  C  C442  1  0.835800  0.654000  0.956790  1.0  0.1239
  C  C443  1  0.843100  0.599200  0.937350  1.0  -0.1196
  C  C444  1  0.903700  0.558400  0.938950  1.0  -0.0943
  C  C445  1  0.952700  0.569000  0.960060  1.0  -0.1131
  C  C446  1  0.940900  0.620900  0.979260  1.0  0.2058
  C  C447  1  0.988900  0.634200  0.002860  1.0  0.2216
  C  C448  1  0.047800  0.593000  0.008480  1.0  -0.144
  C  C449  1  0.085600  0.606900  0.031720  1.0  -0.0288
  C  C450  1  0.065000  0.661500  0.048990  1.0  -0.1586
  C  C451  1  0.007200  0.704000  0.041210  1.0  0.1515
  C  C452  1  0.105300  0.675500  0.075800  1.0  0.6972
  C  C453  1  0.771300  0.921600  0.926900  1.0  0.7031
  C  C454  1  0.819500  0.842900  0.964700  1.0  0.1212
  C  C455  1  0.760200  0.871700  0.951700  1.0  -0.1603
  C  C456  1  0.694500  0.848300  0.959400  1.0  -0.0511
  C  C457  1  0.686700  0.800100  0.981160  1.0  -0.1277
  C  C458  1  0.748400  0.774200  0.994470  1.0  0.1754
  C  C459  1  0.750800  0.727400  0.017930  1.0  0.2076
  C  C460  1  0.691700  0.701600  0.031600  1.0  -0.1186
  C  C461  1  0.700900  0.659800  0.055200  1.0  -0.0059
  C  C462  1  0.769500  0.645500  0.064200  1.0  -0.2051
  C  C463  1  0.825900  0.671800  0.048660  1.0  0.2027
  C  C464  1  0.785000  0.600600  0.089370  1.0  0.6574
  C  C465  1  0.076100  0.757800  0.913630  1.0  0.6819
  C  C466  1  0.991100  0.762600  0.953560  1.0  0.1414
  C  C467  1  0.050700  0.791300  0.940080  1.0  -0.0759
  C  C468  1  0.087900  0.846300  0.952390  1.0  -0.1438
  C  C469  1  0.063600  0.871700  0.977430  1.0  -0.1231
  C  C470  1  0.005100  0.842600  0.990140  1.0  0.1761
  C  C471  1  0.970900  0.869900  0.015140  1.0  0.1738
  C  C472  1  0.994700  0.929500  0.029030  1.0  -0.1202
  C  C473  1  0.955500  0.954900  0.050810  1.0  0.0528
  C  C474  1  0.893300  0.920500  0.058040  1.0  -0.1549
  C  C475  1  0.874700  0.856900  0.044200  1.0  0.155
  C  C476  1  0.845000  0.948000  0.080760  1.0  0.6794
  C  C477  1  0.700100  0.485800  0.162130  1.0  0.6902
  C  C478  1  0.628200  0.534900  0.201310  1.0  0.1465
  C  C479  1  0.649800  0.476100  0.186190  1.0  -0.1279
  C  C480  1  0.624400  0.410800  0.194400  1.0  0.0297
  C  C481  1  0.582200  0.403700  0.217670  1.0  -0.1483
  C  C482  1  0.564700  0.465100  0.232050  1.0  0.1589
  C  C483  1  0.521700  0.464200  0.257310  1.0  0.1667
  C  C484  1  0.503700  0.403200  0.271780  1.0  -0.1091
  C  C485  1  0.465200  0.407300  0.296240  1.0  -0.0377
  C  C486  1  0.443700  0.473800  0.304990  1.0  -0.1543
  C  C487  1  0.462300  0.533700  0.289530  1.0  0.1574
  C  C488  1  0.400800  0.483400  0.330680  1.0  0.6966
  C  C489  1  0.397100  0.682600  0.663640  1.0  0.707
  C  C490  1  0.413800  0.771300  0.701700  1.0  0.1653
  C  C491  1  0.379900  0.710400  0.691420  1.0  -0.131
  C  C492  1  0.331900  0.676600  0.708710  1.0  -0.072
  C  C493  1  0.317900  0.705100  0.734590  1.0  -0.1047
  C  C494  1  0.352900  0.767400  0.743280  1.0  0.1077
  C  C495  1  0.338900  0.802900  0.769570  1.0  0.1573
  C  C496  1  0.291800  0.775700  0.788530  1.0  -0.1089
  C  C497  1  0.277400  0.813700  0.811700  1.0  -0.0017
  C  C498  1  0.309400  0.880600  0.815420  1.0  -0.1888
  C  C499  1  0.358700  0.903100  0.796120  1.0  0.1699
  C  C500  1  0.288300  0.927600  0.839070  1.0  0.701
  C  C501  1  0.139500  0.550100  0.656580  1.0  0.6866
  C  C502  1  0.061700  0.587300  0.696960  1.0  0.1808
  C  C503  1  0.115900  0.602600  0.678830  1.0  -0.1477
  C  C504  1  0.153100  0.666100  0.682520  1.0  -0.0201
  C  C505  1  0.138400  0.707500  0.704470  1.0  -0.122
  C  C506  1  0.086200  0.686700  0.723040  1.0  0.173
  C  C507  1  0.074400  0.724200  0.749630  1.0  0.1824
  C  C508  1  0.115100  0.782100  0.758170  1.0  -0.0945
  C  C509  1  0.105100  0.810400  0.784180  1.0  0.0107
  C  C510  1  0.056500  0.779200  0.801230  1.0  -0.1527
  C  C511  1  0.014200  0.722800  0.790840  1.0  0.1824
  C  C512  1  0.045100  0.805100  0.830800  1.0  0.7162
  C  C513  1  0.286900  0.415400  0.584340  1.0  0.6814
  C  C514  1  0.335800  0.346000  0.543210  1.0  0.1249
  C  C515  1  0.343100  0.400800  0.562650  1.0  -0.1186
  C  C516  1  0.403700  0.441600  0.561050  1.0  -0.095
  C  C517  1  0.452700  0.431000  0.539940  1.0  -0.1128
  C  C518  1  0.440900  0.379100  0.520740  1.0  0.207
  C  C519  1  0.488900  0.365800  0.497140  1.0  0.2218
  C  C520  1  0.547800  0.407000  0.491520  1.0  -0.1438
  C  C521  1  0.585600  0.393100  0.468280  1.0  -0.0293
  C  C522  1  0.565000  0.338500  0.451010  1.0  -0.1596
  C  C523  1  0.507200  0.296000  0.458790  1.0  0.1524
  C  C524  1  0.605300  0.324500  0.424200  1.0  0.6982
  C  C525  1  0.271300  0.078400  0.573100  1.0  0.7016
  C  C526  1  0.319500  0.157100  0.535300  1.0  0.1218
  C  C527  1  0.260200  0.128300  0.548300  1.0  -0.1599
  C  C528  1  0.194500  0.151700  0.540600  1.0  -0.0514
  C  C529  1  0.186700  0.199900  0.518840  1.0  -0.1277
  C  C530  1  0.248400  0.225800  0.505530  1.0  0.1756
  C  C531  1  0.250800  0.272600  0.482070  1.0  0.208
  C  C532  1  0.191700  0.298400  0.468400  1.0  -0.1196
  C  C533  1  0.200900  0.340200  0.444800  1.0  -0.005
  C  C534  1  0.269500  0.354500  0.435800  1.0  -0.2053
  C  C535  1  0.325900  0.328200  0.451340  1.0  0.201
  C  C536  1  0.285000  0.399400  0.410630  1.0  0.6583
  C  C537  1  0.576100  0.242200  0.586370  1.0  0.6813
  C  C538  1  0.491100  0.237400  0.546440  1.0  0.1418
  C  C539  1  0.550700  0.208700  0.559920  1.0  -0.0749
  C  C540  1  0.587900  0.153700  0.547610  1.0  -0.1422
  C  C541  1  0.563600  0.128300  0.522570  1.0  -0.1245
  C  C542  1  0.505100  0.157400  0.509860  1.0  0.176
  C  C543  1  0.470900  0.130100  0.484860  1.0  0.1738
  C  C544  1  0.494700  0.070500  0.470970  1.0  -0.1209
  C  C545  1  0.455500  0.045100  0.449190  1.0  0.0528
  C  C546  1  0.393300  0.079500  0.441960  1.0  -0.1564
  C  C547  1  0.374700  0.143100  0.455800  1.0  0.1546
  C  C548  1  0.345000  0.052000  0.419240  1.0  0.6782
  C  C549  1  0.200100  0.514200  0.337870  1.0  0.6899
  C  C550  1  0.128200  0.465100  0.298690  1.0  0.1482
  C  C551  1  0.149800  0.523900  0.313810  1.0  -0.1261
  C  C552  1  0.124400  0.589200  0.305600  1.0  0.0305
  C  C553  1  0.082200  0.596300  0.282330  1.0  -0.1475
  C  C554  1  0.064700  0.534900  0.267950  1.0  0.1593
  C  C555  1  0.021700  0.535800  0.242690  1.0  0.167
  C  C556  1  0.003700  0.596800  0.228220  1.0  -0.1097
  C  C557  1  0.965200  0.592700  0.203760  1.0  -0.0364
  C  C558  1  0.943700  0.526200  0.195010  1.0  -0.1546
  C  C559  1  0.962300  0.466300  0.210470  1.0  0.1578
  C  C560  1  0.900800  0.516600  0.169320  1.0  0.6955
  C  C561  1  0.602900  0.817400  0.163640  1.0  0.7065
  C  C562  1  0.586200  0.728700  0.201700  1.0  0.1658
  C  C563  1  0.620100  0.789600  0.191420  1.0  -0.1308
  C  C564  1  0.668100  0.823400  0.208710  1.0  -0.0722
  C  C565  1  0.682100  0.794900  0.234590  1.0  -0.1047
  C  C566  1  0.647100  0.732600  0.243280  1.0  0.1089
  C  C567  1  0.661100  0.697100  0.269570  1.0  0.1579
  C  C568  1  0.708200  0.724300  0.288530  1.0  -0.1074
  C  C569  1  0.722600  0.686300  0.311700  1.0  -0.0023
  C  C570  1  0.690600  0.619400  0.315420  1.0  -0.1884
  C  C571  1  0.641300  0.596900  0.296120  1.0  0.1697
  C  C572  1  0.711700  0.572400  0.339070  1.0  0.7001
  C  C573  1  0.860500  0.949900  0.156580  1.0  0.6865
  C  C574  1  0.938300  0.912700  0.196960  1.0  0.1809
  C  C575  1  0.884100  0.897400  0.178830  1.0  -0.1444
  C  C576  1  0.846900  0.833900  0.182520  1.0  -0.0218
  C  C577  1  0.861600  0.792500  0.204470  1.0  -0.1214
  C  C578  1  0.913800  0.813300  0.223040  1.0  0.173
  C  C579  1  0.925600  0.775800  0.249630  1.0  0.1822
  C  C580  1  0.884900  0.717900  0.258170  1.0  -0.0957
  C  C581  1  0.894900  0.689600  0.284180  1.0  0.011
  C  C582  1  0.943500  0.720800  0.301230  1.0  -0.1521
  C  C583  1  0.985800  0.777200  0.290840  1.0  0.1818
  C  C584  1  0.954900  0.694900  0.330800  1.0  0.7167
  C  C585  1  0.713100  0.084600  0.084340  1.0  0.6795
  C  C586  1  0.664200  0.154000  0.043210  1.0  0.1246
  C  C587  1  0.656900  0.099200  0.062650  1.0  -0.1184
  C  C588  1  0.596300  0.058400  0.061050  1.0  -0.0947
  C  C589  1  0.547300  0.069000  0.039940  1.0  -0.1123
  C  C590  1  0.559100  0.120900  0.020740  1.0  0.2062
  C  C591  1  0.511100  0.134200  0.997140  1.0  0.2218
  C  C592  1  0.452200  0.093000  0.991520  1.0  -0.1429
  C  C593  1  0.414400  0.106900  0.968280  1.0  -0.0296
  C  C594  1  0.435000  0.161500  0.951010  1.0  -0.1597
  C  C595  1  0.492800  0.204000  0.958790  1.0  0.152
  C  C596  1  0.394700  0.175500  0.924200  1.0  0.6977
  C  C597  1  0.728700  0.421600  0.073100  1.0  0.7005
  C  C598  1  0.680500  0.342900  0.035300  1.0  0.1219
  C  C599  1  0.739800  0.371700  0.048300  1.0  -0.1593
  C  C600  1  0.805500  0.348300  0.040600  1.0  -0.0518
  C  C601  1  0.813300  0.300100  0.018840  1.0  -0.1282
  C  C602  1  0.751600  0.274200  0.005530  1.0  0.1757
  C  C603  1  0.749200  0.227400  0.982070  1.0  0.2083
  C  C604  1  0.808300  0.201600  0.968400  1.0  -0.1203
  C  C605  1  0.799100  0.159800  0.944800  1.0  -0.0047
  C  C606  1  0.730500  0.145500  0.935800  1.0  -0.2065
  C  C607  1  0.674100  0.171800  0.951340  1.0  0.2023
  C  C608  1  0.715000  0.100600  0.910630  1.0  0.6589
  C  C609  1  0.423900  0.257800  0.086370  1.0  0.6825
  C  C610  1  0.508900  0.262600  0.046440  1.0  0.1426
  C  C611  1  0.449300  0.291300  0.059920  1.0  -0.0763
  C  C612  1  0.412100  0.346300  0.047610  1.0  -0.1408
  C  C613  1  0.436400  0.371700  0.022570  1.0  -0.1234
  C  C614  1  0.494900  0.342600  0.009860  1.0  0.1758
  C  C615  1  0.529100  0.369900  0.984860  1.0  0.1741
  C  C616  1  0.505300  0.429500  0.970970  1.0  -0.1205
  C  C617  1  0.544500  0.454900  0.949190  1.0  0.0529
  C  C618  1  0.606700  0.420500  0.941960  1.0  -0.1559
  C  C619  1  0.625300  0.356900  0.955800  1.0  0.1551
  C  C620  1  0.655000  0.448000  0.919240  1.0  0.6774
  C  C621  1  0.799900  0.985800  0.837870  1.0  0.6894
  C  C622  1  0.871800  0.034900  0.798690  1.0  0.1472
  C  C623  1  0.850200  0.976100  0.813810  1.0  -0.1259
  C  C624  1  0.875600  0.910800  0.805600  1.0  0.0283
  C  C625  1  0.917800  0.903700  0.782330  1.0  -0.1484
  C  C626  1  0.935300  0.965100  0.767950  1.0  0.16
  C  C627  1  0.978300  0.964200  0.742690  1.0  0.1664
  C  C628  1  0.996300  0.903200  0.728220  1.0  -0.1108
  C  C629  1  0.034800  0.907300  0.703760  1.0  -0.037
  C  C630  1  0.056300  0.973800  0.695010  1.0  -0.1532
  C  C631  1  0.037700  0.033700  0.710470  1.0  0.1571
  C  C632  1  0.099200  0.983400  0.669320  1.0  0.6957
  C  C633  1  0.102900  0.182600  0.336360  1.0  0.7067
  C  C634  1  0.086200  0.271300  0.298300  1.0  0.1642
  C  C635  1  0.120100  0.210400  0.308580  1.0  -0.1275
  C  C636  1  0.168100  0.176600  0.291290  1.0  -0.0715
  C  C637  1  0.182100  0.205100  0.265410  1.0  -0.1048
  C  C638  1  0.147100  0.267400  0.256720  1.0  0.1081
  C  C639  1  0.161100  0.302900  0.230430  1.0  0.1581
  C  C640  1  0.208200  0.275700  0.211470  1.0  -0.1094
  C  C641  1  0.222600  0.313700  0.188300  1.0  -0.0026
  C  C642  1  0.190600  0.380600  0.184580  1.0  -0.1888
  C  C643  1  0.141300  0.403100  0.203880  1.0  0.1692
  C  C644  1  0.211700  0.427600  0.160930  1.0  0.7005
  C  C645  1  0.360500  0.050100  0.343420  1.0  0.6864
  C  C646  1  0.438300  0.087300  0.303040  1.0  0.1814
  C  C647  1  0.384100  0.102600  0.321170  1.0  -0.145
  C  C648  1  0.346900  0.166100  0.317480  1.0  -0.0224
  C  C649  1  0.361600  0.207500  0.295530  1.0  -0.1217
  C  C650  1  0.413800  0.186700  0.276960  1.0  0.173
  C  C651  1  0.425600  0.224200  0.250370  1.0  0.1818
  C  C652  1  0.384900  0.282100  0.241830  1.0  -0.095
  C  C653  1  0.394900  0.310400  0.215820  1.0  0.01
  C  C654  1  0.443500  0.279200  0.198770  1.0  -0.1549
  C  C655  1  0.485800  0.222800  0.209160  1.0  0.1805
  C  C656  1  0.454900  0.305100  0.169200  1.0  0.7157
  C  C657  1  0.213100  0.915400  0.415660  1.0  0.6796
  C  C658  1  0.164200  0.846000  0.456790  1.0  0.1237
  C  C659  1  0.156900  0.900800  0.437350  1.0  -0.1202
  C  C660  1  0.096300  0.941600  0.438950  1.0  -0.096
  C  C661  1  0.047300  0.931000  0.460060  1.0  -0.1125
  C  C662  1  0.059100  0.879100  0.479260  1.0  0.2056
  C  C663  1  0.011100  0.865800  0.502860  1.0  0.2214
  C  C664  1  0.952200  0.907000  0.508480  1.0  -0.1429
  C  C665  1  0.914400  0.893100  0.531720  1.0  -0.0296
  C  C666  1  0.935000  0.838500  0.548990  1.0  -0.1582
  C  C667  1  0.992800  0.796000  0.541210  1.0  0.1523
  C  C668  1  0.894700  0.824500  0.575800  1.0  0.6977
  C  C669  1  0.228700  0.578400  0.426900  1.0  0.7034
  C  C670  1  0.180500  0.657100  0.464700  1.0  0.1221
  C  C671  1  0.239800  0.628300  0.451700  1.0  -0.1601
  C  C672  1  0.305500  0.651700  0.459400  1.0  -0.0523
  C  C673  1  0.313300  0.699900  0.481160  1.0  -0.1289
  C  C674  1  0.251600  0.725800  0.494470  1.0  0.1754
  C  C675  1  0.249200  0.772600  0.517930  1.0  0.2087
  C  C676  1  0.308300  0.798400  0.531600  1.0  -0.1194
  C  C677  1  0.299100  0.840200  0.555200  1.0  -0.006
  C  C678  1  0.230500  0.854500  0.564200  1.0  -0.2058
  C  C679  1  0.174100  0.828200  0.548660  1.0  0.2017
  C  C680  1  0.215000  0.899400  0.589370  1.0  0.6572
  C  C681  1  0.923900  0.742200  0.413630  1.0  0.6794
  C  C682  1  0.008900  0.737400  0.453560  1.0  0.1412
  C  C683  1  0.949300  0.708700  0.440080  1.0  -0.0757
  C  C684  1  0.912100  0.653700  0.452390  1.0  -0.142
  C  C685  1  0.936400  0.628300  0.477430  1.0  -0.1243
  C  C686  1  0.994900  0.657400  0.490140  1.0  0.176
  C  C687  1  0.029100  0.630100  0.515140  1.0  0.174
  C  C688  1  0.005300  0.570500  0.529030  1.0  -0.1198
  C  C689  1  0.044500  0.545100  0.550810  1.0  0.0518
  C  C690  1  0.106700  0.579500  0.558040  1.0  -0.1555
  C  C691  1  0.125300  0.643100  0.544200  1.0  0.1566
  C  C692  1  0.155000  0.552000  0.580760  1.0  0.6782
  C  C693  1  0.299900  0.014200  0.662130  1.0  0.6896
  C  C694  1  0.371800  0.965100  0.701310  1.0  0.148
  C  C695  1  0.350200  0.023900  0.686190  1.0  -0.1267
  C  C696  1  0.375600  0.089200  0.694400  1.0  0.0305
  C  C697  1  0.417800  0.096300  0.717670  1.0  -0.1471
  C  C698  1  0.435300  0.034900  0.732050  1.0  0.1593
  C  C699  1  0.478300  0.035800  0.757310  1.0  0.166
  C  C700  1  0.496300  0.096800  0.771780  1.0  -0.1086
  C  C701  1  0.534800  0.092700  0.796240  1.0  -0.0368
  C  C702  1  0.556300  0.026200  0.804990  1.0  -0.1535
  C  C703  1  0.537700  0.966300  0.789530  1.0  0.1584
  C  C704  1  0.599200  0.016600  0.830680  1.0  0.6961
  C  C705  1  0.102900  0.682600  0.163640  1.0  0.7073
  C  C706  1  0.086200  0.771300  0.201700  1.0  0.1649
  C  C707  1  0.120100  0.710400  0.191420  1.0  -0.1307
  C  C708  1  0.168100  0.676600  0.208710  1.0  -0.0723
  C  C709  1  0.182100  0.705100  0.234590  1.0  -0.1046
  C  C710  1  0.147100  0.767400  0.243280  1.0  0.1084
  C  C711  1  0.161100  0.802900  0.269570  1.0  0.158
  C  C712  1  0.208200  0.775700  0.288530  1.0  -0.1089
  C  C713  1  0.222600  0.813700  0.311700  1.0  -0.0014
  C  C714  1  0.190600  0.880600  0.315420  1.0  -0.1885
  C  C715  1  0.141300  0.903100  0.296120  1.0  0.1695
  C  C716  1  0.211700  0.927600  0.339070  1.0  0.7005
  C  C717  1  0.360500  0.550100  0.156580  1.0  0.6866
  C  C718  1  0.438300  0.587300  0.196960  1.0  0.1804
  C  C719  1  0.384100  0.602600  0.178830  1.0  -0.1459
  C  C720  1  0.346900  0.666100  0.182520  1.0  -0.0218
  C  C721  1  0.361600  0.707500  0.204470  1.0  -0.1217
  C  C722  1  0.413800  0.686700  0.223040  1.0  0.173
  C  C723  1  0.425600  0.724200  0.249630  1.0  0.1822
  C  C724  1  0.384900  0.782100  0.258170  1.0  -0.095
  C  C725  1  0.394900  0.810400  0.284180  1.0  0.0115
  C  C726  1  0.443500  0.779200  0.301230  1.0  -0.1523
  C  C727  1  0.485800  0.722800  0.290840  1.0  0.1824
  C  C728  1  0.454900  0.805100  0.330800  1.0  0.7165
  C  C729  1  0.213100  0.415400  0.084340  1.0  0.6799
  C  C730  1  0.164200  0.346000  0.043210  1.0  0.1246
  C  C731  1  0.156900  0.400800  0.062650  1.0  -0.1185
  C  C732  1  0.096300  0.441600  0.061050  1.0  -0.0955
  C  C733  1  0.047300  0.431000  0.039940  1.0  -0.1123
  C  C734  1  0.059100  0.379100  0.020740  1.0  0.2066
  C  C735  1  0.011100  0.365800  0.997140  1.0  0.2217
  C  C736  1  0.952200  0.407000  0.991520  1.0  -0.143
  C  C737  1  0.914400  0.393100  0.968280  1.0  -0.0299
  C  C738  1  0.935000  0.338500  0.951010  1.0  -0.1599
  C  C739  1  0.992800  0.296000  0.958790  1.0  0.1517
  C  C740  1  0.894700  0.324500  0.924200  1.0  0.6985
  C  C741  1  0.228700  0.078400  0.073100  1.0  0.7014
  C  C742  1  0.180500  0.157100  0.035300  1.0  0.1225
  C  C743  1  0.239800  0.128300  0.048300  1.0  -0.1585
  C  C744  1  0.305500  0.151700  0.040600  1.0  -0.0525
  C  C745  1  0.313300  0.199900  0.018840  1.0  -0.1283
  C  C746  1  0.251600  0.225800  0.005530  1.0  0.1757
  C  C747  1  0.249200  0.272600  0.982070  1.0  0.2086
  C  C748  1  0.308300  0.298400  0.968400  1.0  -0.1202
  C  C749  1  0.299100  0.340200  0.944800  1.0  -0.0049
  C  C750  1  0.230500  0.354500  0.935800  1.0  -0.2052
  C  C751  1  0.174100  0.328200  0.951340  1.0  0.2009
  C  C752  1  0.215000  0.399400  0.910630  1.0  0.658
  C  C753  1  0.923900  0.242200  0.086370  1.0  0.6816
  C  C754  1  0.008900  0.237400  0.046440  1.0  0.143
  C  C755  1  0.949300  0.208700  0.059920  1.0  -0.0758
  C  C756  1  0.912100  0.153700  0.047610  1.0  -0.1407
  C  C757  1  0.936400  0.128300  0.022570  1.0  -0.1244
  C  C758  1  0.994900  0.157400  0.009860  1.0  0.1759
  C  C759  1  0.029100  0.130100  0.984860  1.0  0.1738
  C  C760  1  0.005300  0.070500  0.970970  1.0  -0.1204
  C  C761  1  0.044500  0.045100  0.949190  1.0  0.0528
  C  C762  1  0.106700  0.079500  0.941960  1.0  -0.1564
  C  C763  1  0.125300  0.143100  0.955800  1.0  0.1555
  C  C764  1  0.155000  0.052000  0.919240  1.0  0.6773
  C  C765  1  0.299900  0.514200  0.837870  1.0  0.6893
  C  C766  1  0.371800  0.465100  0.798690  1.0  0.1484
  C  C767  1  0.350200  0.523900  0.813810  1.0  -0.1257
  C  C768  1  0.375600  0.589200  0.805600  1.0  0.0297
  C  C769  1  0.417800  0.596300  0.782330  1.0  -0.1471
  C  C770  1  0.435300  0.534900  0.767950  1.0  0.1598
  C  C771  1  0.478300  0.535800  0.742690  1.0  0.1664
  C  C772  1  0.496300  0.596800  0.728220  1.0  -0.1099
  C  C773  1  0.534800  0.592700  0.703760  1.0  -0.0368
  C  C774  1  0.556300  0.526200  0.695010  1.0  -0.153
  C  C775  1  0.537700  0.466300  0.710470  1.0  0.1583
  C  C776  1  0.599200  0.516600  0.669320  1.0  0.6952
  C  C777  1  0.602900  0.317400  0.336360  1.0  0.7076
  C  C778  1  0.586200  0.228700  0.298300  1.0  0.1649
  C  C779  1  0.620100  0.289600  0.308580  1.0  -0.1283
  C  C780  1  0.668100  0.323400  0.291290  1.0  -0.0711
  C  C781  1  0.682100  0.294900  0.265410  1.0  -0.1049
  C  C782  1  0.647100  0.232600  0.256720  1.0  0.1087
  C  C783  1  0.661100  0.197100  0.230430  1.0  0.158
  C  C784  1  0.708200  0.224300  0.211470  1.0  -0.1083
  C  C785  1  0.722600  0.186300  0.188300  1.0  -0.0033
  C  C786  1  0.690600  0.119400  0.184580  1.0  -0.1895
  C  C787  1  0.641300  0.096900  0.203880  1.0  0.1692
  C  C788  1  0.711700  0.072400  0.160930  1.0  0.7005
  C  C789  1  0.860500  0.449900  0.343420  1.0  0.6861
  C  C790  1  0.938300  0.412700  0.303040  1.0  0.1808
  C  C791  1  0.884100  0.397400  0.321170  1.0  -0.1458
  C  C792  1  0.846900  0.333900  0.317480  1.0  -0.0222
  C  C793  1  0.861600  0.292500  0.295530  1.0  -0.121
  C  C794  1  0.913800  0.313300  0.276960  1.0  0.1732
  C  C795  1  0.925600  0.275800  0.250370  1.0  0.1817
  C  C796  1  0.884900  0.217900  0.241830  1.0  -0.0956
  C  C797  1  0.894900  0.189600  0.215820  1.0  0.0102
  C  C798  1  0.943500  0.220800  0.198770  1.0  -0.1548
  C  C799  1  0.985800  0.277200  0.209160  1.0  0.1802
  C  C800  1  0.954900  0.194900  0.169200  1.0  0.7159
  C  C801  1  0.713100  0.584600  0.415660  1.0  0.6799
  C  C802  1  0.664200  0.654000  0.456790  1.0  0.1236
  C  C803  1  0.656900  0.599200  0.437350  1.0  -0.12
  C  C804  1  0.596300  0.558400  0.438950  1.0  -0.0946
  C  C805  1  0.547300  0.569000  0.460060  1.0  -0.1125
  C  C806  1  0.559100  0.620900  0.479260  1.0  0.2051
  C  C807  1  0.511100  0.634200  0.502860  1.0  0.2218
  C  C808  1  0.452200  0.593000  0.508480  1.0  -0.1432
  C  C809  1  0.414400  0.606900  0.531720  1.0  -0.0296
  C  C810  1  0.435000  0.661500  0.548990  1.0  -0.1588
  C  C811  1  0.492800  0.704000  0.541210  1.0  0.1522
  C  C812  1  0.394700  0.675500  0.575800  1.0  0.6978
  C  C813  1  0.728700  0.921600  0.426900  1.0  0.7034
  C  C814  1  0.680500  0.842900  0.464700  1.0  0.1217
  C  C815  1  0.739800  0.871700  0.451700  1.0  -0.1598
  C  C816  1  0.805500  0.848300  0.459400  1.0  -0.0517
  C  C817  1  0.813300  0.800100  0.481160  1.0  -0.1287
  C  C818  1  0.751600  0.774200  0.494470  1.0  0.1755
  C  C819  1  0.749200  0.727400  0.517930  1.0  0.2082
  C  C820  1  0.808300  0.701600  0.531600  1.0  -0.1196
  C  C821  1  0.799100  0.659800  0.555200  1.0  -0.0056
  C  C822  1  0.730500  0.645500  0.564200  1.0  -0.2047
  C  C823  1  0.674100  0.671800  0.548660  1.0  0.2025
  C  C824  1  0.715000  0.600600  0.589370  1.0  0.6572
  C  C825  1  0.423900  0.757800  0.413630  1.0  0.682
  C  C826  1  0.508900  0.762600  0.453560  1.0  0.1414
  C  C827  1  0.449300  0.791300  0.440080  1.0  -0.0761
  C  C828  1  0.412100  0.846300  0.452390  1.0  -0.1424
  C  C829  1  0.436400  0.871700  0.477430  1.0  -0.1231
  C  C830  1  0.494900  0.842600  0.490140  1.0  0.1759
  C  C831  1  0.529100  0.869900  0.515140  1.0  0.1741
  C  C832  1  0.505300  0.929500  0.529030  1.0  -0.1199
  C  C833  1  0.544500  0.954900  0.550810  1.0  0.0523
  C  C834  1  0.606700  0.920500  0.558040  1.0  -0.1557
  C  C835  1  0.625300  0.856900  0.544200  1.0  0.1565
  C  C836  1  0.655000  0.948000  0.580760  1.0  0.6784
  C  C837  1  0.799900  0.485800  0.662130  1.0  0.6899
  C  C838  1  0.871800  0.534900  0.701310  1.0  0.1467
  C  C839  1  0.850200  0.476100  0.686190  1.0  -0.1267
  C  C840  1  0.875600  0.410800  0.694400  1.0  0.0296
  C  C841  1  0.917800  0.403700  0.717670  1.0  -0.1482
  C  C842  1  0.935300  0.465100  0.732050  1.0  0.1595
  C  C843  1  0.978300  0.464200  0.757310  1.0  0.166
  C  C844  1  0.996300  0.403200  0.771780  1.0  -0.1094
  C  C845  1  0.034800  0.407300  0.796240  1.0  -0.0379
  C  C846  1  0.056300  0.473800  0.804990  1.0  -0.1537
  C  C847  1  0.037700  0.533700  0.789530  1.0  0.1574
  C  C848  1  0.099200  0.483400  0.830680  1.0  0.6966
  C  C849  1  0.397100  0.182600  0.836360  1.0  0.7071
  C  C850  1  0.413800  0.271300  0.798300  1.0  0.1647
  C  C851  1  0.379900  0.210400  0.808580  1.0  -0.1278
  C  C852  1  0.331900  0.176600  0.791290  1.0  -0.0715
  C  C853  1  0.317900  0.205100  0.765410  1.0  -0.1048
  C  C854  1  0.352900  0.267400  0.756720  1.0  0.1073
  C  C855  1  0.338900  0.302900  0.730430  1.0  0.1577
  C  C856  1  0.291800  0.275700  0.711470  1.0  -0.1094
  C  C857  1  0.277400  0.313700  0.688300  1.0  -0.0027
  C  C858  1  0.309400  0.380600  0.684580  1.0  -0.1891
  C  C859  1  0.358700  0.403100  0.703880  1.0  0.1696
  C  C860  1  0.288300  0.427600  0.660930  1.0  0.7009
  C  C861  1  0.139500  0.050100  0.843420  1.0  0.686
  C  C862  1  0.061700  0.087300  0.803040  1.0  0.1816
  C  C863  1  0.115900  0.102600  0.821170  1.0  -0.1467
  C  C864  1  0.153100  0.166100  0.817480  1.0  -0.0208
  C  C865  1  0.138400  0.207500  0.795530  1.0  -0.1218
  C  C866  1  0.086200  0.186700  0.776960  1.0  0.1732
  C  C867  1  0.074400  0.224200  0.750370  1.0  0.182
  C  C868  1  0.115100  0.282100  0.741830  1.0  -0.0947
  C  C869  1  0.105100  0.310400  0.715820  1.0  0.0094
  C  C870  1  0.056500  0.279200  0.698770  1.0  -0.1551
  C  C871  1  0.014200  0.222800  0.709160  1.0  0.1806
  C  C872  1  0.045100  0.305100  0.669200  1.0  0.7161
  C  C873  1  0.286900  0.915400  0.915660  1.0  0.6807
  C  C874  1  0.335800  0.846000  0.956790  1.0  0.1241
  C  C875  1  0.343100  0.900800  0.937350  1.0  -0.1202
  C  C876  1  0.403700  0.941600  0.938950  1.0  -0.0957
  C  C877  1  0.452700  0.931000  0.960060  1.0  -0.1132
  C  C878  1  0.440900  0.879100  0.979260  1.0  0.2061
  C  C879  1  0.488900  0.865800  0.002860  1.0  0.2214
  C  C880  1  0.547800  0.907000  0.008480  1.0  -0.1438
  C  C881  1  0.585600  0.893100  0.031720  1.0  -0.0289
  C  C882  1  0.565000  0.838500  0.048990  1.0  -0.1581
  C  C883  1  0.507200  0.796000  0.041210  1.0  0.1517
  C  C884  1  0.605300  0.824500  0.075800  1.0  0.6981
  C  C885  1  0.271300  0.578400  0.926900  1.0  0.7034
  C  C886  1  0.319500  0.657100  0.964700  1.0  0.121
  C  C887  1  0.260200  0.628300  0.951700  1.0  -0.1602
  C  C888  1  0.194500  0.651700  0.959400  1.0  -0.051
  C  C889  1  0.186700  0.699900  0.981160  1.0  -0.1281
  C  C890  1  0.248400  0.725800  0.994470  1.0  0.1754
  C  C891  1  0.250800  0.772600  0.017930  1.0  0.2081
  C  C892  1  0.191700  0.798400  0.031600  1.0  -0.1188
  C  C893  1  0.200900  0.840200  0.055200  1.0  -0.0065
  C  C894  1  0.269500  0.854500  0.064200  1.0  -0.2063
  C  C895  1  0.325900  0.828200  0.048660  1.0  0.202
  C  C896  1  0.285000  0.899400  0.089370  1.0  0.6573
  C  C897  1  0.576100  0.742200  0.913630  1.0  0.6794
  C  C898  1  0.491100  0.737400  0.953560  1.0  0.141
  C  C899  1  0.550700  0.708700  0.940080  1.0  -0.0753
  C  C900  1  0.587900  0.653700  0.952390  1.0  -0.1437
  C  C901  1  0.563600  0.628300  0.977430  1.0  -0.1245
  C  C902  1  0.505100  0.657400  0.990140  1.0  0.1761
  C  C903  1  0.470900  0.630100  0.015140  1.0  0.1737
  C  C904  1  0.494700  0.570500  0.029030  1.0  -0.1202
  C  C905  1  0.455500  0.545100  0.050810  1.0  0.0521
  C  C906  1  0.393300  0.579500  0.058040  1.0  -0.1547
  C  C907  1  0.374700  0.643100  0.044200  1.0  0.155
  C  C908  1  0.345000  0.552000  0.080760  1.0  0.6791
  C  C909  1  0.200100  0.014200  0.162130  1.0  0.6897
  C  C910  1  0.128200  0.965100  0.201310  1.0  0.1477
  C  C911  1  0.149800  0.023900  0.186190  1.0  -0.1277
  C  C912  1  0.124400  0.089200  0.194400  1.0  0.0302
  C  C913  1  0.082200  0.096300  0.217670  1.0  -0.1472
  C  C914  1  0.064700  0.034900  0.232050  1.0  0.1587
  C  C915  1  0.021700  0.035800  0.257310  1.0  0.1668
  C  C916  1  0.003700  0.096800  0.271780  1.0  -0.1084
  C  C917  1  0.965200  0.092700  0.296240  1.0  -0.0369
  C  C918  1  0.943700  0.026200  0.304990  1.0  -0.1541
  C  C919  1  0.962300  0.966300  0.289530  1.0  0.1576
  C  C920  1  0.900800  0.016600  0.330680  1.0  0.6962
  C  C921  1  0.897100  0.817400  0.663640  1.0  0.7064
  C  C922  1  0.913800  0.728700  0.701700  1.0  0.1656
  C  C923  1  0.879900  0.789600  0.691420  1.0  -0.1313
  C  C924  1  0.831900  0.823400  0.708710  1.0  -0.0719
  C  C925  1  0.817900  0.794900  0.734590  1.0  -0.1046
  C  C926  1  0.852900  0.732600  0.743280  1.0  0.1081
  C  C927  1  0.838900  0.697100  0.769570  1.0  0.1572
  C  C928  1  0.791800  0.724300  0.788530  1.0  -0.107
  C  C929  1  0.777400  0.686300  0.811700  1.0  -0.003
  C  C930  1  0.809400  0.619400  0.815420  1.0  -0.1887
  C  C931  1  0.858700  0.596900  0.796120  1.0  0.1703
  C  C932  1  0.788300  0.572400  0.839070  1.0  0.7007
  C  C933  1  0.639500  0.949900  0.656580  1.0  0.6867
  C  C934  1  0.561700  0.912700  0.696960  1.0  0.1812
  C  C935  1  0.615900  0.897400  0.678830  1.0  -0.146
  C  C936  1  0.653100  0.833900  0.682520  1.0  -0.0201
  C  C937  1  0.638400  0.792500  0.704470  1.0  -0.1223
  C  C938  1  0.586200  0.813300  0.723040  1.0  0.173
  C  C939  1  0.574400  0.775800  0.749630  1.0  0.1824
  C  C940  1  0.615100  0.717900  0.758170  1.0  -0.095
  C  C941  1  0.605100  0.689600  0.784180  1.0  0.0107
  C  C942  1  0.556500  0.720800  0.801230  1.0  -0.1524
  C  C943  1  0.514200  0.777200  0.790840  1.0  0.1817
  C  C944  1  0.545100  0.694900  0.830800  1.0  0.7164
  C  C945  1  0.786900  0.084600  0.584340  1.0  0.6809
  C  C946  1  0.835800  0.154000  0.543210  1.0  0.1249
  C  C947  1  0.843100  0.099200  0.562650  1.0  -0.1185
  C  C948  1  0.903700  0.058400  0.561050  1.0  -0.0941
  C  C949  1  0.952700  0.069000  0.539940  1.0  -0.1127
  C  C950  1  0.940900  0.120900  0.520740  1.0  0.2067
  C  C951  1  0.988900  0.134200  0.497140  1.0  0.2216
  C  C952  1  0.047800  0.093000  0.491520  1.0  -0.1436
  C  C953  1  0.085600  0.106900  0.468280  1.0  -0.029
  C  C954  1  0.065000  0.161500  0.451010  1.0  -0.1594
  C  C955  1  0.007200  0.204000  0.458790  1.0  0.1525
  C  C956  1  0.105300  0.175500  0.424200  1.0  0.6982
  C  C957  1  0.771300  0.421600  0.573100  1.0  0.7003
  C  C958  1  0.819500  0.342900  0.535300  1.0  0.1216
  C  C959  1  0.760200  0.371700  0.548300  1.0  -0.1604
  C  C960  1  0.694500  0.348300  0.540600  1.0  -0.0511
  C  C961  1  0.686700  0.300100  0.518840  1.0  -0.1275
  C  C962  1  0.748400  0.274200  0.505530  1.0  0.1756
  C  C963  1  0.750800  0.227400  0.482070  1.0  0.2077
  C  C964  1  0.691700  0.201600  0.468400  1.0  -0.1194
  C  C965  1  0.700900  0.159800  0.444800  1.0  -0.0047
  C  C966  1  0.769500  0.145500  0.435800  1.0  -0.2065
  C  C967  1  0.825900  0.171800  0.451340  1.0  0.2021
  C  C968  1  0.785000  0.100600  0.410630  1.0  0.6591
  C  C969  1  0.076100  0.257800  0.586370  1.0  0.6823
  C  C970  1  0.991100  0.262600  0.546440  1.0  0.1415
  C  C971  1  0.050700  0.291300  0.559920  1.0  -0.0756
  C  C972  1  0.087900  0.346300  0.547610  1.0  -0.1421
  C  C973  1  0.063600  0.371700  0.522570  1.0  -0.1234
  C  C974  1  0.005100  0.342600  0.509860  1.0  0.1759
  C  C975  1  0.970900  0.369900  0.484860  1.0  0.1741
  C  C976  1  0.994700  0.429500  0.470970  1.0  -0.121
  C  C977  1  0.955500  0.454900  0.449190  1.0  0.0529
  C  C978  1  0.893300  0.420500  0.441960  1.0  -0.1561
  C  C979  1  0.874700  0.356900  0.455800  1.0  0.1543
  C  C980  1  0.845000  0.448000  0.419240  1.0  0.6784
  C  C981  1  0.700100  0.985800  0.337870  1.0  0.69
  C  C982  1  0.628200  0.034900  0.298690  1.0  0.147
  C  C983  1  0.649800  0.976100  0.313810  1.0  -0.1263
  C  C984  1  0.624400  0.910800  0.305600  1.0  0.0289
  C  C985  1  0.582200  0.903700  0.282330  1.0  -0.1485
  C  C986  1  0.564700  0.965100  0.267950  1.0  0.1595
  C  C987  1  0.521700  0.964200  0.242690  1.0  0.167
  C  C988  1  0.503700  0.903200  0.228220  1.0  -0.1105
  C  C989  1  0.465200  0.907300  0.203760  1.0  -0.0366
  C  C990  1  0.443700  0.973800  0.195010  1.0  -0.1547
  C  C991  1  0.462300  0.033700  0.210470  1.0  0.1572
  C  C992  1  0.400800  0.983400  0.169320  1.0  0.6959
  N  N993  1  0.545600  0.371900  0.781630  1.0  -0.3604
  N  N994  1  0.522400  0.304000  0.734210  1.0  -0.3353
  N  N995  1  0.874800  0.134200  0.726400  1.0  -0.3581
  N  N996  1  0.901700  0.201100  0.773400  1.0  -0.3143
  N  N997  1  0.814300  0.795400  0.985230  1.0  -0.3408
  N  N998  1  0.818000  0.711300  0.026570  1.0  -0.3044
  N  N999  1  0.968300  0.787600  0.977920  1.0  -0.3546
  N  N1000  1  0.912800  0.832000  0.023680  1.0  -0.3268
  N  N1001  1  0.969800  0.690800  0.018380  1.0  -0.3198
  N  N1002  1  0.882900  0.664700  0.977530  1.0  -0.3584
  N  N1003  1  0.501800  0.528400  0.266750  1.0  -0.3426
  N  N1004  1  0.585900  0.530600  0.223390  1.0  -0.3495
  N  N1005  1  0.045600  0.628100  0.718370  1.0  -0.3609
  N  N1006  1  0.022400  0.696000  0.765790  1.0  -0.3352
  N  N1007  1  0.374800  0.865800  0.773600  1.0  -0.3591
  N  N1008  1  0.401700  0.798900  0.726600  1.0  -0.3149
  N  N1009  1  0.314300  0.204600  0.514770  1.0  -0.3401
  N  N1010  1  0.318000  0.288700  0.473430  1.0  -0.3048
  N  N1011  1  0.468300  0.212400  0.522080  1.0  -0.3536
  N  N1012  1  0.412800  0.168000  0.476320  1.0  -0.3265
  N  N1013  1  0.469800  0.309200  0.481620  1.0  -0.3195
  N  N1014  1  0.382900  0.335300  0.522470  1.0  -0.3592
  N  N1015  1  0.001800  0.471600  0.233250  1.0  -0.3428
  N  N1016  1  0.085900  0.469400  0.276610  1.0  -0.3487
  N  N1017  1  0.954400  0.871900  0.218370  1.0  -0.3607
  N  N1018  1  0.977600  0.804000  0.265790  1.0  -0.3365
  N  N1019  1  0.625200  0.634200  0.273600  1.0  -0.3575
  N  N1020  1  0.598300  0.701100  0.226600  1.0  -0.3138
  N  N1021  1  0.685700  0.295400  0.014770  1.0  -0.3411
  N  N1022  1  0.682000  0.211300  0.973430  1.0  -0.3046
  N  N1023  1  0.531700  0.287600  0.022080  1.0  -0.354
  N  N1024  1  0.587200  0.332000  0.976320  1.0  -0.3273
  N  N1025  1  0.530200  0.190800  0.981620  1.0  -0.3165
  N  N1026  1  0.617100  0.164700  0.022470  1.0  -0.3585
  N  N1027  1  0.998200  0.028400  0.733250  1.0  -0.3425
  N  N1028  1  0.914100  0.030600  0.776610  1.0  -0.3512
  N  N1029  1  0.454400  0.128100  0.281630  1.0  -0.3597
  N  N1030  1  0.477600  0.196000  0.234210  1.0  -0.3362
  N  N1031  1  0.125200  0.365800  0.226400  1.0  -0.3578
  N  N1032  1  0.098300  0.298900  0.273400  1.0  -0.3147
  N  N1033  1  0.185700  0.704600  0.485230  1.0  -0.3413
  N  N1034  1  0.182000  0.788700  0.526570  1.0  -0.3048
  N  N1035  1  0.031700  0.712400  0.477920  1.0  -0.3543
  N  N1036  1  0.087200  0.668000  0.523680  1.0  -0.327
  N  N1037  1  0.030200  0.809200  0.518380  1.0  -0.3176
  N  N1038  1  0.117100  0.835300  0.477530  1.0  -0.3591
  N  N1039  1  0.498200  0.971600  0.766750  1.0  -0.3424
  N  N1040  1  0.414100  0.969400  0.723390  1.0  -0.3493
  N  N1041  1  0.454400  0.628100  0.218370  1.0  -0.36
  N  N1042  1  0.477600  0.696000  0.265790  1.0  -0.3365
  N  N1043  1  0.125200  0.865800  0.273600  1.0  -0.3578
  N  N1044  1  0.098300  0.798900  0.226600  1.0  -0.3148
  N  N1045  1  0.185700  0.204600  0.014770  1.0  -0.3412
  N  N1046  1  0.182000  0.288700  0.973430  1.0  -0.3051
  N  N1047  1  0.031700  0.212400  0.022080  1.0  -0.3535
  N  N1048  1  0.087200  0.168000  0.976320  1.0  -0.327
  N  N1049  1  0.030200  0.309200  0.981620  1.0  -0.3171
  N  N1050  1  0.117100  0.335300  0.022470  1.0  -0.3593
  N  N1051  1  0.498200  0.471600  0.733250  1.0  -0.3427
  N  N1052  1  0.414100  0.469400  0.776610  1.0  -0.35
  N  N1053  1  0.954400  0.371900  0.281630  1.0  -0.3602
  N  N1054  1  0.977600  0.304000  0.234210  1.0  -0.3362
  N  N1055  1  0.625200  0.134200  0.226400  1.0  -0.3575
  N  N1056  1  0.598300  0.201100  0.273400  1.0  -0.3136
  N  N1057  1  0.685700  0.795400  0.485230  1.0  -0.3416
  N  N1058  1  0.682000  0.711300  0.526570  1.0  -0.3046
  N  N1059  1  0.531700  0.787600  0.477920  1.0  -0.3548
  N  N1060  1  0.587200  0.832000  0.523680  1.0  -0.327
  N  N1061  1  0.530200  0.690800  0.518380  1.0  -0.317
  N  N1062  1  0.617100  0.664700  0.477530  1.0  -0.3579
  N  N1063  1  0.998200  0.528400  0.766750  1.0  -0.3423
  N  N1064  1  0.914100  0.530600  0.723390  1.0  -0.3506
  N  N1065  1  0.045600  0.128100  0.781630  1.0  -0.36
  N  N1066  1  0.022400  0.196000  0.734210  1.0  -0.3353
  N  N1067  1  0.374800  0.365800  0.726400  1.0  -0.3586
  N  N1068  1  0.401700  0.298900  0.773400  1.0  -0.315
  N  N1069  1  0.314300  0.704600  0.985230  1.0  -0.3401
  N  N1070  1  0.318000  0.788700  0.026570  1.0  -0.3047
  N  N1071  1  0.468300  0.712400  0.977920  1.0  -0.3543
  N  N1072  1  0.412800  0.668000  0.023680  1.0  -0.3268
  N  N1073  1  0.469800  0.809200  0.018380  1.0  -0.32
  N  N1074  1  0.382900  0.835300  0.977530  1.0  -0.359
  N  N1075  1  0.001800  0.971600  0.266750  1.0  -0.3428
  N  N1076  1  0.085900  0.969400  0.223390  1.0  -0.3481
  N  N1077  1  0.545600  0.871900  0.718370  1.0  -0.3612
  N  N1078  1  0.522400  0.804000  0.765790  1.0  -0.3355
  N  N1079  1  0.874800  0.634200  0.773600  1.0  -0.3585
  N  N1080  1  0.901700  0.701100  0.726600  1.0  -0.3142
  N  N1081  1  0.814300  0.295400  0.514770  1.0  -0.3405
  N  N1082  1  0.818000  0.211300  0.473430  1.0  -0.3043
  N  N1083  1  0.968300  0.287600  0.522080  1.0  -0.3539
  N  N1084  1  0.912800  0.332000  0.476320  1.0  -0.3268
  N  N1085  1  0.969800  0.190800  0.481620  1.0  -0.3192
  N  N1086  1  0.882900  0.164700  0.522470  1.0  -0.3589
  N  N1087  1  0.501800  0.028400  0.233250  1.0  -0.3425
  N  N1088  1  0.585900  0.030600  0.276610  1.0  -0.35
  Cl  Cl1089  1  0.725150  0.505700  0.993420  1.0  1.5797
  Cl  Cl1090  1  0.787300  0.498300  0.260750  1.0  1.0194
  Cl  Cl1091  1  0.225150  0.494300  0.506580  1.0  1.5801
  Cl  Cl1092  1  0.287300  0.501700  0.239250  1.0  1.02
  Cl  Cl1093  1  0.774850  0.005700  0.006580  1.0  1.5801
  Cl  Cl1094  1  0.712700  0.998300  0.739250  1.0  1.0183
  Cl  Cl1095  1  0.274850  0.994300  0.493420  1.0  1.5798
  Cl  Cl1096  1  0.212700  0.001700  0.760750  1.0  1.0191
  Cl  Cl1097  1  0.274850  0.494300  0.006580  1.0  1.5801
  Cl  Cl1098  1  0.212700  0.501700  0.739250  1.0  1.0187
  Cl  Cl1099  1  0.774850  0.505700  0.493420  1.0  1.5797
  Cl  Cl1100  1  0.712700  0.498300  0.760750  1.0  1.0186
  Cl  Cl1101  1  0.225150  0.994300  0.993420  1.0  1.5798
  Cl  Cl1102  1  0.287300  0.001700  0.260750  1.0  1.0205
  Cl  Cl1103  1  0.725150  0.005700  0.506580  1.0  1.58
  Cl  Cl1104  1  0.787300  0.998300  0.239250  1.0  1.0196
  O  O1105  1  0.860600  0.368100  0.844840  1.0  -0.6315
  O  O1106  1  0.945900  0.286900  0.849150  1.0  -0.5836
  O  O1107  1  0.736000  0.094600  0.646680  1.0  -0.689
  O  O1108  1  0.822900  0.016400  0.656400  1.0  -0.6402
  O  O1109  1  0.696100  0.435400  0.855620  1.0  -0.6687
  O  O1110  1  0.600600  0.503000  0.848070  1.0  -0.622
  O  O1111  1  0.593100  0.158100  0.659110  1.0  -0.6844
  O  O1112  1  0.489500  0.213800  0.657450  1.0  -0.5764
  O  O1113  1  0.796900  0.528600  0.902560  1.0  -0.6468
  O  O1114  1  0.734000  0.627300  0.912420  1.0  -0.6854
  O  O1115  1  0.136200  0.621100  0.085520  1.0  -0.6497
  O  O1116  1  0.106500  0.735700  0.085240  1.0  -0.5284
  O  O1117  1  0.057800  0.695300  0.909370  1.0  -0.5145
  O  O1118  1  0.113300  0.796200  0.897890  1.0  -0.6397
  O  O1119  1  0.865200  0.005200  0.091880  1.0  -0.6743
  O  O1120  1  0.791200  0.912100  0.087090  1.0  -0.6803
  O  O1121  1  0.835400  0.942200  0.924090  1.0  -0.573
  O  O1122  1  0.716000  0.945300  0.917350  1.0  -0.6066
  O  O1123  1  0.847800  0.580000  0.093490  1.0  -0.6241
  O  O1124  1  0.733600  0.583700  0.104510  1.0  -0.5971
  O  O1125  1  0.703200  0.438000  0.144190  1.0  -0.5946
  O  O1126  1  0.740000  0.538600  0.161710  1.0  -0.5907
  O  O1127  1  0.392000  0.434900  0.347640  1.0  -0.6003
  O  O1128  1  0.374500  0.545100  0.334850  1.0  -0.6903
  O  O1129  1  0.515300  0.587100  0.888830  1.0  -0.8143
  O  O1130  1  0.761400  0.302700  0.879380  1.0  -0.8336
  O  O1131  1  0.931400  0.474400  0.878120  1.0  -0.7735
  O  O1132  1  0.928300  0.452900  0.106170  1.0  -0.7396
  O  O1133  1  0.823300  0.356600  0.126930  1.0  -0.8043
  O  O1134  1  0.360600  0.631900  0.655160  1.0  -0.6324
  O  O1135  1  0.445900  0.713100  0.650850  1.0  -0.5819
  O  O1136  1  0.236000  0.905400  0.853320  1.0  -0.6891
  O  O1137  1  0.322900  0.983600  0.843600  1.0  -0.6412
  O  O1138  1  0.196100  0.564600  0.644380  1.0  -0.6694
  O  O1139  1  0.100600  0.497000  0.651930  1.0  -0.622
  O  O1140  1  0.093100  0.841900  0.840890  1.0  -0.6842
  O  O1141  1  0.989500  0.786200  0.842550  1.0  -0.5759
  O  O1142  1  0.296900  0.471400  0.597440  1.0  -0.6462
  O  O1143  1  0.234000  0.372700  0.587580  1.0  -0.6851
  O  O1144  1  0.636200  0.378900  0.414480  1.0  -0.6498
  O  O1145  1  0.606500  0.264300  0.414760  1.0  -0.5302
  O  O1146  1  0.557800  0.304700  0.590630  1.0  -0.5148
  O  O1147  1  0.613300  0.203800  0.602110  1.0  -0.6412
  O  O1148  1  0.365200  0.994800  0.408120  1.0  -0.6735
  O  O1149  1  0.291200  0.087900  0.412910  1.0  -0.6793
  O  O1150  1  0.335400  0.057800  0.575910  1.0  -0.5728
  O  O1151  1  0.216000  0.054700  0.582650  1.0  -0.6063
  O  O1152  1  0.347800  0.420000  0.406510  1.0  -0.6237
  O  O1153  1  0.233600  0.416300  0.395490  1.0  -0.596
  O  O1154  1  0.203200  0.562000  0.355810  1.0  -0.5963
  O  O1155  1  0.240000  0.461400  0.338290  1.0  -0.5916
  O  O1156  1  0.892000  0.565100  0.152360  1.0  -0.6012
  O  O1157  1  0.874500  0.454900  0.165150  1.0  -0.6887
  O  O1158  1  0.015300  0.412900  0.611170  1.0  -0.8145
  O  O1159  1  0.261400  0.697300  0.620620  1.0  -0.8335
  O  O1160  1  0.431400  0.525600  0.621880  1.0  -0.7757
  O  O1161  1  0.428300  0.547100  0.393830  1.0  -0.7403
  O  O1162  1  0.323300  0.643400  0.373070  1.0  -0.8039
  O  O1163  1  0.639400  0.868100  0.155160  1.0  -0.6334
  O  O1164  1  0.554100  0.786900  0.150850  1.0  -0.5817
  O  O1165  1  0.764000  0.594600  0.353320  1.0  -0.6894
  O  O1166  1  0.677100  0.516400  0.343600  1.0  -0.6398
  O  O1167  1  0.803900  0.935400  0.144380  1.0  -0.6681
  O  O1168  1  0.899400  0.003000  0.151930  1.0  -0.6208
  O  O1169  1  0.906900  0.658100  0.340890  1.0  -0.6839
  O  O1170  1  0.010500  0.713800  0.342550  1.0  -0.5756
  O  O1171  1  0.703100  0.028600  0.097440  1.0  -0.6466
  O  O1172  1  0.766000  0.127300  0.087580  1.0  -0.6863
  O  O1173  1  0.363800  0.121100  0.914480  1.0  -0.6487
  O  O1174  1  0.393500  0.235700  0.914760  1.0  -0.5293
  O  O1175  1  0.442200  0.195300  0.090630  1.0  -0.5121
  O  O1176  1  0.386700  0.296200  0.102110  1.0  -0.6415
  O  O1177  1  0.634800  0.505200  0.908120  1.0  -0.6743
  O  O1178  1  0.708800  0.412100  0.912910  1.0  -0.6805
  O  O1179  1  0.664600  0.442200  0.075910  1.0  -0.5728
  O  O1180  1  0.784000  0.445300  0.082650  1.0  -0.6072
  O  O1181  1  0.652200  0.080000  0.906510  1.0  -0.6236
  O  O1182  1  0.766400  0.083700  0.895490  1.0  -0.596
  O  O1183  1  0.796800  0.938000  0.855810  1.0  -0.5948
  O  O1184  1  0.760000  0.038600  0.838290  1.0  -0.5887
  O  O1185  1  0.108000  0.934900  0.652360  1.0  -0.6017
  O  O1186  1  0.125500  0.045100  0.665150  1.0  -0.6873
  O  O1187  1  0.984700  0.087100  0.111170  1.0  -0.816
  O  O1188  1  0.738600  0.802700  0.120620  1.0  -0.8332
  O  O1189  1  0.568600  0.974400  0.121880  1.0  -0.7749
  O  O1190  1  0.571700  0.952900  0.893830  1.0  -0.7396
  O  O1191  1  0.676700  0.856600  0.873070  1.0  -0.8029
  O  O1192  1  0.139400  0.131900  0.344840  1.0  -0.6333
  O  O1193  1  0.054100  0.213100  0.349150  1.0  -0.5825
  O  O1194  1  0.264000  0.405400  0.146680  1.0  -0.6898
  O  O1195  1  0.177100  0.483600  0.156400  1.0  -0.6405
  O  O1196  1  0.303900  0.064600  0.355620  1.0  -0.6688
  O  O1197  1  0.399400  0.997000  0.348070  1.0  -0.6207
  O  O1198  1  0.406900  0.341900  0.159110  1.0  -0.6843
  O  O1199  1  0.510500  0.286200  0.157450  1.0  -0.5752
  O  O1200  1  0.203100  0.971400  0.402560  1.0  -0.647
  O  O1201  1  0.266000  0.872700  0.412420  1.0  -0.6861
  O  O1202  1  0.863800  0.878900  0.585520  1.0  -0.6491
  O  O1203  1  0.893500  0.764300  0.585240  1.0  -0.5281
  O  O1204  1  0.942200  0.804700  0.409370  1.0  -0.5139
  O  O1205  1  0.886700  0.703800  0.397890  1.0  -0.6396
  O  O1206  1  0.134800  0.494800  0.591880  1.0  -0.6751
  O  O1207  1  0.208800  0.587900  0.587090  1.0  -0.6801
  O  O1208  1  0.164600  0.557800  0.424090  1.0  -0.573
  O  O1209  1  0.284000  0.554700  0.417350  1.0  -0.6082
  O  O1210  1  0.152200  0.920000  0.593490  1.0  -0.6232
  O  O1211  1  0.266400  0.916300  0.604510  1.0  -0.596
  O  O1212  1  0.296800  0.062000  0.644190  1.0  -0.5951
  O  O1213  1  0.260000  0.961400  0.661710  1.0  -0.5912
  O  O1214  1  0.608000  0.065100  0.847640  1.0  -0.6015
  O  O1215  1  0.625500  0.954900  0.834850  1.0  -0.688
  O  O1216  1  0.484700  0.912900  0.388830  1.0  -0.8166
  O  O1217  1  0.238600  0.197300  0.379380  1.0  -0.8338
  O  O1218  1  0.068600  0.025600  0.378120  1.0  -0.7725
  O  O1219  1  0.071700  0.047100  0.606170  1.0  -0.7368
  O  O1220  1  0.176700  0.143400  0.626930  1.0  -0.8034
  O  O1221  1  0.139400  0.631900  0.155160  1.0  -0.6335
  O  O1222  1  0.054100  0.713100  0.150850  1.0  -0.5803
  O  O1223  1  0.264000  0.905400  0.353320  1.0  -0.689
  O  O1224  1  0.177100  0.983600  0.343600  1.0  -0.6405
  O  O1225  1  0.303900  0.564600  0.144380  1.0  -0.6684
  O  O1226  1  0.399400  0.497000  0.151930  1.0  -0.6205
  O  O1227  1  0.406900  0.841900  0.340890  1.0  -0.684
  O  O1228  1  0.510500  0.786200  0.342550  1.0  -0.5742
  O  O1229  1  0.203100  0.471400  0.097440  1.0  -0.6467
  O  O1230  1  0.266000  0.372700  0.087580  1.0  -0.6851
  O  O1231  1  0.863800  0.378900  0.914480  1.0  -0.6493
  O  O1232  1  0.893500  0.264300  0.914760  1.0  -0.5295
  O  O1233  1  0.942200  0.304700  0.090630  1.0  -0.5143
  O  O1234  1  0.886700  0.203800  0.102110  1.0  -0.6413
  O  O1235  1  0.134800  0.994800  0.908120  1.0  -0.674
  O  O1236  1  0.208800  0.087900  0.912910  1.0  -0.6799
  O  O1237  1  0.164600  0.057800  0.075910  1.0  -0.5724
  O  O1238  1  0.284000  0.054700  0.082650  1.0  -0.6075
  O  O1239  1  0.152200  0.420000  0.906510  1.0  -0.6238
  O  O1240  1  0.266400  0.416300  0.895490  1.0  -0.5959
  O  O1241  1  0.296800  0.562000  0.855810  1.0  -0.5968
  O  O1242  1  0.260000  0.461400  0.838290  1.0  -0.5911
  O  O1243  1  0.608000  0.565100  0.652360  1.0  -0.6007
  O  O1244  1  0.625500  0.454900  0.665150  1.0  -0.6872
  O  O1245  1  0.484700  0.412900  0.111170  1.0  -0.8162
  O  O1246  1  0.238600  0.697300  0.120620  1.0  -0.8337
  O  O1247  1  0.068600  0.525600  0.121880  1.0  -0.7751
  O  O1248  1  0.071700  0.547100  0.893830  1.0  -0.7395
  O  O1249  1  0.176700  0.643400  0.873070  1.0  -0.8033
  O  O1250  1  0.639400  0.368100  0.344840  1.0  -0.6327
  O  O1251  1  0.554100  0.286900  0.349150  1.0  -0.5807
  O  O1252  1  0.764000  0.094600  0.146680  1.0  -0.6893
  O  O1253  1  0.677100  0.016400  0.156400  1.0  -0.6398
  O  O1254  1  0.803900  0.435400  0.355620  1.0  -0.6682
  O  O1255  1  0.899400  0.503000  0.348070  1.0  -0.621
  O  O1256  1  0.906900  0.158100  0.159110  1.0  -0.6843
  O  O1257  1  0.010500  0.213800  0.157450  1.0  -0.5744
  O  O1258  1  0.703100  0.528600  0.402560  1.0  -0.6472
  O  O1259  1  0.766000  0.627300  0.412420  1.0  -0.6869
  O  O1260  1  0.363800  0.621100  0.585520  1.0  -0.649
  O  O1261  1  0.393500  0.735700  0.585240  1.0  -0.5276
  O  O1262  1  0.442200  0.695300  0.409370  1.0  -0.5159
  O  O1263  1  0.386700  0.796200  0.397890  1.0  -0.6396
  O  O1264  1  0.634800  0.005200  0.591880  1.0  -0.6747
  O  O1265  1  0.708800  0.912100  0.587090  1.0  -0.6806
  O  O1266  1  0.664600  0.942200  0.424090  1.0  -0.5729
  O  O1267  1  0.784000  0.945300  0.417350  1.0  -0.6078
  O  O1268  1  0.652200  0.580000  0.593490  1.0  -0.6232
  O  O1269  1  0.766400  0.583700  0.604510  1.0  -0.596
  O  O1270  1  0.796800  0.438000  0.644190  1.0  -0.5943
  O  O1271  1  0.760000  0.538600  0.661710  1.0  -0.5889
  O  O1272  1  0.108000  0.434900  0.847640  1.0  -0.6009
  O  O1273  1  0.125500  0.545100  0.834850  1.0  -0.6885
  O  O1274  1  0.984700  0.587100  0.388830  1.0  -0.8164
  O  O1275  1  0.738600  0.302700  0.379380  1.0  -0.8332
  O  O1276  1  0.568600  0.474400  0.378120  1.0  -0.7722
  O  O1277  1  0.571700  0.452900  0.606170  1.0  -0.7375
  O  O1278  1  0.676700  0.356600  0.626930  1.0  -0.8029
  O  O1279  1  0.360600  0.131900  0.844840  1.0  -0.6321
  O  O1280  1  0.445900  0.213100  0.849150  1.0  -0.5822
  O  O1281  1  0.236000  0.405400  0.646680  1.0  -0.6897
  O  O1282  1  0.322900  0.483600  0.656400  1.0  -0.6411
  O  O1283  1  0.196100  0.064600  0.855620  1.0  -0.6695
  O  O1284  1  0.100600  0.997000  0.848070  1.0  -0.6221
  O  O1285  1  0.093100  0.341900  0.659110  1.0  -0.6844
  O  O1286  1  0.989500  0.286200  0.657450  1.0  -0.5766
  O  O1287  1  0.296900  0.971400  0.902560  1.0  -0.6466
  O  O1288  1  0.234000  0.872700  0.912420  1.0  -0.6857
  O  O1289  1  0.636200  0.878900  0.085520  1.0  -0.6499
  O  O1290  1  0.606500  0.764300  0.085240  1.0  -0.5288
  O  O1291  1  0.557800  0.804700  0.909370  1.0  -0.5164
  O  O1292  1  0.613300  0.703800  0.897890  1.0  -0.64
  O  O1293  1  0.365200  0.494800  0.091880  1.0  -0.6746
  O  O1294  1  0.291200  0.587900  0.087090  1.0  -0.6796
  O  O1295  1  0.335400  0.557800  0.924090  1.0  -0.5731
  O  O1296  1  0.216000  0.554700  0.917350  1.0  -0.6072
  O  O1297  1  0.347800  0.920000  0.093490  1.0  -0.6238
  O  O1298  1  0.233600  0.916300  0.104510  1.0  -0.5968
  O  O1299  1  0.203200  0.062000  0.144190  1.0  -0.5953
  O  O1300  1  0.240000  0.961400  0.161710  1.0  -0.5918
  O  O1301  1  0.892000  0.065100  0.347640  1.0  -0.6016
  O  O1302  1  0.874500  0.954900  0.334850  1.0  -0.6886
  O  O1303  1  0.015300  0.912900  0.888830  1.0  -0.8144
  O  O1304  1  0.261400  0.197300  0.879380  1.0  -0.8335
  O  O1305  1  0.431400  0.025600  0.878120  1.0  -0.775
  O  O1306  1  0.428300  0.047100  0.106170  1.0  -0.7392
  O  O1307  1  0.323300  0.143400  0.126930  1.0  -0.8033
  O  O1308  1  0.860600  0.868100  0.655160  1.0  -0.6322
  O  O1309  1  0.945900  0.786900  0.650850  1.0  -0.5807
  O  O1310  1  0.736000  0.594600  0.853320  1.0  -0.6892
  O  O1311  1  0.822900  0.516400  0.843600  1.0  -0.6403
  O  O1312  1  0.696100  0.935400  0.644380  1.0  -0.6689
  O  O1313  1  0.600600  0.003000  0.651930  1.0  -0.6219
  O  O1314  1  0.593100  0.658100  0.840890  1.0  -0.6841
  O  O1315  1  0.489500  0.713800  0.842550  1.0  -0.5762
  O  O1316  1  0.796900  0.028600  0.597440  1.0  -0.6462
  O  O1317  1  0.734000  0.127300  0.587580  1.0  -0.6856
  O  O1318  1  0.136200  0.121100  0.414480  1.0  -0.6492
  O  O1319  1  0.106500  0.235700  0.414760  1.0  -0.5298
  O  O1320  1  0.057800  0.195300  0.590630  1.0  -0.5164
  O  O1321  1  0.113300  0.296200  0.602110  1.0  -0.641
  O  O1322  1  0.865200  0.505200  0.408120  1.0  -0.6739
  O  O1323  1  0.791200  0.412100  0.412910  1.0  -0.6801
  O  O1324  1  0.835400  0.442200  0.575910  1.0  -0.573
  O  O1325  1  0.716000  0.445300  0.582650  1.0  -0.606
  O  O1326  1  0.847800  0.080000  0.406510  1.0  -0.6239
  O  O1327  1  0.733600  0.083700  0.395490  1.0  -0.5961
  O  O1328  1  0.703200  0.938000  0.355810  1.0  -0.5943
  O  O1329  1  0.740000  0.038600  0.338290  1.0  -0.5906
  O  O1330  1  0.392000  0.934900  0.152360  1.0  -0.6018
  O  O1331  1  0.374500  0.045100  0.165150  1.0  -0.6897
  O  O1332  1  0.515300  0.087100  0.611170  1.0  -0.814
  O  O1333  1  0.761400  0.802700  0.620620  1.0  -0.8335
  O  O1334  1  0.931400  0.974400  0.621880  1.0  -0.7772
  O  O1335  1  0.928300  0.952900  0.393830  1.0  -0.7401
  O  O1336  1  0.823300  0.856600  0.373070  1.0  -0.8034
  O  O1337  1  0.775700  0.539800  0.009100  1.0  -0.5712
  O  O1338  1  0.751900  0.439200  0.985430  1.0  -0.5987
  O  O1339  1  0.710600  0.547400  0.969710  1.0  -0.5838
  O  O1340  1  0.659400  0.494400  0.007910  1.0  -0.5889
  O  O1341  1  0.808100  0.423200  0.252900  1.0  -0.7407
  O  O1342  1  0.719100  0.465600  0.259800  1.0  -0.5825
  O  O1343  1  0.731500  0.514300  0.242400  1.0  -0.4828
  O  O1344  1  0.852600  0.536400  0.259600  1.0  -0.5883
  O  O1345  1  0.275700  0.460200  0.490900  1.0  -0.5703
  O  O1346  1  0.251900  0.560800  0.514570  1.0  -0.5987
  O  O1347  1  0.210600  0.452600  0.530290  1.0  -0.5846
  O  O1348  1  0.159400  0.505600  0.492090  1.0  -0.5893
  O  O1349  1  0.308100  0.576800  0.247100  1.0  -0.7401
  O  O1350  1  0.219100  0.534400  0.240200  1.0  -0.5821
  O  O1351  1  0.231500  0.485700  0.257600  1.0  -0.4833
  O  O1352  1  0.352600  0.463600  0.240400  1.0  -0.589
  O  O1353  1  0.724300  0.039800  0.990900  1.0  -0.5713
  O  O1354  1  0.748100  0.939200  0.014570  1.0  -0.599
  O  O1355  1  0.789400  0.047400  0.030290  1.0  -0.5847
  O  O1356  1  0.840600  0.994400  0.992090  1.0  -0.5895
  O  O1357  1  0.691900  0.923200  0.747100  1.0  -0.7411
  O  O1358  1  0.780900  0.965600  0.740200  1.0  -0.5838
  O  O1359  1  0.768500  0.014300  0.757600  1.0  -0.4842
  O  O1360  1  0.647400  0.036400  0.740400  1.0  -0.5879
  O  O1361  1  0.224300  0.960200  0.509100  1.0  -0.5707
  O  O1362  1  0.248100  0.060800  0.485430  1.0  -0.6009
  O  O1363  1  0.289400  0.952600  0.469710  1.0  -0.5843
  O  O1364  1  0.340600  0.005600  0.507910  1.0  -0.5901
  O  O1365  1  0.191900  0.076800  0.752900  1.0  -0.7401
  O  O1366  1  0.280900  0.034400  0.759800  1.0  -0.5842
  O  O1367  1  0.268500  0.985700  0.742400  1.0  -0.4837
  O  O1368  1  0.147400  0.963600  0.759600  1.0  -0.5886
  O  O1369  1  0.224300  0.460200  0.990900  1.0  -0.5706
  O  O1370  1  0.248100  0.560800  0.014570  1.0  -0.5998
  O  O1371  1  0.289400  0.452600  0.030290  1.0  -0.5847
  O  O1372  1  0.340600  0.505600  0.992090  1.0  -0.5901
  O  O1373  1  0.191900  0.576800  0.747100  1.0  -0.7403
  O  O1374  1  0.280900  0.534400  0.740200  1.0  -0.5835
  O  O1375  1  0.268500  0.485700  0.757600  1.0  -0.4836
  O  O1376  1  0.147400  0.463600  0.740400  1.0  -0.5888
  O  O1377  1  0.724300  0.539800  0.509100  1.0  -0.5715
  O  O1378  1  0.748100  0.439200  0.485430  1.0  -0.5992
  O  O1379  1  0.789400  0.547400  0.469710  1.0  -0.584
  O  O1380  1  0.840600  0.494400  0.507910  1.0  -0.5897
  O  O1381  1  0.691900  0.423200  0.752900  1.0  -0.7407
  O  O1382  1  0.780900  0.465600  0.759800  1.0  -0.5839
  O  O1383  1  0.768500  0.514300  0.742400  1.0  -0.4841
  O  O1384  1  0.647400  0.536400  0.759600  1.0  -0.5877
  O  O1385  1  0.275700  0.960200  0.009100  1.0  -0.5706
  O  O1386  1  0.251900  0.060800  0.985430  1.0  -0.5999
  O  O1387  1  0.210600  0.952600  0.969710  1.0  -0.5842
  O  O1388  1  0.159400  0.005600  0.007910  1.0  -0.5892
  O  O1389  1  0.308100  0.076800  0.252900  1.0  -0.7399
  O  O1390  1  0.219100  0.034400  0.259800  1.0  -0.583
  O  O1391  1  0.231500  0.985700  0.242400  1.0  -0.4828
  O  O1392  1  0.352600  0.963600  0.259600  1.0  -0.5889
  O  O1393  1  0.775700  0.039800  0.490900  1.0  -0.5708
  O  O1394  1  0.751900  0.939200  0.514570  1.0  -0.5985
  O  O1395  1  0.710600  0.047400  0.530290  1.0  -0.5845
  O  O1396  1  0.659400  0.994400  0.492090  1.0  -0.5888
  O  O1397  1  0.808100  0.923200  0.247100  1.0  -0.7412
  O  O1398  1  0.719100  0.965600  0.240200  1.0  -0.5825
  O  O1399  1  0.731500  0.014300  0.257600  1.0  -0.4838
  O  O1400  1  0.852600  0.036400  0.240400  1.0  -0.5884
